MODEL 1
REMARK VINA RESULT:    -5.323      0.000      0.000
REMARK INTER + INTRA:          -9.031
REMARK INTER:                  -8.435
REMARK INTRA:                  -0.596
REMARK UNBOUND:                -0.596
REMARK SMILES CCCCCCCCCCCC(=O)[O-]
REMARK SMILES IDX 7 1 8 2 9 3 10 4 11 5 12 6 13 7 14 8 6 9 5 10 4 11 3 12 2 13
REMARK SMILES IDX 1 14
REMARK H PARENT
REMARK Flexibility Score: inf
ROOT
ATOM      1  C   UNL     1      20.522  11.771  42.372  1.00  0.00     0.000 C 
ENDROOT
BRANCH   1   2
ATOM      2  C   UNL     1      21.293  12.951  42.986  1.00  0.00     0.000 C 
BRANCH   2   3
ATOM      3  C   UNL     1      20.336  13.921  43.695  1.00  0.00     0.000 C 
BRANCH   3   4
ATOM      4  C   UNL     1      19.497  14.750  42.711  1.00  0.00     0.006 C 
BRANCH   4   5
ATOM      5  C   UNL     1      19.772  16.256  42.822  1.00  0.00     0.053 C 
BRANCH   5   6
ATOM      6  C   UNL     1      21.030  16.612  42.095  1.00  0.00     0.041 C 
ATOM      7  O   UNL     1      21.925  17.286  42.668  1.00  0.00    -0.550 OA
ATOM      8  O   UNL     1      21.235  16.157  40.798  1.00  0.00    -0.550 OA
ENDBRANCH   5   6
ENDBRANCH   4   5
ENDBRANCH   3   4
ENDBRANCH   2   3
ENDBRANCH   1   2
BRANCH   1   9
ATOM      9  C   UNL     1      20.983  10.413  42.923  1.00  0.00     0.000 C 
BRANCH   9  10
ATOM     10  C   UNL     1      20.703   9.252  41.951  1.00  0.00    -0.000 C 
BRANCH  10  11
ATOM     11  C   UNL     1      20.780   9.682  40.477  1.00  0.00    -0.000 C 
BRANCH  11  12
ATOM     12  C   UNL     1      19.914   8.802  39.560  1.00  0.00    -0.000 C 
BRANCH  12  13
ATOM     13  C   UNL     1      18.449   9.265  39.513  1.00  0.00    -0.003 C 
ATOM     14  C   UNL     1      17.458   8.117  39.706  1.00  0.00     0.004 C 
ENDBRANCH  12  13
ENDBRANCH  11  12
ENDBRANCH  10  11
ENDBRANCH   9  10
ENDBRANCH   1   9
TORSDOF 10
ENDMDL
MODEL 2
REMARK VINA RESULT:    -5.303     10.532     11.868
REMARK INTER + INTRA:          -8.998
REMARK INTER:                  -8.543
REMARK INTRA:                  -0.455
REMARK UNBOUND:                -0.596
REMARK SMILES CCCCCCCCCCCC(=O)[O-]
REMARK SMILES IDX 7 1 8 2 9 3 10 4 11 5 12 6 13 7 14 8 6 9 5 10 4 11 3 12 2 13
REMARK SMILES IDX 1 14
REMARK H PARENT
REMARK Flexibility Score: inf
ROOT
ATOM      1  C   UNL     1       8.456  11.726  41.445  1.00  0.00     0.000 C 
ENDROOT
BRANCH   1   2
ATOM      2  C   UNL     1       8.654  13.080  42.145  1.00  0.00     0.000 C 
BRANCH   2   3
ATOM      3  C   UNL     1       9.383  14.070  41.224  1.00  0.00     0.000 C 
BRANCH   3   4
ATOM      4  C   UNL     1      10.135  15.160  42.004  1.00  0.00     0.006 C 
BRANCH   4   5
ATOM      5  C   UNL     1       9.599  16.569  41.717  1.00  0.00     0.053 C 
BRANCH   5   6
ATOM      6  C   UNL     1       8.288  16.779  42.407  1.00  0.00     0.041 C 
ATOM      7  O   UNL     1       8.136  16.423  43.604  1.00  0.00    -0.550 OA
ATOM      8  O   UNL     1       7.247  17.413  41.740  1.00  0.00    -0.550 OA
ENDBRANCH   5   6
ENDBRANCH   4   5
ENDBRANCH   3   4
ENDBRANCH   2   3
ENDBRANCH   1   2
BRANCH   1   9
ATOM      9  C   UNL     1       7.684  10.720  42.313  1.00  0.00     0.000 C 
BRANCH   9  10
ATOM     10  C   UNL     1       8.612   9.726  43.036  1.00  0.00    -0.000 C 
BRANCH  10  11
ATOM     11  C   UNL     1       8.457   9.774  44.565  1.00  0.00    -0.000 C 
BRANCH  11  12
ATOM     12  C   UNL     1       9.422   8.817  45.286  1.00  0.00    -0.000 C 
BRANCH  12  13
ATOM     13  C   UNL     1      10.833   9.408  45.436  1.00  0.00    -0.003 C 
ATOM     14  C   UNL     1      11.923   8.337  45.470  1.00  0.00     0.004 C 
ENDBRANCH  12  13
ENDBRANCH  11  12
ENDBRANCH  10  11
ENDBRANCH   9  10
ENDBRANCH   1   9
TORSDOF 10
ENDMDL
MODEL 3
REMARK VINA RESULT:    -5.166     10.233     11.748
REMARK INTER + INTRA:          -8.782
REMARK INTER:                  -8.040
REMARK INTRA:                  -0.742
REMARK UNBOUND:                -0.596
REMARK SMILES CCCCCCCCCCCC(=O)[O-]
REMARK SMILES IDX 7 1 8 2 9 3 10 4 11 5 12 6 13 7 14 8 6 9 5 10 4 11 3 12 2 13
REMARK SMILES IDX 1 14
REMARK H PARENT
REMARK Flexibility Score: inf
ROOT
ATOM      1  C   UNL     1       7.328  11.394  42.610  1.00  0.00     0.000 C 
ENDROOT
BRANCH   1   2
ATOM      2  C   UNL     1       8.709  11.917  42.184  1.00  0.00     0.000 C 
BRANCH   2   3
ATOM      3  C   UNL     1       8.688  12.391  40.723  1.00  0.00     0.000 C 
BRANCH   3   4
ATOM      4  C   UNL     1       8.993  13.891  40.583  1.00  0.00     0.006 C 
BRANCH   4   5
ATOM      5  C   UNL     1       9.832  14.435  41.747  1.00  0.00     0.053 C 
BRANCH   5   6
ATOM      6  C   UNL     1       9.245  15.711  42.262  1.00  0.00     0.041 C 
ATOM      7  O   UNL     1       8.304  15.685  43.097  1.00  0.00    -0.550 OA
ATOM      8  O   UNL     1       9.771  16.931  41.855  1.00  0.00    -0.550 OA
ENDBRANCH   5   6
ENDBRANCH   4   5
ENDBRANCH   3   4
ENDBRANCH   2   3
ENDBRANCH   1   2
BRANCH   1   9
ATOM      9  C   UNL     1       7.365   9.923  43.055  1.00  0.00     0.000 C 
BRANCH   9  10
ATOM     10  C   UNL     1       8.648   9.200  42.606  1.00  0.00    -0.000 C 
BRANCH  10  11
ATOM     11  C   UNL     1       9.316   8.415  43.745  1.00  0.00    -0.000 C 
BRANCH  11  12
ATOM     12  C   UNL     1       9.437   9.239  45.038  1.00  0.00    -0.000 C 
BRANCH  12  13
ATOM     13  C   UNL     1      10.895   9.582  45.383  1.00  0.00    -0.003 C 
ATOM     14  C   UNL     1      11.807   8.355  45.389  1.00  0.00     0.004 C 
ENDBRANCH  12  13
ENDBRANCH  11  12
ENDBRANCH  10  11
ENDBRANCH   9  10
ENDBRANCH   1   9
TORSDOF 10
ENDMDL
MODEL 4
REMARK VINA RESULT:    -5.138      0.978      1.210
REMARK INTER + INTRA:          -8.737
REMARK INTER:                  -8.172
REMARK INTRA:                  -0.565
REMARK UNBOUND:                -0.596
REMARK SMILES CCCCCCCCCCCC(=O)[O-]
REMARK SMILES IDX 7 1 8 2 9 3 10 4 11 5 12 6 13 7 14 8 6 9 5 10 4 11 3 12 2 13
REMARK SMILES IDX 1 14
REMARK H PARENT
REMARK Flexibility Score: inf
ROOT
ATOM      1  C   UNL     1      22.039  11.086  42.323  1.00  0.00     0.000 C 
ENDROOT
BRANCH   1   2
ATOM      2  C   UNL     1      21.883  12.551  42.759  1.00  0.00     0.000 C 
BRANCH   2   3
ATOM      3  C   UNL     1      20.608  12.741  43.594  1.00  0.00     0.000 C 
BRANCH   3   4
ATOM      4  C   UNL     1      20.262  14.222  43.816  1.00  0.00     0.006 C 
BRANCH   4   5
ATOM      5  C   UNL     1      19.430  14.813  42.670  1.00  0.00     0.053 C 
BRANCH   5   6
ATOM      6  C   UNL     1      20.158  15.954  42.033  1.00  0.00     0.041 C 
ATOM      7  O   UNL     1      19.792  17.140  42.247  1.00  0.00    -0.550 OA
ATOM      8  O   UNL     1      21.272  15.710  41.239  1.00  0.00    -0.550 OA
ENDBRANCH   5   6
ENDBRANCH   4   5
ENDBRANCH   3   4
ENDBRANCH   2   3
ENDBRANCH   1   2
BRANCH   1   9
ATOM      9  C   UNL     1      20.698  10.434  41.950  1.00  0.00     0.000 C 
BRANCH   9  10
ATOM     10  C   UNL     1      20.649   8.935  42.300  1.00  0.00    -0.000 C 
BRANCH  10  11
ATOM     11  C   UNL     1      20.082   8.078  41.157  1.00  0.00    -0.000 C 
BRANCH  11  12
ATOM     12  C   UNL     1      19.919   8.870  39.849  1.00  0.00    -0.000 C 
BRANCH  12  13
ATOM     13  C   UNL     1      18.454   9.227  39.556  1.00  0.00    -0.003 C 
ATOM     14  C   UNL     1      17.574   7.995  39.345  1.00  0.00     0.004 C 
ENDBRANCH  12  13
ENDBRANCH  11  12
ENDBRANCH  10  11
ENDBRANCH   9  10
ENDBRANCH   1   9
TORSDOF 10
ENDMDL
MODEL 5
REMARK VINA RESULT:    -5.078      3.568      4.431
REMARK INTER + INTRA:          -8.643
REMARK INTER:                  -7.794
REMARK INTRA:                  -0.848
REMARK UNBOUND:                -0.596
REMARK SMILES CCCCCCCCCCCC(=O)[O-]
REMARK SMILES IDX 7 1 8 2 9 3 10 4 11 5 12 6 13 7 14 8 6 9 5 10 4 11 3 12 2 13
REMARK SMILES IDX 1 14
REMARK H PARENT
REMARK Flexibility Score: inf
ROOT
ATOM      1  C   UNL     1      20.283   7.952  42.875  1.00  0.00     0.000 C 
ENDROOT
BRANCH   1   2
ATOM      2  C   UNL     1      20.237   8.109  44.403  1.00  0.00     0.000 C 
BRANCH   2   3
ATOM      3  C   UNL     1      21.605   8.541  44.951  1.00  0.00     0.000 C 
BRANCH   3   4
ATOM      4  C   UNL     1      21.537   9.853  45.747  1.00  0.00     0.006 C 
BRANCH   4   5
ATOM      5  C   UNL     1      20.098  10.269  46.079  1.00  0.00     0.053 C 
BRANCH   5   6
ATOM      6  C   UNL     1      19.817  11.642  45.555  1.00  0.00     0.041 C 
ATOM      7  O   UNL     1      19.235  12.491  46.280  1.00  0.00    -0.550 OA
ATOM      8  O   UNL     1      20.242  11.999  44.282  1.00  0.00    -0.550 OA
ENDBRANCH   5   6
ENDBRANCH   4   5
ENDBRANCH   3   4
ENDBRANCH   2   3
ENDBRANCH   1   2
BRANCH   1   9
ATOM      9  C   UNL     1      20.868   9.187  42.172  1.00  0.00     0.000 C 
BRANCH   9  10
ATOM     10  C   UNL     1      21.671   8.825  40.909  1.00  0.00    -0.000 C 
BRANCH  10  11
ATOM     11  C   UNL     1      20.982   9.289  39.615  1.00  0.00    -0.000 C 
BRANCH  11  12
ATOM     12  C   UNL     1      19.762   8.426  39.253  1.00  0.00    -0.000 C 
BRANCH  12  13
ATOM     13  C   UNL     1      18.431   9.139  39.539  1.00  0.00    -0.003 C 
ATOM     14  C   UNL     1      17.281   8.167  39.799  1.00  0.00     0.004 C 
ENDBRANCH  12  13
ENDBRANCH  11  12
ENDBRANCH  10  11
ENDBRANCH   9  10
ENDBRANCH   1   9
TORSDOF 10
ENDMDL
MODEL 6
REMARK VINA RESULT:    -4.929      1.970      3.465
REMARK INTER + INTRA:          -8.406
REMARK INTER:                  -7.342
REMARK INTRA:                  -1.064
REMARK UNBOUND:                -0.596
REMARK SMILES CCCCCCCCCCCC(=O)[O-]
REMARK SMILES IDX 7 1 8 2 9 3 10 4 11 5 12 6 13 7 14 8 6 9 5 10 4 11 3 12 2 13
REMARK SMILES IDX 1 14
REMARK H PARENT
REMARK Flexibility Score: inf
ROOT
ATOM      1  C   UNL     1      20.672  11.743  42.365  1.00  0.00     0.000 C 
ENDROOT
BRANCH   1   2
ATOM      2  C   UNL     1      21.638  12.826  42.872  1.00  0.00     0.000 C 
BRANCH   2   3
ATOM      3  C   UNL     1      20.874  13.948  43.591  1.00  0.00     0.000 C 
BRANCH   3   4
ATOM      4  C   UNL     1      19.694  14.483  42.766  1.00  0.00     0.006 C 
BRANCH   4   5
ATOM      5  C   UNL     1      19.687  16.014  42.666  1.00  0.00     0.053 C 
BRANCH   5   6
ATOM      6  C   UNL     1      20.933  16.498  41.995  1.00  0.00     0.041 C 
ATOM      7  O   UNL     1      21.148  16.230  40.784  1.00  0.00    -0.550 OA
ATOM      8  O   UNL     1      21.836  17.289  42.696  1.00  0.00    -0.550 OA
ENDBRANCH   5   6
ENDBRANCH   4   5
ENDBRANCH   3   4
ENDBRANCH   2   3
ENDBRANCH   1   2
BRANCH   1   9
ATOM      9  C   UNL     1      21.385  10.422  42.036  1.00  0.00     0.000 C 
BRANCH   9  10
ATOM     10  C   UNL     1      20.774   9.218  42.776  1.00  0.00    -0.000 C 
BRANCH  10  11
ATOM     11  C   UNL     1      21.202   9.148  44.250  1.00  0.00    -0.000 C 
BRANCH  11  12
ATOM     12  C   UNL     1      20.044   9.449  45.217  1.00  0.00    -0.000 C 
BRANCH  12  13
ATOM     13  C   UNL     1      20.371  10.595  46.187  1.00  0.00    -0.003 C 
ATOM     14  C   UNL     1      19.329  11.714  46.156  1.00  0.00     0.004 C 
ENDBRANCH  12  13
ENDBRANCH  11  12
ENDBRANCH  10  11
ENDBRANCH   9  10
ENDBRANCH   1   9
TORSDOF 10
ENDMDL
MODEL 7
REMARK VINA RESULT:    -4.784     10.786     12.697
REMARK INTER + INTRA:          -8.177
REMARK INTER:                  -7.433
REMARK INTRA:                  -0.745
REMARK UNBOUND:                -0.596
REMARK SMILES CCCCCCCCCCCC(=O)[O-]
REMARK SMILES IDX 7 1 8 2 9 3 10 4 11 5 12 6 13 7 14 8 6 9 5 10 4 11 3 12 2 13
REMARK SMILES IDX 1 14
REMARK H PARENT
REMARK Flexibility Score: inf
ROOT
ATOM      1  C   UNL     1       8.390  11.019  42.919  1.00  0.00     0.000 C 
ENDROOT
BRANCH   1   2
ATOM      2  C   UNL     1       8.584   9.826  41.970  1.00  0.00     0.000 C 
BRANCH   2   3
ATOM      3  C   UNL     1       8.121   8.519  42.631  1.00  0.00     0.000 C 
BRANCH   3   4
ATOM      4  C   UNL     1       8.709   8.328  44.038  1.00  0.00     0.006 C 
BRANCH   4   5
ATOM      5  C   UNL     1      10.194   7.946  44.012  1.00  0.00     0.053 C 
BRANCH   5   6
ATOM      6  C   UNL     1      10.963   8.776  44.991  1.00  0.00     0.041 C 
ATOM      7  O   UNL     1      10.488   9.862  45.413  1.00  0.00    -0.550 OA
ATOM      8  O   UNL     1      12.185   8.325  45.474  1.00  0.00    -0.550 OA
ENDBRANCH   5   6
ENDBRANCH   4   5
ENDBRANCH   3   4
ENDBRANCH   2   3
ENDBRANCH   1   2
BRANCH   1   9
ATOM      9  C   UNL     1       8.137  12.337  42.169  1.00  0.00     0.000 C 
BRANCH   9  10
ATOM     10  C   UNL     1       8.725  12.330  40.746  1.00  0.00    -0.000 C 
BRANCH  10  11
ATOM     11  C   UNL     1       9.311  13.691  40.340  1.00  0.00    -0.000 C 
BRANCH  11  12
ATOM     12  C   UNL     1       9.745  14.533  41.552  1.00  0.00    -0.000 C 
BRANCH  12  13
ATOM     13  C   UNL     1       9.083  15.920  41.572  1.00  0.00    -0.003 C 
ATOM     14  C   UNL     1       8.403  16.234  42.905  1.00  0.00     0.004 C 
ENDBRANCH  12  13
ENDBRANCH  11  12
ENDBRANCH  10  11
ENDBRANCH   9  10
ENDBRANCH   1   9
TORSDOF 10
ENDMDL
MODEL 8
REMARK VINA RESULT:    -4.726     11.218     11.943
REMARK INTER + INTRA:          -8.086
REMARK INTER:                  -7.033
REMARK INTRA:                  -1.053
REMARK UNBOUND:                -0.596
REMARK SMILES CCCCCCCCCCCC(=O)[O-]
REMARK SMILES IDX 7 1 8 2 9 3 10 4 11 5 12 6 13 7 14 8 6 9 5 10 4 11 3 12 2 13
REMARK SMILES IDX 1 14
REMARK H PARENT
REMARK Flexibility Score: inf
ROOT
ATOM      1  C   UNL     1       7.841  11.352  42.457  1.00  0.00     0.000 C 
ENDROOT
BRANCH   1   2
ATOM      2  C   UNL     1       8.761  12.551  42.179  1.00  0.00     0.000 C 
BRANCH   2   3
ATOM      3  C   UNL     1       8.149  13.475  41.115  1.00  0.00     0.000 C 
BRANCH   3   4
ATOM      4  C   UNL     1       9.056  14.669  40.777  1.00  0.00     0.006 C 
BRANCH   4   5
ATOM      5  C   UNL     1       9.489  15.454  42.022  1.00  0.00     0.053 C 
BRANCH   5   6
ATOM      6  C   UNL     1       8.397  16.376  42.464  1.00  0.00     0.041 C 
ATOM      7  O   UNL     1       8.142  16.516  43.689  1.00  0.00    -0.550 OA
ATOM      8  O   UNL     1       7.692  17.118  41.524  1.00  0.00    -0.550 OA
ENDBRANCH   5   6
ENDBRANCH   4   5
ENDBRANCH   3   4
ENDBRANCH   2   3
ENDBRANCH   1   2
BRANCH   1   9
ATOM      9  C   UNL     1       8.617  10.034  42.612  1.00  0.00     0.000 C 
BRANCH   9  10
ATOM     10  C   UNL     1       7.876   8.833  41.998  1.00  0.00    -0.000 C 
BRANCH  10  11
ATOM     11  C   UNL     1       7.733   8.942  40.471  1.00  0.00    -0.000 C 
BRANCH  11  12
ATOM     12  C   UNL     1       9.078   9.194  39.769  1.00  0.00    -0.000 C 
BRANCH  12  13
ATOM     13  C   UNL     1       8.951  10.169  38.588  1.00  0.00    -0.003 C 
ATOM     14  C   UNL     1       9.901  11.362  38.698  1.00  0.00     0.004 C 
ENDBRANCH  12  13
ENDBRANCH  11  12
ENDBRANCH  10  11
ENDBRANCH   9  10
ENDBRANCH   1   9
TORSDOF 10
ENDMDL
MODEL 9
REMARK VINA RESULT:    -4.661      3.710      6.908
REMARK INTER + INTRA:          -7.982
REMARK INTER:                  -7.449
REMARK INTRA:                  -0.533
REMARK UNBOUND:                -0.596
REMARK SMILES CCCCCCCCCCCC(=O)[O-]
REMARK SMILES IDX 7 1 8 2 9 3 10 4 11 5 12 6 13 7 14 8 6 9 5 10 4 11 3 12 2 13
REMARK SMILES IDX 1 14
REMARK H PARENT
REMARK Flexibility Score: inf
ROOT
ATOM      1  C   UNL     1      20.193  12.827  44.322  1.00  0.00     0.000 C 
ENDROOT
BRANCH   1   2
ATOM      2  C   UNL     1      19.523  12.739  45.702  1.00  0.00     0.000 C 
BRANCH   2   3
ATOM      3  C   UNL     1      19.497  11.289  46.208  1.00  0.00     0.000 C 
BRANCH   3   4
ATOM      4  C   UNL     1      20.676  10.457  45.679  1.00  0.00     0.006 C 
BRANCH   4   5
ATOM      5  C   UNL     1      20.228   9.142  45.029  1.00  0.00     0.053 C 
BRANCH   5   6
ATOM      6  C   UNL     1      20.771   9.035  43.639  1.00  0.00     0.041 C 
ATOM      7  O   UNL     1      20.270   8.218  42.823  1.00  0.00    -0.550 OA
ATOM      8  O   UNL     1      21.801   9.873  43.230  1.00  0.00    -0.550 OA
ENDBRANCH   5   6
ENDBRANCH   4   5
ENDBRANCH   3   4
ENDBRANCH   2   3
ENDBRANCH   1   2
BRANCH   1   9
ATOM      9  C   UNL     1      20.429  14.277  43.870  1.00  0.00     0.000 C 
BRANCH   9  10
ATOM     10  C   UNL     1      19.345  14.778  42.899  1.00  0.00    -0.000 C 
BRANCH  10  11
ATOM     11  C   UNL     1      19.610  16.208  42.401  1.00  0.00    -0.000 C 
BRANCH  11  12
ATOM     12  C   UNL     1      20.937  16.329  41.632  1.00  0.00    -0.000 C 
BRANCH  12  13
ATOM     13  C   UNL     1      21.941  17.256  42.335  1.00  0.00    -0.003 C 
ATOM     14  C   UNL     1      23.349  17.160  41.747  1.00  0.00     0.004 C 
ENDBRANCH  12  13
ENDBRANCH  11  12
ENDBRANCH  10  11
ENDBRANCH   9  10
ENDBRANCH   1   9
TORSDOF 10
ENDMDL
