MODEL 1
REMARK VINA RESULT:    -3.093      0.000      0.000
REMARK INTER + INTRA:          -6.884
REMARK INTER:                  -5.625
REMARK INTRA:                  -1.259
REMARK UNBOUND:                -1.259
REMARK SMILES CCCCCCCCCCCCCCCC(=O)[O-]
REMARK SMILES IDX 9 1 10 2 11 3 12 4 13 5 14 6 15 7 16 8 17 9 18 10 8 11 7 12
REMARK SMILES IDX 6 13 5 14 4 15 3 16 2 17 1 18
REMARK H PARENT
REMARK Flexibility Score: inf
ROOT
ATOM      1  C   UNL     1      -3.369  37.251  20.107  1.00  0.00     0.000 C 
ENDROOT
BRANCH   1   2
ATOM      2  C   UNL     1      -4.864  37.020  19.844  1.00  0.00     0.000 C 
BRANCH   2   3
ATOM      3  C   UNL     1      -5.294  35.625  20.315  1.00  0.00     0.000 C 
BRANCH   3   4
ATOM      4  C   UNL     1      -4.333  35.084  21.381  1.00  0.00     0.000 C 
BRANCH   4   5
ATOM      5  C   UNL     1      -5.099  34.365  22.499  1.00  0.00     0.000 C 
BRANCH   5   6
ATOM      6  C   UNL     1      -6.125  35.300  23.151  1.00  0.00     0.006 C 
BRANCH   6   7
ATOM      7  C   UNL     1      -5.875  35.425  24.657  1.00  0.00     0.053 C 
BRANCH   7   8
ATOM      8  C   UNL     1      -5.507  36.830  25.012  1.00  0.00     0.041 C 
ATOM      9  O   UNL     1      -4.942  37.079  26.109  1.00  0.00    -0.550 OA
ATOM     10  O   UNL     1      -5.738  37.860  24.108  1.00  0.00    -0.550 OA
ENDBRANCH   7   8
ENDBRANCH   6   7
ENDBRANCH   5   6
ENDBRANCH   4   5
ENDBRANCH   3   4
ENDBRANCH   2   3
ENDBRANCH   1   2
BRANCH   1  11
ATOM     11  C   UNL     1      -2.542  37.315  18.813  1.00  0.00     0.000 C 
BRANCH  11  12
ATOM     12  C   UNL     1      -3.404  37.147  17.549  1.00  0.00    -0.000 C 
BRANCH  12  13
ATOM     13  C   UNL     1      -3.105  35.826  16.810  1.00  0.00    -0.000 C 
BRANCH  13  14
ATOM     14  C   UNL     1      -1.996  35.950  15.751  1.00  0.00    -0.000 C 
BRANCH  14  15
ATOM     15  C   UNL     1      -2.454  36.701  14.491  1.00  0.00    -0.000 C 
BRANCH  15  16
ATOM     16  C   UNL     1      -3.824  36.206  13.982  1.00  0.00    -0.000 C 
BRANCH  16  17
ATOM     17  C   UNL     1      -4.881  37.318  13.875  1.00  0.00    -0.003 C 
ATOM     18  C   UNL     1      -4.354  38.688  14.301  1.00  0.00     0.004 C 
ENDBRANCH  16  17
ENDBRANCH  15  16
ENDBRANCH  14  15
ENDBRANCH  13  14
ENDBRANCH  12  13
ENDBRANCH  11  12
ENDBRANCH   1  11
TORSDOF 14
ENDMDL
MODEL 2
REMARK VINA RESULT:    -2.382      3.845      8.112
REMARK INTER + INTRA:          -5.591
REMARK INTER:                  -4.755
REMARK INTRA:                  -0.836
REMARK UNBOUND:                -1.259
REMARK SMILES CCCCCCCCCCCCCCCC(=O)[O-]
REMARK SMILES IDX 9 1 10 2 11 3 12 4 13 5 14 6 15 7 16 8 17 9 18 10 8 11 7 12
REMARK SMILES IDX 6 13 5 14 4 15 3 16 2 17 1 18
REMARK H PARENT
REMARK Flexibility Score: inf
ROOT
ATOM      1  C   UNL     1      -5.168  35.226  20.366  1.00  0.00     0.000 C 
ENDROOT
BRANCH   1   2
ATOM      2  C   UNL     1      -5.488  36.728  20.375  1.00  0.00     0.000 C 
BRANCH   2   3
ATOM      3  C   UNL     1      -4.322  37.539  19.793  1.00  0.00     0.000 C 
BRANCH   3   4
ATOM      4  C   UNL     1      -3.891  36.982  18.431  1.00  0.00     0.000 C 
BRANCH   4   5
ATOM      5  C   UNL     1      -2.397  37.226  18.185  1.00  0.00     0.000 C 
BRANCH   5   6
ATOM      6  C   UNL     1      -1.985  36.752  16.786  1.00  0.00     0.006 C 
BRANCH   6   7
ATOM      7  C   UNL     1      -3.168  36.111  16.053  1.00  0.00     0.053 C 
BRANCH   7   8
ATOM      8  C   UNL     1      -3.207  36.561  14.628  1.00  0.00     0.041 C 
ATOM      9  O   UNL     1      -2.215  36.368  13.876  1.00  0.00    -0.550 OA
ATOM     10  O   UNL     1      -4.356  37.148  14.114  1.00  0.00    -0.550 OA
ENDBRANCH   7   8
ENDBRANCH   6   7
ENDBRANCH   5   6
ENDBRANCH   4   5
ENDBRANCH   3   4
ENDBRANCH   2   3
ENDBRANCH   1   2
BRANCH   1  11
ATOM     11  C   UNL     1      -5.138  34.618  21.777  1.00  0.00     0.000 C 
BRANCH  11  12
ATOM     12  C   UNL     1      -6.118  35.309  22.743  1.00  0.00    -0.000 C 
BRANCH  12  13
ATOM     13  C   UNL     1      -5.832  34.955  24.217  1.00  0.00    -0.000 C 
BRANCH  13  14
ATOM     14  C   UNL     1      -6.035  36.134  25.184  1.00  0.00    -0.000 C 
BRANCH  14  15
ATOM     15  C   UNL     1      -5.247  37.388  24.771  1.00  0.00    -0.000 C 
BRANCH  15  16
ATOM     16  C   UNL     1      -6.000  38.229  23.719  1.00  0.00    -0.000 C 
BRANCH  16  17
ATOM     17  C   UNL     1      -5.395  39.625  23.497  1.00  0.00    -0.003 C 
ATOM     18  C   UNL     1      -5.745  40.221  22.134  1.00  0.00     0.004 C 
ENDBRANCH  16  17
ENDBRANCH  15  16
ENDBRANCH  14  15
ENDBRANCH  13  14
ENDBRANCH  12  13
ENDBRANCH  11  12
ENDBRANCH   1  11
TORSDOF 14
ENDMDL
MODEL 3
REMARK VINA RESULT:    -2.368      1.895      3.676
REMARK INTER + INTRA:          -5.565
REMARK INTER:                  -4.989
REMARK INTRA:                  -0.577
REMARK UNBOUND:                -1.259
REMARK SMILES CCCCCCCCCCCCCCCC(=O)[O-]
REMARK SMILES IDX 9 1 10 2 11 3 12 4 13 5 14 6 15 7 16 8 17 9 18 10 8 11 7 12
REMARK SMILES IDX 6 13 5 14 4 15 3 16 2 17 1 18
REMARK H PARENT
REMARK Flexibility Score: inf
ROOT
ATOM      1  C   UNL     1      -4.743  34.598  22.297  1.00  0.00     0.000 C 
ENDROOT
BRANCH   1   2
ATOM      2  C   UNL     1      -5.921  35.360  22.920  1.00  0.00     0.000 C 
BRANCH   2   3
ATOM      3  C   UNL     1      -6.121  34.955  24.387  1.00  0.00     0.000 C 
BRANCH   3   4
ATOM      4  C   UNL     1      -6.032  36.176  25.311  1.00  0.00     0.000 C 
BRANCH   4   5
ATOM      5  C   UNL     1      -5.136  37.262  24.703  1.00  0.00     0.000 C 
BRANCH   5   6
ATOM      6  C   UNL     1      -5.945  38.198  23.798  1.00  0.00     0.006 C 
BRANCH   6   7
ATOM      7  C   UNL     1      -5.132  39.443  23.429  1.00  0.00     0.053 C 
BRANCH   7   8
ATOM      8  C   UNL     1      -5.787  40.181  22.305  1.00  0.00     0.041 C 
ATOM      9  O   UNL     1      -6.125  39.569  21.258  1.00  0.00    -0.550 OA
ATOM     10  O   UNL     1      -6.071  41.535  22.433  1.00  0.00    -0.550 OA
ENDBRANCH   7   8
ENDBRANCH   6   7
ENDBRANCH   5   6
ENDBRANCH   4   5
ENDBRANCH   3   4
ENDBRANCH   2   3
ENDBRANCH   1   2
BRANCH   1  11
ATOM     11  C   UNL     1      -4.247  35.238  20.990  1.00  0.00     0.000 C 
BRANCH  11  12
ATOM     12  C   UNL     1      -5.152  36.389  20.512  1.00  0.00    -0.000 C 
BRANCH  12  13
ATOM     13  C   UNL     1      -4.439  37.311  19.502  1.00  0.00    -0.000 C 
BRANCH  13  14
ATOM     14  C   UNL     1      -3.220  36.659  18.827  1.00  0.00    -0.000 C 
BRANCH  14  15
ATOM     15  C   UNL     1      -2.951  37.211  17.417  1.00  0.00    -0.000 C 
BRANCH  15  16
ATOM     16  C   UNL     1      -2.464  36.116  16.445  1.00  0.00    -0.000 C 
BRANCH  16  17
ATOM     17  C   UNL     1      -2.795  36.407  14.972  1.00  0.00    -0.003 C 
ATOM     18  C   UNL     1      -3.898  37.451  14.801  1.00  0.00     0.004 C 
ENDBRANCH  16  17
ENDBRANCH  15  16
ENDBRANCH  14  15
ENDBRANCH  13  14
ENDBRANCH  12  13
ENDBRANCH  11  12
ENDBRANCH   1  11
TORSDOF 14
ENDMDL
MODEL 4
REMARK VINA RESULT:    -2.275      3.859      8.138
REMARK INTER + INTRA:          -5.397
REMARK INTER:                  -5.177
REMARK INTRA:                  -0.219
REMARK UNBOUND:                -1.259
REMARK SMILES CCCCCCCCCCCCCCCC(=O)[O-]
REMARK SMILES IDX 9 1 10 2 11 3 12 4 13 5 14 6 15 7 16 8 17 9 18 10 8 11 7 12
REMARK SMILES IDX 6 13 5 14 4 15 3 16 2 17 1 18
REMARK H PARENT
REMARK Flexibility Score: inf
ROOT
ATOM      1  C   UNL     1      -1.955  37.615  19.728  1.00  0.00     0.000 C 
ENDROOT
BRANCH   1   2
ATOM      2  C   UNL     1      -1.172  37.612  18.407  1.00  0.00     0.000 C 
BRANCH   2   3
ATOM      3  C   UNL     1      -2.108  37.367  17.216  1.00  0.00     0.000 C 
BRANCH   3   4
ATOM      4  C   UNL     1      -1.672  36.129  16.421  1.00  0.00     0.000 C 
BRANCH   4   5
ATOM      5  C   UNL     1      -2.869  35.483  15.711  1.00  0.00     0.000 C 
BRANCH   5   6
ATOM      6  C   UNL     1      -3.110  36.131  14.343  1.00  0.00     0.006 C 
BRANCH   6   7
ATOM      7  C   UNL     1      -3.214  37.655  14.467  1.00  0.00     0.053 C 
BRANCH   7   8
ATOM      8  C   UNL     1      -4.585  38.118  14.089  1.00  0.00     0.041 C 
ATOM      9  O   UNL     1      -5.500  37.280  13.875  1.00  0.00    -0.550 OA
ATOM     10  O   UNL     1      -4.868  39.477  14.024  1.00  0.00    -0.550 OA
ENDBRANCH   7   8
ENDBRANCH   6   7
ENDBRANCH   5   6
ENDBRANCH   4   5
ENDBRANCH   3   4
ENDBRANCH   2   3
ENDBRANCH   1   2
BRANCH   1  11
ATOM     11  C   UNL     1      -3.109  36.600  19.736  1.00  0.00     0.000 C 
BRANCH  11  12
ATOM     12  C   UNL     1      -4.491  37.270  19.638  1.00  0.00    -0.000 C 
BRANCH  12  13
ATOM     13  C   UNL     1      -5.623  36.349  20.138  1.00  0.00    -0.000 C 
BRANCH  13  14
ATOM     14  C   UNL     1      -5.175  35.358  21.226  1.00  0.00    -0.000 C 
BRANCH  14  15
ATOM     15  C   UNL     1      -6.125  35.328  22.435  1.00  0.00    -0.000 C 
BRANCH  15  16
ATOM     16  C   UNL     1      -5.509  34.590  23.642  1.00  0.00    -0.000 C 
BRANCH  16  17
ATOM     17  C   UNL     1      -5.084  35.525  24.786  1.00  0.00    -0.003 C 
ATOM     18  C   UNL     1      -6.038  36.702  24.984  1.00  0.00     0.004 C 
ENDBRANCH  16  17
ENDBRANCH  15  16
ENDBRANCH  14  15
ENDBRANCH  13  14
ENDBRANCH  12  13
ENDBRANCH  11  12
ENDBRANCH   1  11
TORSDOF 14
ENDMDL
MODEL 5
REMARK VINA RESULT:    -1.738      3.921      8.191
REMARK INTER + INTRA:          -4.419
REMARK INTER:                  -3.544
REMARK INTRA:                  -0.875
REMARK UNBOUND:                -1.259
REMARK SMILES CCCCCCCCCCCCCCCC(=O)[O-]
REMARK SMILES IDX 9 1 10 2 11 3 12 4 13 5 14 6 15 7 16 8 17 9 18 10 8 11 7 12
REMARK SMILES IDX 6 13 5 14 4 15 3 16 2 17 1 18
REMARK H PARENT
REMARK Flexibility Score: inf
ROOT
ATOM      1  C   UNL     1      -4.683  38.056  20.624  1.00  0.00     0.000 C 
ENDROOT
BRANCH   1   2
ATOM      2  C   UNL     1      -4.940  36.590  20.247  1.00  0.00     0.000 C 
BRANCH   2   3
ATOM      3  C   UNL     1      -4.134  36.195  19.002  1.00  0.00     0.000 C 
BRANCH   3   4
ATOM      4  C   UNL     1      -3.149  37.304  18.611  1.00  0.00     0.000 C 
BRANCH   4   5
ATOM      5  C   UNL     1      -1.906  36.720  17.928  1.00  0.00     0.000 C 
BRANCH   5   6
ATOM      6  C   UNL     1      -2.005  36.849  16.404  1.00  0.00     0.006 C 
BRANCH   6   7
ATOM      7  C   UNL     1      -3.392  37.347  15.984  1.00  0.00     0.053 C 
BRANCH   7   8
ATOM      8  C   UNL     1      -3.655  37.015  14.550  1.00  0.00     0.041 C 
ATOM      9  O   UNL     1      -2.954  36.149  13.962  1.00  0.00    -0.550 OA
ATOM     10  O   UNL     1      -4.708  37.621  13.876  1.00  0.00    -0.550 OA
ENDBRANCH   7   8
ENDBRANCH   6   7
ENDBRANCH   5   6
ENDBRANCH   4   5
ENDBRANCH   3   4
ENDBRANCH   2   3
ENDBRANCH   1   2
BRANCH   1  11
ATOM     11  C   UNL     1      -5.933  38.751  21.188  1.00  0.00     0.000 C 
BRANCH  11  12
ATOM     12  C   UNL     1      -5.605  39.724  22.334  1.00  0.00    -0.000 C 
BRANCH  12  13
ATOM     13  C   UNL     1      -5.523  39.012  23.700  1.00  0.00    -0.000 C 
BRANCH  13  14
ATOM     14  C   UNL     1      -6.122  37.594  23.692  1.00  0.00    -0.000 C 
BRANCH  14  15
ATOM     15  C   UNL     1      -5.835  36.816  24.987  1.00  0.00    -0.000 C 
BRANCH  15  16
ATOM     16  C   UNL     1      -5.714  35.298  24.740  1.00  0.00    -0.000 C 
BRANCH  16  17
ATOM     17  C   UNL     1      -5.728  34.912  23.252  1.00  0.00    -0.003 C 
ATOM     18  C   UNL     1      -4.493  34.119  22.827  1.00  0.00     0.004 C 
ENDBRANCH  16  17
ENDBRANCH  15  16
ENDBRANCH  14  15
ENDBRANCH  13  14
ENDBRANCH  12  13
ENDBRANCH  11  12
ENDBRANCH   1  11
TORSDOF 14
ENDMDL
MODEL 6
REMARK VINA RESULT:    -1.627      3.722      8.418
REMARK INTER + INTRA:          -4.219
REMARK INTER:                  -3.994
REMARK INTRA:                  -0.225
REMARK UNBOUND:                -1.259
REMARK SMILES CCCCCCCCCCCCCCCC(=O)[O-]
REMARK SMILES IDX 9 1 10 2 11 3 12 4 13 5 14 6 15 7 16 8 17 9 18 10 8 11 7 12
REMARK SMILES IDX 6 13 5 14 4 15 3 16 2 17 1 18
REMARK H PARENT
REMARK Flexibility Score: inf
ROOT
ATOM      1  C   UNL     1      -4.133  36.039  20.067  1.00  0.00     0.000 C 
ENDROOT
BRANCH   1   2
ATOM      2  C   UNL     1      -4.363  34.686  19.378  1.00  0.00     0.000 C 
BRANCH   2   3
ATOM      3  C   UNL     1      -4.985  34.877  17.989  1.00  0.00     0.000 C 
BRANCH   3   4
ATOM      4  C   UNL     1      -3.900  35.026  16.915  1.00  0.00     0.000 C 
BRANCH   4   5
ATOM      5  C   UNL     1      -3.315  36.444  16.918  1.00  0.00     0.000 C 
BRANCH   5   6
ATOM      6  C   UNL     1      -2.088  36.534  16.003  1.00  0.00     0.006 C 
BRANCH   6   7
ATOM      7  C   UNL     1      -2.497  36.485  14.528  1.00  0.00     0.053 C 
BRANCH   7   8
ATOM      8  C   UNL     1      -3.820  37.152  14.329  1.00  0.00     0.041 C 
ATOM      9  O   UNL     1      -4.803  36.493  13.898  1.00  0.00    -0.550 OA
ATOM     10  O   UNL     1      -3.985  38.489  14.670  1.00  0.00    -0.550 OA
ENDBRANCH   7   8
ENDBRANCH   6   7
ENDBRANCH   5   6
ENDBRANCH   4   5
ENDBRANCH   3   4
ENDBRANCH   2   3
ENDBRANCH   1   2
BRANCH   1  11
ATOM     11  C   UNL     1      -5.425  36.858  20.211  1.00  0.00     0.000 C 
BRANCH  11  12
ATOM     12  C   UNL     1      -5.401  37.795  21.432  1.00  0.00    -0.000 C 
BRANCH  12  13
ATOM     13  C   UNL     1      -6.094  37.170  22.661  1.00  0.00    -0.000 C 
BRANCH  13  14
ATOM     14  C   UNL     1      -6.123  35.632  22.635  1.00  0.00    -0.000 C 
BRANCH  14  15
ATOM     15  C   UNL     1      -5.917  35.006  24.025  1.00  0.00    -0.000 C 
BRANCH  15  16
ATOM     16  C   UNL     1      -6.062  36.043  25.158  1.00  0.00    -0.000 C 
BRANCH  16  17
ATOM     17  C   UNL     1      -4.734  36.391  25.850  1.00  0.00    -0.003 C 
ATOM     18  C   UNL     1      -4.565  37.888  26.104  1.00  0.00     0.004 C 
ENDBRANCH  16  17
ENDBRANCH  15  16
ENDBRANCH  14  15
ENDBRANCH  13  14
ENDBRANCH  12  13
ENDBRANCH  11  12
ENDBRANCH   1  11
TORSDOF 14
ENDMDL
MODEL 7
REMARK VINA RESULT:    -1.552      3.629      7.748
REMARK INTER + INTRA:          -4.082
REMARK INTER:                  -2.874
REMARK INTRA:                  -1.208
REMARK UNBOUND:                -1.259
REMARK SMILES CCCCCCCCCCCCCCCC(=O)[O-]
REMARK SMILES IDX 9 1 10 2 11 3 12 4 13 5 14 6 15 7 16 8 17 9 18 10 8 11 7 12
REMARK SMILES IDX 6 13 5 14 4 15 3 16 2 17 1 18
REMARK H PARENT
REMARK Flexibility Score: inf
ROOT
ATOM      1  C   UNL     1      -5.962  39.745  21.834  1.00  0.00     0.000 C 
ENDROOT
BRANCH   1   2
ATOM      2  C   UNL     1      -5.965  38.978  20.503  1.00  0.00     0.000 C 
BRANCH   2   3
ATOM      3  C   UNL     1      -5.281  37.613  20.657  1.00  0.00     0.000 C 
BRANCH   3   4
ATOM      4  C   UNL     1      -4.531  37.227  19.376  1.00  0.00     0.000 C 
BRANCH   4   5
ATOM      5  C   UNL     1      -3.024  37.469  19.528  1.00  0.00     0.000 C 
BRANCH   5   6
ATOM      6  C   UNL     1      -2.278  37.114  18.236  1.00  0.00     0.006 C 
BRANCH   6   7
ATOM      7  C   UNL     1      -3.200  37.230  17.019  1.00  0.00     0.053 C 
BRANCH   7   8
ATOM      8  C   UNL     1      -2.754  36.303  15.934  1.00  0.00     0.041 C 
ATOM      9  O   UNL     1      -3.371  36.269  14.837  1.00  0.00    -0.550 OA
ATOM     10  O   UNL     1      -1.625  35.513  16.113  1.00  0.00    -0.550 OA
ENDBRANCH   7   8
ENDBRANCH   6   7
ENDBRANCH   5   6
ENDBRANCH   4   5
ENDBRANCH   3   4
ENDBRANCH   2   3
ENDBRANCH   1   2
BRANCH   1  11
ATOM     11  C   UNL     1      -4.808  39.327  22.757  1.00  0.00     0.000 C 
BRANCH  11  12
ATOM     12  C   UNL     1      -5.298  38.770  24.107  1.00  0.00    -0.000 C 
BRANCH  12  13
ATOM     13  C   UNL     1      -6.125  37.478  23.940  1.00  0.00    -0.000 C 
BRANCH  13  14
ATOM     14  C   UNL     1      -5.905  36.457  25.069  1.00  0.00    -0.000 C 
BRANCH  14  15
ATOM     15  C   UNL     1      -6.068  35.002  24.600  1.00  0.00    -0.000 C 
BRANCH  15  16
ATOM     16  C   UNL     1      -5.833  34.849  23.083  1.00  0.00    -0.000 C 
BRANCH  16  17
ATOM     17  C   UNL     1      -4.591  34.013  22.733  1.00  0.00    -0.003 C 
ATOM     18  C   UNL     1      -3.738  34.639  21.630  1.00  0.00     0.004 C 
ENDBRANCH  16  17
ENDBRANCH  15  16
ENDBRANCH  14  15
ENDBRANCH  13  14
ENDBRANCH  12  13
ENDBRANCH  11  12
ENDBRANCH   1  11
TORSDOF 14
ENDMDL
MODEL 8
REMARK VINA RESULT:    -1.429      3.687      7.758
REMARK INTER + INTRA:          -3.858
REMARK INTER:                  -2.509
REMARK INTRA:                  -1.350
REMARK UNBOUND:                -1.259
REMARK SMILES CCCCCCCCCCCCCCCC(=O)[O-]
REMARK SMILES IDX 9 1 10 2 11 3 12 4 13 5 14 6 15 7 16 8 17 9 18 10 8 11 7 12
REMARK SMILES IDX 6 13 5 14 4 15 3 16 2 17 1 18
REMARK H PARENT
REMARK Flexibility Score: inf
ROOT
ATOM      1  C   UNL     1      -4.410  37.295  20.439  1.00  0.00     0.000 C 
ENDROOT
BRANCH   1   2
ATOM      2  C   UNL     1      -4.539  35.767  20.377  1.00  0.00     0.000 C 
BRANCH   2   3
ATOM      3  C   UNL     1      -5.872  35.354  19.740  1.00  0.00     0.000 C 
BRANCH   3   4
ATOM      4  C   UNL     1      -5.674  34.199  18.750  1.00  0.00     0.000 C 
BRANCH   4   5
ATOM      5  C   UNL     1      -4.321  34.312  18.036  1.00  0.00     0.000 C 
BRANCH   5   6
ATOM      6  C   UNL     1      -4.259  35.578  17.174  1.00  0.00     0.006 C 
BRANCH   6   7
ATOM      7  C   UNL     1      -2.918  35.680  16.443  1.00  0.00     0.053 C 
BRANCH   7   8
ATOM      8  C   UNL     1      -3.030  36.599  15.268  1.00  0.00     0.041 C 
ATOM      9  O   UNL     1      -3.738  37.638  15.343  1.00  0.00    -0.550 OA
ATOM     10  O   UNL     1      -2.312  36.337  14.108  1.00  0.00    -0.550 OA
ENDBRANCH   7   8
ENDBRANCH   6   7
ENDBRANCH   5   6
ENDBRANCH   4   5
ENDBRANCH   3   4
ENDBRANCH   2   3
ENDBRANCH   1   2
BRANCH   1  11
ATOM     11  C   UNL     1      -5.739  38.014  20.159  1.00  0.00     0.000 C 
BRANCH  11  12
ATOM     12  C   UNL     1      -5.907  39.298  20.992  1.00  0.00    -0.000 C 
BRANCH  12  13
ATOM     13  C   UNL     1      -4.915  39.362  22.172  1.00  0.00    -0.000 C 
BRANCH  13  14
ATOM     14  C   UNL     1      -5.598  39.478  23.546  1.00  0.00    -0.000 C 
BRANCH  14  15
ATOM     15  C   UNL     1      -5.447  38.208  24.398  1.00  0.00    -0.000 C 
BRANCH  15  16
ATOM     16  C   UNL     1      -6.065  36.970  23.715  1.00  0.00    -0.000 C 
BRANCH  16  17
ATOM     17  C   UNL     1      -5.936  35.680  24.543  1.00  0.00    -0.003 C 
ATOM     18  C   UNL     1      -5.536  34.467  23.704  1.00  0.00     0.004 C 
ENDBRANCH  16  17
ENDBRANCH  15  16
ENDBRANCH  14  15
ENDBRANCH  13  14
ENDBRANCH  12  13
ENDBRANCH  11  12
ENDBRANCH   1  11
TORSDOF 14
ENDMDL
MODEL 9
REMARK VINA RESULT:    -1.401      2.793      7.262
REMARK INTER + INTRA:          -3.807
REMARK INTER:                  -2.975
REMARK INTRA:                  -0.832
REMARK UNBOUND:                -1.259
REMARK SMILES CCCCCCCCCCCCCCCC(=O)[O-]
REMARK SMILES IDX 9 1 10 2 11 3 12 4 13 5 14 6 15 7 16 8 17 9 18 10 8 11 7 12
REMARK SMILES IDX 6 13 5 14 4 15 3 16 2 17 1 18
REMARK H PARENT
REMARK Flexibility Score: inf
ROOT
ATOM      1  C   UNL     1      -4.783  35.319  20.171  1.00  0.00     0.000 C 
ENDROOT
BRANCH   1   2
ATOM      2  C   UNL     1      -5.423  34.223  19.307  1.00  0.00     0.000 C 
BRANCH   2   3
ATOM      3  C   UNL     1      -4.784  34.181  17.913  1.00  0.00     0.000 C 
BRANCH   3   4
ATOM      4  C   UNL     1      -4.124  35.523  17.571  1.00  0.00     0.000 C 
BRANCH   4   5
ATOM      5  C   UNL     1      -3.083  35.355  16.457  1.00  0.00     0.000 C 
BRANCH   5   6
ATOM      6  C   UNL     1      -1.964  36.394  16.589  1.00  0.00     0.006 C 
BRANCH   6   7
ATOM      7  C   UNL     1      -2.354  37.499  17.576  1.00  0.00     0.053 C 
BRANCH   7   8
ATOM      8  C   UNL     1      -1.470  37.460  18.781  1.00  0.00     0.041 C 
ATOM      9  O   UNL     1      -0.227  37.622  18.661  1.00  0.00    -0.550 OA
ATOM     10  O   UNL     1      -2.023  37.297  20.046  1.00  0.00    -0.550 OA
ENDBRANCH   7   8
ENDBRANCH   6   7
ENDBRANCH   5   6
ENDBRANCH   4   5
ENDBRANCH   3   4
ENDBRANCH   2   3
ENDBRANCH   1   2
BRANCH   1  11
ATOM     11  C   UNL     1      -5.811  36.329  20.704  1.00  0.00     0.000 C 
BRANCH  11  12
ATOM     12  C   UNL     1      -5.567  37.757  20.182  1.00  0.00    -0.000 C 
BRANCH  12  13
ATOM     13  C   UNL     1      -4.814  38.632  21.207  1.00  0.00    -0.000 C 
BRANCH  13  14
ATOM     14  C   UNL     1      -5.729  39.247  22.280  1.00  0.00    -0.000 C 
BRANCH  14  15
ATOM     15  C   UNL     1      -5.555  38.592  23.660  1.00  0.00    -0.000 C 
BRANCH  15  16
ATOM     16  C   UNL     1      -6.074  37.139  23.686  1.00  0.00    -0.000 C 
BRANCH  16  17
ATOM     17  C   UNL     1      -5.793  36.407  25.008  1.00  0.00    -0.003 C 
ATOM     18  C   UNL     1      -6.079  34.908  24.936  1.00  0.00     0.004 C 
ENDBRANCH  16  17
ENDBRANCH  15  16
ENDBRANCH  14  15
ENDBRANCH  13  14
ENDBRANCH  12  13
ENDBRANCH  11  12
ENDBRANCH   1  11
TORSDOF 14
ENDMDL
