MODEL 1
REMARK VINA RESULT:    83.473      0.000      0.000
REMARK INTER + INTRA:          91.451
REMARK INTER:                  90.792
REMARK INTRA:                   0.658
REMARK UNBOUND:                 0.658
REMARK SMILES CC1(C)CC[C@]2(C(=O)[O-])CC[C@@]3(C)C(=CC[C@@H]4[C@@]5(C)CC[C@@H](O)C(C)(C)[C@@H]5CC[C@@]43C)[C@@H]2C1
REMARK SMILES IDX 6 1 5 2 10 3 32 4 4 5 11 6 14 7 33 8 2 9 12 10 15 11 1 12
REMARK SMILES IDX 3 13 13 14 30 15 16 16 17 17 29 18 31 19 18 20 28 21 27 22
REMARK SMILES IDX 20 23 19 24 24 25 21 26 22 27 25 28 26 29 7 30 8 31 9 32
REMARK SMILES IDX 23 33
REMARK H PARENT 23 34
REMARK Flexibility Score: inf
ROOT
ATOM      1  C   UNL     1      -9.771  11.626 -13.470  1.00  0.00     0.017 C 
ATOM      2  C   UNL     1     -10.081  10.447 -12.383  1.00  0.00     0.014 C 
ATOM      3  C   UNL     1      -8.338  11.432 -14.147  1.00  0.00     0.014 C 
ATOM      4  C   UNL     1      -9.855  13.087 -12.935  1.00  0.00     0.028 C 
ATOM      5  C   UNL     1     -10.122  10.773 -10.909  1.00  0.00     0.007 C 
ATOM      6  C   UNL     1      -7.722  12.622 -15.043  1.00  0.00     0.013 C 
ATOM      7  C   UNL     1      -8.695  13.974 -13.340  1.00  0.00    -0.064 C 
ATOM      8  C   UNL     1     -10.102  13.218 -11.423  1.00  0.00     0.015 C 
ATOM      9  C   UNL     1      -9.479  12.117 -10.506  1.00  0.00    -0.035 C 
ATOM     10  C   UNL     1      -8.302  14.090 -14.802  1.00  0.00    -0.006 C 
ATOM     11  C   UNL     1      -7.673  14.042 -12.475  1.00  0.00    -0.027 C 
ATOM     12  C   UNL     1      -9.936  12.636  -9.093  1.00  0.00     0.011 C 
ATOM     13  C   UNL     1      -7.938  11.918 -10.415  1.00  0.00     0.011 C 
ATOM     14  C   UNL     1      -9.521  14.239 -15.773  1.00  0.00     0.017 C 
ATOM     15  C   UNL     1      -7.297  15.442 -14.915  1.00  0.00    -0.020 C 
ATOM     16  C   UNL     1      -6.993  15.377 -12.266  1.00  0.00     0.032 C 
ATOM     17  C   UNL     1      -7.208  16.300 -13.512  1.00  0.00     0.006 C 
ATOM     18  C   UNL     1      -7.572  16.418 -16.125  1.00  0.00     0.008 C 
ATOM     19  C   UNL     1      -5.876  14.972 -15.198  1.00  0.00     0.012 C 
ATOM     20  C   UNL     1      -8.250  17.475 -13.298  1.00  0.00    -0.025 C 
ATOM     21  C   UNL     1      -8.596  17.526 -15.862  1.00  0.00     0.005 C 
ATOM     22  C   UNL     1      -8.237  18.374 -14.598  1.00  0.00     0.003 C 
ATOM     23  C   UNL     1      -7.858  18.366 -12.086  1.00  0.00     0.010 C 
ATOM     24  C   UNL     1      -9.686  16.881 -13.021  1.00  0.00     0.012 C 
ATOM     25  C   UNL     1      -9.029  19.756 -14.529  1.00  0.00    -0.006 C 
ATOM     26  C   UNL     1      -8.707  19.612 -11.960  1.00  0.00     0.033 C 
ATOM     27  C   UNL     1      -8.580  20.494 -13.206  1.00  0.00     0.120 C 
ATOM     28  C   UNL     1     -10.578  19.628 -14.567  1.00  0.00     0.014 C 
ATOM     29  C   UNL     1      -8.593  20.648 -15.739  1.00  0.00     0.014 C 
ENDROOT
BRANCH   1  30
ATOM     30  C   UNL     1     -10.860  11.342 -14.479  1.00  0.00     0.048 C 
ATOM     31  O   UNL     1     -11.388  10.210 -14.553  1.00  0.00    -0.550 OA
ATOM     32  O   UNL     1     -11.144  12.263 -15.484  1.00  0.00    -0.550 OA
ENDBRANCH   1  30
BRANCH  27  33
ATOM     33  O   UNL     1      -7.263  20.992 -13.335  1.00  0.00    -0.393 OA
ATOM     34  H   UNL     1      -6.836  20.482 -14.098  1.00  0.00     0.210 HD
ENDBRANCH  27  33
TORSDOF 2
ENDMDL
MODEL 2
REMARK VINA RESULT:    83.682      2.289      3.137
REMARK INTER + INTRA:          91.679
REMARK INTER:                  91.133
REMARK INTRA:                   0.546
REMARK UNBOUND:                 0.658
REMARK SMILES CC1(C)CC[C@]2(C(=O)[O-])CC[C@@]3(C)C(=CC[C@@H]4[C@@]5(C)CC[C@@H](O)C(C)(C)[C@@H]5CC[C@@]43C)[C@@H]2C1
REMARK SMILES IDX 6 1 5 2 10 3 32 4 4 5 11 6 14 7 33 8 2 9 12 10 15 11 1 12
REMARK SMILES IDX 3 13 13 14 30 15 16 16 17 17 29 18 31 19 18 20 28 21 27 22
REMARK SMILES IDX 20 23 19 24 24 25 21 26 22 27 25 28 26 29 7 30 8 31 9 32
REMARK SMILES IDX 23 33
REMARK H PARENT 23 34
REMARK Flexibility Score: inf
ROOT
ATOM      1  C   UNL     1      -9.755  13.712 -10.387  1.00  0.00     0.017 C 
ATOM      2  C   UNL     1      -9.293  12.821  -9.098  1.00  0.00     0.014 C 
ATOM      3  C   UNL     1      -9.705  12.859 -11.735  1.00  0.00     0.014 C 
ATOM      4  C   UNL     1      -8.959  15.031 -10.625  1.00  0.00     0.028 C 
ATOM      5  C   UNL     1      -7.983  13.118  -8.407  1.00  0.00     0.007 C 
ATOM      6  C   UNL     1      -9.859  13.611 -13.151  1.00  0.00     0.013 C 
ATOM      7  C   UNL     1      -8.524  15.254 -12.059  1.00  0.00    -0.064 C 
ATOM      8  C   UNL     1      -7.766  15.256  -9.682  1.00  0.00     0.015 C 
ATOM      9  C   UNL     1      -6.989  13.985  -9.208  1.00  0.00    -0.035 C 
ATOM     10  C   UNL     1      -9.542  15.175 -13.183  1.00  0.00    -0.006 C 
ATOM     11  C   UNL     1      -7.297  14.817 -12.380  1.00  0.00    -0.027 C 
ATOM     12  C   UNL     1      -5.875  14.651  -8.319  1.00  0.00     0.011 C 
ATOM     13  C   UNL     1      -6.243  13.069 -10.221  1.00  0.00     0.011 C 
ATOM     14  C   UNL     1     -10.893  15.898 -12.861  1.00  0.00     0.017 C 
ATOM     15  C   UNL     1      -8.811  15.879 -14.533  1.00  0.00    -0.020 C 
ATOM     16  C   UNL     1      -6.451  15.659 -13.308  1.00  0.00     0.032 C 
ATOM     17  C   UNL     1      -7.360  16.580 -14.190  1.00  0.00     0.006 C 
ATOM     18  C   UNL     1      -9.704  16.874 -15.372  1.00  0.00     0.008 C 
ATOM     19  C   UNL     1      -8.507  14.785 -15.549  1.00  0.00     0.012 C 
ATOM     20  C   UNL     1      -7.360  18.109 -13.776  1.00  0.00    -0.025 C 
ATOM     21  C   UNL     1      -9.671  18.336 -14.917  1.00  0.00     0.005 C 
ATOM     22  C   UNL     1      -8.214  18.899 -14.846  1.00  0.00     0.003 C 
ATOM     23  C   UNL     1      -5.919  18.695 -13.774  1.00  0.00     0.010 C 
ATOM     24  C   UNL     1      -7.955  18.277 -12.324  1.00  0.00     0.012 C 
ATOM     25  C   UNL     1      -8.164  20.492 -14.778  1.00  0.00    -0.006 C 
ATOM     26  C   UNL     1      -5.884  20.194 -13.579  1.00  0.00     0.033 C 
ATOM     27  C   UNL     1      -6.643  20.914 -14.697  1.00  0.00     0.120 C 
ATOM     28  C   UNL     1      -8.955  21.125 -13.599  1.00  0.00     0.014 C 
ATOM     29  C   UNL     1      -8.745  21.071 -16.111  1.00  0.00     0.014 C 
ENDROOT
BRANCH   1  30
ATOM     30  C   UNL     1     -11.191  13.993 -10.007  1.00  0.00     0.048 C 
ATOM     31  O   UNL     1     -11.898  14.766 -10.692  1.00  0.00    -0.550 OA
ATOM     32  O   UNL     1     -11.686  13.573  -8.775  1.00  0.00    -0.550 OA
ENDBRANCH   1  30
BRANCH  27  33
ATOM     33  O   UNL     1      -6.004  20.719 -15.944  1.00  0.00    -0.393 OA
ATOM     34  H   UNL     1      -5.169  21.291 -15.931  1.00  0.00     0.210 HD
ENDBRANCH  27  33
TORSDOF 2
ENDMDL
