MODEL 1
REMARK VINA RESULT:    -5.452      0.000      0.000
REMARK INTER + INTRA:          -5.770
REMARK INTER:                  -5.770
REMARK INTRA:                   0.000
REMARK UNBOUND:                 0.000
REMARK SMILES O=c1ccc2cc(O)c(O)cc2o1
REMARK SMILES IDX 4 1 3 2 2 3 1 4 13 5 12 6 11 7 9 8 7 9 6 10 5 11 8 12 10 14
REMARK H PARENT 8 13 10 15
REMARK Flexibility Score: inf
ROOT
ATOM      1  C   UNL     1      82.984  61.164   6.506  1.00  0.00     0.019 A 
ATOM      2  C   UNL     1      84.202  61.490   7.101  1.00  0.00     0.094 A 
ATOM      3  C   UNL     1      84.248  62.553   8.010  1.00  0.00     0.336 A 
ATOM      4  O   UNL     1      85.337  62.864   8.559  1.00  0.00    -0.246 OA
ATOM      5  O   UNL     1      83.146  63.239   8.300  1.00  0.00    -0.423 OA
ATOM      6  C   UNL     1      81.964  62.961   7.753  1.00  0.00     0.142 A 
ATOM      7  C   UNL     1      80.841  63.717   8.096  1.00  0.00     0.098 A 
ATOM      8  C   UNL     1      79.590  63.435   7.529  1.00  0.00     0.161 A 
ATOM      9  C   UNL     1      79.467  62.373   6.599  1.00  0.00     0.158 A 
ATOM     10  C   UNL     1      80.596  61.616   6.259  1.00  0.00     0.062 A 
ATOM     11  C   UNL     1      81.842  61.904   6.830  1.00  0.00     0.022 A 
ENDROOT
BRANCH   9  12
ATOM     12  O   UNL     1      78.253  62.036   5.996  1.00  0.00    -0.504 OA
ATOM     13  H   UNL     1      77.849  62.542   5.220  1.00  0.00     0.293 HD
ENDBRANCH   9  12
BRANCH   8  14
ATOM     14  O   UNL     1      78.508  64.229   7.914  1.00  0.00    -0.504 OA
ATOM     15  H   UNL     1      78.081  64.197   8.828  1.00  0.00     0.293 HD
ENDBRANCH   8  14
TORSDOF 2
ENDMDL
MODEL 2
REMARK VINA RESULT:    -5.300      2.963      5.257
REMARK INTER + INTRA:          -5.610
REMARK INTER:                  -5.610
REMARK INTRA:                   0.000
REMARK UNBOUND:                 0.000
REMARK SMILES O=c1ccc2cc(O)c(O)cc2o1
REMARK SMILES IDX 4 1 3 2 2 3 1 4 13 5 12 6 11 7 9 8 7 9 6 10 5 11 8 12 10 14
REMARK H PARENT 8 13 10 15
REMARK Flexibility Score: inf
ROOT
ATOM      1  C   UNL     1      82.847  61.680   6.035  1.00  0.00     0.019 A 
ATOM      2  C   UNL     1      81.867  60.702   6.206  1.00  0.00     0.094 A 
ATOM      3  C   UNL     1      81.897  59.908   7.357  1.00  0.00     0.336 A 
ATOM      4  O   UNL     1      81.022  59.021   7.531  1.00  0.00    -0.246 OA
ATOM      5  O   UNL     1      82.846  60.085   8.272  1.00  0.00    -0.423 OA
ATOM      6  C   UNL     1      83.800  61.006   8.147  1.00  0.00     0.142 A 
ATOM      7  C   UNL     1      84.770  61.146   9.141  1.00  0.00     0.098 A 
ATOM      8  C   UNL     1      85.780  62.111   9.023  1.00  0.00     0.161 A 
ATOM      9  C   UNL     1      85.814  62.952   7.883  1.00  0.00     0.158 A 
ATOM     10  C   UNL     1      84.838  62.809   6.888  1.00  0.00     0.062 A 
ATOM     11  C   UNL     1      83.832  61.842   7.014  1.00  0.00     0.022 A 
ENDROOT
BRANCH   9  12
ATOM     12  O   UNL     1      86.790  63.934   7.700  1.00  0.00    -0.504 OA
ATOM     13  H   UNL     1      87.477  63.916   6.959  1.00  0.00     0.293 HD
ENDBRANCH   9  12
BRANCH   8  14
ATOM     14  O   UNL     1      86.720  62.198  10.052  1.00  0.00    -0.504 OA
ATOM     15  H   UNL     1      87.677  62.493   9.920  1.00  0.00     0.293 HD
ENDBRANCH   8  14
TORSDOF 2
ENDMDL
MODEL 3
REMARK VINA RESULT:    -5.271      1.752      2.422
REMARK INTER + INTRA:          -5.579
REMARK INTER:                  -5.579
REMARK INTRA:                   0.000
REMARK UNBOUND:                 0.000
REMARK SMILES O=c1ccc2cc(O)c(O)cc2o1
REMARK SMILES IDX 4 1 3 2 2 3 1 4 13 5 12 6 11 7 9 8 7 9 6 10 5 11 8 12 10 14
REMARK H PARENT 8 13 10 15
REMARK Flexibility Score: inf
ROOT
ATOM      1  C   UNL     1      83.367  62.867   7.738  1.00  0.00     0.019 A 
ATOM      2  C   UNL     1      84.337  61.870   7.626  1.00  0.00     0.094 A 
ATOM      3  C   UNL     1      83.935  60.530   7.641  1.00  0.00     0.336 A 
ATOM      4  O   UNL     1      84.794  59.616   7.540  1.00  0.00    -0.246 OA
ATOM      5  O   UNL     1      82.648  60.215   7.761  1.00  0.00    -0.423 OA
ATOM      6  C   UNL     1      81.692  61.135   7.872  1.00  0.00     0.142 A 
ATOM      7  C   UNL     1      80.357  60.743   7.995  1.00  0.00     0.098 A 
ATOM      8  C   UNL     1      79.340  61.700   8.112  1.00  0.00     0.161 A 
ATOM      9  C   UNL     1      79.671  63.078   8.105  1.00  0.00     0.158 A 
ATOM     10  C   UNL     1      81.012  63.467   7.980  1.00  0.00     0.062 A 
ATOM     11  C   UNL     1      82.022  62.504   7.864  1.00  0.00     0.022 A 
ENDROOT
BRANCH   9  12
ATOM     12  O   UNL     1      78.710  64.085   8.217  1.00  0.00    -0.504 OA
ATOM     13  H   UNL     1      78.630  64.703   9.012  1.00  0.00     0.293 HD
ENDBRANCH   9  12
BRANCH   8  14
ATOM     14  O   UNL     1      78.026  61.242   8.233  1.00  0.00    -0.504 OA
ATOM     15  H   UNL     1      77.295  61.744   8.716  1.00  0.00     0.293 HD
ENDBRANCH   8  14
TORSDOF 2
ENDMDL
MODEL 4
REMARK VINA RESULT:    -5.163      2.794      5.297
REMARK INTER + INTRA:          -5.465
REMARK INTER:                  -5.465
REMARK INTRA:                   0.000
REMARK UNBOUND:                 0.000
REMARK SMILES O=c1ccc2cc(O)c(O)cc2o1
REMARK SMILES IDX 4 1 3 2 2 3 1 4 13 5 12 6 11 7 9 8 7 9 6 10 5 11 8 12 10 14
REMARK H PARENT 8 13 10 15
REMARK Flexibility Score: inf
ROOT
ATOM      1  C   UNL     1      82.845  59.949   8.265  1.00  0.00     0.019 A 
ATOM      2  C   UNL     1      81.907  59.832   7.239  1.00  0.00     0.094 A 
ATOM      3  C   UNL     1      81.986  60.702   6.147  1.00  0.00     0.336 A 
ATOM      4  O   UNL     1      81.150  60.612   5.210  1.00  0.00    -0.246 OA
ATOM      5  O   UNL     1      82.941  61.626   6.090  1.00  0.00    -0.423 OA
ATOM      6  C   UNL     1      83.855  61.772   7.047  1.00  0.00     0.142 A 
ATOM      7  C   UNL     1      84.835  62.760   6.933  1.00  0.00     0.098 A 
ATOM      8  C   UNL     1      85.803  62.926   7.932  1.00  0.00     0.161 A 
ATOM      9  C   UNL     1      85.786  62.081   9.070  1.00  0.00     0.158 A 
ATOM     10  C   UNL     1      84.802  61.090   9.181  1.00  0.00     0.062 A 
ATOM     11  C   UNL     1      83.838  60.931   8.177  1.00  0.00     0.022 A 
ENDROOT
BRANCH   9  12
ATOM     12  O   UNL     1      86.719  62.189  10.103  1.00  0.00    -0.504 OA
ATOM     13  H   UNL     1      86.838  61.498  10.831  1.00  0.00     0.293 HD
ENDBRANCH   9  12
BRANCH   8  14
ATOM     14  O   UNL     1      86.754  63.934   7.757  1.00  0.00    -0.504 OA
ATOM     15  H   UNL     1      87.165  64.174   6.866  1.00  0.00     0.293 HD
ENDBRANCH   8  14
TORSDOF 2
ENDMDL
MODEL 5
REMARK VINA RESULT:    -4.974      2.489      5.291
REMARK INTER + INTRA:          -5.265
REMARK INTER:                  -5.265
REMARK INTRA:                   0.000
REMARK UNBOUND:                 0.000
REMARK SMILES O=c1ccc2cc(O)c(O)cc2o1
REMARK SMILES IDX 4 1 3 2 2 3 1 4 13 5 12 6 11 7 9 8 7 9 6 10 5 11 8 12 10 14
REMARK H PARENT 8 13 10 15
REMARK Flexibility Score: inf
ROOT
ATOM      1  C   UNL     1      83.556  59.316   7.676  1.00  0.00     0.019 A 
ATOM      2  C   UNL     1      82.184  59.441   7.891  1.00  0.00     0.094 A 
ATOM      3  C   UNL     1      81.641  60.718   8.069  1.00  0.00     0.336 A 
ATOM      4  O   UNL     1      80.405  60.853   8.264  1.00  0.00    -0.246 OA
ATOM      5  O   UNL     1      82.423  61.793   8.034  1.00  0.00    -0.423 OA
ATOM      6  C   UNL     1      83.737  61.717   7.833  1.00  0.00     0.142 A 
ATOM      7  C   UNL     1      84.508  62.882   7.806  1.00  0.00     0.098 A 
ATOM      8  C   UNL     1      85.891  62.817   7.594  1.00  0.00     0.161 A 
ATOM      9  C   UNL     1      86.513  61.558   7.406  1.00  0.00     0.158 A 
ATOM     10  C   UNL     1      85.736  60.392   7.433  1.00  0.00     0.062 A 
ATOM     11  C   UNL     1      84.354  60.465   7.644  1.00  0.00     0.022 A 
ENDROOT
BRANCH   9  12
ATOM     12  O   UNL     1      87.886  61.419   7.190  1.00  0.00    -0.504 OA
ATOM     13  H   UNL     1      88.469  60.753   7.677  1.00  0.00     0.293 HD
ENDBRANCH   9  12
BRANCH   8  14
ATOM     14  O   UNL     1      86.604  64.018   7.580  1.00  0.00    -0.504 OA
ATOM     15  H   UNL     1      86.258  64.885   7.965  1.00  0.00     0.293 HD
ENDBRANCH   8  14
TORSDOF 2
ENDMDL
MODEL 6
REMARK VINA RESULT:    -4.813      2.738      3.752
REMARK INTER + INTRA:          -5.094
REMARK INTER:                  -5.094
REMARK INTRA:                   0.000
REMARK UNBOUND:                 0.000
REMARK SMILES O=c1ccc2cc(O)c(O)cc2o1
REMARK SMILES IDX 4 1 3 2 2 3 1 4 13 5 12 6 11 7 9 8 7 9 6 10 5 11 8 12 10 14
REMARK H PARENT 8 13 10 15
REMARK Flexibility Score: inf
ROOT
ATOM      1  C   UNL     1      85.700  62.904   8.408  1.00  0.00     0.019 A 
ATOM      2  C   UNL     1      86.497  62.444   9.456  1.00  0.00     0.094 A 
ATOM      3  C   UNL     1      86.187  61.218  10.054  1.00  0.00     0.336 A 
ATOM      4  O   UNL     1      86.894  60.784  11.000  1.00  0.00    -0.246 OA
ATOM      5  O   UNL     1      85.149  60.504   9.628  1.00  0.00    -0.423 OA
ATOM      6  C   UNL     1      84.362  60.908   8.632  1.00  0.00     0.142 A 
ATOM      7  C   UNL     1      83.285  60.116   8.227  1.00  0.00     0.098 A 
ATOM      8  C   UNL     1      82.449  60.527   7.181  1.00  0.00     0.161 A 
ATOM      9  C   UNL     1      82.701  61.759   6.527  1.00  0.00     0.158 A 
ATOM     10  C   UNL     1      83.783  62.551   6.935  1.00  0.00     0.062 A 
ATOM     11  C   UNL     1      84.614  62.132   7.982  1.00  0.00     0.022 A 
ENDROOT
BRANCH   9  12
ATOM     12  O   UNL     1      81.910  62.232   5.478  1.00  0.00    -0.504 OA
ATOM     13  H   UNL     1      82.277  62.685   4.653  1.00  0.00     0.293 HD
ENDBRANCH   9  12
BRANCH   8  14
ATOM     14  O   UNL     1      81.390  59.689   6.826  1.00  0.00    -0.504 OA
ATOM     15  H   UNL     1      81.506  58.771   6.424  1.00  0.00     0.293 HD
ENDBRANCH   8  14
TORSDOF 2
ENDMDL
MODEL 7
REMARK VINA RESULT:    -4.722      2.447      5.578
REMARK INTER + INTRA:          -4.998
REMARK INTER:                  -4.998
REMARK INTRA:                   0.000
REMARK UNBOUND:                 0.000
REMARK SMILES O=c1ccc2cc(O)c(O)cc2o1
REMARK SMILES IDX 4 1 3 2 2 3 1 4 13 5 12 6 11 7 9 8 7 9 6 10 5 11 8 12 10 14
REMARK H PARENT 8 13 10 15
REMARK Flexibility Score: inf
ROOT
ATOM      1  C   UNL     1      82.356  62.875   7.320  1.00  0.00     0.019 A 
ATOM      2  C   UNL     1      81.558  62.288   6.338  1.00  0.00     0.094 A 
ATOM      3  C   UNL     1      82.048  61.179   5.642  1.00  0.00     0.336 A 
ATOM      4  O   UNL     1      81.344  60.634   4.752  1.00  0.00    -0.246 OA
ATOM      5  O   UNL     1      83.256  60.694   5.913  1.00  0.00    -0.423 OA
ATOM      6  C   UNL     1      84.050  61.225   6.841  1.00  0.00     0.142 A 
ATOM      7  C   UNL     1      85.310  60.672   7.082  1.00  0.00     0.098 A 
ATOM      8  C   UNL     1      86.156  61.219   8.056  1.00  0.00     0.161 A 
ATOM      9  C   UNL     1      85.727  62.345   8.803  1.00  0.00     0.158 A 
ATOM     10  C   UNL     1      84.462  62.896   8.558  1.00  0.00     0.062 A 
ATOM     11  C   UNL     1      83.623  62.343   7.583  1.00  0.00     0.022 A 
ENDROOT
BRANCH   9  12
ATOM     12  O   UNL     1      86.516  62.942   9.787  1.00  0.00    -0.504 OA
ATOM     13  H   UNL     1      87.022  62.428  10.495  1.00  0.00     0.293 HD
ENDBRANCH   9  12
BRANCH   8  14
ATOM     14  O   UNL     1      87.402  60.619   8.247  1.00  0.00    -0.504 OA
ATOM     15  H   UNL     1      88.282  61.110   8.179  1.00  0.00     0.293 HD
ENDBRANCH   8  14
TORSDOF 2
ENDMDL
