MODEL 1
REMARK VINA RESULT:    -4.217      0.000      0.000
REMARK INTER + INTRA:          -9.596
REMARK INTER:                  -7.668
REMARK INTRA:                  -1.928
REMARK UNBOUND:                -1.928
REMARK SMILES CCCCCCCCCCCCCCCC(=O)[O-]
REMARK SMILES IDX 9 1 10 2 11 3 12 4 13 5 14 6 15 7 16 8 17 9 18 10 8 11 7 12
REMARK SMILES IDX 6 13 5 14 4 15 3 16 2 17 1 18
REMARK H PARENT
REMARK Flexibility Score: inf
ROOT
ATOM      1  C   UNL     1       7.524  78.207  36.615  1.00  0.00     0.000 C 
ENDROOT
BRANCH   1   2
ATOM      2  C   UNL     1       9.023  78.537  36.662  1.00  0.00     0.000 C 
BRANCH   2   3
ATOM      3  C   UNL     1       9.524  78.612  38.109  1.00  0.00     0.000 C 
BRANCH   3   4
ATOM      4  C   UNL     1      10.216  79.953  38.384  1.00  0.00     0.000 C 
BRANCH   4   5
ATOM      5  C   UNL     1       9.550  80.687  39.554  1.00  0.00     0.000 C 
BRANCH   5   6
ATOM      6  C   UNL     1      10.573  81.533  40.327  1.00  0.00     0.006 C 
BRANCH   6   7
ATOM      7  C   UNL     1      11.876  80.768  40.593  1.00  0.00     0.053 C 
BRANCH   7   8
ATOM      8  C   UNL     1      11.948  80.270  42.004  1.00  0.00     0.041 C 
ATOM      9  O   UNL     1      11.601  79.092  42.280  1.00  0.00    -0.550 OA
ATOM     10  O   UNL     1      12.368  81.118  43.020  1.00  0.00    -0.550 OA
ENDBRANCH   7   8
ENDBRANCH   6   7
ENDBRANCH   5   6
ENDBRANCH   4   5
ENDBRANCH   3   4
ENDBRANCH   2   3
ENDBRANCH   1   2
BRANCH   1  11
ATOM     11  C   UNL     1       6.668  79.405  36.173  1.00  0.00     0.000 C 
BRANCH  11  12
ATOM     12  C   UNL     1       6.493  80.451  37.284  1.00  0.00    -0.000 C 
BRANCH  12  13
ATOM     13  C   UNL     1       5.435  79.994  38.302  1.00  0.00    -0.000 C 
BRANCH  13  14
ATOM     14  C   UNL     1       6.044  79.608  39.660  1.00  0.00    -0.000 C 
BRANCH  14  15
ATOM     15  C   UNL     1       5.568  78.229  40.149  1.00  0.00    -0.000 C 
BRANCH  15  16
ATOM     16  C   UNL     1       6.545  77.096  39.783  1.00  0.00    -0.000 C 
BRANCH  16  17
ATOM     17  C   UNL     1       5.887  75.835  39.194  1.00  0.00    -0.003 C 
ATOM     18  C   UNL     1       4.377  75.976  39.013  1.00  0.00     0.004 C 
ENDBRANCH  16  17
ENDBRANCH  15  16
ENDBRANCH  14  15
ENDBRANCH  13  14
ENDBRANCH  12  13
ENDBRANCH  11  12
ENDBRANCH   1  11
TORSDOF 14
ENDMDL
MODEL 2
REMARK VINA RESULT:    -4.213      3.518      6.651
REMARK INTER + INTRA:          -9.589
REMARK INTER:                  -7.581
REMARK INTRA:                  -2.008
REMARK UNBOUND:                -1.928
REMARK SMILES CCCCCCCCCCCCCCCC(=O)[O-]
REMARK SMILES IDX 9 1 10 2 11 3 12 4 13 5 14 6 15 7 16 8 17 9 18 10 8 11 7 12
REMARK SMILES IDX 6 13 5 14 4 15 3 16 2 17 1 18
REMARK H PARENT
REMARK Flexibility Score: inf
ROOT
ATOM      1  C   UNL     1       6.364  78.471  39.962  1.00  0.00     0.000 C 
ENDROOT
BRANCH   1   2
ATOM      2  C   UNL     1       6.474  76.974  39.638  1.00  0.00     0.000 C 
BRANCH   2   3
ATOM      3  C   UNL     1       5.106  76.392  39.260  1.00  0.00     0.000 C 
BRANCH   3   4
ATOM      4  C   UNL     1       5.197  75.558  37.976  1.00  0.00     0.000 C 
BRANCH   4   5
ATOM      5  C   UNL     1       6.653  75.209  37.649  1.00  0.00     0.000 C 
BRANCH   5   6
ATOM      6  C   UNL     1       6.877  73.690  37.689  1.00  0.00     0.006 C 
BRANCH   6   7
ATOM      7  C   UNL     1       6.943  73.150  39.124  1.00  0.00     0.053 C 
BRANCH   7   8
ATOM      8  C   UNL     1       7.595  71.802  39.179  1.00  0.00     0.041 C 
ATOM      9  O   UNL     1       8.793  71.691  39.550  1.00  0.00    -0.550 OA
ATOM     10  O   UNL     1       6.889  70.672  38.789  1.00  0.00    -0.550 OA
ENDBRANCH   7   8
ENDBRANCH   6   7
ENDBRANCH   5   6
ENDBRANCH   4   5
ENDBRANCH   3   4
ENDBRANCH   2   3
ENDBRANCH   1   2
BRANCH   1  11
ATOM     11  C   UNL     1       5.250  79.169  39.165  1.00  0.00     0.000 C 
BRANCH  11  12
ATOM     12  C   UNL     1       5.791  79.994  37.988  1.00  0.00    -0.000 C 
BRANCH  12  13
ATOM     13  C   UNL     1       6.069  79.096  36.772  1.00  0.00    -0.000 C 
BRANCH  13  14
ATOM     14  C   UNL     1       7.489  79.275  36.212  1.00  0.00    -0.000 C 
BRANCH  14  15
ATOM     15  C   UNL     1       8.440  78.145  36.643  1.00  0.00    -0.000 C 
BRANCH  15  16
ATOM     16  C   UNL     1       9.724  78.668  37.314  1.00  0.00    -0.000 C 
BRANCH  16  17
ATOM     17  C   UNL     1       9.514  79.822  38.310  1.00  0.00    -0.003 C 
ATOM     18  C   UNL     1      10.821  80.479  38.750  1.00  0.00     0.004 C 
ENDBRANCH  16  17
ENDBRANCH  15  16
ENDBRANCH  14  15
ENDBRANCH  13  14
ENDBRANCH  12  13
ENDBRANCH  11  12
ENDBRANCH   1  11
TORSDOF 14
ENDMDL
MODEL 3
REMARK VINA RESULT:    -4.157      1.341      2.155
REMARK INTER + INTRA:          -9.487
REMARK INTER:                  -8.290
REMARK INTRA:                  -1.197
REMARK UNBOUND:                -1.928
REMARK SMILES CCCCCCCCCCCCCCCC(=O)[O-]
REMARK SMILES IDX 9 1 10 2 11 3 12 4 13 5 14 6 15 7 16 8 17 9 18 10 8 11 7 12
REMARK SMILES IDX 6 13 5 14 4 15 3 16 2 17 1 18
REMARK H PARENT
REMARK Flexibility Score: inf
ROOT
ATOM      1  C   UNL     1       9.743  78.485  37.464  1.00  0.00     0.000 C 
ENDROOT
BRANCH   1   2
ATOM      2  C   UNL     1       9.587  79.508  38.598  1.00  0.00     0.000 C 
BRANCH   2   3
ATOM      3  C   UNL     1      10.735  80.524  38.583  1.00  0.00     0.000 C 
BRANCH   3   4
ATOM      4  C   UNL     1      11.387  80.640  39.966  1.00  0.00     0.000 C 
BRANCH   4   5
ATOM      5  C   UNL     1      10.731  79.680  40.966  1.00  0.00     0.000 C 
BRANCH   5   6
ATOM      6  C   UNL     1      11.563  79.572  42.253  1.00  0.00     0.006 C 
BRANCH   6   7
ATOM      7  C   UNL     1      11.947  80.948  42.813  1.00  0.00     0.053 C 
BRANCH   7   8
ATOM      8  C   UNL     1      11.418  81.149  44.200  1.00  0.00     0.041 C 
ATOM      9  O   UNL     1      11.826  82.111  44.902  1.00  0.00    -0.550 OA
ATOM     10  O   UNL     1      10.498  80.254  44.729  1.00  0.00    -0.550 OA
ENDBRANCH   7   8
ENDBRANCH   6   7
ENDBRANCH   5   6
ENDBRANCH   4   5
ENDBRANCH   3   4
ENDBRANCH   2   3
ENDBRANCH   1   2
BRANCH   1  11
ATOM     11  C   UNL     1       8.450  78.298  36.653  1.00  0.00     0.000 C 
BRANCH  11  12
ATOM     12  C   UNL     1       7.434  79.425  36.889  1.00  0.00    -0.000 C 
BRANCH  12  13
ATOM     13  C   UNL     1       6.084  78.856  37.352  1.00  0.00    -0.000 C 
BRANCH  13  14
ATOM     14  C   UNL     1       5.746  79.233  38.804  1.00  0.00    -0.000 C 
BRANCH  14  15
ATOM     15  C   UNL     1       5.926  78.055  39.777  1.00  0.00    -0.000 C 
BRANCH  15  16
ATOM     16  C   UNL     1       5.813  76.685  39.084  1.00  0.00    -0.000 C 
BRANCH  16  17
ATOM     17  C   UNL     1       4.409  76.056  39.111  1.00  0.00    -0.003 C 
ATOM     18  C   UNL     1       4.426  74.566  39.450  1.00  0.00     0.004 C 
ENDBRANCH  16  17
ENDBRANCH  15  16
ENDBRANCH  14  15
ENDBRANCH  13  14
ENDBRANCH  12  13
ENDBRANCH  11  12
ENDBRANCH   1  11
TORSDOF 14
ENDMDL
MODEL 4
REMARK VINA RESULT:    -4.127      3.748      6.726
REMARK INTER + INTRA:          -9.434
REMARK INTER:                  -7.562
REMARK INTRA:                  -1.872
REMARK UNBOUND:                -1.928
REMARK SMILES CCCCCCCCCCCCCCCC(=O)[O-]
REMARK SMILES IDX 9 1 10 2 11 3 12 4 13 5 14 6 15 7 16 8 17 9 18 10 8 11 7 12
REMARK SMILES IDX 6 13 5 14 4 15 3 16 2 17 1 18
REMARK H PARENT
REMARK Flexibility Score: inf
ROOT
ATOM      1  C   UNL     1       6.405  77.079  39.631  1.00  0.00     0.000 C 
ENDROOT
BRANCH   1   2
ATOM      2  C   UNL     1       5.884  75.959  38.718  1.00  0.00     0.000 C 
BRANCH   2   3
ATOM      3  C   UNL     1       6.652  75.931  37.391  1.00  0.00     0.000 C 
BRANCH   3   4
ATOM      4  C   UNL     1       7.410  74.608  37.220  1.00  0.00     0.000 C 
BRANCH   4   5
ATOM      5  C   UNL     1       6.447  73.415  37.253  1.00  0.00     0.000 C 
BRANCH   5   6
ATOM      6  C   UNL     1       7.178  72.130  37.670  1.00  0.00     0.006 C 
BRANCH   6   7
ATOM      7  C   UNL     1       7.365  72.037  39.190  1.00  0.00     0.053 C 
BRANCH   7   8
ATOM      8  C   UNL     1       6.094  72.335  39.925  1.00  0.00     0.041 C 
ATOM      9  O   UNL     1       6.039  73.301  40.730  1.00  0.00    -0.550 OA
ATOM     10  O   UNL     1       4.981  71.526  39.744  1.00  0.00    -0.550 OA
ENDBRANCH   7   8
ENDBRANCH   6   7
ENDBRANCH   5   6
ENDBRANCH   4   5
ENDBRANCH   3   4
ENDBRANCH   2   3
ENDBRANCH   1   2
BRANCH   1  11
ATOM     11  C   UNL     1       5.374  78.199  39.842  1.00  0.00     0.000 C 
BRANCH  11  12
ATOM     12  C   UNL     1       5.843  79.550  39.281  1.00  0.00    -0.000 C 
BRANCH  12  13
ATOM     13  C   UNL     1       5.774  79.559  37.745  1.00  0.00    -0.000 C 
BRANCH  13  14
ATOM     14  C   UNL     1       7.144  79.797  37.090  1.00  0.00    -0.000 C 
BRANCH  14  15
ATOM     15  C   UNL     1       8.285  79.876  38.119  1.00  0.00    -0.000 C 
BRANCH  15  16
ATOM     16  C   UNL     1       9.476  78.969  37.760  1.00  0.00    -0.000 C 
BRANCH  16  17
ATOM     17  C   UNL     1       9.313  78.165  36.458  1.00  0.00    -0.003 C 
ATOM     18  C   UNL     1      10.326  77.029  36.324  1.00  0.00     0.004 C 
ENDBRANCH  16  17
ENDBRANCH  15  16
ENDBRANCH  14  15
ENDBRANCH  13  14
ENDBRANCH  12  13
ENDBRANCH  11  12
ENDBRANCH   1  11
TORSDOF 14
ENDMDL
MODEL 5
REMARK VINA RESULT:    -4.126      3.298      6.582
REMARK INTER + INTRA:          -9.432
REMARK INTER:                  -7.555
REMARK INTRA:                  -1.877
REMARK UNBOUND:                -1.928
REMARK SMILES CCCCCCCCCCCCCCCC(=O)[O-]
REMARK SMILES IDX 9 1 10 2 11 3 12 4 13 5 14 6 15 7 16 8 17 9 18 10 8 11 7 12
REMARK SMILES IDX 6 13 5 14 4 15 3 16 2 17 1 18
REMARK H PARENT
REMARK Flexibility Score: inf
ROOT
ATOM      1  C   UNL     1       5.948  79.823  37.801  1.00  0.00     0.000 C 
ENDROOT
BRANCH   1   2
ATOM      2  C   UNL     1       5.362  78.994  38.953  1.00  0.00     0.000 C 
BRANCH   2   3
ATOM      3  C   UNL     1       6.472  78.288  39.741  1.00  0.00     0.000 C 
BRANCH   3   4
ATOM      4  C   UNL     1       6.325  76.763  39.654  1.00  0.00     0.000 C 
BRANCH   4   5
ATOM      5  C   UNL     1       5.124  76.375  38.782  1.00  0.00     0.000 C 
BRANCH   5   6
ATOM      6  C   UNL     1       4.329  75.227  39.422  1.00  0.00     0.006 C 
BRANCH   6   7
ATOM      7  C   UNL     1       4.668  73.867  38.798  1.00  0.00     0.053 C 
BRANCH   7   8
ATOM      8  C   UNL     1       5.263  72.930  39.803  1.00  0.00     0.041 C 
ATOM      9  O   UNL     1       4.961  71.708  39.788  1.00  0.00    -0.550 OA
ATOM     10  O   UNL     1       6.127  73.412  40.777  1.00  0.00    -0.550 OA
ENDBRANCH   7   8
ENDBRANCH   6   7
ENDBRANCH   5   6
ENDBRANCH   4   5
ENDBRANCH   3   4
ENDBRANCH   2   3
ENDBRANCH   1   2
BRANCH   1  11
ATOM     11  C   UNL     1       6.295  78.968  36.572  1.00  0.00     0.000 C 
BRANCH  11  12
ATOM     12  C   UNL     1       7.780  79.054  36.189  1.00  0.00    -0.000 C 
BRANCH  12  13
ATOM     13  C   UNL     1       8.571  77.885  36.798  1.00  0.00    -0.000 C 
BRANCH  13  14
ATOM     14  C   UNL     1       9.640  78.348  37.800  1.00  0.00    -0.000 C 
BRANCH  14  15
ATOM     15  C   UNL     1       9.652  79.876  37.987  1.00  0.00    -0.000 C 
BRANCH  15  16
ATOM     16  C   UNL     1      10.204  80.306  39.359  1.00  0.00    -0.000 C 
BRANCH  16  17
ATOM     17  C   UNL     1      10.101  79.240  40.465  1.00  0.00    -0.003 C 
ATOM     18  C   UNL     1      11.067  79.483  41.623  1.00  0.00     0.004 C 
ENDBRANCH  16  17
ENDBRANCH  15  16
ENDBRANCH  14  15
ENDBRANCH  13  14
ENDBRANCH  12  13
ENDBRANCH  11  12
ENDBRANCH   1  11
TORSDOF 14
ENDMDL
MODEL 6
REMARK VINA RESULT:    -4.125      1.355      2.530
REMARK INTER + INTRA:          -9.429
REMARK INTER:                  -7.609
REMARK INTRA:                  -1.821
REMARK UNBOUND:                -1.928
REMARK SMILES CCCCCCCCCCCCCCCC(=O)[O-]
REMARK SMILES IDX 9 1 10 2 11 3 12 4 13 5 14 6 15 7 16 8 17 9 18 10 8 11 7 12
REMARK SMILES IDX 6 13 5 14 4 15 3 16 2 17 1 18
REMARK H PARENT
REMARK Flexibility Score: inf
ROOT
ATOM      1  C   UNL     1       9.557  78.673  38.471  1.00  0.00     0.000 C 
ENDROOT
BRANCH   1   2
ATOM      2  C   UNL     1      10.208  80.064  38.511  1.00  0.00     0.000 C 
BRANCH   2   3
ATOM      3  C   UNL     1       9.409  81.018  39.407  1.00  0.00     0.000 C 
BRANCH   3   4
ATOM      4  C   UNL     1       8.573  80.241  40.432  1.00  0.00     0.000 C 
BRANCH   4   5
ATOM      5  C   UNL     1       8.293  81.095  41.675  1.00  0.00     0.000 C 
BRANCH   5   6
ATOM      6  C   UNL     1       9.561  81.832  42.132  1.00  0.00     0.006 C 
BRANCH   6   7
ATOM      7  C   UNL     1      10.327  81.055  43.210  1.00  0.00     0.053 C 
BRANCH   7   8
ATOM      8  C   UNL     1      11.593  80.463  42.671  1.00  0.00     0.041 C 
ATOM      9  O   UNL     1      11.661  79.230  42.422  1.00  0.00    -0.550 OA
ATOM     10  O   UNL     1      12.708  81.266  42.473  1.00  0.00    -0.550 OA
ENDBRANCH   7   8
ENDBRANCH   6   7
ENDBRANCH   5   6
ENDBRANCH   4   5
ENDBRANCH   3   4
ENDBRANCH   2   3
ENDBRANCH   1   2
BRANCH   1  11
ATOM     11  C   UNL     1       9.158  78.247  37.049  1.00  0.00     0.000 C 
BRANCH  11  12
ATOM     12  C   UNL     1       8.010  79.092  36.477  1.00  0.00    -0.000 C 
BRANCH  12  13
ATOM     13  C   UNL     1       6.753  78.972  37.353  1.00  0.00    -0.000 C 
BRANCH  13  14
ATOM     14  C   UNL     1       6.172  77.548  37.367  1.00  0.00    -0.000 C 
BRANCH  14  15
ATOM     15  C   UNL     1       5.405  77.237  38.664  1.00  0.00    -0.000 C 
BRANCH  15  16
ATOM     16  C   UNL     1       5.881  78.085  39.858  1.00  0.00    -0.000 C 
BRANCH  16  17
ATOM     17  C   UNL     1       4.909  79.194  40.298  1.00  0.00    -0.003 C 
ATOM     18  C   UNL     1       4.965  79.481  41.797  1.00  0.00     0.004 C 
ENDBRANCH  16  17
ENDBRANCH  15  16
ENDBRANCH  14  15
ENDBRANCH  13  14
ENDBRANCH  12  13
ENDBRANCH  11  12
ENDBRANCH   1  11
TORSDOF 14
ENDMDL
MODEL 7
REMARK VINA RESULT:    -4.116      3.620      6.921
REMARK INTER + INTRA:          -9.413
REMARK INTER:                  -7.521
REMARK INTRA:                  -1.892
REMARK UNBOUND:                -1.928
REMARK SMILES CCCCCCCCCCCCCCCC(=O)[O-]
REMARK SMILES IDX 9 1 10 2 11 3 12 4 13 5 14 6 15 7 16 8 17 9 18 10 8 11 7 12
REMARK SMILES IDX 6 13 5 14 4 15 3 16 2 17 1 18
REMARK H PARENT
REMARK Flexibility Score: inf
ROOT
ATOM      1  C   UNL     1       6.323  76.751  39.587  1.00  0.00     0.000 C 
ENDROOT
BRANCH   1   2
ATOM      2  C   UNL     1       4.925  76.267  39.174  1.00  0.00     0.000 C 
BRANCH   2   3
ATOM      3  C   UNL     1       4.952  75.645  37.772  1.00  0.00     0.000 C 
BRANCH   3   4
ATOM      4  C   UNL     1       4.955  74.113  37.849  1.00  0.00     0.000 C 
BRANCH   4   5
ATOM      5  C   UNL     1       4.474  73.630  39.223  1.00  0.00     0.000 C 
BRANCH   5   6
ATOM      6  C   UNL     1       5.244  72.378  39.667  1.00  0.00     0.006 C 
BRANCH   6   7
ATOM      7  C   UNL     1       6.712  72.685  39.994  1.00  0.00     0.053 C 
BRANCH   7   8
ATOM      8  C   UNL     1       7.647  71.831  39.194  1.00  0.00     0.041 C 
ATOM      9  O   UNL     1       8.847  71.699  39.550  1.00  0.00    -0.550 OA
ATOM     10  O   UNL     1       7.201  71.209  38.035  1.00  0.00    -0.550 OA
ENDBRANCH   7   8
ENDBRANCH   6   7
ENDBRANCH   5   6
ENDBRANCH   4   5
ENDBRANCH   3   4
ENDBRANCH   2   3
ENDBRANCH   1   2
BRANCH   1  11
ATOM     11  C   UNL     1       6.343  78.236  39.982  1.00  0.00     0.000 C 
BRANCH  11  12
ATOM     12  C   UNL     1       5.314  79.070  39.205  1.00  0.00    -0.000 C 
BRANCH  12  13
ATOM     13  C   UNL     1       5.995  79.866  38.079  1.00  0.00    -0.000 C 
BRANCH  13  14
ATOM     14  C   UNL     1       6.202  79.033  36.803  1.00  0.00    -0.000 C 
BRANCH  14  15
ATOM     15  C   UNL     1       7.607  79.214  36.202  1.00  0.00    -0.000 C 
BRANCH  15  16
ATOM     16  C   UNL     1       8.552  78.044  36.529  1.00  0.00    -0.000 C 
BRANCH  16  17
ATOM     17  C   UNL     1       9.311  78.173  37.862  1.00  0.00    -0.003 C 
ATOM     18  C   UNL     1       9.979  79.534  38.043  1.00  0.00     0.004 C 
ENDBRANCH  16  17
ENDBRANCH  15  16
ENDBRANCH  14  15
ENDBRANCH  13  14
ENDBRANCH  12  13
ENDBRANCH  11  12
ENDBRANCH   1  11
TORSDOF 14
ENDMDL
MODEL 8
REMARK VINA RESULT:    -4.064      2.177      4.489
REMARK INTER + INTRA:          -9.318
REMARK INTER:                  -6.940
REMARK INTRA:                  -2.378
REMARK UNBOUND:                -1.928
REMARK SMILES CCCCCCCCCCCCCCCC(=O)[O-]
REMARK SMILES IDX 9 1 10 2 11 3 12 4 13 5 14 6 15 7 16 8 17 9 18 10 8 11 7 12
REMARK SMILES IDX 6 13 5 14 4 15 3 16 2 17 1 18
REMARK H PARENT
REMARK Flexibility Score: inf
ROOT
ATOM      1  C   UNL     1       6.236  78.024  39.999  1.00  0.00     0.000 C 
ENDROOT
BRANCH   1   2
ATOM      2  C   UNL     1       5.255  78.900  39.206  1.00  0.00     0.000 C 
BRANCH   2   3
ATOM      3  C   UNL     1       6.000  79.791  38.205  1.00  0.00     0.000 C 
BRANCH   3   4
ATOM      4  C   UNL     1       6.100  79.113  36.832  1.00  0.00     0.000 C 
BRANCH   4   5
ATOM      5  C   UNL     1       7.532  79.185  36.286  1.00  0.00     0.000 C 
BRANCH   5   6
ATOM      6  C   UNL     1       8.432  78.141  36.962  1.00  0.00     0.006 C 
BRANCH   6   7
ATOM      7  C   UNL     1       9.776  78.732  37.406  1.00  0.00     0.053 C 
BRANCH   7   8
ATOM      8  C   UNL     1       9.662  79.443  38.719  1.00  0.00     0.041 C 
ATOM      9  O   UNL     1       9.588  80.700  38.755  1.00  0.00    -0.550 OA
ATOM     10  O   UNL     1       9.671  78.721  39.904  1.00  0.00    -0.550 OA
ENDBRANCH   7   8
ENDBRANCH   6   7
ENDBRANCH   5   6
ENDBRANCH   4   5
ENDBRANCH   3   4
ENDBRANCH   2   3
ENDBRANCH   1   2
BRANCH   1  11
ATOM     11  C   UNL     1       6.206  76.552  39.558  1.00  0.00     0.000 C 
BRANCH  11  12
ATOM     12  C   UNL     1       4.817  76.106  39.077  1.00  0.00    -0.000 C 
BRANCH  12  13
ATOM     13  C   UNL     1       4.895  75.500  37.666  1.00  0.00    -0.000 C 
BRANCH  13  14
ATOM     14  C   UNL     1       6.335  75.172  37.239  1.00  0.00    -0.000 C 
BRANCH  14  15
ATOM     15  C   UNL     1       6.485  73.728  36.731  1.00  0.00    -0.000 C 
BRANCH  15  16
ATOM     16  C   UNL     1       6.188  72.679  37.819  1.00  0.00    -0.000 C 
BRANCH  16  17
ATOM     17  C   UNL     1       7.111  72.738  39.049  1.00  0.00    -0.003 C 
ATOM     18  C   UNL     1       6.356  72.994  40.352  1.00  0.00     0.004 C 
ENDBRANCH  16  17
ENDBRANCH  15  16
ENDBRANCH  14  15
ENDBRANCH  13  14
ENDBRANCH  12  13
ENDBRANCH  11  12
ENDBRANCH   1  11
TORSDOF 14
ENDMDL
MODEL 9
REMARK VINA RESULT:    -4.045      4.444      7.057
REMARK INTER + INTRA:          -9.284
REMARK INTER:                  -8.066
REMARK INTRA:                  -1.218
REMARK UNBOUND:                -1.928
REMARK SMILES CCCCCCCCCCCCCCCC(=O)[O-]
REMARK SMILES IDX 9 1 10 2 11 3 12 4 13 5 14 6 15 7 16 8 17 9 18 10 8 11 7 12
REMARK SMILES IDX 6 13 5 14 4 15 3 16 2 17 1 18
REMARK H PARENT
REMARK Flexibility Score: inf
ROOT
ATOM      1  C   UNL     1       5.973  73.862  39.737  1.00  0.00     0.000 C 
ENDROOT
BRANCH   1   2
ATOM      2  C   UNL     1       6.138  72.339  39.631  1.00  0.00     0.000 C 
BRANCH   2   3
ATOM      3  C   UNL     1       7.296  71.977  38.694  1.00  0.00     0.000 C 
BRANCH   3   4
ATOM      4  C   UNL     1       7.420  72.994  37.552  1.00  0.00     0.000 C 
BRANCH   4   5
ATOM      5  C   UNL     1       8.798  72.908  36.885  1.00  0.00     0.000 C 
BRANCH   5   6
ATOM      6  C   UNL     1       9.795  72.153  37.777  1.00  0.00     0.006 C 
BRANCH   6   7
ATOM      7  C   UNL     1      11.053  71.725  37.010  1.00  0.00     0.053 C 
BRANCH   7   8
ATOM      8  C   UNL     1      12.296  71.957  37.813  1.00  0.00     0.041 C 
ATOM      9  O   UNL     1      12.429  71.424  38.945  1.00  0.00    -0.550 OA
ATOM     10  O   UNL     1      13.294  72.789  37.323  1.00  0.00    -0.550 OA
ENDBRANCH   7   8
ENDBRANCH   6   7
ENDBRANCH   5   6
ENDBRANCH   4   5
ENDBRANCH   3   4
ENDBRANCH   2   3
ENDBRANCH   1   2
BRANCH   1  11
ATOM     11  C   UNL     1       4.502  74.304  39.677  1.00  0.00     0.000 C 
BRANCH  11  12
ATOM     12  C   UNL     1       4.302  75.591  38.863  1.00  0.00    -0.000 C 
BRANCH  12  13
ATOM     13  C   UNL     1       5.346  76.651  39.251  1.00  0.00    -0.000 C 
BRANCH  13  14
ATOM     14  C   UNL     1       5.902  77.411  38.035  1.00  0.00    -0.000 C 
BRANCH  14  15
ATOM     15  C   UNL     1       7.186  76.774  37.478  1.00  0.00    -0.000 C 
BRANCH  15  16
ATOM     16  C   UNL     1       8.114  77.798  36.798  1.00  0.00    -0.000 C 
BRANCH  16  17
ATOM     17  C   UNL     1       9.587  77.737  37.242  1.00  0.00    -0.003 C 
ATOM     18  C   UNL     1      10.498  77.079  36.207  1.00  0.00     0.004 C 
ENDBRANCH  16  17
ENDBRANCH  15  16
ENDBRANCH  14  15
ENDBRANCH  13  14
ENDBRANCH  12  13
ENDBRANCH  11  12
ENDBRANCH   1  11
TORSDOF 14
ENDMDL
