MODEL 1
REMARK VINA RESULT:     7.218      0.000      0.000
REMARK INTER + INTRA:          10.880
REMARK INTER:                  10.594
REMARK INTRA:                   0.286
REMARK UNBOUND:                 0.286
REMARK SMILES O=c1c(O[C@H]2O[C@@H](CO)[C@@H](O)[C@@H](O)[C@H]2O)c(-c2ccc(O)c(O)c2)oc2cc(O)cc(O)c12
REMARK SMILES IDX 4 1 3 2 16 3 25 4 2 5 26 6 1 7 33 8 27 9 31 10 28 11 30 12
REMARK SMILES IDX 17 13 18 14 19 15 20 16 24 17 22 18 21 19 23 21 32 23 29 25
REMARK SMILES IDX 5 27 14 28 6 29 12 30 7 31 10 32 15 33 13 35 8 37 9 38 11 40
REMARK H PARENT 21 20 23 22 32 24 29 26 15 34 13 36 9 39 11 41
REMARK Flexibility Score: inf
ROOT
ATOM      1  O   UNL     1       0.221  22.618  50.668  1.00  0.00    -0.454 OA
ENDROOT
BRANCH   1   2
ATOM      2  C   UNL     1      -0.088  22.724  49.304  1.00  0.00     0.214 A 
ATOM      3  C   UNL     1       0.265  21.723  48.373  1.00  0.00     0.180 A 
ATOM      4  O   UNL     1      -0.133  21.828  47.109  1.00  0.00    -0.452 OA
ATOM      5  C   UNL     1      -0.772  23.858  48.847  1.00  0.00     0.239 A 
ATOM      6  C   UNL     1      -0.821  22.864  46.644  1.00  0.00     0.146 A 
ATOM      7  O   UNL     1      -1.045  24.780  49.662  1.00  0.00    -0.285 OA
ATOM      8  C   UNL     1      -1.160  23.943  47.495  1.00  0.00     0.111 A 
ATOM      9  C   UNL     1      -1.195  22.884  45.298  1.00  0.00     0.094 A 
ATOM     10  C   UNL     1      -1.877  25.041  46.964  1.00  0.00     0.134 A 
ATOM     11  C   UNL     1      -1.904  23.969  44.778  1.00  0.00     0.123 A 
ATOM     12  C   UNL     1      -2.242  25.044  45.609  1.00  0.00     0.093 A 
BRANCH   3  13
ATOM     13  C   UNL     1       1.093  20.555  48.744  1.00  0.00     0.025 A 
ATOM     14  C   UNL     1       0.532  19.269  48.724  1.00  0.00     0.016 A 
ATOM     15  C   UNL     1       1.302  18.158  49.071  1.00  0.00     0.051 A 
ATOM     16  C   UNL     1       2.649  18.314  49.430  1.00  0.00     0.157 A 
ATOM     17  C   UNL     1       2.450  20.706  49.077  1.00  0.00     0.062 A 
ATOM     18  C   UNL     1       3.225  19.596  49.429  1.00  0.00     0.158 A 
BRANCH  16  19
ATOM     19  O   UNL     1       3.414  17.205  49.782  1.00  0.00    -0.504 OA
ATOM     20  H   UNL     1       3.891  17.150  50.675  1.00  0.00     0.293 HD
ENDBRANCH  16  19
BRANCH  18  21
ATOM     21  O   UNL     1       4.563  19.785  49.770  1.00  0.00    -0.504 OA
ATOM     22  H   UNL     1       5.246  20.123  49.102  1.00  0.00     0.293 HD
ENDBRANCH  18  21
ENDBRANCH   3  13
BRANCH  10  23
ATOM     23  O   UNL     1      -2.231  26.125  47.768  1.00  0.00    -0.507 OA
ATOM     24  H   UNL     1      -1.592  26.512  48.453  1.00  0.00     0.293 HD
ENDBRANCH  10  23
BRANCH  11  25
ATOM     25  O   UNL     1      -2.268  23.971  43.433  1.00  0.00    -0.508 OA
ATOM     26  H   UNL     1      -1.579  24.073  42.698  1.00  0.00     0.293 HD
ENDBRANCH  11  25
ENDBRANCH   1   2
BRANCH   1  27
ATOM     27  C   UNL     1       0.617  21.391  51.292  1.00  0.00     0.339 C 
ATOM     28  C   UNL     1      -0.513  20.795  52.153  1.00  0.00     0.214 C 
ATOM     29  O   UNL     1       1.825  21.562  52.022  1.00  0.00    -0.332 OA
ATOM     30  C   UNL     1      -0.762  21.645  53.405  1.00  0.00     0.180 C 
ATOM     31  C   UNL     1       1.692  22.356  53.197  1.00  0.00     0.179 C 
ATOM     32  C   UNL     1       0.567  21.859  54.144  1.00  0.00     0.177 C 
BRANCH  28  33
ATOM     33  O   UNL     1      -1.687  20.682  51.391  1.00  0.00    -0.384 OA
ATOM     34  H   UNL     1      -1.787  21.534  50.892  1.00  0.00     0.211 HD
ENDBRANCH  28  33
BRANCH  30  35
ATOM     35  O   UNL     1      -1.352  22.871  53.052  1.00  0.00    -0.387 OA
ATOM     36  H   UNL     1      -0.708  23.585  53.297  1.00  0.00     0.211 HD
ENDBRANCH  30  35
BRANCH  31  37
ATOM     37  C   UNL     1       1.657  23.869  52.894  1.00  0.00     0.191 C 
BRANCH  37  38
ATOM     38  O   UNL     1       2.371  24.131  51.718  1.00  0.00    -0.394 OA
ATOM     39  H   UNL     1       2.643  23.247  51.357  1.00  0.00     0.210 HD
ENDBRANCH  37  38
ENDBRANCH  31  37
BRANCH  32  40
ATOM     40  O   UNL     1       0.381  22.738  55.223  1.00  0.00    -0.387 OA
ATOM     41  H   UNL     1       1.271  23.123  55.437  1.00  0.00     0.211 HD
ENDBRANCH  32  40
ENDBRANCH   1  27
TORSDOF 12
ENDMDL
MODEL 2
REMARK VINA RESULT:     8.174      0.933      2.068
REMARK INTER + INTRA:          12.284
REMARK INTER:                  11.519
REMARK INTRA:                   0.765
REMARK UNBOUND:                 0.286
REMARK SMILES O=c1c(O[C@H]2O[C@@H](CO)[C@@H](O)[C@@H](O)[C@H]2O)c(-c2ccc(O)c(O)c2)oc2cc(O)cc(O)c12
REMARK SMILES IDX 4 1 3 2 16 3 25 4 2 5 26 6 1 7 33 8 27 9 31 10 28 11 30 12
REMARK SMILES IDX 17 13 18 14 19 15 20 16 24 17 22 18 21 19 23 21 32 23 29 25
REMARK SMILES IDX 5 27 14 28 6 29 12 30 7 31 10 32 15 33 13 35 8 37 9 38 11 40
REMARK H PARENT 21 20 23 22 32 24 29 26 15 34 13 36 9 39 11 41
REMARK Flexibility Score: inf
ROOT
ATOM      1  O   UNL     1       0.926  23.032  50.071  1.00  0.00    -0.454 OA
ENDROOT
BRANCH   1   2
ATOM      2  C   UNL     1       0.277  22.878  48.837  1.00  0.00     0.214 A 
ATOM      3  C   UNL     1       0.292  21.657  48.128  1.00  0.00     0.180 A 
ATOM      4  O   UNL     1      -0.415  21.537  47.008  1.00  0.00    -0.452 OA
ATOM      5  C   UNL     1      -0.409  23.968  48.288  1.00  0.00     0.239 A 
ATOM      6  C   UNL     1      -1.116  22.532  46.477  1.00  0.00     0.146 A 
ATOM      7  O   UNL     1      -0.384  25.076  48.889  1.00  0.00    -0.285 OA
ATOM      8  C   UNL     1      -1.132  23.807  47.089  1.00  0.00     0.111 A 
ATOM      9  C   UNL     1      -1.829  22.308  45.296  1.00  0.00     0.094 A 
ATOM     10  C   UNL     1      -1.873  24.852  46.487  1.00  0.00     0.134 A 
ATOM     11  C   UNL     1      -2.561  23.341  44.706  1.00  0.00     0.123 A 
ATOM     12  C   UNL     1      -2.581  24.608  45.300  1.00  0.00     0.093 A 
BRANCH   3  13
ATOM     13  C   UNL     1       1.092  20.495  48.570  1.00  0.00     0.025 A 
ATOM     14  C   UNL     1       0.535  19.209  48.526  1.00  0.00     0.016 A 
ATOM     15  C   UNL     1       1.280  18.102  48.941  1.00  0.00     0.051 A 
ATOM     16  C   UNL     1       2.598  18.265  49.391  1.00  0.00     0.157 A 
ATOM     17  C   UNL     1       2.422  20.652  48.996  1.00  0.00     0.062 A 
ATOM     18  C   UNL     1       3.171  19.547  49.415  1.00  0.00     0.158 A 
BRANCH  16  19
ATOM     19  O   UNL     1       3.337  17.161  49.809  1.00  0.00    -0.504 OA
ATOM     20  H   UNL     1       4.108  16.799  49.259  1.00  0.00     0.293 HD
ENDBRANCH  16  19
BRANCH  18  21
ATOM     21  O   UNL     1       4.483  19.743  49.847  1.00  0.00    -0.504 OA
ATOM     22  H   UNL     1       5.263  19.241  49.441  1.00  0.00     0.293 HD
ENDBRANCH  18  21
ENDBRANCH   3  13
BRANCH  10  23
ATOM     23  O   UNL     1      -1.915  26.125  47.058  1.00  0.00    -0.507 OA
ATOM     24  H   UNL     1      -2.471  26.871  46.656  1.00  0.00     0.293 HD
ENDBRANCH  10  23
BRANCH  11  25
ATOM     25  O   UNL     1      -3.265  23.098  43.529  1.00  0.00    -0.508 OA
ATOM     26  H   UNL     1      -2.791  22.840  42.672  1.00  0.00     0.293 HD
ENDBRANCH  11  25
ENDBRANCH   1   2
BRANCH   1  27
ATOM     27  C   UNL     1       0.506  23.969  51.070  1.00  0.00     0.339 C 
ATOM     28  C   UNL     1       1.484  24.017  52.259  1.00  0.00     0.214 C 
ATOM     29  O   UNL     1      -0.832  23.709  51.475  1.00  0.00    -0.332 OA
ATOM     30  C   UNL     1       1.418  22.725  53.083  1.00  0.00     0.180 C 
ATOM     31  C   UNL     1      -0.993  22.515  52.235  1.00  0.00     0.179 C 
ATOM     32  C   UNL     1      -0.043  22.441  53.461  1.00  0.00     0.177 C 
BRANCH  28  33
ATOM     33  O   UNL     1       2.791  24.240  51.796  1.00  0.00    -0.384 OA
ATOM     34  H   UNL     1       2.722  24.887  51.046  1.00  0.00     0.211 HD
ENDBRANCH  28  33
BRANCH  30  35
ATOM     35  O   UNL     1       1.974  21.657  52.359  1.00  0.00    -0.387 OA
ATOM     36  H   UNL     1       2.760  22.015  51.870  1.00  0.00     0.211 HD
ENDBRANCH  30  35
BRANCH  31  37
ATOM     37  C   UNL     1      -1.010  21.247  51.357  1.00  0.00     0.191 C 
BRANCH  37  38
ATOM     38  O   UNL     1       0.148  20.495  51.592  1.00  0.00    -0.394 OA
ATOM     39  H   UNL     1       0.603  20.405  50.714  1.00  0.00     0.210 HD
ENDBRANCH  37  38
ENDBRANCH  31  37
BRANCH  32  40
ATOM     40  O   UNL     1      -0.139  21.198  54.108  1.00  0.00    -0.387 OA
ATOM     41  H   UNL     1       0.400  20.555  53.577  1.00  0.00     0.211 HD
ENDBRANCH  32  40
ENDBRANCH   1  27
TORSDOF 12
ENDMDL
MODEL 3
REMARK VINA RESULT:     8.993      1.504      4.708
REMARK INTER + INTRA:          13.485
REMARK INTER:                  11.824
REMARK INTRA:                   1.662
REMARK UNBOUND:                 0.286
REMARK SMILES O=c1c(O[C@H]2O[C@@H](CO)[C@@H](O)[C@@H](O)[C@H]2O)c(-c2ccc(O)c(O)c2)oc2cc(O)cc(O)c12
REMARK SMILES IDX 4 1 3 2 16 3 25 4 2 5 26 6 1 7 33 8 27 9 31 10 28 11 30 12
REMARK SMILES IDX 17 13 18 14 19 15 20 16 24 17 22 18 21 19 23 21 32 23 29 25
REMARK SMILES IDX 5 27 14 28 6 29 12 30 7 31 10 32 15 33 13 35 8 37 9 38 11 40
REMARK H PARENT 21 20 23 22 32 24 29 26 15 34 13 36 9 39 11 41
REMARK Flexibility Score: inf
ROOT
ATOM      1  O   UNL     1       0.988  19.887  49.372  1.00  0.00    -0.454 OA
ENDROOT
BRANCH   1   2
ATOM      2  C   UNL     1       0.290  20.996  48.869  1.00  0.00     0.214 A 
ATOM      3  C   UNL     1      -0.105  22.071  49.695  1.00  0.00     0.180 A 
ATOM      4  O   UNL     1      -0.681  23.140  49.153  1.00  0.00    -0.452 OA
ATOM      5  C   UNL     1      -0.025  21.041  47.506  1.00  0.00     0.239 A 
ATOM      6  C   UNL     1      -0.958  23.242  47.858  1.00  0.00     0.146 A 
ATOM      7  O   UNL     1       0.278  20.061  46.773  1.00  0.00    -0.285 OA
ATOM      8  C   UNL     1      -0.655  22.183  46.971  1.00  0.00     0.111 A 
ATOM      9  C   UNL     1      -1.566  24.407  47.382  1.00  0.00     0.094 A 
ATOM     10  C   UNL     1      -0.980  22.316  45.601  1.00  0.00     0.134 A 
ATOM     11  C   UNL     1      -1.883  24.536  46.028  1.00  0.00     0.123 A 
ATOM     12  C   UNL     1      -1.592  23.493  45.142  1.00  0.00     0.093 A 
BRANCH   3  13
ATOM     13  C   UNL     1       0.077  22.050  51.162  1.00  0.00     0.025 A 
ATOM     14  C   UNL     1       1.096  22.814  51.748  1.00  0.00     0.016 A 
ATOM     15  C   UNL     1       1.278  22.804  53.133  1.00  0.00     0.051 A 
ATOM     16  C   UNL     1       0.433  22.042  53.952  1.00  0.00     0.157 A 
ATOM     17  C   UNL     1      -0.787  21.309  51.987  1.00  0.00     0.062 A 
ATOM     18  C   UNL     1      -0.607  21.294  53.374  1.00  0.00     0.158 A 
BRANCH  16  19
ATOM     19  O   UNL     1       0.619  22.029  55.333  1.00  0.00    -0.504 OA
ATOM     20  H   UNL     1      -0.159  22.127  55.975  1.00  0.00     0.293 HD
ENDBRANCH  16  19
BRANCH  18  21
ATOM     21  O   UNL     1      -1.472  20.534  54.161  1.00  0.00    -0.504 OA
ATOM     22  H   UNL     1      -1.223  20.230  55.094  1.00  0.00     0.293 HD
ENDBRANCH  18  21
ENDBRANCH   3  13
BRANCH  10  23
ATOM     23  O   UNL     1      -0.698  21.295  44.692  1.00  0.00    -0.507 OA
ATOM     24  H   UNL     1      -0.327  20.401  44.993  1.00  0.00     0.293 HD
ENDBRANCH  10  23
BRANCH  11  25
ATOM     25  O   UNL     1      -2.489  25.705  45.573  1.00  0.00    -0.508 OA
ATOM     26  H   UNL     1      -1.950  26.540  45.378  1.00  0.00     0.293 HD
ENDBRANCH  11  25
ENDBRANCH   1   2
BRANCH   1  27
ATOM     27  C   UNL     1       1.799  19.032  48.558  1.00  0.00     0.339 C 
ATOM     28  C   UNL     1       2.489  17.933  49.388  1.00  0.00     0.214 C 
ATOM     29  O   UNL     1       2.722  19.793  47.789  1.00  0.00    -0.332 OA
ATOM     30  C   UNL     1       3.576  18.525  50.294  1.00  0.00     0.180 C 
ATOM     31  C   UNL     1       3.763  20.397  48.552  1.00  0.00     0.179 C 
ATOM     32  C   UNL     1       4.526  19.384  49.448  1.00  0.00     0.177 C 
BRANCH  28  33
ATOM     33  O   UNL     1       1.535  17.240  50.151  1.00  0.00    -0.384 OA
ATOM     34  H   UNL     1       0.772  17.044  49.546  1.00  0.00     0.211 HD
ENDBRANCH  28  33
BRANCH  30  35
ATOM     35  O   UNL     1       2.993  19.276  51.328  1.00  0.00    -0.387 OA
ATOM     36  H   UNL     1       3.719  19.811  51.744  1.00  0.00     0.211 HD
ENDBRANCH  30  35
BRANCH  31  37
ATOM     37  C   UNL     1       3.304  21.679  49.278  1.00  0.00     0.191 C 
BRANCH  37  38
ATOM     38  O   UNL     1       3.359  21.482  50.663  1.00  0.00    -0.394 OA
ATOM     39  H   UNL     1       4.303  21.260  50.874  1.00  0.00     0.210 HD
ENDBRANCH  37  38
ENDBRANCH  31  37
BRANCH  32  40
ATOM     40  O   UNL     1       5.454  20.034  50.278  1.00  0.00    -0.387 OA
ATOM     41  H   UNL     1       6.103  20.491  49.681  1.00  0.00     0.211 HD
ENDBRANCH  32  40
ENDBRANCH   1  27
TORSDOF 12
ENDMDL
