MODEL 1
REMARK VINA RESULT:    -5.755      0.000      0.000
REMARK INTER + INTRA:         -12.117
REMARK INTER:                 -10.466
REMARK INTRA:                  -1.651
REMARK UNBOUND:                -1.651
REMARK SMILES CCCCCCCCCCCCCCCC(=O)[O-]
REMARK SMILES IDX 9 1 10 2 11 3 12 4 13 5 14 6 15 7 16 8 17 9 18 10 8 11 7 12
REMARK SMILES IDX 6 13 5 14 4 15 3 16 2 17 1 18
REMARK H PARENT
REMARK Flexibility Score: inf
ROOT
ATOM      1  C   UNL     1      -0.826 -32.008 -53.109  1.00  0.00     0.000 C 
ENDROOT
BRANCH   1   2
ATOM      2  C   UNL     1      -0.175 -31.708 -51.742  1.00  0.00     0.000 C 
BRANCH   2   3
ATOM      3  C   UNL     1      -0.347 -30.250 -51.282  1.00  0.00     0.000 C 
BRANCH   3   4
ATOM      4  C   UNL     1      -1.027 -29.368 -52.342  1.00  0.00     0.000 C 
BRANCH   4   5
ATOM      5  C   UNL     1      -2.550 -29.287 -52.151  1.00  0.00     0.000 C 
BRANCH   5   6
ATOM      6  C   UNL     1      -3.253 -28.541 -53.299  1.00  0.00     0.006 C 
BRANCH   6   7
ATOM      7  C   UNL     1      -4.780 -28.554 -53.149  1.00  0.00     0.053 C 
BRANCH   7   8
ATOM      8  C   UNL     1      -5.461 -28.919 -54.432  1.00  0.00     0.041 C 
ATOM      9  O   UNL     1      -5.174 -29.996 -55.017  1.00  0.00    -0.550 OA
ATOM     10  O   UNL     1      -6.387 -28.053 -55.000  1.00  0.00    -0.550 OA
ENDBRANCH   7   8
ENDBRANCH   6   7
ENDBRANCH   5   6
ENDBRANCH   4   5
ENDBRANCH   3   4
ENDBRANCH   2   3
ENDBRANCH   1   2
BRANCH   1  11
ATOM     11  C   UNL     1      -1.986 -33.012 -52.991  1.00  0.00     0.000 C 
BRANCH  11  12
ATOM     12  C   UNL     1      -2.185 -33.522 -51.555  1.00  0.00    -0.000 C 
BRANCH  12  13
ATOM     13  C   UNL     1      -3.473 -32.990 -50.910  1.00  0.00    -0.000 C 
BRANCH  13  14
ATOM     14  C   UNL     1      -4.410 -32.392 -51.967  1.00  0.00    -0.000 C 
BRANCH  14  15
ATOM     15  C   UNL     1      -5.823 -32.188 -51.400  1.00  0.00    -0.000 C 
BRANCH  15  16
ATOM     16  C   UNL     1      -5.962 -30.848 -50.646  1.00  0.00    -0.000 C 
BRANCH  16  17
ATOM     17  C   UNL     1      -6.349 -31.012 -49.167  1.00  0.00    -0.003 C 
ATOM     18  C   UNL     1      -7.824 -31.351 -48.968  1.00  0.00     0.004 C 
ENDBRANCH  16  17
ENDBRANCH  15  16
ENDBRANCH  14  15
ENDBRANCH  13  14
ENDBRANCH  12  13
ENDBRANCH  11  12
ENDBRANCH   1  11
TORSDOF 14
ENDMDL
MODEL 2
REMARK VINA RESULT:    -5.625      1.445      4.874
REMARK INTER + INTRA:         -11.879
REMARK INTER:                 -10.536
REMARK INTRA:                  -1.343
REMARK UNBOUND:                -1.651
REMARK SMILES CCCCCCCCCCCCCCCC(=O)[O-]
REMARK SMILES IDX 9 1 10 2 11 3 12 4 13 5 14 6 15 7 16 8 17 9 18 10 8 11 7 12
REMARK SMILES IDX 6 13 5 14 4 15 3 16 2 17 1 18
REMARK H PARENT
REMARK Flexibility Score: inf
ROOT
ATOM      1  C   UNL     1      -7.627 -30.132 -49.013  1.00  0.00     0.000 C 
ENDROOT
BRANCH   1   2
ATOM      2  C   UNL     1      -6.318 -29.431 -48.592  1.00  0.00     0.000 C 
BRANCH   2   3
ATOM      3  C   UNL     1      -6.364 -27.900 -48.733  1.00  0.00     0.000 C 
BRANCH   3   4
ATOM      4  C   UNL     1      -6.424 -27.438 -50.197  1.00  0.00     0.000 C 
BRANCH   4   5
ATOM      5  C   UNL     1      -5.504 -28.262 -51.113  1.00  0.00     0.000 C 
BRANCH   5   6
ATOM      6  C   UNL     1      -5.234 -27.570 -52.460  1.00  0.00     0.006 C 
BRANCH   6   7
ATOM      7  C   UNL     1      -4.473 -28.478 -53.436  1.00  0.00     0.053 C 
BRANCH   7   8
ATOM      8  C   UNL     1      -5.369 -29.014 -54.509  1.00  0.00     0.041 C 
ATOM      9  O   UNL     1      -5.167 -30.160 -54.990  1.00  0.00    -0.550 OA
ATOM     10  O   UNL     1      -6.407 -28.234 -55.005  1.00  0.00    -0.550 OA
ENDBRANCH   7   8
ENDBRANCH   6   7
ENDBRANCH   5   6
ENDBRANCH   4   5
ENDBRANCH   3   4
ENDBRANCH   2   3
ENDBRANCH   1   2
BRANCH   1  11
ATOM     11  C   UNL     1      -7.364 -31.455 -49.753  1.00  0.00     0.000 C 
BRANCH  11  12
ATOM     12  C   UNL     1      -5.879 -31.664 -50.085  1.00  0.00    -0.000 C 
BRANCH  12  13
ATOM     13  C   UNL     1      -5.658 -32.168 -51.519  1.00  0.00    -0.000 C 
BRANCH  13  14
ATOM     14  C   UNL     1      -4.255 -31.802 -52.019  1.00  0.00    -0.000 C 
BRANCH  14  15
ATOM     15  C   UNL     1      -3.241 -32.904 -51.672  1.00  0.00    -0.000 C 
BRANCH  15  16
ATOM     16  C   UNL     1      -2.025 -32.897 -52.623  1.00  0.00    -0.000 C 
BRANCH  16  17
ATOM     17  C   UNL     1      -0.674 -32.805 -51.893  1.00  0.00    -0.003 C 
ATOM     18  C   UNL     1      -0.227 -31.368 -51.640  1.00  0.00     0.004 C 
ENDBRANCH  16  17
ENDBRANCH  15  16
ENDBRANCH  14  15
ENDBRANCH  13  14
ENDBRANCH  12  13
ENDBRANCH  11  12
ENDBRANCH   1  11
TORSDOF 14
ENDMDL
MODEL 3
REMARK VINA RESULT:    -5.573      2.323      4.699
REMARK INTER + INTRA:         -11.786
REMARK INTER:                  -9.862
REMARK INTRA:                  -1.924
REMARK UNBOUND:                -1.651
REMARK SMILES CCCCCCCCCCCCCCCC(=O)[O-]
REMARK SMILES IDX 9 1 10 2 11 3 12 4 13 5 14 6 15 7 16 8 17 9 18 10 8 11 7 12
REMARK SMILES IDX 6 13 5 14 4 15 3 16 2 17 1 18
REMARK H PARENT
REMARK Flexibility Score: inf
ROOT
ATOM      1  C   UNL     1      -1.122 -32.738 -53.440  1.00  0.00     0.000 C 
ENDROOT
BRANCH   1   2
ATOM      2  C   UNL     1      -2.607 -32.682 -53.022  1.00  0.00     0.000 C 
BRANCH   2   3
ATOM      3  C   UNL     1      -2.894 -33.360 -51.671  1.00  0.00     0.000 C 
BRANCH   3   4
ATOM      4  C   UNL     1      -3.944 -32.607 -50.837  1.00  0.00     0.000 C 
BRANCH   4   5
ATOM      5  C   UNL     1      -5.215 -32.289 -51.640  1.00  0.00     0.000 C 
BRANCH   5   6
ATOM      6  C   UNL     1      -5.987 -31.084 -51.076  1.00  0.00     0.006 C 
BRANCH   6   7
ATOM      7  C   UNL     1      -6.387 -31.287 -49.609  1.00  0.00     0.053 C 
BRANCH   7   8
ATOM      8  C   UNL     1      -7.405 -30.280 -49.166  1.00  0.00     0.041 C 
ATOM      9  O   UNL     1      -7.242 -29.059 -49.426  1.00  0.00    -0.550 OA
ATOM     10  O   UNL     1      -8.515 -30.686 -48.437  1.00  0.00    -0.550 OA
ENDBRANCH   7   8
ENDBRANCH   6   7
ENDBRANCH   5   6
ENDBRANCH   4   5
ENDBRANCH   3   4
ENDBRANCH   2   3
ENDBRANCH   1   2
BRANCH   1  11
ATOM     11  C   UNL     1      -0.176 -32.651 -52.231  1.00  0.00     0.000 C 
BRANCH  11  12
ATOM     12  C   UNL     1       0.399 -31.241 -52.027  1.00  0.00    -0.000 C 
BRANCH  12  13
ATOM     13  C   UNL     1      -0.538 -30.329 -51.221  1.00  0.00    -0.000 C 
BRANCH  13  14
ATOM     14  C   UNL     1      -0.453 -28.880 -51.716  1.00  0.00    -0.000 C 
BRANCH  14  15
ATOM     15  C   UNL     1      -1.585 -28.567 -52.706  1.00  0.00    -0.000 C 
BRANCH  15  16
ATOM     16  C   UNL     1      -2.940 -29.143 -52.243  1.00  0.00    -0.000 C 
BRANCH  16  17
ATOM     17  C   UNL     1      -4.009 -29.167 -53.349  1.00  0.00    -0.003 C 
ATOM     18  C   UNL     1      -5.126 -28.151 -53.124  1.00  0.00     0.004 C 
ENDBRANCH  16  17
ENDBRANCH  15  16
ENDBRANCH  14  15
ENDBRANCH  13  14
ENDBRANCH  12  13
ENDBRANCH  11  12
ENDBRANCH   1  11
TORSDOF 14
ENDMDL
MODEL 4
REMARK VINA RESULT:    -5.502      2.708      5.133
REMARK INTER + INTRA:         -11.656
REMARK INTER:                  -9.770
REMARK INTRA:                  -1.886
REMARK UNBOUND:                -1.651
REMARK SMILES CCCCCCCCCCCCCCCC(=O)[O-]
REMARK SMILES IDX 9 1 10 2 11 3 12 4 13 5 14 6 15 7 16 8 17 9 18 10 8 11 7 12
REMARK SMILES IDX 6 13 5 14 4 15 3 16 2 17 1 18
REMARK H PARENT
REMARK Flexibility Score: inf
ROOT
ATOM      1  C   UNL     1      -4.869 -30.323 -53.881  1.00  0.00     0.000 C 
ENDROOT
BRANCH   1   2
ATOM      2  C   UNL     1      -5.080 -28.794 -53.817  1.00  0.00     0.000 C 
BRANCH   2   3
ATOM      3  C   UNL     1      -4.787 -28.188 -52.434  1.00  0.00     0.000 C 
BRANCH   3   4
ATOM      4  C   UNL     1      -5.910 -27.262 -51.941  1.00  0.00     0.000 C 
BRANCH   4   5
ATOM      5  C   UNL     1      -6.308 -27.545 -50.483  1.00  0.00     0.000 C 
BRANCH   5   6
ATOM      6  C   UNL     1      -6.164 -29.029 -50.106  1.00  0.00     0.006 C 
BRANCH   6   7
ATOM      7  C   UNL     1      -6.732 -29.331 -48.713  1.00  0.00     0.053 C 
BRANCH   7   8
ATOM      8  C   UNL     1      -7.837 -30.340 -48.771  1.00  0.00     0.041 C 
ATOM      9  O   UNL     1      -7.626 -31.485 -49.251  1.00  0.00    -0.550 OA
ATOM     10  O   UNL     1      -9.111 -30.005 -48.328  1.00  0.00    -0.550 OA
ENDBRANCH   7   8
ENDBRANCH   6   7
ENDBRANCH   5   6
ENDBRANCH   4   5
ENDBRANCH   3   4
ENDBRANCH   2   3
ENDBRANCH   1   2
BRANCH   1  11
ATOM     11  C   UNL     1      -5.595 -31.055 -52.739  1.00  0.00     0.000 C 
BRANCH  11  12
ATOM     12  C   UNL     1      -4.932 -32.392 -52.375  1.00  0.00    -0.000 C 
BRANCH  12  13
ATOM     13  C   UNL     1      -4.300 -32.379 -50.975  1.00  0.00    -0.000 C 
BRANCH  13  14
ATOM     14  C   UNL     1      -3.145 -33.383 -50.885  1.00  0.00    -0.000 C 
BRANCH  14  15
ATOM     15  C   UNL     1      -2.338 -33.414 -52.192  1.00  0.00    -0.000 C 
BRANCH  15  16
ATOM     16  C   UNL     1      -1.102 -32.491 -52.137  1.00  0.00    -0.000 C 
BRANCH  16  17
ATOM     17  C   UNL     1      -1.278 -31.180 -52.922  1.00  0.00    -0.003 C 
ATOM     18  C   UNL     1      -1.586 -29.983 -52.026  1.00  0.00     0.004 C 
ENDBRANCH  16  17
ENDBRANCH  15  16
ENDBRANCH  14  15
ENDBRANCH  13  14
ENDBRANCH  12  13
ENDBRANCH  11  12
ENDBRANCH   1  11
TORSDOF 14
ENDMDL
MODEL 5
REMARK VINA RESULT:    -5.494      2.482      5.144
REMARK INTER + INTRA:         -11.641
REMARK INTER:                 -10.251
REMARK INTRA:                  -1.390
REMARK UNBOUND:                -1.651
REMARK SMILES CCCCCCCCCCCCCCCC(=O)[O-]
REMARK SMILES IDX 9 1 10 2 11 3 12 4 13 5 14 6 15 7 16 8 17 9 18 10 8 11 7 12
REMARK SMILES IDX 6 13 5 14 4 15 3 16 2 17 1 18
REMARK H PARENT
REMARK Flexibility Score: inf
ROOT
ATOM      1  C   UNL     1      -5.417 -29.250 -54.240  1.00  0.00     0.000 C 
ENDROOT
BRANCH   1   2
ATOM      2  C   UNL     1      -5.177 -30.748 -53.949  1.00  0.00     0.000 C 
BRANCH   2   3
ATOM      3  C   UNL     1      -4.669 -31.026 -52.524  1.00  0.00     0.000 C 
BRANCH   3   4
ATOM      4  C   UNL     1      -4.500 -32.526 -52.234  1.00  0.00     0.000 C 
BRANCH   4   5
ATOM      5  C   UNL     1      -3.874 -32.792 -50.856  1.00  0.00     0.000 C 
BRANCH   5   6
ATOM      6  C   UNL     1      -2.507 -33.491 -50.950  1.00  0.00     0.006 C 
BRANCH   6   7
ATOM      7  C   UNL     1      -1.985 -33.552 -52.392  1.00  0.00     0.053 C 
BRANCH   7   8
ATOM      8  C   UNL     1      -0.864 -32.585 -52.618  1.00  0.00     0.041 C 
ATOM      9  O   UNL     1      -0.083 -32.289 -51.675  1.00  0.00    -0.550 OA
ATOM     10  O   UNL     1      -0.703 -31.982 -53.859  1.00  0.00    -0.550 OA
ENDBRANCH   7   8
ENDBRANCH   6   7
ENDBRANCH   5   6
ENDBRANCH   4   5
ENDBRANCH   3   4
ENDBRANCH   2   3
ENDBRANCH   1   2
BRANCH   1  11
ATOM     11  C   UNL     1      -4.731 -28.342 -53.205  1.00  0.00     0.000 C 
BRANCH  11  12
ATOM     12  C   UNL     1      -5.586 -27.125 -52.823  1.00  0.00    -0.000 C 
BRANCH  12  13
ATOM     13  C   UNL     1      -6.346 -27.325 -51.504  1.00  0.00    -0.000 C 
BRANCH  13  14
ATOM     14  C   UNL     1      -5.592 -28.284 -50.576  1.00  0.00    -0.000 C 
BRANCH  14  15
ATOM     15  C   UNL     1      -6.549 -28.954 -49.578  1.00  0.00    -0.000 C 
BRANCH  15  16
ATOM     16  C   UNL     1      -6.860 -30.417 -49.960  1.00  0.00    -0.000 C 
BRANCH  16  17
ATOM     17  C   UNL     1      -7.529 -31.219 -48.831  1.00  0.00    -0.003 C 
ATOM     18  C   UNL     1      -8.759 -30.525 -48.252  1.00  0.00     0.004 C 
ENDBRANCH  16  17
ENDBRANCH  15  16
ENDBRANCH  14  15
ENDBRANCH  13  14
ENDBRANCH  12  13
ENDBRANCH  11  12
ENDBRANCH   1  11
TORSDOF 14
ENDMDL
MODEL 6
REMARK VINA RESULT:    -5.460      2.525      5.705
REMARK INTER + INTRA:         -11.580
REMARK INTER:                  -9.870
REMARK INTRA:                  -1.710
REMARK UNBOUND:                -1.651
REMARK SMILES CCCCCCCCCCCCCCCC(=O)[O-]
REMARK SMILES IDX 9 1 10 2 11 3 12 4 13 5 14 6 15 7 16 8 17 9 18 10 8 11 7 12
REMARK SMILES IDX 6 13 5 14 4 15 3 16 2 17 1 18
REMARK H PARENT
REMARK Flexibility Score: inf
ROOT
ATOM      1  C   UNL     1      -4.670 -28.972 -53.761  1.00  0.00     0.000 C 
ENDROOT
BRANCH   1   2
ATOM      2  C   UNL     1      -5.286 -30.349 -54.088  1.00  0.00     0.000 C 
BRANCH   2   3
ATOM      3  C   UNL     1      -4.533 -31.529 -53.450  1.00  0.00     0.000 C 
BRANCH   3   4
ATOM      4  C   UNL     1      -5.410 -32.345 -52.486  1.00  0.00     0.000 C 
BRANCH   4   5
ATOM      5  C   UNL     1      -5.212 -31.933 -51.018  1.00  0.00     0.000 C 
BRANCH   5   6
ATOM      6  C   UNL     1      -6.220 -30.864 -50.561  1.00  0.00     0.006 C 
BRANCH   6   7
ATOM      7  C   UNL     1      -6.579 -31.005 -49.076  1.00  0.00     0.053 C 
BRANCH   7   8
ATOM      8  C   UNL     1      -7.496 -29.911 -48.621  1.00  0.00     0.041 C 
ATOM      9  O   UNL     1      -8.727 -30.135 -48.477  1.00  0.00    -0.550 OA
ATOM     10  O   UNL     1      -6.998 -28.635 -48.389  1.00  0.00    -0.550 OA
ENDBRANCH   7   8
ENDBRANCH   6   7
ENDBRANCH   5   6
ENDBRANCH   4   5
ENDBRANCH   3   4
ENDBRANCH   2   3
ENDBRANCH   1   2
BRANCH   1  11
ATOM     11  C   UNL     1      -3.666 -29.048 -52.598  1.00  0.00     0.000 C 
BRANCH  11  12
ATOM     12  C   UNL     1      -2.430 -28.162 -52.822  1.00  0.00    -0.000 C 
BRANCH  12  13
ATOM     13  C   UNL     1      -1.123 -28.969 -52.864  1.00  0.00    -0.000 C 
BRANCH  13  14
ATOM     14  C   UNL     1      -0.619 -29.272 -51.449  1.00  0.00    -0.000 C 
BRANCH  14  15
ATOM     15  C   UNL     1      -0.193 -30.742 -51.317  1.00  0.00    -0.000 C 
BRANCH  15  16
ATOM     16  C   UNL     1      -1.400 -31.703 -51.337  1.00  0.00    -0.000 C 
BRANCH  16  17
ATOM     17  C   UNL     1      -1.366 -32.712 -52.498  1.00  0.00    -0.003 C 
ATOM     18  C   UNL     1       0.051 -33.059 -52.947  1.00  0.00     0.004 C 
ENDBRANCH  16  17
ENDBRANCH  15  16
ENDBRANCH  14  15
ENDBRANCH  13  14
ENDBRANCH  12  13
ENDBRANCH  11  12
ENDBRANCH   1  11
TORSDOF 14
ENDMDL
MODEL 7
REMARK VINA RESULT:    -5.425      2.485      4.766
REMARK INTER + INTRA:         -11.517
REMARK INTER:                  -9.912
REMARK INTRA:                  -1.604
REMARK UNBOUND:                -1.651
REMARK SMILES CCCCCCCCCCCCCCCC(=O)[O-]
REMARK SMILES IDX 9 1 10 2 11 3 12 4 13 5 14 6 15 7 16 8 17 9 18 10 8 11 7 12
REMARK SMILES IDX 6 13 5 14 4 15 3 16 2 17 1 18
REMARK H PARENT
REMARK Flexibility Score: inf
ROOT
ATOM      1  C   UNL     1      -3.498 -32.577 -51.887  1.00  0.00     0.000 C 
ENDROOT
BRANCH   1   2
ATOM      2  C   UNL     1      -3.742 -31.867 -53.236  1.00  0.00     0.000 C 
BRANCH   2   3
ATOM      3  C   UNL     1      -5.229 -31.609 -53.538  1.00  0.00     0.000 C 
BRANCH   3   4
ATOM      4  C   UNL     1      -5.478 -30.232 -54.173  1.00  0.00     0.000 C 
BRANCH   4   5
ATOM      5  C   UNL     1      -4.851 -29.087 -53.360  1.00  0.00     0.000 C 
BRANCH   5   6
ATOM      6  C   UNL     1      -5.241 -29.133 -51.872  1.00  0.00     0.006 C 
BRANCH   6   7
ATOM      7  C   UNL     1      -5.641 -27.752 -51.335  1.00  0.00     0.053 C 
BRANCH   7   8
ATOM      8  C   UNL     1      -6.415 -27.856 -50.057  1.00  0.00     0.041 C 
ATOM      9  O   UNL     1      -6.824 -28.977 -49.654  1.00  0.00    -0.550 OA
ATOM     10  O   UNL     1      -6.715 -26.712 -49.329  1.00  0.00    -0.550 OA
ENDBRANCH   7   8
ENDBRANCH   6   7
ENDBRANCH   5   6
ENDBRANCH   4   5
ENDBRANCH   3   4
ENDBRANCH   2   3
ENDBRANCH   1   2
BRANCH   1  11
ATOM     11  C   UNL     1      -2.283 -33.519 -51.940  1.00  0.00     0.000 C 
BRANCH  11  12
ATOM     12  C   UNL     1      -1.369 -33.242 -53.144  1.00  0.00    -0.000 C 
BRANCH  12  13
ATOM     13  C   UNL     1       0.083 -32.955 -52.733  1.00  0.00    -0.000 C 
BRANCH  13  14
ATOM     14  C   UNL     1       0.364 -31.448 -52.731  1.00  0.00    -0.000 C 
BRANCH  14  15
ATOM     15  C   UNL     1       0.077 -30.835 -51.352  1.00  0.00    -0.000 C 
BRANCH  15  16
ATOM     16  C   UNL     1      -0.362 -29.358 -51.449  1.00  0.00    -0.000 C 
BRANCH  16  17
ATOM     17  C   UNL     1      -1.344 -29.084 -52.600  1.00  0.00    -0.003 C 
ATOM     18  C   UNL     1      -1.572 -27.595 -52.851  1.00  0.00     0.004 C 
ENDBRANCH  16  17
ENDBRANCH  15  16
ENDBRANCH  14  15
ENDBRANCH  13  14
ENDBRANCH  12  13
ENDBRANCH  11  12
ENDBRANCH   1  11
TORSDOF 14
ENDMDL
MODEL 8
REMARK VINA RESULT:    -5.410      2.731      6.205
REMARK INTER + INTRA:         -11.488
REMARK INTER:                 -10.050
REMARK INTRA:                  -1.438
REMARK UNBOUND:                -1.651
REMARK SMILES CCCCCCCCCCCCCCCC(=O)[O-]
REMARK SMILES IDX 9 1 10 2 11 3 12 4 13 5 14 6 15 7 16 8 17 9 18 10 8 11 7 12
REMARK SMILES IDX 6 13 5 14 4 15 3 16 2 17 1 18
REMARK H PARENT
REMARK Flexibility Score: inf
ROOT
ATOM      1  C   UNL     1      -7.566 -29.790 -48.999  1.00  0.00     0.000 C 
ENDROOT
BRANCH   1   2
ATOM      2  C   UNL     1      -7.230 -31.286 -49.179  1.00  0.00     0.000 C 
BRANCH   2   3
ATOM      3  C   UNL     1      -5.892 -31.537 -49.895  1.00  0.00     0.000 C 
BRANCH   3   4
ATOM      4  C   UNL     1      -6.069 -32.167 -51.286  1.00  0.00     0.000 C 
BRANCH   4   5
ATOM      5  C   UNL     1      -4.807 -32.039 -52.155  1.00  0.00     0.000 C 
BRANCH   5   6
ATOM      6  C   UNL     1      -3.589 -32.750 -51.540  1.00  0.00     0.006 C 
BRANCH   6   7
ATOM      7  C   UNL     1      -2.418 -32.851 -52.527  1.00  0.00     0.053 C 
BRANCH   7   8
ATOM      8  C   UNL     1      -1.101 -32.618 -51.853  1.00  0.00     0.041 C 
ATOM      9  O   UNL     1      -1.046 -31.954 -50.784  1.00  0.00    -0.550 OA
ATOM     10  O   UNL     1       0.070 -33.103 -52.422  1.00  0.00    -0.550 OA
ENDBRANCH   7   8
ENDBRANCH   6   7
ENDBRANCH   5   6
ENDBRANCH   4   5
ENDBRANCH   3   4
ENDBRANCH   2   3
ENDBRANCH   1   2
BRANCH   1  11
ATOM     11  C   UNL     1      -6.323 -28.956 -48.642  1.00  0.00     0.000 C 
BRANCH  11  12
ATOM     12  C   UNL     1      -6.379 -27.532 -49.214  1.00  0.00    -0.000 C 
BRANCH  12  13
ATOM     13  C   UNL     1      -6.352 -27.509 -50.750  1.00  0.00    -0.000 C 
BRANCH  13  14
ATOM     14  C   UNL     1      -5.248 -28.423 -51.293  1.00  0.00    -0.000 C 
BRANCH  14  15
ATOM     15  C   UNL     1      -4.562 -27.794 -52.515  1.00  0.00    -0.000 C 
BRANCH  15  16
ATOM     16  C   UNL     1      -4.372 -28.806 -53.664  1.00  0.00    -0.000 C 
BRANCH  16  17
ATOM     17  C   UNL     1      -5.573 -28.881 -54.622  1.00  0.00    -0.003 C 
ATOM     18  C   UNL     1      -6.357 -27.574 -54.703  1.00  0.00     0.004 C 
ENDBRANCH  16  17
ENDBRANCH  15  16
ENDBRANCH  14  15
ENDBRANCH  13  14
ENDBRANCH  12  13
ENDBRANCH  11  12
ENDBRANCH   1  11
TORSDOF 14
ENDMDL
MODEL 9
REMARK VINA RESULT:    -5.337      2.439      4.172
REMARK INTER + INTRA:         -11.356
REMARK INTER:                  -9.418
REMARK INTRA:                  -1.938
REMARK UNBOUND:                -1.651
REMARK SMILES CCCCCCCCCCCCCCCC(=O)[O-]
REMARK SMILES IDX 9 1 10 2 11 3 12 4 13 5 14 6 15 7 16 8 17 9 18 10 8 11 7 12
REMARK SMILES IDX 6 13 5 14 4 15 3 16 2 17 1 18
REMARK H PARENT
REMARK Flexibility Score: inf
ROOT
ATOM      1  C   UNL     1      -4.936 -28.764 -53.354  1.00  0.00     0.000 C 
ENDROOT
BRANCH   1   2
ATOM      2  C   UNL     1      -3.678 -28.700 -52.461  1.00  0.00     0.000 C 
BRANCH   2   3
ATOM      3  C   UNL     1      -2.505 -27.937 -53.100  1.00  0.00     0.000 C 
BRANCH   3   4
ATOM      4  C   UNL     1      -1.137 -28.400 -52.575  1.00  0.00     0.000 C 
BRANCH   4   5
ATOM      5  C   UNL     1      -1.206 -29.769 -51.878  1.00  0.00     0.000 C 
BRANCH   5   6
ATOM      6  C   UNL     1      -0.721 -30.918 -52.778  1.00  0.00     0.006 C 
BRANCH   6   7
ATOM      7  C   UNL     1      -0.243 -32.129 -51.966  1.00  0.00     0.053 C 
BRANCH   7   8
ATOM      8  C   UNL     1      -1.374 -33.048 -51.621  1.00  0.00     0.041 C 
ATOM      9  O   UNL     1      -1.952 -33.708 -52.526  1.00  0.00    -0.550 OA
ATOM     10  O   UNL     1      -1.815 -33.151 -50.308  1.00  0.00    -0.550 OA
ENDBRANCH   7   8
ENDBRANCH   6   7
ENDBRANCH   5   6
ENDBRANCH   4   5
ENDBRANCH   3   4
ENDBRANCH   2   3
ENDBRANCH   1   2
BRANCH   1  11
ATOM     11  C   UNL     1      -5.210 -30.189 -53.865  1.00  0.00     0.000 C 
BRANCH  11  12
ATOM     12  C   UNL     1      -4.362 -31.251 -53.149  1.00  0.00    -0.000 C 
BRANCH  12  13
ATOM     13  C   UNL     1      -5.216 -32.289 -52.404  1.00  0.00    -0.000 C 
BRANCH  13  14
ATOM     14  C   UNL     1      -5.207 -32.026 -50.894  1.00  0.00    -0.000 C 
BRANCH  14  15
ATOM     15  C   UNL     1      -6.440 -31.214 -50.467  1.00  0.00    -0.000 C 
BRANCH  15  16
ATOM     16  C   UNL     1      -6.380 -30.800 -48.982  1.00  0.00    -0.000 C 
BRANCH  16  17
ATOM     17  C   UNL     1      -6.775 -29.335 -48.735  1.00  0.00    -0.003 C 
ATOM     18  C   UNL     1      -6.261 -28.386 -49.814  1.00  0.00     0.004 C 
ENDBRANCH  16  17
ENDBRANCH  15  16
ENDBRANCH  14  15
ENDBRANCH  13  14
ENDBRANCH  12  13
ENDBRANCH  11  12
ENDBRANCH   1  11
TORSDOF 14
ENDMDL
