MODEL 1
REMARK VINA RESULT:    -3.333      0.000      0.000
REMARK INTER + INTRA:         -12.096
REMARK INTER:                  -8.398
REMARK INTRA:                  -3.698
REMARK UNBOUND:                -3.698
REMARK SMILES CCCCCCCCCCCCCCCCCCCCCCCCCCCC(=O)[O-]
REMARK SMILES IDX 15 1 16 2 17 3 18 4 19 5 20 6 21 7 22 8 23 9 24 10 25 11
REMARK SMILES IDX 26 12 27 13 28 14 29 15 30 16 14 17 13 18 12 19 11 20 10 21
REMARK SMILES IDX 9 22 8 23 7 24 6 25 5 26 4 27 3 28 2 29 1 30
REMARK H PARENT
REMARK Flexibility Score: inf
ROOT
ATOM      1  C   UNL     1      98.349 -66.073   3.856  1.00  0.00     0.000 C 
ENDROOT
BRANCH   1   2
ATOM      2  C   UNL     1      96.991 -65.546   3.374  1.00  0.00     0.000 C 
BRANCH   2   3
ATOM      3  C   UNL     1      97.045 -65.157   1.890  1.00  0.00     0.000 C 
BRANCH   3   4
ATOM      4  C   UNL     1      98.422 -65.443   1.258  1.00  0.00     0.000 C 
BRANCH   4   5
ATOM      5  C   UNL     1      98.357 -66.120  -0.125  1.00  0.00     0.000 C 
BRANCH   5   6
ATOM      6  C   UNL     1      99.114 -67.454  -0.246  1.00  0.00     0.000 C 
BRANCH   6   7
ATOM      7  C   UNL     1     100.414 -67.484   0.580  1.00  0.00     0.000 C 
BRANCH   7   8
ATOM      8  C   UNL     1     101.654 -67.104  -0.249  1.00  0.00     0.000 C 
BRANCH   8   9
ATOM      9  C   UNL     1     102.034 -68.108  -1.358  1.00  0.00     0.000 C 
BRANCH   9  10
ATOM     10  C   UNL     1     101.849 -67.595  -2.798  1.00  0.00     0.000 C 
BRANCH  10  11
ATOM     11  C   UNL     1     100.665 -68.220  -3.564  1.00  0.00     0.000 C 
BRANCH  11  12
ATOM     12  C   UNL     1      99.933 -67.229  -4.498  1.00  0.00     0.006 C 
BRANCH  12  13
ATOM     13  C   UNL     1      99.144 -66.141  -3.755  1.00  0.00     0.053 C 
BRANCH  13  14
ATOM     14  C   UNL     1      97.667 -66.255  -3.988  1.00  0.00     0.041 C 
ATOM     15  O   UNL     1      97.104 -65.533  -4.852  1.00  0.00    -0.550 OA
ATOM     16  O   UNL     1      96.914 -67.160  -3.250  1.00  0.00    -0.550 OA
ENDBRANCH  13  14
ENDBRANCH  12  13
ENDBRANCH  11  12
ENDBRANCH  10  11
ENDBRANCH   9  10
ENDBRANCH   8   9
ENDBRANCH   7   8
ENDBRANCH   6   7
ENDBRANCH   5   6
ENDBRANCH   4   5
ENDBRANCH   3   4
ENDBRANCH   2   3
ENDBRANCH   1   2
BRANCH   1  17
ATOM     17  C   UNL     1      99.008 -65.153   4.899  1.00  0.00     0.000 C 
BRANCH  17  18
ATOM     18  C   UNL     1     100.511 -64.875   4.675  1.00  0.00     0.000 C 
BRANCH  18  19
ATOM     19  C   UNL     1     101.187 -65.854   3.691  1.00  0.00     0.000 C 
BRANCH  19  20
ATOM     20  C   UNL     1     102.041 -66.913   4.410  1.00  0.00     0.000 C 
BRANCH  20  21
ATOM     21  C   UNL     1     101.622 -68.349   4.057  1.00  0.00     0.000 C 
BRANCH  21  22
ATOM     22  C   UNL     1     100.221 -68.702   4.580  1.00  0.00    -0.000 C 
BRANCH  22  23
ATOM     23  C   UNL     1     100.299 -69.680   5.760  1.00  0.00    -0.000 C 
BRANCH  23  24
ATOM     24  C   UNL     1     101.538 -69.433   6.641  1.00  0.00    -0.000 C 
BRANCH  24  25
ATOM     25  C   UNL     1     101.192 -68.646   7.918  1.00  0.00    -0.000 C 
BRANCH  25  26
ATOM     26  C   UNL     1     101.737 -67.205   7.912  1.00  0.00    -0.000 C 
BRANCH  26  27
ATOM     27  C   UNL     1     100.656 -66.134   8.171  1.00  0.00    -0.000 C 
BRANCH  27  28
ATOM     28  C   UNL     1     100.877 -65.395   9.504  1.00  0.00    -0.000 C 
BRANCH  28  29
ATOM     29  C   UNL     1     101.152 -66.352  10.673  1.00  0.00    -0.003 C 
ATOM     30  C   UNL     1      99.915 -67.129  11.115  1.00  0.00     0.004 C 
ENDBRANCH  28  29
ENDBRANCH  27  28
ENDBRANCH  26  27
ENDBRANCH  25  26
ENDBRANCH  24  25
ENDBRANCH  23  24
ENDBRANCH  22  23
ENDBRANCH  21  22
ENDBRANCH  20  21
ENDBRANCH  19  20
ENDBRANCH  18  19
ENDBRANCH  17  18
ENDBRANCH   1  17
TORSDOF 26
ENDMDL
MODEL 2
REMARK VINA RESULT:    -2.771      1.436      2.373
REMARK INTER + INTRA:         -10.681
REMARK INTER:                  -8.238
REMARK INTRA:                  -2.443
REMARK UNBOUND:                -3.698
REMARK SMILES CCCCCCCCCCCCCCCCCCCCCCCCCCCC(=O)[O-]
REMARK SMILES IDX 15 1 16 2 17 3 18 4 19 5 20 6 21 7 22 8 23 9 24 10 25 11
REMARK SMILES IDX 26 12 27 13 28 14 29 15 30 16 14 17 13 18 12 19 11 20 10 21
REMARK SMILES IDX 9 22 8 23 7 24 6 25 5 26 4 27 3 28 2 29 1 30
REMARK H PARENT
REMARK Flexibility Score: inf
ROOT
ATOM      1  C   UNL     1      97.590 -67.745   3.682  1.00  0.00     0.000 C 
ENDROOT
BRANCH   1   2
ATOM      2  C   UNL     1      98.652 -68.515   2.886  1.00  0.00     0.000 C 
BRANCH   2   3
ATOM      3  C   UNL     1      99.139 -67.699   1.680  1.00  0.00     0.000 C 
BRANCH   3   4
ATOM      4  C   UNL     1     100.552 -68.116   1.223  1.00  0.00     0.000 C 
BRANCH   4   5
ATOM      5  C   UNL     1     101.618 -67.013   1.375  1.00  0.00     0.000 C 
BRANCH   5   6
ATOM      6  C   UNL     1     101.169 -65.597   0.976  1.00  0.00     0.000 C 
BRANCH   6   7
ATOM      7  C   UNL     1     102.125 -64.924  -0.028  1.00  0.00     0.000 C 
BRANCH   7   8
ATOM      8  C   UNL     1     102.112 -65.605  -1.408  1.00  0.00     0.000 C 
BRANCH   8   9
ATOM      9  C   UNL     1     100.719 -66.039  -1.913  1.00  0.00     0.000 C 
BRANCH   9  10
ATOM     10  C   UNL     1     100.710 -67.265  -2.843  1.00  0.00     0.000 C 
BRANCH  10  11
ATOM     11  C   UNL     1     100.827 -66.942  -4.347  1.00  0.00     0.000 C 
BRANCH  11  12
ATOM     12  C   UNL     1      99.467 -66.867  -5.077  1.00  0.00     0.006 C 
BRANCH  12  13
ATOM     13  C   UNL     1      98.390 -67.790  -4.484  1.00  0.00     0.053 C 
BRANCH  13  14
ATOM     14  C   UNL     1      97.396 -67.037  -3.652  1.00  0.00     0.041 C 
ATOM     15  O   UNL     1      96.904 -67.565  -2.621  1.00  0.00    -0.550 OA
ATOM     16  O   UNL     1      97.014 -65.751  -4.016  1.00  0.00    -0.550 OA
ENDBRANCH  13  14
ENDBRANCH  12  13
ENDBRANCH  11  12
ENDBRANCH  10  11
ENDBRANCH   9  10
ENDBRANCH   8   9
ENDBRANCH   7   8
ENDBRANCH   6   7
ENDBRANCH   5   6
ENDBRANCH   4   5
ENDBRANCH   3   4
ENDBRANCH   2   3
ENDBRANCH   1   2
BRANCH   1  17
ATOM     17  C   UNL     1      97.357 -66.323   3.141  1.00  0.00     0.000 C 
BRANCH  17  18
ATOM     18  C   UNL     1      97.939 -65.186   4.009  1.00  0.00     0.000 C 
BRANCH  18  19
ATOM     19  C   UNL     1      98.975 -65.662   5.050  1.00  0.00     0.000 C 
BRANCH  19  20
ATOM     20  C   UNL     1     100.400 -65.727   4.475  1.00  0.00     0.000 C 
BRANCH  20  21
ATOM     21  C   UNL     1     101.328 -66.637   5.295  1.00  0.00     0.000 C 
BRANCH  21  22
ATOM     22  C   UNL     1     100.650 -67.952   5.709  1.00  0.00    -0.000 C 
BRANCH  22  23
ATOM     23  C   UNL     1     101.668 -68.939   6.298  1.00  0.00    -0.000 C 
BRANCH  23  24
ATOM     24  C   UNL     1     102.052 -68.584   7.746  1.00  0.00    -0.000 C 
BRANCH  24  25
ATOM     25  C   UNL     1     100.941 -67.797   8.464  1.00  0.00    -0.000 C 
BRANCH  25  26
ATOM     26  C   UNL     1     100.488 -68.450   9.784  1.00  0.00    -0.000 C 
BRANCH  26  27
ATOM     27  C   UNL     1     101.392 -68.107  10.986  1.00  0.00    -0.000 C 
BRANCH  27  28
ATOM     28  C   UNL     1     101.432 -66.595  11.272  1.00  0.00    -0.000 C 
BRANCH  28  29
ATOM     29  C   UNL     1     100.208 -65.854  10.712  1.00  0.00    -0.003 C 
ATOM     30  C   UNL     1      99.431 -65.089  11.780  1.00  0.00     0.004 C 
ENDBRANCH  28  29
ENDBRANCH  27  28
ENDBRANCH  26  27
ENDBRANCH  25  26
ENDBRANCH  24  25
ENDBRANCH  23  24
ENDBRANCH  22  23
ENDBRANCH  21  22
ENDBRANCH  20  21
ENDBRANCH  19  20
ENDBRANCH  18  19
ENDBRANCH  17  18
ENDBRANCH   1  17
TORSDOF 26
ENDMDL
MODEL 3
REMARK VINA RESULT:    -2.737      1.391      2.187
REMARK INTER + INTRA:         -10.596
REMARK INTER:                  -7.407
REMARK INTRA:                  -3.189
REMARK UNBOUND:                -3.698
REMARK SMILES CCCCCCCCCCCCCCCCCCCCCCCCCCCC(=O)[O-]
REMARK SMILES IDX 15 1 16 2 17 3 18 4 19 5 20 6 21 7 22 8 23 9 24 10 25 11
REMARK SMILES IDX 26 12 27 13 28 14 29 15 30 16 14 17 13 18 12 19 11 20 10 21
REMARK SMILES IDX 9 22 8 23 7 24 6 25 5 26 4 27 3 28 2 29 1 30
REMARK H PARENT
REMARK Flexibility Score: inf
ROOT
ATOM      1  C   UNL     1      97.155 -67.465   3.971  1.00  0.00     0.000 C 
ENDROOT
BRANCH   1   2
ATOM      2  C   UNL     1      97.100 -66.799   2.590  1.00  0.00     0.000 C 
BRANCH   2   3
ATOM      3  C   UNL     1      97.508 -65.322   2.672  1.00  0.00     0.000 C 
BRANCH   3   4
ATOM      4  C   UNL     1      98.654 -64.975   1.701  1.00  0.00     0.000 C 
BRANCH   4   5
ATOM      5  C   UNL     1      98.668 -65.816   0.409  1.00  0.00     0.000 C 
BRANCH   5   6
ATOM      6  C   UNL     1     100.035 -66.397   0.010  1.00  0.00     0.000 C 
BRANCH   6   7
ATOM      7  C   UNL     1     101.111 -65.314  -0.195  1.00  0.00     0.000 C 
BRANCH   7   8
ATOM      8  C   UNL     1     101.717 -65.339  -1.609  1.00  0.00     0.000 C 
BRANCH   8   9
ATOM      9  C   UNL     1     100.777 -65.862  -2.717  1.00  0.00     0.000 C 
BRANCH   9  10
ATOM     10  C   UNL     1     101.059 -67.300  -3.192  1.00  0.00     0.000 C 
BRANCH  10  11
ATOM     11  C   UNL     1      99.803 -68.148  -3.481  1.00  0.00     0.000 C 
BRANCH  11  12
ATOM     12  C   UNL     1      98.845 -67.512  -4.513  1.00  0.00     0.006 C 
BRANCH  12  13
ATOM     13  C   UNL     1      97.577 -66.904  -3.895  1.00  0.00     0.053 C 
BRANCH  13  14
ATOM     14  C   UNL     1      97.313 -65.516  -4.396  1.00  0.00     0.041 C 
ATOM     15  O   UNL     1      98.219 -64.875  -4.992  1.00  0.00    -0.550 OA
ATOM     16  O   UNL     1      96.068 -64.931  -4.205  1.00  0.00    -0.550 OA
ENDBRANCH  13  14
ENDBRANCH  12  13
ENDBRANCH  11  12
ENDBRANCH  10  11
ENDBRANCH   9  10
ENDBRANCH   8   9
ENDBRANCH   7   8
ENDBRANCH   6   7
ENDBRANCH   5   6
ENDBRANCH   4   5
ENDBRANCH   3   4
ENDBRANCH   2   3
ENDBRANCH   1   2
BRANCH   1  17
ATOM     17  C   UNL     1      98.569 -67.943   4.345  1.00  0.00     0.000 C 
BRANCH  17  18
ATOM     18  C   UNL     1      99.441 -68.410   3.158  1.00  0.00     0.000 C 
BRANCH  18  19
ATOM     19  C   UNL     1     100.956 -68.213   3.381  1.00  0.00     0.000 C 
BRANCH  19  20
ATOM     20  C   UNL     1     101.375 -66.735   3.300  1.00  0.00     0.000 C 
BRANCH  20  21
ATOM     21  C   UNL     1     100.843 -65.904   4.478  1.00  0.00     0.000 C 
BRANCH  21  22
ATOM     22  C   UNL     1     101.966 -65.394   5.395  1.00  0.00    -0.000 C 
BRANCH  22  23
ATOM     23  C   UNL     1     102.119 -66.288   6.633  1.00  0.00    -0.000 C 
BRANCH  23  24
ATOM     24  C   UNL     1     100.805 -67.000   7.004  1.00  0.00    -0.000 C 
BRANCH  24  25
ATOM     25  C   UNL     1     101.045 -68.433   7.510  1.00  0.00    -0.000 C 
BRANCH  25  26
ATOM     26  C   UNL     1     100.766 -68.603   9.016  1.00  0.00    -0.000 C 
BRANCH  26  27
ATOM     27  C   UNL     1     101.557 -67.620   9.906  1.00  0.00    -0.000 C 
BRANCH  27  28
ATOM     28  C   UNL     1     100.856 -67.360  11.252  1.00  0.00    -0.000 C 
BRANCH  28  29
ATOM     29  C   UNL     1      99.698 -66.359  11.132  1.00  0.00    -0.003 C 
ATOM     30  C   UNL     1     100.165 -64.933  10.851  1.00  0.00     0.004 C 
ENDBRANCH  28  29
ENDBRANCH  27  28
ENDBRANCH  26  27
ENDBRANCH  25  26
ENDBRANCH  24  25
ENDBRANCH  23  24
ENDBRANCH  22  23
ENDBRANCH  21  22
ENDBRANCH  20  21
ENDBRANCH  19  20
ENDBRANCH  18  19
ENDBRANCH  17  18
ENDBRANCH   1  17
TORSDOF 26
ENDMDL
MODEL 4
REMARK VINA RESULT:    -2.458      3.127      9.063
REMARK INTER + INTRA:          -9.892
REMARK INTER:                  -6.890
REMARK INTRA:                  -3.002
REMARK UNBOUND:                -3.698
REMARK SMILES CCCCCCCCCCCCCCCCCCCCCCCCCCCC(=O)[O-]
REMARK SMILES IDX 15 1 16 2 17 3 18 4 19 5 20 6 21 7 22 8 23 9 24 10 25 11
REMARK SMILES IDX 26 12 27 13 28 14 29 15 30 16 14 17 13 18 12 19 11 20 10 21
REMARK SMILES IDX 9 22 8 23 7 24 6 25 5 26 4 27 3 28 2 29 1 30
REMARK H PARENT
REMARK Flexibility Score: inf
ROOT
ATOM      1  C   UNL     1      98.482 -68.324   1.920  1.00  0.00     0.000 C 
ENDROOT
BRANCH   1   2
ATOM      2  C   UNL     1      98.429 -66.792   2.004  1.00  0.00     0.000 C 
BRANCH   2   3
ATOM      3  C   UNL     1      97.377 -66.331   3.023  1.00  0.00     0.000 C 
BRANCH   3   4
ATOM      4  C   UNL     1      97.691 -64.935   3.598  1.00  0.00     0.000 C 
BRANCH   4   5
ATOM      5  C   UNL     1      98.615 -64.951   4.832  1.00  0.00     0.000 C 
BRANCH   5   6
ATOM      6  C   UNL     1      99.886 -65.807   4.698  1.00  0.00     0.000 C 
BRANCH   6   7
ATOM      7  C   UNL     1     101.057 -65.281   5.550  1.00  0.00     0.000 C 
BRANCH   7   8
ATOM      8  C   UNL     1     100.839 -65.499   7.058  1.00  0.00     0.000 C 
BRANCH   8   9
ATOM      9  C   UNL     1     102.125 -65.739   7.878  1.00  0.00     0.000 C 
BRANCH   9  10
ATOM     10  C   UNL     1     101.934 -66.543   9.177  1.00  0.00     0.000 C 
BRANCH  10  11
ATOM     11  C   UNL     1     100.944 -67.722   9.074  1.00  0.00     0.000 C 
BRANCH  11  12
ATOM     12  C   UNL     1     101.396 -68.833   8.100  1.00  0.00     0.006 C 
BRANCH  12  13
ATOM     13  C   UNL     1     100.506 -68.970   6.855  1.00  0.00     0.053 C 
BRANCH  13  14
ATOM     14  C   UNL     1     101.257 -69.525   5.682  1.00  0.00     0.041 C 
ATOM     15  O   UNL     1     101.197 -70.753   5.415  1.00  0.00    -0.550 OA
ATOM     16  O   UNL     1     102.021 -68.683   4.883  1.00  0.00    -0.550 OA
ENDBRANCH  13  14
ENDBRANCH  12  13
ENDBRANCH  11  12
ENDBRANCH  10  11
ENDBRANCH   9  10
ENDBRANCH   8   9
ENDBRANCH   7   8
ENDBRANCH   6   7
ENDBRANCH   5   6
ENDBRANCH   4   5
ENDBRANCH   3   4
ENDBRANCH   2   3
ENDBRANCH   1   2
BRANCH   1  17
ATOM     17  C   UNL     1      99.129 -68.826   0.618  1.00  0.00     0.000 C 
BRANCH  17  18
ATOM     18  C   UNL     1      98.312 -69.884  -0.156  1.00  0.00     0.000 C 
BRANCH  18  19
ATOM     19  C   UNL     1      97.880 -69.430  -1.567  1.00  0.00     0.000 C 
BRANCH  19  20
ATOM     20  C   UNL     1      98.143 -67.935  -1.811  1.00  0.00     0.000 C 
BRANCH  20  21
ATOM     21  C   UNL     1      97.682 -67.471  -3.201  1.00  0.00     0.000 C 
BRANCH  21  22
ATOM     22  C   UNL     1      98.797 -67.565  -4.255  1.00  0.00    -0.000 C 
BRANCH  22  23
ATOM     23  C   UNL     1      99.552 -66.236  -4.385  1.00  0.00    -0.000 C 
BRANCH  23  24
ATOM     24  C   UNL     1     100.926 -66.411  -5.059  1.00  0.00    -0.000 C 
BRANCH  24  25
ATOM     25  C   UNL     1     102.085 -66.285  -4.054  1.00  0.00    -0.000 C 
BRANCH  25  26
ATOM     26  C   UNL     1     101.748 -65.392  -2.844  1.00  0.00    -0.000 C 
BRANCH  26  27
ATOM     27  C   UNL     1     101.909 -66.106  -1.485  1.00  0.00    -0.000 C 
BRANCH  27  28
ATOM     28  C   UNL     1     100.943 -65.556  -0.420  1.00  0.00    -0.000 C 
BRANCH  28  29
ATOM     29  C   UNL     1     101.594 -65.439   0.966  1.00  0.00    -0.003 C 
ATOM     30  C   UNL     1     102.121 -66.770   1.495  1.00  0.00     0.004 C 
ENDBRANCH  28  29
ENDBRANCH  27  28
ENDBRANCH  26  27
ENDBRANCH  25  26
ENDBRANCH  24  25
ENDBRANCH  23  24
ENDBRANCH  22  23
ENDBRANCH  21  22
ENDBRANCH  20  21
ENDBRANCH  19  20
ENDBRANCH  18  19
ENDBRANCH  17  18
ENDBRANCH   1  17
TORSDOF 26
ENDMDL
MODEL 5
REMARK VINA RESULT:    -2.447      2.043      3.517
REMARK INTER + INTRA:          -9.864
REMARK INTER:                  -7.763
REMARK INTRA:                  -2.101
REMARK UNBOUND:                -3.698
REMARK SMILES CCCCCCCCCCCCCCCCCCCCCCCCCCCC(=O)[O-]
REMARK SMILES IDX 15 1 16 2 17 3 18 4 19 5 20 6 21 7 22 8 23 9 24 10 25 11
REMARK SMILES IDX 26 12 27 13 28 14 29 15 30 16 14 17 13 18 12 19 11 20 10 21
REMARK SMILES IDX 9 22 8 23 7 24 6 25 5 26 4 27 3 28 2 29 1 30
REMARK H PARENT
REMARK Flexibility Score: inf
ROOT
ATOM      1  C   UNL     1      97.806 -65.946   2.439  1.00  0.00     0.000 C 
ENDROOT
BRANCH   1   2
ATOM      2  C   UNL     1      97.609 -65.276   1.072  1.00  0.00     0.000 C 
BRANCH   2   3
ATOM      3  C   UNL     1      98.957 -64.894   0.445  1.00  0.00     0.000 C 
BRANCH   3   4
ATOM      4  C   UNL     1     100.125 -65.725   1.013  1.00  0.00     0.000 C 
BRANCH   4   5
ATOM      5  C   UNL     1     101.515 -65.295   0.506  1.00  0.00     0.000 C 
BRANCH   5   6
ATOM      6  C   UNL     1     101.627 -65.071  -1.012  1.00  0.00     0.000 C 
BRANCH   6   7
ATOM      7  C   UNL     1     101.694 -66.387  -1.810  1.00  0.00     0.000 C 
BRANCH   7   8
ATOM      8  C   UNL     1     100.823 -66.356  -3.079  1.00  0.00     0.000 C 
BRANCH   8   9
ATOM      9  C   UNL     1     100.180 -67.705  -3.465  1.00  0.00     0.000 C 
BRANCH   9  10
ATOM     10  C   UNL     1      98.825 -67.602  -4.189  1.00  0.00     0.000 C 
BRANCH  10  11
ATOM     11  C   UNL     1      97.593 -67.549  -3.261  1.00  0.00     0.000 C 
BRANCH  11  12
ATOM     12  C   UNL     1      97.937 -67.677  -1.760  1.00  0.00     0.006 C 
BRANCH  12  13
ATOM     13  C   UNL     1      98.318 -69.101  -1.328  1.00  0.00     0.053 C 
BRANCH  13  14
ATOM     14  C   UNL     1      99.110 -69.113  -0.055  1.00  0.00     0.041 C 
ATOM     15  O   UNL     1     100.329 -68.800  -0.065  1.00  0.00    -0.550 OA
ATOM     16  O   UNL     1      98.500 -69.468   1.142  1.00  0.00    -0.550 OA
ENDBRANCH  13  14
ENDBRANCH  12  13
ENDBRANCH  11  12
ENDBRANCH  10  11
ENDBRANCH   9  10
ENDBRANCH   8   9
ENDBRANCH   7   8
ENDBRANCH   6   7
ENDBRANCH   5   6
ENDBRANCH   4   5
ENDBRANCH   3   4
ENDBRANCH   2   3
ENDBRANCH   1   2
BRANCH   1  17
ATOM     17  C   UNL     1      97.535 -64.991   3.614  1.00  0.00     0.000 C 
BRANCH  17  18
ATOM     18  C   UNL     1      98.678 -64.881   4.648  1.00  0.00     0.000 C 
BRANCH  18  19
ATOM     19  C   UNL     1     100.001 -65.532   4.189  1.00  0.00     0.000 C 
BRANCH  19  20
ATOM     20  C   UNL     1     100.438 -66.685   5.109  1.00  0.00     0.000 C 
BRANCH  20  21
ATOM     21  C   UNL     1     101.776 -66.405   5.812  1.00  0.00     0.000 C 
BRANCH  21  22
ATOM     22  C   UNL     1     101.861 -64.978   6.374  1.00  0.00    -0.000 C 
BRANCH  22  23
ATOM     23  C   UNL     1     101.163 -64.875   7.737  1.00  0.00    -0.000 C 
BRANCH  23  24
ATOM     24  C   UNL     1     102.067 -65.349   8.890  1.00  0.00    -0.000 C 
BRANCH  24  25
ATOM     25  C   UNL     1     101.332 -65.342  10.242  1.00  0.00    -0.000 C 
BRANCH  25  26
ATOM     26  C   UNL     1     100.078 -66.237  10.259  1.00  0.00    -0.000 C 
BRANCH  26  27
ATOM     27  C   UNL     1     100.237 -67.509  11.119  1.00  0.00    -0.000 C 
BRANCH  27  28
ATOM     28  C   UNL     1     100.643 -68.733  10.278  1.00  0.00    -0.000 C 
BRANCH  28  29
ATOM     29  C   UNL     1     101.192 -68.345   8.896  1.00  0.00    -0.003 C 
ATOM     30  C   UNL     1     100.625 -69.199   7.765  1.00  0.00     0.004 C 
ENDBRANCH  28  29
ENDBRANCH  27  28
ENDBRANCH  26  27
ENDBRANCH  25  26
ENDBRANCH  24  25
ENDBRANCH  23  24
ENDBRANCH  22  23
ENDBRANCH  21  22
ENDBRANCH  20  21
ENDBRANCH  19  20
ENDBRANCH  18  19
ENDBRANCH  17  18
ENDBRANCH   1  17
TORSDOF 26
ENDMDL
MODEL 6
REMARK VINA RESULT:    -2.422      2.143      3.656
REMARK INTER + INTRA:          -9.802
REMARK INTER:                  -8.818
REMARK INTRA:                  -0.984
REMARK UNBOUND:                -3.698
REMARK SMILES CCCCCCCCCCCCCCCCCCCCCCCCCCCC(=O)[O-]
REMARK SMILES IDX 15 1 16 2 17 3 18 4 19 5 20 6 21 7 22 8 23 9 24 10 25 11
REMARK SMILES IDX 26 12 27 13 28 14 29 15 30 16 14 17 13 18 12 19 11 20 10 21
REMARK SMILES IDX 9 22 8 23 7 24 6 25 5 26 4 27 3 28 2 29 1 30
REMARK H PARENT
REMARK Flexibility Score: inf
ROOT
ATOM      1  C   UNL     1      99.860 -65.856   1.495  1.00  0.00     0.000 C 
ENDROOT
BRANCH   1   2
ATOM      2  C   UNL     1     101.132 -65.002   1.580  1.00  0.00     0.000 C 
BRANCH   2   3
ATOM      3  C   UNL     1     101.974 -65.136   0.304  1.00  0.00     0.000 C 
BRANCH   3   4
ATOM      4  C   UNL     1     101.149 -64.878  -0.972  1.00  0.00     0.000 C 
BRANCH   4   5
ATOM      5  C   UNL     1     101.604 -65.695  -2.198  1.00  0.00     0.000 C 
BRANCH   5   6
ATOM      6  C   UNL     1     101.503 -64.971  -3.552  1.00  0.00     0.000 C 
BRANCH   6   7
ATOM      7  C   UNL     1     100.178 -65.251  -4.285  1.00  0.00     0.000 C 
BRANCH   7   8
ATOM      8  C   UNL     1      98.945 -65.026  -3.391  1.00  0.00     0.000 C 
BRANCH   8   9
ATOM      9  C   UNL     1      97.583 -65.257  -4.080  1.00  0.00     0.000 C 
BRANCH   9  10
ATOM     10  C   UNL     1      97.173 -66.732  -4.246  1.00  0.00     0.000 C 
BRANCH  10  11
ATOM     11  C   UNL     1      98.122 -67.750  -3.580  1.00  0.00     0.000 C 
BRANCH  11  12
ATOM     12  C   UNL     1      97.940 -67.864  -2.050  1.00  0.00     0.006 C 
BRANCH  12  13
ATOM     13  C   UNL     1      99.194 -68.351  -1.308  1.00  0.00     0.053 C 
BRANCH  13  14
ATOM     14  C   UNL     1      98.855 -69.216  -0.131  1.00  0.00     0.041 C 
ATOM     15  O   UNL     1      98.024 -70.153  -0.253  1.00  0.00    -0.550 OA
ATOM     16  O   UNL     1      99.459 -68.986   1.099  1.00  0.00    -0.550 OA
ENDBRANCH  13  14
ENDBRANCH  12  13
ENDBRANCH  11  12
ENDBRANCH  10  11
ENDBRANCH   9  10
ENDBRANCH   8   9
ENDBRANCH   7   8
ENDBRANCH   6   7
ENDBRANCH   5   6
ENDBRANCH   4   5
ENDBRANCH   3   4
ENDBRANCH   2   3
ENDBRANCH   1   2
BRANCH   1  17
ATOM     17  C   UNL     1      98.579 -65.041   1.741  1.00  0.00     0.000 C 
BRANCH  17  18
ATOM     18  C   UNL     1      98.016 -65.118   3.178  1.00  0.00     0.000 C 
BRANCH  18  19
ATOM     19  C   UNL     1      98.245 -66.480   3.867  1.00  0.00     0.000 C 
BRANCH  19  20
ATOM     20  C   UNL     1      99.691 -66.653   4.363  1.00  0.00     0.000 C 
BRANCH  20  21
ATOM     21  C   UNL     1     100.204 -68.092   4.202  1.00  0.00     0.000 C 
BRANCH  21  22
ATOM     22  C   UNL     1      99.704 -69.025   5.315  1.00  0.00    -0.000 C 
BRANCH  22  23
ATOM     23  C   UNL     1     100.699 -70.165   5.573  1.00  0.00    -0.000 C 
BRANCH  23  24
ATOM     24  C   UNL     1     102.081 -69.644   6.010  1.00  0.00    -0.000 C 
BRANCH  24  25
ATOM     25  C   UNL     1     102.121 -69.296   7.508  1.00  0.00    -0.000 C 
BRANCH  25  26
ATOM     26  C   UNL     1     101.085 -68.230   7.914  1.00  0.00    -0.000 C 
BRANCH  26  27
ATOM     27  C   UNL     1     100.437 -68.491   9.291  1.00  0.00    -0.000 C 
BRANCH  27  28
ATOM     28  C   UNL     1     101.395 -68.177  10.455  1.00  0.00    -0.000 C 
BRANCH  28  29
ATOM     29  C   UNL     1     100.672 -67.583  11.673  1.00  0.00    -0.003 C 
ATOM     30  C   UNL     1      99.964 -66.266  11.366  1.00  0.00     0.004 C 
ENDBRANCH  28  29
ENDBRANCH  27  28
ENDBRANCH  26  27
ENDBRANCH  25  26
ENDBRANCH  24  25
ENDBRANCH  23  24
ENDBRANCH  22  23
ENDBRANCH  21  22
ENDBRANCH  20  21
ENDBRANCH  19  20
ENDBRANCH  18  19
ENDBRANCH  17  18
ENDBRANCH   1  17
TORSDOF 26
ENDMDL
MODEL 7
REMARK VINA RESULT:    -2.316      4.374     10.310
REMARK INTER + INTRA:          -9.533
REMARK INTER:                  -6.695
REMARK INTRA:                  -2.838
REMARK UNBOUND:                -3.698
REMARK SMILES CCCCCCCCCCCCCCCCCCCCCCCCCCCC(=O)[O-]
REMARK SMILES IDX 15 1 16 2 17 3 18 4 19 5 20 6 21 7 22 8 23 9 24 10 25 11
REMARK SMILES IDX 26 12 27 13 28 14 29 15 30 16 14 17 13 18 12 19 11 20 10 21
REMARK SMILES IDX 9 22 8 23 7 24 6 25 5 26 4 27 3 28 2 29 1 30
REMARK H PARENT
REMARK Flexibility Score: inf
ROOT
ATOM      1  C   UNL     1      97.627 -65.442   2.198  1.00  0.00     0.000 C 
ENDROOT
BRANCH   1   2
ATOM      2  C   UNL     1      97.499 -66.968   2.300  1.00  0.00     0.000 C 
BRANCH   2   3
ATOM      3  C   UNL     1      98.843 -67.613   2.663  1.00  0.00     0.000 C 
BRANCH   3   4
ATOM      4  C   UNL     1      99.408 -67.080   3.995  1.00  0.00     0.000 C 
BRANCH   4   5
ATOM      5  C   UNL     1      99.981 -68.171   4.922  1.00  0.00     0.000 C 
BRANCH   5   6
ATOM      6  C   UNL     1     100.720 -67.658   6.171  1.00  0.00     0.000 C 
BRANCH   6   7
ATOM      7  C   UNL     1     101.526 -66.373   5.906  1.00  0.00     0.000 C 
BRANCH   7   8
ATOM      8  C   UNL     1     101.456 -65.376   7.076  1.00  0.00     0.000 C 
BRANCH   8   9
ATOM      9  C   UNL     1     100.433 -65.728   8.178  1.00  0.00     0.000 C 
BRANCH   9  10
ATOM     10  C   UNL     1     100.529 -64.878   9.458  1.00  0.00     0.000 C 
BRANCH  10  11
ATOM     11  C   UNL     1      99.932 -65.533  10.720  1.00  0.00     0.000 C 
BRANCH  11  12
ATOM     12  C   UNL     1     100.865 -66.571  11.385  1.00  0.00     0.006 C 
BRANCH  12  13
ATOM     13  C   UNL     1     100.432 -68.029  11.165  1.00  0.00     0.053 C 
BRANCH  13  14
ATOM     14  C   UNL     1     101.453 -69.004  11.672  1.00  0.00     0.041 C 
ATOM     15  O   UNL     1     101.723 -69.056  12.900  1.00  0.00    -0.550 OA
ATOM     16  O   UNL     1     102.103 -69.855  10.786  1.00  0.00    -0.550 OA
ENDBRANCH  13  14
ENDBRANCH  12  13
ENDBRANCH  11  12
ENDBRANCH  10  11
ENDBRANCH   9  10
ENDBRANCH   8   9
ENDBRANCH   7   8
ENDBRANCH   6   7
ENDBRANCH   5   6
ENDBRANCH   4   5
ENDBRANCH   3   4
ENDBRANCH   2   3
ENDBRANCH   1   2
BRANCH   1  17
ATOM     17  C   UNL     1      98.218 -64.983   0.854  1.00  0.00     0.000 C 
BRANCH  17  18
ATOM     18  C   UNL     1      97.931 -65.915  -0.343  1.00  0.00     0.000 C 
BRANCH  18  19
ATOM     19  C   UNL     1      98.244 -65.282  -1.717  1.00  0.00     0.000 C 
BRANCH  19  20
ATOM     20  C   UNL     1      97.856 -66.200  -2.889  1.00  0.00     0.000 C 
BRANCH  20  21
ATOM     21  C   UNL     1      98.882 -66.164  -4.033  1.00  0.00     0.000 C 
BRANCH  21  22
ATOM     22  C   UNL     1      99.063 -67.533  -4.706  1.00  0.00    -0.000 C 
BRANCH  22  23
ATOM     23  C   UNL     1     100.546 -67.925  -4.779  1.00  0.00    -0.000 C 
BRANCH  23  24
ATOM     24  C   UNL     1     101.477 -66.706  -4.641  1.00  0.00    -0.000 C 
BRANCH  24  25
ATOM     25  C   UNL     1     101.954 -66.503  -3.193  1.00  0.00    -0.000 C 
BRANCH  25  26
ATOM     26  C   UNL     1     102.040 -67.815  -2.389  1.00  0.00    -0.000 C 
BRANCH  26  27
ATOM     27  C   UNL     1     101.077 -67.866  -1.184  1.00  0.00    -0.000 C 
BRANCH  27  28
ATOM     28  C   UNL     1     101.754 -67.410   0.122  1.00  0.00    -0.000 C 
BRANCH  28  29
ATOM     29  C   UNL     1     101.826 -65.881   0.249  1.00  0.00    -0.003 C 
ATOM     30  C   UNL     1     101.643 -65.390   1.682  1.00  0.00     0.004 C 
ENDBRANCH  28  29
ENDBRANCH  27  28
ENDBRANCH  26  27
ENDBRANCH  25  26
ENDBRANCH  24  25
ENDBRANCH  23  24
ENDBRANCH  22  23
ENDBRANCH  21  22
ENDBRANCH  20  21
ENDBRANCH  19  20
ENDBRANCH  18  19
ENDBRANCH  17  18
ENDBRANCH   1  17
TORSDOF 26
ENDMDL
MODEL 8
REMARK VINA RESULT:    -2.230      4.271     10.240
REMARK INTER + INTRA:          -9.319
REMARK INTER:                  -6.440
REMARK INTRA:                  -2.878
REMARK UNBOUND:                -3.698
REMARK SMILES CCCCCCCCCCCCCCCCCCCCCCCCCCCC(=O)[O-]
REMARK SMILES IDX 15 1 16 2 17 3 18 4 19 5 20 6 21 7 22 8 23 9 24 10 25 11
REMARK SMILES IDX 26 12 27 13 28 14 29 15 30 16 14 17 13 18 12 19 11 20 10 21
REMARK SMILES IDX 9 22 8 23 7 24 6 25 5 26 4 27 3 28 2 29 1 30
REMARK H PARENT
REMARK Flexibility Score: inf
ROOT
ATOM      1  C   UNL     1      97.858 -66.864   2.057  1.00  0.00     0.000 C 
ENDROOT
BRANCH   1   2
ATOM      2  C   UNL     1      98.357 -67.223   3.464  1.00  0.00     0.000 C 
BRANCH   2   3
ATOM      3  C   UNL     1      97.840 -66.221   4.505  1.00  0.00     0.000 C 
BRANCH   3   4
ATOM      4  C   UNL     1      98.641 -64.903   4.498  1.00  0.00     0.000 C 
BRANCH   4   5
ATOM      5  C   UNL     1      99.988 -64.975   5.245  1.00  0.00     0.000 C 
BRANCH   5   6
ATOM      6  C   UNL     1     100.822 -66.242   4.987  1.00  0.00     0.000 C 
BRANCH   6   7
ATOM      7  C   UNL     1     101.661 -66.668   6.207  1.00  0.00     0.000 C 
BRANCH   7   8
ATOM      8  C   UNL     1     102.124 -65.471   7.056  1.00  0.00     0.000 C 
BRANCH   8   9
ATOM      9  C   UNL     1     101.858 -65.598   8.571  1.00  0.00     0.000 C 
BRANCH   9  10
ATOM     10  C   UNL     1     100.650 -66.473   8.954  1.00  0.00     0.000 C 
BRANCH  10  11
ATOM     11  C   UNL     1      99.935 -66.062  10.257  1.00  0.00     0.000 C 
BRANCH  11  12
ATOM     12  C   UNL     1     100.132 -67.061  11.419  1.00  0.00     0.006 C 
BRANCH  12  13
ATOM     13  C   UNL     1     101.564 -67.608  11.535  1.00  0.00     0.053 C 
BRANCH  13  14
ATOM     14  C   UNL     1     101.638 -69.070  11.213  1.00  0.00     0.041 C 
ATOM     15  O   UNL     1     101.402 -69.927  12.104  1.00  0.00    -0.550 OA
ATOM     16  O   UNL     1     101.967 -69.485   9.928  1.00  0.00    -0.550 OA
ENDBRANCH  13  14
ENDBRANCH  12  13
ENDBRANCH  11  12
ENDBRANCH  10  11
ENDBRANCH   9  10
ENDBRANCH   8   9
ENDBRANCH   7   8
ENDBRANCH   6   7
ENDBRANCH   5   6
ENDBRANCH   4   5
ENDBRANCH   3   4
ENDBRANCH   2   3
ENDBRANCH   1   2
BRANCH   1  17
ATOM     17  C   UNL     1      98.916 -66.122   1.223  1.00  0.00     0.000 C 
BRANCH  17  18
ATOM     18  C   UNL     1     100.261 -66.863   1.056  1.00  0.00     0.000 C 
BRANCH  18  19
ATOM     19  C   UNL     1     101.498 -65.945   1.165  1.00  0.00     0.000 C 
BRANCH  19  20
ATOM     20  C   UNL     1     102.109 -65.616  -0.208  1.00  0.00     0.000 C 
BRANCH  20  21
ATOM     21  C   UNL     1     101.525 -66.479  -1.338  1.00  0.00     0.000 C 
BRANCH  21  22
ATOM     22  C   UNL     1     101.765 -65.871  -2.729  1.00  0.00    -0.000 C 
BRANCH  22  23
ATOM     23  C   UNL     1     100.448 -65.406  -3.366  1.00  0.00    -0.000 C 
BRANCH  23  24
ATOM     24  C   UNL     1      99.438 -64.906  -2.316  1.00  0.00    -0.000 C 
BRANCH  24  25
ATOM     25  C   UNL     1      97.983 -65.162  -2.744  1.00  0.00    -0.000 C 
BRANCH  25  26
ATOM     26  C   UNL     1      97.852 -66.219  -3.857  1.00  0.00    -0.000 C 
BRANCH  26  27
ATOM     27  C   UNL     1      97.623 -67.651  -3.327  1.00  0.00    -0.000 C 
BRANCH  27  28
ATOM     28  C   UNL     1      97.932 -67.771  -1.824  1.00  0.00    -0.000 C 
BRANCH  28  29
ATOM     29  C   UNL     1      98.753 -69.025  -1.487  1.00  0.00    -0.003 C 
ATOM     30  C   UNL     1      98.238 -69.765  -0.255  1.00  0.00     0.004 C 
ENDBRANCH  28  29
ENDBRANCH  27  28
ENDBRANCH  26  27
ENDBRANCH  25  26
ENDBRANCH  24  25
ENDBRANCH  23  24
ENDBRANCH  22  23
ENDBRANCH  21  22
ENDBRANCH  20  21
ENDBRANCH  19  20
ENDBRANCH  18  19
ENDBRANCH  17  18
ENDBRANCH   1  17
TORSDOF 26
ENDMDL
MODEL 9
REMARK VINA RESULT:    -1.924      4.339      9.859
REMARK INTER + INTRA:          -8.546
REMARK INTER:                  -5.480
REMARK INTRA:                  -3.067
REMARK UNBOUND:                -3.698
REMARK SMILES CCCCCCCCCCCCCCCCCCCCCCCCCCCC(=O)[O-]
REMARK SMILES IDX 15 1 16 2 17 3 18 4 19 5 20 6 21 7 22 8 23 9 24 10 25 11
REMARK SMILES IDX 26 12 27 13 28 14 29 15 30 16 14 17 13 18 12 19 11 20 10 21
REMARK SMILES IDX 9 22 8 23 7 24 6 25 5 26 4 27 3 28 2 29 1 30
REMARK H PARENT
REMARK Flexibility Score: inf
ROOT
ATOM      1  C   UNL     1      98.388 -68.781   2.594  1.00  0.00     0.000 C 
ENDROOT
BRANCH   1   2
ATOM      2  C   UNL     1      97.796 -67.401   2.910  1.00  0.00     0.000 C 
BRANCH   2   3
ATOM      3  C   UNL     1      98.321 -66.868   4.250  1.00  0.00     0.000 C 
BRANCH   3   4
ATOM      4  C   UNL     1      99.228 -65.634   4.076  1.00  0.00     0.000 C 
BRANCH   4   5
ATOM      5  C   UNL     1     100.732 -65.962   3.976  1.00  0.00     0.000 C 
BRANCH   5   6
ATOM      6  C   UNL     1     101.158 -66.746   2.723  1.00  0.00     0.000 C 
BRANCH   6   7
ATOM      7  C   UNL     1     102.042 -67.964   3.049  1.00  0.00     0.000 C 
BRANCH   7   8
ATOM      8  C   UNL     1     102.125 -68.251   4.559  1.00  0.00     0.000 C 
BRANCH   8   9
ATOM      9  C   UNL     1     101.136 -69.315   5.080  1.00  0.00     0.000 C 
BRANCH   9  10
ATOM     10  C   UNL     1     101.176 -69.560   6.600  1.00  0.00     0.000 C 
BRANCH  10  11
ATOM     11  C   UNL     1     101.510 -68.318   7.451  1.00  0.00     0.000 C 
BRANCH  11  12
ATOM     12  C   UNL     1     100.745 -68.256   8.792  1.00  0.00     0.006 C 
BRANCH  12  13
ATOM     13  C   UNL     1     100.588 -66.836   9.356  1.00  0.00     0.053 C 
BRANCH  13  14
ATOM     14  C   UNL     1     100.145 -66.841  10.788  1.00  0.00     0.041 C 
ATOM     15  O   UNL     1      99.871 -67.927  11.362  1.00  0.00    -0.550 OA
ATOM     16  O   UNL     1     100.038 -65.646  11.489  1.00  0.00    -0.550 OA
ENDBRANCH  13  14
ENDBRANCH  12  13
ENDBRANCH  11  12
ENDBRANCH  10  11
ENDBRANCH   9  10
ENDBRANCH   8   9
ENDBRANCH   7   8
ENDBRANCH   6   7
ENDBRANCH   5   6
ENDBRANCH   4   5
ENDBRANCH   3   4
ENDBRANCH   2   3
ENDBRANCH   1   2
BRANCH   1  17
ATOM     17  C   UNL     1      98.894 -68.893   1.145  1.00  0.00     0.000 C 
BRANCH  17  18
ATOM     18  C   UNL     1      98.158 -69.932   0.271  1.00  0.00     0.000 C 
BRANCH  18  19
ATOM     19  C   UNL     1      97.984 -69.499  -1.201  1.00  0.00     0.000 C 
BRANCH  19  20
ATOM     20  C   UNL     1      98.853 -68.283  -1.563  1.00  0.00     0.000 C 
BRANCH  20  21
ATOM     21  C   UNL     1      98.237 -67.426  -2.680  1.00  0.00     0.000 C 
BRANCH  21  22
ATOM     22  C   UNL     1      98.416 -68.053  -4.072  1.00  0.00    -0.000 C 
BRANCH  22  23
ATOM     23  C   UNL     1      99.416 -67.252  -4.917  1.00  0.00    -0.000 C 
BRANCH  23  24
ATOM     24  C   UNL     1     100.741 -68.010  -5.125  1.00  0.00    -0.000 C 
BRANCH  24  25
ATOM     25  C   UNL     1     101.966 -67.113  -4.877  1.00  0.00    -0.000 C 
BRANCH  25  26
ATOM     26  C   UNL     1     101.634 -65.609  -4.894  1.00  0.00    -0.000 C 
BRANCH  26  27
ATOM     27  C   UNL     1     102.020 -64.875  -3.592  1.00  0.00    -0.000 C 
BRANCH  27  28
ATOM     28  C   UNL     1     100.962 -65.055  -2.487  1.00  0.00    -0.000 C 
BRANCH  28  29
ATOM     29  C   UNL     1     101.568 -65.019  -1.076  1.00  0.00    -0.003 C 
ATOM     30  C   UNL     1     102.019 -66.390  -0.581  1.00  0.00     0.004 C 
ENDBRANCH  28  29
ENDBRANCH  27  28
ENDBRANCH  26  27
ENDBRANCH  25  26
ENDBRANCH  24  25
ENDBRANCH  23  24
ENDBRANCH  22  23
ENDBRANCH  21  22
ENDBRANCH  20  21
ENDBRANCH  19  20
ENDBRANCH  18  19
ENDBRANCH  17  18
ENDBRANCH   1  17
TORSDOF 26
ENDMDL
