MODEL 1
REMARK VINA RESULT:    -4.865      0.000      0.000
REMARK INTER + INTRA:         -16.342
REMARK INTER:                 -12.829
REMARK INTRA:                  -3.513
REMARK UNBOUND:                -3.513
REMARK SMILES CCCCCCCCCCCCCCCCCCCCCCCCCCCCCC(=O)[O-]
REMARK SMILES IDX 16 1 17 2 18 3 19 4 20 5 21 6 22 7 23 8 24 9 25 10 26 11
REMARK SMILES IDX 27 12 28 13 29 14 30 15 31 16 32 17 15 18 14 19 13 20 12 21
REMARK SMILES IDX 11 22 10 23 9 24 8 25 7 26 6 27 5 28 4 29 3 30 2 31 1 32
REMARK H PARENT
REMARK Flexibility Score: inf
ROOT
ATOM      1  C   UNL     1      63.080 -28.141  -2.012  1.00  0.00     0.000 C 
ENDROOT
BRANCH   1   2
ATOM      2  C   UNL     1      63.261 -28.569  -0.542  1.00  0.00     0.000 C 
BRANCH   2   3
ATOM      3  C   UNL     1      62.041 -29.261   0.089  1.00  0.00     0.000 C 
BRANCH   3   4
ATOM      4  C   UNL     1      60.799 -29.221  -0.814  1.00  0.00     0.000 C 
BRANCH   4   5
ATOM      5  C   UNL     1      59.526 -29.520  -0.009  1.00  0.00     0.000 C 
BRANCH   5   6
ATOM      6  C   UNL     1      59.787 -29.656   1.502  1.00  0.00     0.000 C 
BRANCH   6   7
ATOM      7  C   UNL     1      58.981 -28.698   2.398  1.00  0.00     0.000 C 
BRANCH   7   8
ATOM      8  C   UNL     1      59.152 -28.992   3.897  1.00  0.00     0.000 C 
BRANCH   8   9
ATOM      9  C   UNL     1      60.486 -29.689   4.225  1.00  0.00     0.000 C 
BRANCH   9  10
ATOM     10  C   UNL     1      60.367 -30.980   5.056  1.00  0.00     0.000 C 
BRANCH  10  11
ATOM     11  C   UNL     1      60.922 -30.833   6.480  1.00  0.00     0.000 C 
BRANCH  11  12
ATOM     12  C   UNL     1      62.038 -29.781   6.529  1.00  0.00     0.000 C 
BRANCH  12  13
ATOM     13  C   UNL     1      63.242 -30.293   7.334  1.00  0.00     0.006 C 
BRANCH  13  14
ATOM     14  C   UNL     1      63.290 -31.825   7.397  1.00  0.00     0.053 C 
BRANCH  14  15
ATOM     15  C   UNL     1      64.695 -32.339   7.311  1.00  0.00     0.041 C 
ATOM     16  O   UNL     1      64.921 -33.499   6.874  1.00  0.00    -0.550 OA
ATOM     17  O   UNL     1      65.756 -31.526   7.685  1.00  0.00    -0.550 OA
ENDBRANCH  14  15
ENDBRANCH  13  14
ENDBRANCH  12  13
ENDBRANCH  11  12
ENDBRANCH  10  11
ENDBRANCH   9  10
ENDBRANCH   8   9
ENDBRANCH   7   8
ENDBRANCH   6   7
ENDBRANCH   5   6
ENDBRANCH   4   5
ENDBRANCH   3   4
ENDBRANCH   2   3
ENDBRANCH   1   2
BRANCH   1  18
ATOM     18  C   UNL     1      63.636 -26.747  -2.363  1.00  0.00     0.000 C 
BRANCH  18  19
ATOM     19  C   UNL     1      62.693 -25.863  -3.199  1.00  0.00     0.000 C 
BRANCH  19  20
ATOM     20  C   UNL     1      61.234 -25.930  -2.726  1.00  0.00     0.000 C 
BRANCH  20  21
ATOM     21  C   UNL     1      60.361 -24.932  -3.501  1.00  0.00     0.000 C 
BRANCH  21  22
ATOM     22  C   UNL     1      60.491 -25.076  -5.028  1.00  0.00     0.000 C 
BRANCH  22  23
ATOM     23  C   UNL     1      59.185 -24.884  -5.819  1.00  0.00     0.000 C 
BRANCH  23  24
ATOM     24  C   UNL     1      58.139 -25.972  -5.520  1.00  0.00    -0.000 C 
BRANCH  24  25
ATOM     25  C   UNL     1      56.800 -25.395  -5.022  1.00  0.00    -0.000 C 
BRANCH  25  26
ATOM     26  C   UNL     1      56.917 -24.245  -4.002  1.00  0.00    -0.000 C 
BRANCH  26  27
ATOM     27  C   UNL     1      55.747 -24.134  -3.004  1.00  0.00    -0.000 C 
BRANCH  27  28
ATOM     28  C   UNL     1      56.110 -24.452  -1.540  1.00  0.00    -0.000 C 
BRANCH  28  29
ATOM     29  C   UNL     1      57.480 -25.133  -1.342  1.00  0.00    -0.000 C 
BRANCH  29  30
ATOM     30  C   UNL     1      57.418 -26.622  -0.959  1.00  0.00    -0.000 C 
BRANCH  30  31
ATOM     31  C   UNL     1      57.212 -27.542  -2.171  1.00  0.00    -0.003 C 
ATOM     32  C   UNL     1      56.410 -28.784  -1.789  1.00  0.00     0.004 C 
ENDBRANCH  30  31
ENDBRANCH  29  30
ENDBRANCH  28  29
ENDBRANCH  27  28
ENDBRANCH  26  27
ENDBRANCH  25  26
ENDBRANCH  24  25
ENDBRANCH  23  24
ENDBRANCH  22  23
ENDBRANCH  21  22
ENDBRANCH  20  21
ENDBRANCH  19  20
ENDBRANCH  18  19
ENDBRANCH   1  18
TORSDOF 28
ENDMDL
MODEL 2
REMARK VINA RESULT:    -4.855      2.268      3.587
REMARK INTER + INTRA:         -16.316
REMARK INTER:                 -11.465
REMARK INTRA:                  -4.851
REMARK UNBOUND:                -3.513
REMARK SMILES CCCCCCCCCCCCCCCCCCCCCCCCCCCCCC(=O)[O-]
REMARK SMILES IDX 16 1 17 2 18 3 19 4 20 5 21 6 22 7 23 8 24 9 25 10 26 11
REMARK SMILES IDX 27 12 28 13 29 14 30 15 31 16 32 17 15 18 14 19 13 20 12 21
REMARK SMILES IDX 11 22 10 23 9 24 8 25 7 26 6 27 5 28 4 29 3 30 2 31 1 32
REMARK H PARENT
REMARK Flexibility Score: inf
ROOT
ATOM      1  C   UNL     1      62.890 -28.926  -0.564  1.00  0.00     0.000 C 
ENDROOT
BRANCH   1   2
ATOM      2  C   UNL     1      61.432 -28.888  -0.063  1.00  0.00     0.000 C 
BRANCH   2   3
ATOM      3  C   UNL     1      60.363 -28.889  -1.169  1.00  0.00     0.000 C 
BRANCH   3   4
ATOM      4  C   UNL     1      58.933 -28.804  -0.617  1.00  0.00     0.000 C 
BRANCH   4   5
ATOM      5  C   UNL     1      58.489 -30.153  -0.033  1.00  0.00     0.000 C 
BRANCH   5   6
ATOM      6  C   UNL     1      57.151 -30.071   0.724  1.00  0.00     0.000 C 
BRANCH   6   7
ATOM      7  C   UNL     1      56.268 -28.860   0.370  1.00  0.00     0.000 C 
BRANCH   7   8
ATOM      8  C   UNL     1      55.206 -28.559   1.440  1.00  0.00     0.000 C 
BRANCH   8   9
ATOM      9  C   UNL     1      55.324 -29.469   2.677  1.00  0.00     0.000 C 
BRANCH   9  10
ATOM     10  C   UNL     1      55.687 -28.750   3.990  1.00  0.00     0.000 C 
BRANCH  10  11
ATOM     11  C   UNL     1      57.180 -28.845   4.335  1.00  0.00     0.000 C 
BRANCH  11  12
ATOM     12  C   UNL     1      57.960 -27.669   3.734  1.00  0.00     0.000 C 
BRANCH  12  13
ATOM     13  C   UNL     1      59.253 -28.153   3.061  1.00  0.00     0.006 C 
BRANCH  13  14
ATOM     14  C   UNL     1      59.618 -29.587   3.465  1.00  0.00     0.053 C 
BRANCH  14  15
ATOM     15  C   UNL     1      60.652 -29.611   4.549  1.00  0.00     0.041 C 
ATOM     16  O   UNL     1      61.404 -28.617   4.731  1.00  0.00    -0.550 OA
ATOM     17  O   UNL     1      60.765 -30.720   5.377  1.00  0.00    -0.550 OA
ENDBRANCH  14  15
ENDBRANCH  13  14
ENDBRANCH  12  13
ENDBRANCH  11  12
ENDBRANCH  10  11
ENDBRANCH   9  10
ENDBRANCH   8   9
ENDBRANCH   7   8
ENDBRANCH   6   7
ENDBRANCH   5   6
ENDBRANCH   4   5
ENDBRANCH   3   4
ENDBRANCH   2   3
ENDBRANCH   1   2
BRANCH   1  18
ATOM     18  C   UNL     1      63.111 -28.358  -1.980  1.00  0.00     0.000 C 
BRANCH  18  19
ATOM     19  C   UNL     1      63.880 -27.026  -2.033  1.00  0.00     0.000 C 
BRANCH  19  20
ATOM     20  C   UNL     1      63.132 -25.933  -2.809  1.00  0.00     0.000 C 
BRANCH  20  21
ATOM     21  C   UNL     1      61.623 -26.217  -2.837  1.00  0.00     0.000 C 
BRANCH  21  22
ATOM     22  C   UNL     1      60.830 -25.182  -3.655  1.00  0.00     0.000 C 
BRANCH  22  23
ATOM     23  C   UNL     1      60.276 -25.692  -4.997  1.00  0.00     0.000 C 
BRANCH  23  24
ATOM     24  C   UNL     1      59.900 -24.554  -5.962  1.00  0.00    -0.000 C 
BRANCH  24  25
ATOM     25  C   UNL     1      58.379 -24.402  -6.147  1.00  0.00    -0.000 C 
BRANCH  25  26
ATOM     26  C   UNL     1      57.688 -23.440  -5.160  1.00  0.00    -0.000 C 
BRANCH  26  27
ATOM     27  C   UNL     1      56.774 -24.117  -4.118  1.00  0.00    -0.000 C 
BRANCH  27  28
ATOM     28  C   UNL     1      56.740 -25.657  -4.189  1.00  0.00    -0.000 C 
BRANCH  28  29
ATOM     29  C   UNL     1      57.108 -26.378  -2.876  1.00  0.00    -0.000 C 
BRANCH  29  30
ATOM     30  C   UNL     1      57.806 -25.500  -1.824  1.00  0.00    -0.000 C 
BRANCH  30  31
ATOM     31  C   UNL     1      57.055 -25.460  -0.485  1.00  0.00    -0.003 C 
ATOM     32  C   UNL     1      55.553 -25.300  -0.701  1.00  0.00     0.004 C 
ENDBRANCH  30  31
ENDBRANCH  29  30
ENDBRANCH  28  29
ENDBRANCH  27  28
ENDBRANCH  26  27
ENDBRANCH  25  26
ENDBRANCH  24  25
ENDBRANCH  23  24
ENDBRANCH  22  23
ENDBRANCH  21  22
ENDBRANCH  20  21
ENDBRANCH  19  20
ENDBRANCH  18  19
ENDBRANCH   1  18
TORSDOF 28
ENDMDL
MODEL 3
REMARK VINA RESULT:    -4.826      2.261      4.102
REMARK INTER + INTRA:         -16.240
REMARK INTER:                 -11.795
REMARK INTRA:                  -4.445
REMARK UNBOUND:                -3.513
REMARK SMILES CCCCCCCCCCCCCCCCCCCCCCCCCCCCCC(=O)[O-]
REMARK SMILES IDX 16 1 17 2 18 3 19 4 20 5 21 6 22 7 23 8 24 9 25 10 26 11
REMARK SMILES IDX 27 12 28 13 29 14 30 15 31 16 32 17 15 18 14 19 13 20 12 21
REMARK SMILES IDX 11 22 10 23 9 24 8 25 7 26 6 27 5 28 4 29 3 30 2 31 1 32
REMARK H PARENT
REMARK Flexibility Score: inf
ROOT
ATOM      1  C   UNL     1      62.964 -27.724  -2.486  1.00  0.00     0.000 C 
ENDROOT
BRANCH   1   2
ATOM      2  C   UNL     1      63.622 -28.269  -1.202  1.00  0.00     0.000 C 
BRANCH   2   3
ATOM      3  C   UNL     1      62.679 -29.045  -0.266  1.00  0.00     0.000 C 
BRANCH   3   4
ATOM      4  C   UNL     1      61.248 -29.151  -0.814  1.00  0.00     0.000 C 
BRANCH   4   5
ATOM      5  C   UNL     1      60.221 -29.136   0.327  1.00  0.00     0.000 C 
BRANCH   5   6
ATOM      6  C   UNL     1      58.799 -29.499  -0.138  1.00  0.00     0.000 C 
BRANCH   6   7
ATOM      7  C   UNL     1      57.735 -29.548   0.974  1.00  0.00     0.000 C 
BRANCH   7   8
ATOM      8  C   UNL     1      56.975 -28.222   1.135  1.00  0.00     0.000 C 
BRANCH   8   9
ATOM      9  C   UNL     1      57.417 -27.422   2.375  1.00  0.00     0.000 C 
BRANCH   9  10
ATOM     10  C   UNL     1      58.069 -28.253   3.495  1.00  0.00     0.000 C 
BRANCH  10  11
ATOM     11  C   UNL     1      59.341 -27.607   4.062  1.00  0.00     0.000 C 
BRANCH  11  12
ATOM     12  C   UNL     1      60.523 -28.583   4.016  1.00  0.00     0.000 C 
BRANCH  12  13
ATOM     13  C   UNL     1      60.035 -30.029   3.842  1.00  0.00     0.006 C 
BRANCH  13  14
ATOM     14  C   UNL     1      60.411 -30.917   5.036  1.00  0.00     0.053 C 
BRANCH  14  15
ATOM     15  C   UNL     1      59.638 -30.548   6.265  1.00  0.00     0.041 C 
ATOM     16  O   UNL     1      60.237 -30.126   7.290  1.00  0.00    -0.550 OA
ATOM     17  O   UNL     1      58.252 -30.642   6.268  1.00  0.00    -0.550 OA
ENDBRANCH  14  15
ENDBRANCH  13  14
ENDBRANCH  12  13
ENDBRANCH  11  12
ENDBRANCH  10  11
ENDBRANCH   9  10
ENDBRANCH   8   9
ENDBRANCH   7   8
ENDBRANCH   6   7
ENDBRANCH   5   6
ENDBRANCH   4   5
ENDBRANCH   3   4
ENDBRANCH   2   3
ENDBRANCH   1   2
BRANCH   1  18
ATOM     18  C   UNL     1      62.825 -26.190  -2.552  1.00  0.00     0.000 C 
BRANCH  18  19
ATOM     19  C   UNL     1      61.998 -25.663  -3.739  1.00  0.00     0.000 C 
BRANCH  19  20
ATOM     20  C   UNL     1      60.675 -25.016  -3.305  1.00  0.00     0.000 C 
BRANCH  20  21
ATOM     21  C   UNL     1      59.861 -25.972  -2.421  1.00  0.00     0.000 C 
BRANCH  21  22
ATOM     22  C   UNL     1      59.263 -27.154  -3.206  1.00  0.00     0.000 C 
BRANCH  22  23
ATOM     23  C   UNL     1      57.804 -27.501  -2.857  1.00  0.00     0.000 C 
BRANCH  23  24
ATOM     24  C   UNL     1      57.014 -26.296  -2.318  1.00  0.00    -0.000 C 
BRANCH  24  25
ATOM     25  C   UNL     1      56.079 -25.673  -3.372  1.00  0.00    -0.000 C 
BRANCH  25  26
ATOM     26  C   UNL     1      56.309 -24.174  -3.652  1.00  0.00    -0.000 C 
BRANCH  26  27
ATOM     27  C   UNL     1      57.505 -23.856  -4.571  1.00  0.00    -0.000 C 
BRANCH  27  28
ATOM     28  C   UNL     1      57.535 -24.646  -5.894  1.00  0.00    -0.000 C 
BRANCH  28  29
ATOM     29  C   UNL     1      58.941 -24.879  -6.484  1.00  0.00    -0.000 C 
BRANCH  29  30
ATOM     30  C   UNL     1      58.964 -25.561  -7.862  1.00  0.00    -0.000 C 
BRANCH  30  31
ATOM     31  C   UNL     1      60.353 -26.095  -8.242  1.00  0.00    -0.003 C 
ATOM     32  C   UNL     1      61.029 -25.190  -9.268  1.00  0.00     0.004 C 
ENDBRANCH  30  31
ENDBRANCH  29  30
ENDBRANCH  28  29
ENDBRANCH  27  28
ENDBRANCH  26  27
ENDBRANCH  25  26
ENDBRANCH  24  25
ENDBRANCH  23  24
ENDBRANCH  22  23
ENDBRANCH  21  22
ENDBRANCH  20  21
ENDBRANCH  19  20
ENDBRANCH  18  19
ENDBRANCH   1  18
TORSDOF 28
ENDMDL
MODEL 4
REMARK VINA RESULT:    -4.804      5.795     10.877
REMARK INTER + INTRA:         -16.180
REMARK INTER:                 -11.300
REMARK INTRA:                  -4.880
REMARK UNBOUND:                -3.513
REMARK SMILES CCCCCCCCCCCCCCCCCCCCCCCCCCCCCC(=O)[O-]
REMARK SMILES IDX 16 1 17 2 18 3 19 4 20 5 21 6 22 7 23 8 24 9 25 10 26 11
REMARK SMILES IDX 27 12 28 13 29 14 30 15 31 16 32 17 15 18 14 19 13 20 12 21
REMARK SMILES IDX 11 22 10 23 9 24 8 25 7 26 6 27 5 28 4 29 3 30 2 31 1 32
REMARK H PARENT
REMARK Flexibility Score: inf
ROOT
ATOM      1  C   UNL     1      59.069 -26.799  -2.135  1.00  0.00     0.000 C 
ENDROOT
BRANCH   1   2
ATOM      2  C   UNL     1      57.896 -26.591  -3.114  1.00  0.00     0.000 C 
BRANCH   2   3
ATOM      3  C   UNL     1      57.532 -25.122  -3.391  1.00  0.00     0.000 C 
BRANCH   3   4
ATOM      4  C   UNL     1      57.519 -24.783  -4.889  1.00  0.00     0.000 C 
BRANCH   4   5
ATOM      5  C   UNL     1      58.403 -23.562  -5.183  1.00  0.00     0.000 C 
BRANCH   5   6
ATOM      6  C   UNL     1      59.869 -23.936  -5.471  1.00  0.00     0.000 C 
BRANCH   6   7
ATOM      7  C   UNL     1      60.087 -25.350  -6.041  1.00  0.00     0.000 C 
BRANCH   7   8
ATOM      8  C   UNL     1      60.697 -25.339  -7.452  1.00  0.00     0.000 C 
BRANCH   8   9
ATOM      9  C   UNL     1      59.645 -25.508  -8.564  1.00  0.00     0.000 C 
BRANCH   9  10
ATOM     10  C   UNL     1      58.372 -26.274  -8.153  1.00  0.00     0.000 C 
BRANCH  10  11
ATOM     11  C   UNL     1      57.080 -25.514  -8.484  1.00  0.00     0.000 C 
BRANCH  11  12
ATOM     12  C   UNL     1      57.385 -24.080  -8.936  1.00  0.00     0.000 C 
BRANCH  12  13
ATOM     13  C   UNL     1      56.440 -23.076  -8.259  1.00  0.00     0.006 C 
BRANCH  13  14
ATOM     14  C   UNL     1      55.051 -23.671  -7.994  1.00  0.00     0.053 C 
BRANCH  14  15
ATOM     15  C   UNL     1      54.501 -23.229  -6.673  1.00  0.00     0.041 C 
ATOM     16  O   UNL     1      53.426 -23.719  -6.236  1.00  0.00    -0.550 OA
ATOM     17  O   UNL     1      55.192 -22.297  -5.910  1.00  0.00    -0.550 OA
ENDBRANCH  14  15
ENDBRANCH  13  14
ENDBRANCH  12  13
ENDBRANCH  11  12
ENDBRANCH  10  11
ENDBRANCH   9  10
ENDBRANCH   8   9
ENDBRANCH   7   8
ENDBRANCH   6   7
ENDBRANCH   5   6
ENDBRANCH   4   5
ENDBRANCH   3   4
ENDBRANCH   2   3
ENDBRANCH   1   2
BRANCH   1  18
ATOM     18  C   UNL     1      60.305 -25.915  -2.396  1.00  0.00     0.000 C 
BRANCH  18  19
ATOM     19  C   UNL     1      61.459 -26.615  -3.138  1.00  0.00     0.000 C 
BRANCH  19  20
ATOM     20  C   UNL     1      62.832 -26.008  -2.818  1.00  0.00     0.000 C 
BRANCH  20  21
ATOM     21  C   UNL     1      63.649 -26.946  -1.917  1.00  0.00     0.000 C 
BRANCH  21  22
ATOM     22  C   UNL     1      63.102 -28.385  -1.893  1.00  0.00     0.000 C 
BRANCH  22  23
ATOM     23  C   UNL     1      62.630 -28.884  -0.515  1.00  0.00     0.000 C 
BRANCH  23  24
ATOM     24  C   UNL     1      61.133 -29.237  -0.487  1.00  0.00    -0.000 C 
BRANCH  24  25
ATOM     25  C   UNL     1      60.535 -29.201   0.932  1.00  0.00    -0.000 C 
BRANCH  25  26
ATOM     26  C   UNL     1      59.238 -30.013   1.121  1.00  0.00    -0.000 C 
BRANCH  26  27
ATOM     27  C   UNL     1      58.179 -29.820   0.019  1.00  0.00    -0.000 C 
BRANCH  27  28
ATOM     28  C   UNL     1      56.796 -29.359   0.521  1.00  0.00    -0.000 C 
BRANCH  28  29
ATOM     29  C   UNL     1      56.447 -27.888   0.213  1.00  0.00    -0.000 C 
BRANCH  29  30
ATOM     30  C   UNL     1      56.909 -26.874   1.274  1.00  0.00    -0.000 C 
BRANCH  30  31
ATOM     31  C   UNL     1      56.826 -27.427   2.705  1.00  0.00    -0.003 C 
ATOM     32  C   UNL     1      58.169 -27.305   3.420  1.00  0.00     0.004 C 
ENDBRANCH  30  31
ENDBRANCH  29  30
ENDBRANCH  28  29
ENDBRANCH  27  28
ENDBRANCH  26  27
ENDBRANCH  25  26
ENDBRANCH  24  25
ENDBRANCH  23  24
ENDBRANCH  22  23
ENDBRANCH  21  22
ENDBRANCH  20  21
ENDBRANCH  19  20
ENDBRANCH  18  19
ENDBRANCH   1  18
TORSDOF 28
ENDMDL
MODEL 5
REMARK VINA RESULT:    -4.781      4.145      5.673
REMARK INTER + INTRA:         -16.120
REMARK INTER:                 -11.476
REMARK INTRA:                  -4.644
REMARK UNBOUND:                -3.513
REMARK SMILES CCCCCCCCCCCCCCCCCCCCCCCCCCCCCC(=O)[O-]
REMARK SMILES IDX 16 1 17 2 18 3 19 4 20 5 21 6 22 7 23 8 24 9 25 10 26 11
REMARK SMILES IDX 27 12 28 13 29 14 30 15 31 16 32 17 15 18 14 19 13 20 12 21
REMARK SMILES IDX 11 22 10 23 9 24 8 25 7 26 6 27 5 28 4 29 3 30 2 31 1 32
REMARK H PARENT
REMARK Flexibility Score: inf
ROOT
ATOM      1  C   UNL     1      62.749 -28.615  -0.730  1.00  0.00     0.000 C 
ENDROOT
BRANCH   1   2
ATOM      2  C   UNL     1      61.388 -28.875  -1.407  1.00  0.00     0.000 C 
BRANCH   2   3
ATOM      3  C   UNL     1      60.185 -28.930  -0.450  1.00  0.00     0.000 C 
BRANCH   3   4
ATOM      4  C   UNL     1      60.590 -29.229   1.001  1.00  0.00     0.000 C 
BRANCH   4   5
ATOM      5  C   UNL     1      59.352 -29.348   1.902  1.00  0.00     0.000 C 
BRANCH   5   6
ATOM      6  C   UNL     1      59.696 -29.320   3.403  1.00  0.00     0.000 C 
BRANCH   6   7
ATOM      7  C   UNL     1      59.453 -27.972   4.108  1.00  0.00     0.000 C 
BRANCH   7   8
ATOM      8  C   UNL     1      58.333 -27.147   3.453  1.00  0.00     0.000 C 
BRANCH   8   9
ATOM      9  C   UNL     1      57.114 -26.950   4.374  1.00  0.00     0.000 C 
BRANCH   9  10
ATOM     10  C   UNL     1      56.129 -28.132   4.423  1.00  0.00     0.000 C 
BRANCH  10  11
ATOM     11  C   UNL     1      55.845 -28.737   3.040  1.00  0.00     0.000 C 
BRANCH  11  12
ATOM     12  C   UNL     1      54.960 -29.984   3.155  1.00  0.00     0.000 C 
BRANCH  12  13
ATOM     13  C   UNL     1      54.928 -30.760   1.830  1.00  0.00     0.006 C 
BRANCH  13  14
ATOM     14  C   UNL     1      53.544 -30.724   1.169  1.00  0.00     0.053 C 
BRANCH  14  15
ATOM     15  C   UNL     1      52.907 -32.080   1.142  1.00  0.00     0.041 C 
ATOM     16  O   UNL     1      53.499 -33.049   0.597  1.00  0.00    -0.550 OA
ATOM     17  O   UNL     1      51.673 -32.280   1.747  1.00  0.00    -0.550 OA
ENDBRANCH  14  15
ENDBRANCH  13  14
ENDBRANCH  12  13
ENDBRANCH  11  12
ENDBRANCH  10  11
ENDBRANCH   9  10
ENDBRANCH   8   9
ENDBRANCH   7   8
ENDBRANCH   6   7
ENDBRANCH   5   6
ENDBRANCH   4   5
ENDBRANCH   3   4
ENDBRANCH   2   3
ENDBRANCH   1   2
BRANCH   1  18
ATOM     18  C   UNL     1      63.668 -27.620  -1.466  1.00  0.00     0.000 C 
BRANCH  18  19
ATOM     19  C   UNL     1      63.164 -27.172  -2.850  1.00  0.00     0.000 C 
BRANCH  19  20
ATOM     20  C   UNL     1      62.766 -25.689  -2.891  1.00  0.00     0.000 C 
BRANCH  20  21
ATOM     21  C   UNL     1      61.448 -25.498  -3.656  1.00  0.00     0.000 C 
BRANCH  21  22
ATOM     22  C   UNL     1      60.204 -25.741  -2.781  1.00  0.00     0.000 C 
BRANCH  22  23
ATOM     23  C   UNL     1      59.193 -26.755  -3.346  1.00  0.00     0.000 C 
BRANCH  23  24
ATOM     24  C   UNL     1      58.280 -26.151  -4.427  1.00  0.00    -0.000 C 
BRANCH  24  25
ATOM     25  C   UNL     1      58.098 -24.629  -4.277  1.00  0.00    -0.000 C 
BRANCH  25  26
ATOM     26  C   UNL     1      56.797 -24.188  -3.578  1.00  0.00    -0.000 C 
BRANCH  26  27
ATOM     27  C   UNL     1      55.835 -25.333  -3.202  1.00  0.00    -0.000 C 
BRANCH  27  28
ATOM     28  C   UNL     1      55.592 -25.506  -1.690  1.00  0.00    -0.000 C 
BRANCH  28  29
ATOM     29  C   UNL     1      56.869 -25.554  -0.826  1.00  0.00    -0.000 C 
BRANCH  29  30
ATOM     30  C   UNL     1      57.084 -26.868  -0.055  1.00  0.00    -0.000 C 
BRANCH  30  31
ATOM     31  C   UNL     1      56.122 -27.982  -0.495  1.00  0.00    -0.003 C 
ATOM     32  C   UNL     1      56.760 -28.870  -1.561  1.00  0.00     0.004 C 
ENDBRANCH  30  31
ENDBRANCH  29  30
ENDBRANCH  28  29
ENDBRANCH  27  28
ENDBRANCH  26  27
ENDBRANCH  25  26
ENDBRANCH  24  25
ENDBRANCH  23  24
ENDBRANCH  22  23
ENDBRANCH  21  22
ENDBRANCH  20  21
ENDBRANCH  19  20
ENDBRANCH  18  19
ENDBRANCH   1  18
TORSDOF 28
ENDMDL
MODEL 6
REMARK VINA RESULT:    -4.760      5.111      9.649
REMARK INTER + INTRA:         -16.066
REMARK INTER:                 -11.108
REMARK INTRA:                  -4.958
REMARK UNBOUND:                -3.513
REMARK SMILES CCCCCCCCCCCCCCCCCCCCCCCCCCCCCC(=O)[O-]
REMARK SMILES IDX 16 1 17 2 18 3 19 4 20 5 21 6 22 7 23 8 24 9 25 10 26 11
REMARK SMILES IDX 27 12 28 13 29 14 30 15 31 16 32 17 15 18 14 19 13 20 12 21
REMARK SMILES IDX 11 22 10 23 9 24 8 25 7 26 6 27 5 28 4 29 3 30 2 31 1 32
REMARK H PARENT
REMARK Flexibility Score: inf
ROOT
ATOM      1  C   UNL     1      62.980 -28.383  -1.841  1.00  0.00     0.000 C 
ENDROOT
BRANCH   1   2
ATOM      2  C   UNL     1      63.602 -26.991  -2.072  1.00  0.00     0.000 C 
BRANCH   2   3
ATOM      3  C   UNL     1      62.793 -26.062  -2.995  1.00  0.00     0.000 C 
BRANCH   3   4
ATOM      4  C   UNL     1      61.330 -26.502  -3.151  1.00  0.00     0.000 C 
BRANCH   4   5
ATOM      5  C   UNL     1      60.381 -25.501  -2.476  1.00  0.00     0.000 C 
BRANCH   5   6
ATOM      6  C   UNL     1      58.914 -25.676  -2.909  1.00  0.00     0.000 C 
BRANCH   6   7
ATOM      7  C   UNL     1      58.637 -26.888  -3.817  1.00  0.00     0.000 C 
BRANCH   7   8
ATOM      8  C   UNL     1      58.101 -26.490  -5.202  1.00  0.00     0.000 C 
BRANCH   8   9
ATOM      9  C   UNL     1      57.906 -24.970  -5.356  1.00  0.00     0.000 C 
BRANCH   9  10
ATOM     10  C   UNL     1      58.787 -24.299  -6.427  1.00  0.00     0.000 C 
BRANCH  10  11
ATOM     11  C   UNL     1      60.289 -24.508  -6.187  1.00  0.00     0.000 C 
BRANCH  11  12
ATOM     12  C   UNL     1      60.903 -25.391  -7.281  1.00  0.00     0.000 C 
BRANCH  12  13
ATOM     13  C   UNL     1      60.021 -25.404  -8.538  1.00  0.00     0.006 C 
BRANCH  13  14
ATOM     14  C   UNL     1      60.047 -26.761  -9.253  1.00  0.00     0.053 C 
BRANCH  14  15
ATOM     15  C   UNL     1      58.764 -27.511  -9.065  1.00  0.00     0.041 C 
ATOM     16  O   UNL     1      57.741 -26.920  -8.629  1.00  0.00    -0.550 OA
ATOM     17  O   UNL     1      58.691 -28.857  -9.400  1.00  0.00    -0.550 OA
ENDBRANCH  14  15
ENDBRANCH  13  14
ENDBRANCH  12  13
ENDBRANCH  11  12
ENDBRANCH  10  11
ENDBRANCH   9  10
ENDBRANCH   8   9
ENDBRANCH   7   8
ENDBRANCH   6   7
ENDBRANCH   5   6
ENDBRANCH   4   5
ENDBRANCH   3   4
ENDBRANCH   2   3
ENDBRANCH   1   2
BRANCH   1  18
ATOM     18  C   UNL     1      62.930 -28.843  -0.371  1.00  0.00     0.000 C 
BRANCH  18  19
ATOM     19  C   UNL     1      61.531 -29.227   0.142  1.00  0.00     0.000 C 
BRANCH  19  20
ATOM     20  C   UNL     1      60.448 -29.130  -0.942  1.00  0.00     0.000 C 
BRANCH  20  21
ATOM     21  C   UNL     1      59.067 -29.481  -0.369  1.00  0.00     0.000 C 
BRANCH  21  22
ATOM     22  C   UNL     1      58.041 -28.344  -0.533  1.00  0.00     0.000 C 
BRANCH  22  23
ATOM     23  C   UNL     1      56.713 -28.750  -1.198  1.00  0.00     0.000 C 
BRANCH  23  24
ATOM     24  C   UNL     1      55.719 -27.581  -1.313  1.00  0.00    -0.000 C 
BRANCH  24  25
ATOM     25  C   UNL     1      56.145 -26.349  -0.492  1.00  0.00    -0.000 C 
BRANCH  25  26
ATOM     26  C   UNL     1      55.235 -26.010   0.706  1.00  0.00    -0.000 C 
BRANCH  26  27
ATOM     27  C   UNL     1      54.960 -27.182   1.670  1.00  0.00    -0.000 C 
BRANCH  27  28
ATOM     28  C   UNL     1      55.878 -27.232   2.907  1.00  0.00    -0.000 C 
BRANCH  28  29
ATOM     29  C   UNL     1      56.886 -28.401   2.924  1.00  0.00    -0.000 C 
BRANCH  29  30
ATOM     30  C   UNL     1      58.358 -27.989   3.095  1.00  0.00    -0.000 C 
BRANCH  30  31
ATOM     31  C   UNL     1      59.304 -29.192   3.223  1.00  0.00    -0.003 C 
ATOM     32  C   UNL     1      60.648 -28.774   3.815  1.00  0.00     0.004 C 
ENDBRANCH  30  31
ENDBRANCH  29  30
ENDBRANCH  28  29
ENDBRANCH  27  28
ENDBRANCH  26  27
ENDBRANCH  25  26
ENDBRANCH  24  25
ENDBRANCH  23  24
ENDBRANCH  22  23
ENDBRANCH  21  22
ENDBRANCH  20  21
ENDBRANCH  19  20
ENDBRANCH  18  19
ENDBRANCH   1  18
TORSDOF 28
ENDMDL
MODEL 7
REMARK VINA RESULT:    -4.710      4.350      8.704
REMARK INTER + INTRA:         -15.932
REMARK INTER:                 -11.066
REMARK INTRA:                  -4.867
REMARK UNBOUND:                -3.513
REMARK SMILES CCCCCCCCCCCCCCCCCCCCCCCCCCCCCC(=O)[O-]
REMARK SMILES IDX 16 1 17 2 18 3 19 4 20 5 21 6 22 7 23 8 24 9 25 10 26 11
REMARK SMILES IDX 27 12 28 13 29 14 30 15 31 16 32 17 15 18 14 19 13 20 12 21
REMARK SMILES IDX 11 22 10 23 9 24 8 25 7 26 6 27 5 28 4 29 3 30 2 31 1 32
REMARK H PARENT
REMARK Flexibility Score: inf
ROOT
ATOM      1  C   UNL     1      59.878 -29.508   3.648  1.00  0.00     0.000 C 
ENDROOT
BRANCH   1   2
ATOM      2  C   UNL     1      59.548 -28.974   2.240  1.00  0.00     0.000 C 
BRANCH   2   3
ATOM      3  C   UNL     1      60.612 -29.265   1.167  1.00  0.00     0.000 C 
BRANCH   3   4
ATOM      4  C   UNL     1      60.030 -29.307  -0.254  1.00  0.00     0.000 C 
BRANCH   4   5
ATOM      5  C   UNL     1      61.022 -28.725  -1.270  1.00  0.00     0.000 C 
BRANCH   5   6
ATOM      6  C   UNL     1      62.492 -28.985  -0.892  1.00  0.00     0.000 C 
BRANCH   6   7
ATOM      7  C   UNL     1      63.481 -27.876  -1.297  1.00  0.00     0.000 C 
BRANCH   7   8
ATOM      8  C   UNL     1      63.236 -27.343  -2.718  1.00  0.00     0.000 C 
BRANCH   8   9
ATOM      9  C   UNL     1      62.776 -25.873  -2.738  1.00  0.00     0.000 C 
BRANCH   9  10
ATOM     10  C   UNL     1      61.610 -25.562  -3.695  1.00  0.00     0.000 C 
BRANCH  10  11
ATOM     11  C   UNL     1      60.239 -25.600  -3.005  1.00  0.00     0.000 C 
BRANCH  11  12
ATOM     12  C   UNL     1      59.309 -26.613  -3.685  1.00  0.00     0.000 C 
BRANCH  12  13
ATOM     13  C   UNL     1      58.111 -26.951  -2.785  1.00  0.00     0.006 C 
BRANCH  13  14
ATOM     14  C   UNL     1      57.969 -25.971  -1.614  1.00  0.00     0.053 C 
BRANCH  14  15
ATOM     15  C   UNL     1      56.705 -25.173  -1.709  1.00  0.00     0.041 C 
ATOM     16  O   UNL     1      56.445 -24.290  -0.849  1.00  0.00    -0.550 OA
ATOM     17  O   UNL     1      55.830 -25.382  -2.767  1.00  0.00    -0.550 OA
ENDBRANCH  14  15
ENDBRANCH  13  14
ENDBRANCH  12  13
ENDBRANCH  11  12
ENDBRANCH  10  11
ENDBRANCH   9  10
ENDBRANCH   8   9
ENDBRANCH   7   8
ENDBRANCH   6   7
ENDBRANCH   5   6
ENDBRANCH   4   5
ENDBRANCH   3   4
ENDBRANCH   2   3
ENDBRANCH   1   2
BRANCH   1  18
ATOM     18  C   UNL     1      60.750 -28.578   4.515  1.00  0.00     0.000 C 
BRANCH  18  19
ATOM     19  C   UNL     1      59.967 -27.587   5.395  1.00  0.00     0.000 C 
BRANCH  19  20
ATOM     20  C   UNL     1      59.807 -26.206   4.744  1.00  0.00     0.000 C 
BRANCH  20  21
ATOM     21  C   UNL     1      58.329 -25.787   4.707  1.00  0.00     0.000 C 
BRANCH  21  22
ATOM     22  C   UNL     1      57.598 -26.271   3.441  1.00  0.00     0.000 C 
BRANCH  22  23
ATOM     23  C   UNL     1      56.141 -26.716   3.655  1.00  0.00     0.000 C 
BRANCH  23  24
ATOM     24  C   UNL     1      56.013 -27.905   4.623  1.00  0.00    -0.000 C 
BRANCH  24  25
ATOM     25  C   UNL     1      56.192 -29.266   3.927  1.00  0.00    -0.000 C 
BRANCH  25  26
ATOM     26  C   UNL     1      55.294 -29.498   2.694  1.00  0.00    -0.000 C 
BRANCH  26  27
ATOM     27  C   UNL     1      56.041 -29.912   1.410  1.00  0.00    -0.000 C 
BRANCH  27  28
ATOM     28  C   UNL     1      56.396 -28.750   0.463  1.00  0.00    -0.000 C 
BRANCH  28  29
ATOM     29  C   UNL     1      55.186 -28.035  -0.175  1.00  0.00    -0.000 C 
BRANCH  29  30
ATOM     30  C   UNL     1      54.513 -28.799  -1.328  1.00  0.00    -0.000 C 
BRANCH  30  31
ATOM     31  C   UNL     1      53.054 -29.173  -1.026  1.00  0.00    -0.003 C 
ATOM     32  C   UNL     1      52.952 -30.597  -0.484  1.00  0.00     0.004 C 
ENDBRANCH  30  31
ENDBRANCH  29  30
ENDBRANCH  28  29
ENDBRANCH  27  28
ENDBRANCH  26  27
ENDBRANCH  25  26
ENDBRANCH  24  25
ENDBRANCH  23  24
ENDBRANCH  22  23
ENDBRANCH  21  22
ENDBRANCH  20  21
ENDBRANCH  19  20
ENDBRANCH  18  19
ENDBRANCH   1  18
TORSDOF 28
ENDMDL
MODEL 8
REMARK VINA RESULT:    -4.703      4.592      7.508
REMARK INTER + INTRA:         -15.915
REMARK INTER:                 -11.236
REMARK INTRA:                  -4.678
REMARK UNBOUND:                -3.513
REMARK SMILES CCCCCCCCCCCCCCCCCCCCCCCCCCCCCC(=O)[O-]
REMARK SMILES IDX 16 1 17 2 18 3 19 4 20 5 21 6 22 7 23 8 24 9 25 10 26 11
REMARK SMILES IDX 27 12 28 13 29 14 30 15 31 16 32 17 15 18 14 19 13 20 12 21
REMARK SMILES IDX 11 22 10 23 9 24 8 25 7 26 6 27 5 28 4 29 3 30 2 31 1 32
REMARK H PARENT
REMARK Flexibility Score: inf
ROOT
ATOM      1  C   UNL     1      60.239 -29.245   1.047  1.00  0.00     0.000 C 
ENDROOT
BRANCH   1   2
ATOM      2  C   UNL     1      58.938 -29.247   1.874  1.00  0.00     0.000 C 
BRANCH   2   3
ATOM      3  C   UNL     1      59.085 -28.748   3.322  1.00  0.00     0.000 C 
BRANCH   3   4
ATOM      4  C   UNL     1      57.742 -28.361   3.959  1.00  0.00     0.000 C 
BRANCH   4   5
ATOM      5  C   UNL     1      56.952 -27.416   3.042  1.00  0.00     0.000 C 
BRANCH   5   6
ATOM      6  C   UNL     1      55.496 -27.866   2.826  1.00  0.00     0.000 C 
BRANCH   6   7
ATOM      7  C   UNL     1      55.288 -29.386   2.702  1.00  0.00     0.000 C 
BRANCH   7   8
ATOM      8  C   UNL     1      55.168 -29.858   1.244  1.00  0.00     0.000 C 
BRANCH   8   9
ATOM      9  C   UNL     1      54.360 -28.888   0.363  1.00  0.00     0.000 C 
BRANCH   9  10
ATOM     10  C   UNL     1      54.920 -28.666  -1.055  1.00  0.00     0.000 C 
BRANCH  10  11
ATOM     11  C   UNL     1      56.433 -28.909  -1.149  1.00  0.00     0.000 C 
BRANCH  11  12
ATOM     12  C   UNL     1      57.165 -27.645  -1.617  1.00  0.00     0.000 C 
BRANCH  12  13
ATOM     13  C   UNL     1      57.320 -26.640  -0.465  1.00  0.00     0.006 C 
BRANCH  13  14
ATOM     14  C   UNL     1      57.348 -25.188  -0.959  1.00  0.00     0.053 C 
BRANCH  14  15
ATOM     15  C   UNL     1      55.988 -24.719  -1.378  1.00  0.00     0.041 C 
ATOM     16  O   UNL     1      55.816 -24.206  -2.515  1.00  0.00    -0.550 OA
ATOM     17  O   UNL     1      54.905 -24.879  -0.524  1.00  0.00    -0.550 OA
ENDBRANCH  14  15
ENDBRANCH  13  14
ENDBRANCH  12  13
ENDBRANCH  11  12
ENDBRANCH  10  11
ENDBRANCH   9  10
ENDBRANCH   8   9
ENDBRANCH   7   8
ENDBRANCH   6   7
ENDBRANCH   5   6
ENDBRANCH   4   5
ENDBRANCH   3   4
ENDBRANCH   2   3
ENDBRANCH   1   2
BRANCH   1  18
ATOM     18  C   UNL     1      60.047 -29.344  -0.479  1.00  0.00     0.000 C 
BRANCH  18  19
ATOM     19  C   UNL     1      61.176 -28.717  -1.318  1.00  0.00     0.000 C 
BRANCH  19  20
ATOM     20  C   UNL     1      62.575 -29.153  -0.859  1.00  0.00     0.000 C 
BRANCH  20  21
ATOM     21  C   UNL     1      63.628 -28.103  -1.242  1.00  0.00     0.000 C 
BRANCH  21  22
ATOM     22  C   UNL     1      63.381 -27.479  -2.628  1.00  0.00     0.000 C 
BRANCH  22  23
ATOM     23  C   UNL     1      63.142 -25.959  -2.629  1.00  0.00     0.000 C 
BRANCH  23  24
ATOM     24  C   UNL     1      62.072 -25.521  -3.643  1.00  0.00    -0.000 C 
BRANCH  24  25
ATOM     25  C   UNL     1      60.653 -25.500  -3.047  1.00  0.00    -0.000 C 
BRANCH  25  26
ATOM     26  C   UNL     1      59.636 -26.436  -3.732  1.00  0.00    -0.000 C 
BRANCH  26  27
ATOM     27  C   UNL     1      58.514 -25.723  -4.512  1.00  0.00    -0.000 C 
BRANCH  27  28
ATOM     28  C   UNL     1      58.906 -24.356  -5.108  1.00  0.00    -0.000 C 
BRANCH  28  29
ATOM     29  C   UNL     1      59.852 -24.422  -6.325  1.00  0.00    -0.000 C 
BRANCH  29  30
ATOM     30  C   UNL     1      59.669 -25.656  -7.225  1.00  0.00    -0.000 C 
BRANCH  30  31
ATOM     31  C   UNL     1      58.434 -25.554  -8.134  1.00  0.00    -0.003 C 
ATOM     32  C   UNL     1      57.532 -26.775  -7.976  1.00  0.00     0.004 C 
ENDBRANCH  30  31
ENDBRANCH  29  30
ENDBRANCH  28  29
ENDBRANCH  27  28
ENDBRANCH  26  27
ENDBRANCH  25  26
ENDBRANCH  24  25
ENDBRANCH  23  24
ENDBRANCH  22  23
ENDBRANCH  21  22
ENDBRANCH  20  21
ENDBRANCH  19  20
ENDBRANCH  18  19
ENDBRANCH   1  18
TORSDOF 28
ENDMDL
MODEL 9
REMARK VINA RESULT:    -4.701      5.273      9.295
REMARK INTER + INTRA:         -15.908
REMARK INTER:                 -11.271
REMARK INTRA:                  -4.637
REMARK UNBOUND:                -3.513
REMARK SMILES CCCCCCCCCCCCCCCCCCCCCCCCCCCCCC(=O)[O-]
REMARK SMILES IDX 16 1 17 2 18 3 19 4 20 5 21 6 22 7 23 8 24 9 25 10 26 11
REMARK SMILES IDX 27 12 28 13 29 14 30 15 31 16 32 17 15 18 14 19 13 20 12 21
REMARK SMILES IDX 11 22 10 23 9 24 8 25 7 26 6 27 5 28 4 29 3 30 2 31 1 32
REMARK H PARENT
REMARK Flexibility Score: inf
ROOT
ATOM      1  C   UNL     1      61.405 -25.636  -3.513  1.00  0.00     0.000 C 
ENDROOT
BRANCH   1   2
ATOM      2  C   UNL     1      60.114 -25.999  -2.751  1.00  0.00     0.000 C 
BRANCH   2   3
ATOM      3  C   UNL     1      59.189 -26.993  -3.474  1.00  0.00     0.000 C 
BRANCH   3   4
ATOM      4  C   UNL     1      58.197 -27.683  -2.526  1.00  0.00     0.000 C 
BRANCH   4   5
ATOM      5  C   UNL     1      58.064 -26.903  -1.210  1.00  0.00     0.000 C 
BRANCH   5   6
ATOM      6  C   UNL     1      56.785 -26.047  -1.145  1.00  0.00     0.000 C 
BRANCH   6   7
ATOM      7  C   UNL     1      55.478 -26.791  -1.475  1.00  0.00     0.000 C 
BRANCH   7   8
ATOM      8  C   UNL     1      54.377 -25.861  -2.008  1.00  0.00     0.000 C 
BRANCH   8   9
ATOM      9  C   UNL     1      54.161 -25.993  -3.527  1.00  0.00     0.000 C 
BRANCH   9  10
ATOM     10  C   UNL     1      55.343 -25.536  -4.402  1.00  0.00     0.000 C 
BRANCH  10  11
ATOM     11  C   UNL     1      55.792 -24.098  -4.103  1.00  0.00     0.000 C 
BRANCH  11  12
ATOM     12  C   UNL     1      57.312 -23.953  -4.252  1.00  0.00     0.000 C 
BRANCH  12  13
ATOM     13  C   UNL     1      57.788 -24.510  -5.601  1.00  0.00     0.006 C 
BRANCH  13  14
ATOM     14  C   UNL     1      59.210 -24.052  -5.950  1.00  0.00     0.053 C 
BRANCH  14  15
ATOM     15  C   UNL     1      59.757 -24.793  -7.132  1.00  0.00     0.041 C 
ATOM     16  O   UNL     1      59.144 -24.776  -8.232  1.00  0.00    -0.550 OA
ATOM     17  O   UNL     1      60.961 -25.476  -7.026  1.00  0.00    -0.550 OA
ENDBRANCH  14  15
ENDBRANCH  13  14
ENDBRANCH  12  13
ENDBRANCH  11  12
ENDBRANCH  10  11
ENDBRANCH   9  10
ENDBRANCH   8   9
ENDBRANCH   7   8
ENDBRANCH   6   7
ENDBRANCH   5   6
ENDBRANCH   4   5
ENDBRANCH   3   4
ENDBRANCH   2   3
ENDBRANCH   1   2
BRANCH   1  18
ATOM     18  C   UNL     1      62.716 -25.906  -2.749  1.00  0.00     0.000 C 
BRANCH  18  19
ATOM     19  C   UNL     1      63.157 -27.381  -2.717  1.00  0.00     0.000 C 
BRANCH  19  20
ATOM     20  C   UNL     1      63.613 -27.839  -1.325  1.00  0.00     0.000 C 
BRANCH  20  21
ATOM     21  C   UNL     1      62.838 -29.087  -0.878  1.00  0.00     0.000 C 
BRANCH  21  22
ATOM     22  C   UNL     1      61.312 -28.878  -0.870  1.00  0.00     0.000 C 
BRANCH  22  23
ATOM     23  C   UNL     1      60.612 -29.209   0.460  1.00  0.00     0.000 C 
BRANCH  23  24
ATOM     24  C   UNL     1      59.251 -29.899   0.264  1.00  0.00    -0.000 C 
BRANCH  24  25
ATOM     25  C   UNL     1      58.210 -29.481   1.319  1.00  0.00    -0.000 C 
BRANCH  25  26
ATOM     26  C   UNL     1      56.745 -29.811   0.967  1.00  0.00    -0.000 C 
BRANCH  26  27
ATOM     27  C   UNL     1      55.695 -28.867   1.585  1.00  0.00    -0.000 C 
BRANCH  27  28
ATOM     28  C   UNL     1      54.234 -29.335   1.435  1.00  0.00    -0.000 C 
BRANCH  28  29
ATOM     29  C   UNL     1      53.816 -29.717  -0.000  1.00  0.00    -0.000 C 
BRANCH  29  30
ATOM     30  C   UNL     1      52.922 -30.964  -0.107  1.00  0.00    -0.000 C 
BRANCH  30  31
ATOM     31  C   UNL     1      53.013 -31.872   1.129  1.00  0.00    -0.003 C 
ATOM     32  C   UNL     1      51.640 -32.068   1.769  1.00  0.00     0.004 C 
ENDBRANCH  30  31
ENDBRANCH  29  30
ENDBRANCH  28  29
ENDBRANCH  27  28
ENDBRANCH  26  27
ENDBRANCH  25  26
ENDBRANCH  24  25
ENDBRANCH  23  24
ENDBRANCH  22  23
ENDBRANCH  21  22
ENDBRANCH  20  21
ENDBRANCH  19  20
ENDBRANCH  18  19
ENDBRANCH   1  18
TORSDOF 28
ENDMDL
