MODEL 1
REMARK VINA RESULT:    -4.761      0.000      0.000
REMARK INTER + INTRA:         -16.049
REMARK INTER:                 -12.555
REMARK INTRA:                  -3.495
REMARK UNBOUND:                -3.495
REMARK SMILES CCCCCCCCCCCCCCCCCCCCCCCCCCCCCC(=O)[O-]
REMARK SMILES IDX 16 1 17 2 18 3 19 4 20 5 21 6 22 7 23 8 24 9 25 10 26 11
REMARK SMILES IDX 27 12 28 13 29 14 30 15 31 16 32 17 15 18 14 19 13 20 12 21
REMARK SMILES IDX 11 22 10 23 9 24 8 25 7 26 6 27 5 28 4 29 3 30 2 31 1 32
REMARK H PARENT
REMARK Flexibility Score: inf
ROOT
ATOM      1  C   UNL     1       1.465  43.227   8.909  1.00  0.00     0.000 C 
ENDROOT
BRANCH   1   2
ATOM      2  C   UNL     1       0.783  44.419   8.209  1.00  0.00     0.000 C 
BRANCH   2   3
ATOM      3  C   UNL     1       0.318  45.530   9.176  1.00  0.00     0.000 C 
BRANCH   3   4
ATOM      4  C   UNL     1       1.318  46.698   9.267  1.00  0.00     0.000 C 
BRANCH   4   5
ATOM      5  C   UNL     1       1.571  47.371   7.908  1.00  0.00     0.000 C 
BRANCH   5   6
ATOM      6  C   UNL     1       3.030  47.828   7.735  1.00  0.00     0.000 C 
BRANCH   6   7
ATOM      7  C   UNL     1       3.145  49.267   7.201  1.00  0.00     0.000 C 
BRANCH   7   8
ATOM      8  C   UNL     1       1.880  50.133   7.376  1.00  0.00     0.000 C 
BRANCH   8   9
ATOM      9  C   UNL     1       1.899  51.078   8.594  1.00  0.00     0.000 C 
BRANCH   9  10
ATOM     10  C   UNL     1       3.209  51.061   9.409  1.00  0.00     0.000 C 
BRANCH  10  11
ATOM     11  C   UNL     1       3.212  50.099  10.613  1.00  0.00     0.000 C 
BRANCH  11  12
ATOM     12  C   UNL     1       4.466  49.209  10.735  1.00  0.00     0.000 C 
BRANCH  12  13
ATOM     13  C   UNL     1       5.793  49.904  10.379  1.00  0.00     0.006 C 
BRANCH  13  14
ATOM     14  C   UNL     1       6.442  49.338   9.110  1.00  0.00     0.053 C 
BRANCH  14  15
ATOM     15  C   UNL     1       6.802  47.899   9.305  1.00  0.00     0.041 C 
ATOM     16  O   UNL     1       7.952  47.584   9.708  1.00  0.00    -0.550 OA
ATOM     17  O   UNL     1       5.884  46.904   8.995  1.00  0.00    -0.550 OA
ENDBRANCH  14  15
ENDBRANCH  13  14
ENDBRANCH  12  13
ENDBRANCH  11  12
ENDBRANCH  10  11
ENDBRANCH   9  10
ENDBRANCH   8   9
ENDBRANCH   7   8
ENDBRANCH   6   7
ENDBRANCH   5   6
ENDBRANCH   4   5
ENDBRANCH   3   4
ENDBRANCH   2   3
ENDBRANCH   1   2
BRANCH   1  18
ATOM     18  C   UNL     1       2.975  43.084   8.644  1.00  0.00     0.000 C 
BRANCH  18  19
ATOM     19  C   UNL     1       3.826  44.302   9.055  1.00  0.00     0.000 C 
BRANCH  19  20
ATOM     20  C   UNL     1       4.613  44.072  10.354  1.00  0.00     0.000 C 
BRANCH  20  21
ATOM     21  C   UNL     1       3.999  44.867  11.516  1.00  0.00     0.000 C 
BRANCH  21  22
ATOM     22  C   UNL     1       3.240  43.970  12.508  1.00  0.00     0.000 C 
BRANCH  22  23
ATOM     23  C   UNL     1       1.759  43.800  12.129  1.00  0.00     0.000 C 
BRANCH  23  24
ATOM     24  C   UNL     1       1.245  42.371  12.371  1.00  0.00    -0.000 C 
BRANCH  24  25
ATOM     25  C   UNL     1      -0.074  42.336  13.158  1.00  0.00    -0.000 C 
BRANCH  25  26
ATOM     26  C   UNL     1      -0.007  41.301  14.289  1.00  0.00    -0.000 C 
BRANCH  26  27
ATOM     27  C   UNL     1      -0.502  39.907  13.859  1.00  0.00    -0.000 C 
BRANCH  27  28
ATOM     28  C   UNL     1       0.601  38.928  13.408  1.00  0.00    -0.000 C 
BRANCH  28  29
ATOM     29  C   UNL     1       2.032  39.493  13.443  1.00  0.00    -0.000 C 
BRANCH  29  30
ATOM     30  C   UNL     1       2.946  38.874  12.375  1.00  0.00    -0.000 C 
BRANCH  30  31
ATOM     31  C   UNL     1       4.414  38.932  12.810  1.00  0.00    -0.003 C 
ATOM     32  C   UNL     1       4.844  40.364  13.117  1.00  0.00     0.004 C 
ENDBRANCH  30  31
ENDBRANCH  29  30
ENDBRANCH  28  29
ENDBRANCH  27  28
ENDBRANCH  26  27
ENDBRANCH  25  26
ENDBRANCH  24  25
ENDBRANCH  23  24
ENDBRANCH  22  23
ENDBRANCH  21  22
ENDBRANCH  20  21
ENDBRANCH  19  20
ENDBRANCH  18  19
ENDBRANCH   1  18
TORSDOF 28
ENDMDL
MODEL 2
REMARK VINA RESULT:    -4.753      1.262      2.060
REMARK INTER + INTRA:         -16.028
REMARK INTER:                 -11.870
REMARK INTRA:                  -4.158
REMARK UNBOUND:                -3.495
REMARK SMILES CCCCCCCCCCCCCCCCCCCCCCCCCCCCCC(=O)[O-]
REMARK SMILES IDX 16 1 17 2 18 3 19 4 20 5 21 6 22 7 23 8 24 9 25 10 26 11
REMARK SMILES IDX 27 12 28 13 29 14 30 15 31 16 32 17 15 18 14 19 13 20 12 21
REMARK SMILES IDX 11 22 10 23 9 24 8 25 7 26 6 27 5 28 4 29 3 30 2 31 1 32
REMARK H PARENT
REMARK Flexibility Score: inf
ROOT
ATOM      1  C   UNL     1      -0.114  44.967   9.446  1.00  0.00     0.000 C 
ENDROOT
BRANCH   1   2
ATOM      2  C   UNL     1      -0.429  46.097  10.447  1.00  0.00     0.000 C 
BRANCH   2   3
ATOM      3  C   UNL     1      -0.629  47.479   9.788  1.00  0.00     0.000 C 
BRANCH   3   4
ATOM      4  C   UNL     1      -0.841  47.388   8.266  1.00  0.00     0.000 C 
BRANCH   4   5
ATOM      5  C   UNL     1       0.165  48.237   7.473  1.00  0.00     0.000 C 
BRANCH   5   6
ATOM      6  C   UNL     1      -0.165  49.740   7.513  1.00  0.00     0.000 C 
BRANCH   6   7
ATOM      7  C   UNL     1       1.081  50.628   7.347  1.00  0.00     0.000 C 
BRANCH   7   8
ATOM      8  C   UNL     1       2.432  49.888   7.444  1.00  0.00     0.000 C 
BRANCH   8   9
ATOM      9  C   UNL     1       3.546  50.657   8.181  1.00  0.00     0.000 C 
BRANCH   9  10
ATOM     10  C   UNL     1       3.579  50.448   9.708  1.00  0.00     0.000 C 
BRANCH  10  11
ATOM     11  C   UNL     1       2.604  49.379  10.239  1.00  0.00     0.000 C 
BRANCH  11  12
ATOM     12  C   UNL     1       2.979  47.924   9.892  1.00  0.00     0.000 C 
BRANCH  12  13
ATOM     13  C   UNL     1       4.380  47.486  10.355  1.00  0.00     0.006 C 
BRANCH  13  14
ATOM     14  C   UNL     1       5.281  47.046   9.194  1.00  0.00     0.053 C 
BRANCH  14  15
ATOM     15  C   UNL     1       6.507  47.900   9.132  1.00  0.00     0.041 C 
ATOM     16  O   UNL     1       6.455  49.045   8.611  1.00  0.00    -0.550 OA
ATOM     17  O   UNL     1       7.719  47.414   9.605  1.00  0.00    -0.550 OA
ENDBRANCH  14  15
ENDBRANCH  13  14
ENDBRANCH  12  13
ENDBRANCH  11  12
ENDBRANCH  10  11
ENDBRANCH   9  10
ENDBRANCH   8   9
ENDBRANCH   7   8
ENDBRANCH   6   7
ENDBRANCH   5   6
ENDBRANCH   4   5
ENDBRANCH   3   4
ENDBRANCH   2   3
ENDBRANCH   1   2
BRANCH   1  18
ATOM     18  C   UNL     1       1.364  44.852   9.029  1.00  0.00     0.000 C 
BRANCH  18  19
ATOM     19  C   UNL     1       1.725  43.570   8.256  1.00  0.00     0.000 C 
BRANCH  19  20
ATOM     20  C   UNL     1       2.859  42.772   8.915  1.00  0.00     0.000 C 
BRANCH  20  21
ATOM     21  C   UNL     1       3.858  43.709   9.612  1.00  0.00     0.000 C 
BRANCH  21  22
ATOM     22  C   UNL     1       4.365  43.142  10.949  1.00  0.00     0.000 C 
BRANCH  22  23
ATOM     23  C   UNL     1       3.824  43.924  12.159  1.00  0.00     0.000 C 
BRANCH  23  24
ATOM     24  C   UNL     1       2.288  43.943  12.214  1.00  0.00    -0.000 C 
BRANCH  24  25
ATOM     25  C   UNL     1       1.675  42.535  12.270  1.00  0.00    -0.000 C 
BRANCH  25  26
ATOM     26  C   UNL     1       0.251  42.582  12.840  1.00  0.00    -0.000 C 
BRANCH  26  27
ATOM     27  C   UNL     1      -0.127  41.310  13.621  1.00  0.00    -0.000 C 
BRANCH  27  28
ATOM     28  C   UNL     1       1.045  40.354  13.925  1.00  0.00    -0.000 C 
BRANCH  28  29
ATOM     29  C   UNL     1       0.999  39.006  13.183  1.00  0.00    -0.000 C 
BRANCH  29  30
ATOM     30  C   UNL     1       2.377  38.554  12.678  1.00  0.00    -0.000 C 
BRANCH  30  31
ATOM     31  C   UNL     1       3.375  39.717  12.696  1.00  0.00    -0.003 C 
ATOM     32  C   UNL     1       4.764  39.246  13.119  1.00  0.00     0.004 C 
ENDBRANCH  30  31
ENDBRANCH  29  30
ENDBRANCH  28  29
ENDBRANCH  27  28
ENDBRANCH  26  27
ENDBRANCH  25  26
ENDBRANCH  24  25
ENDBRANCH  23  24
ENDBRANCH  22  23
ENDBRANCH  21  22
ENDBRANCH  20  21
ENDBRANCH  19  20
ENDBRANCH  18  19
ENDBRANCH   1  18
TORSDOF 28
ENDMDL
MODEL 3
REMARK VINA RESULT:    -4.700      2.655      8.561
REMARK INTER + INTRA:         -15.887
REMARK INTER:                 -12.622
REMARK INTRA:                  -3.265
REMARK UNBOUND:                -3.495
REMARK SMILES CCCCCCCCCCCCCCCCCCCCCCCCCCCCCC(=O)[O-]
REMARK SMILES IDX 16 1 17 2 18 3 19 4 20 5 21 6 22 7 23 8 24 9 25 10 26 11
REMARK SMILES IDX 27 12 28 13 29 14 30 15 31 16 32 17 15 18 14 19 13 20 12 21
REMARK SMILES IDX 11 22 10 23 9 24 8 25 7 26 6 27 5 28 4 29 3 30 2 31 1 32
REMARK H PARENT
REMARK Flexibility Score: inf
ROOT
ATOM      1  C   UNL     1       1.465  43.917   9.001  1.00  0.00     0.000 C 
ENDROOT
BRANCH   1   2
ATOM      2  C   UNL     1       2.600  42.925   8.681  1.00  0.00     0.000 C 
BRANCH   2   3
ATOM      3  C   UNL     1       4.004  43.430   9.081  1.00  0.00     0.000 C 
BRANCH   3   4
ATOM      4  C   UNL     1       4.038  44.946   9.346  1.00  0.00     0.000 C 
BRANCH   4   5
ATOM      5  C   UNL     1       4.340  45.287  10.814  1.00  0.00     0.000 C 
BRANCH   5   6
ATOM      6  C   UNL     1       4.464  44.035  11.700  1.00  0.00     0.000 C 
BRANCH   6   7
ATOM      7  C   UNL     1       3.331  43.925  12.737  1.00  0.00     0.000 C 
BRANCH   7   8
ATOM      8  C   UNL     1       1.903  43.963  12.153  1.00  0.00     0.000 C 
BRANCH   8   9
ATOM      9  C   UNL     1       1.138  42.626  12.211  1.00  0.00     0.000 C 
BRANCH   9  10
ATOM     10  C   UNL     1      -0.176  42.664  13.018  1.00  0.00     0.000 C 
BRANCH  10  11
ATOM     11  C   UNL     1      -0.498  41.373  13.796  1.00  0.00     0.000 C 
BRANCH  11  12
ATOM     12  C   UNL     1       0.732  40.602  14.318  1.00  0.00     0.000 C 
BRANCH  12  13
ATOM     13  C   UNL     1       1.270  39.516  13.368  1.00  0.00     0.006 C 
BRANCH  13  14
ATOM     14  C   UNL     1       2.585  39.917  12.689  1.00  0.00     0.053 C 
BRANCH  14  15
ATOM     15  C   UNL     1       3.529  38.757  12.651  1.00  0.00     0.041 C 
ATOM     16  O   UNL     1       4.686  38.866  13.133  1.00  0.00    -0.550 OA
ATOM     17  O   UNL     1       3.147  37.570  12.040  1.00  0.00    -0.550 OA
ENDBRANCH  14  15
ENDBRANCH  13  14
ENDBRANCH  12  13
ENDBRANCH  11  12
ENDBRANCH  10  11
ENDBRANCH   9  10
ENDBRANCH   8   9
ENDBRANCH   7   8
ENDBRANCH   6   7
ENDBRANCH   5   6
ENDBRANCH   4   5
ENDBRANCH   3   4
ENDBRANCH   2   3
ENDBRANCH   1   2
BRANCH   1  18
ATOM     18  C   UNL     1       0.442  44.132   7.870  1.00  0.00     0.000 C 
BRANCH  18  19
ATOM     19  C   UNL     1      -0.582  45.256   8.122  1.00  0.00     0.000 C 
BRANCH  19  20
ATOM     20  C   UNL     1      -0.886  46.083   6.864  1.00  0.00     0.000 C 
BRANCH  20  21
ATOM     21  C   UNL     1      -0.976  47.580   7.199  1.00  0.00     0.000 C 
BRANCH  21  22
ATOM     22  C   UNL     1       0.049  48.009   8.262  1.00  0.00     0.000 C 
BRANCH  22  23
ATOM     23  C   UNL     1       1.288  48.679   7.643  1.00  0.00     0.000 C 
BRANCH  23  24
ATOM     24  C   UNL     1       2.604  48.182   8.264  1.00  0.00    -0.000 C 
BRANCH  24  25
ATOM     25  C   UNL     1       2.647  48.359   9.790  1.00  0.00    -0.000 C 
BRANCH  25  26
ATOM     26  C   UNL     1       2.464  49.834  10.173  1.00  0.00    -0.000 C 
BRANCH  26  27
ATOM     27  C   UNL     1       3.641  50.721   9.725  1.00  0.00    -0.000 C 
BRANCH  27  28
ATOM     28  C   UNL     1       4.970  50.474  10.467  1.00  0.00    -0.000 C 
BRANCH  28  29
ATOM     29  C   UNL     1       6.238  50.622   9.607  1.00  0.00    -0.000 C 
BRANCH  29  30
ATOM     30  C   UNL     1       6.432  49.460   8.623  1.00  0.00    -0.000 C 
BRANCH  30  31
ATOM     31  C   UNL     1       6.260  48.110   9.327  1.00  0.00    -0.003 C 
ATOM     32  C   UNL     1       7.593  47.380   9.455  1.00  0.00     0.004 C 
ENDBRANCH  30  31
ENDBRANCH  29  30
ENDBRANCH  28  29
ENDBRANCH  27  28
ENDBRANCH  26  27
ENDBRANCH  25  26
ENDBRANCH  24  25
ENDBRANCH  23  24
ENDBRANCH  22  23
ENDBRANCH  21  22
ENDBRANCH  20  21
ENDBRANCH  19  20
ENDBRANCH  18  19
ENDBRANCH   1  18
TORSDOF 28
ENDMDL
MODEL 4
REMARK VINA RESULT:    -4.649      2.377      8.703
REMARK INTER + INTRA:         -15.754
REMARK INTER:                 -11.998
REMARK INTRA:                  -3.756
REMARK UNBOUND:                -3.495
REMARK SMILES CCCCCCCCCCCCCCCCCCCCCCCCCCCCCC(=O)[O-]
REMARK SMILES IDX 16 1 17 2 18 3 19 4 20 5 21 6 22 7 23 8 24 9 25 10 26 11
REMARK SMILES IDX 27 12 28 13 29 14 30 15 31 16 32 17 15 18 14 19 13 20 12 21
REMARK SMILES IDX 11 22 10 23 9 24 8 25 7 26 6 27 5 28 4 29 3 30 2 31 1 32
REMARK H PARENT
REMARK Flexibility Score: inf
ROOT
ATOM      1  C   UNL     1       1.206  44.999   8.775  1.00  0.00     0.000 C 
ENDROOT
BRANCH   1   2
ATOM      2  C   UNL     1       1.196  43.468   8.591  1.00  0.00     0.000 C 
BRANCH   2   3
ATOM      3  C   UNL     1       2.557  42.795   8.870  1.00  0.00     0.000 C 
BRANCH   3   4
ATOM      4  C   UNL     1       3.582  43.760   9.494  1.00  0.00     0.000 C 
BRANCH   4   5
ATOM      5  C   UNL     1       4.177  43.228  10.808  1.00  0.00     0.000 C 
BRANCH   5   6
ATOM      6  C   UNL     1       3.644  43.972  12.045  1.00  0.00     0.000 C 
BRANCH   6   7
ATOM      7  C   UNL     1       2.107  43.969  12.125  1.00  0.00     0.000 C 
BRANCH   7   8
ATOM      8  C   UNL     1       1.463  42.580  12.320  1.00  0.00     0.000 C 
BRANCH   8   9
ATOM      9  C   UNL     1      -0.015  42.600  12.758  1.00  0.00     0.000 C 
BRANCH   9  10
ATOM     10  C   UNL     1      -0.397  41.530  13.801  1.00  0.00     0.000 C 
BRANCH  10  11
ATOM     11  C   UNL     1       0.721  40.524  14.139  1.00  0.00     0.000 C 
BRANCH  11  12
ATOM     12  C   UNL     1       0.749  39.259  13.258  1.00  0.00     0.000 C 
BRANCH  12  13
ATOM     13  C   UNL     1       2.155  38.716  12.945  1.00  0.00     0.006 C 
BRANCH  13  14
ATOM     14  C   UNL     1       3.054  39.752  12.259  1.00  0.00     0.053 C 
BRANCH  14  15
ATOM     15  C   UNL     1       4.380  39.832  12.947  1.00  0.00     0.041 C 
ATOM     16  O   UNL     1       4.999  40.927  13.003  1.00  0.00    -0.550 OA
ATOM     17  O   UNL     1       4.954  38.688  13.485  1.00  0.00    -0.550 OA
ENDBRANCH  14  15
ENDBRANCH  13  14
ENDBRANCH  12  13
ENDBRANCH  11  12
ENDBRANCH  10  11
ENDBRANCH   9  10
ENDBRANCH   8   9
ENDBRANCH   7   8
ENDBRANCH   6   7
ENDBRANCH   5   6
ENDBRANCH   4   5
ENDBRANCH   3   4
ENDBRANCH   2   3
ENDBRANCH   1   2
BRANCH   1  18
ATOM     18  C   UNL     1      -0.074  45.724   8.322  1.00  0.00     0.000 C 
BRANCH  18  19
ATOM     19  C   UNL     1      -0.369  47.045   9.057  1.00  0.00     0.000 C 
BRANCH  19  20
ATOM     20  C   UNL     1      -0.264  48.275   8.143  1.00  0.00     0.000 C 
BRANCH  20  21
ATOM     21  C   UNL     1       0.857  49.215   8.613  1.00  0.00     0.000 C 
BRANCH  21  22
ATOM     22  C   UNL     1       2.066  49.211   7.662  1.00  0.00     0.000 C 
BRANCH  22  23
ATOM     23  C   UNL     1       2.431  50.623   7.172  1.00  0.00     0.000 C 
BRANCH  23  24
ATOM     24  C   UNL     1       3.799  51.096   7.690  1.00  0.00    -0.000 C 
BRANCH  24  25
ATOM     25  C   UNL     1       3.898  51.071   9.223  1.00  0.00    -0.000 C 
BRANCH  25  26
ATOM     26  C   UNL     1       5.336  50.776   9.671  1.00  0.00    -0.000 C 
BRANCH  26  27
ATOM     27  C   UNL     1       6.117  49.918   8.658  1.00  0.00    -0.000 C 
BRANCH  27  28
ATOM     28  C   UNL     1       7.018  48.830   9.276  1.00  0.00    -0.000 C 
BRANCH  28  29
ATOM     29  C   UNL     1       6.438  47.404   9.245  1.00  0.00    -0.000 C 
BRANCH  29  30
ATOM     30  C   UNL     1       4.923  47.380   8.996  1.00  0.00    -0.000 C 
BRANCH  30  31
ATOM     31  C   UNL     1       4.171  46.892  10.239  1.00  0.00    -0.003 C 
ATOM     32  C   UNL     1       3.446  48.041  10.933  1.00  0.00     0.004 C 
ENDBRANCH  30  31
ENDBRANCH  29  30
ENDBRANCH  28  29
ENDBRANCH  27  28
ENDBRANCH  26  27
ENDBRANCH  25  26
ENDBRANCH  24  25
ENDBRANCH  23  24
ENDBRANCH  22  23
ENDBRANCH  21  22
ENDBRANCH  20  21
ENDBRANCH  19  20
ENDBRANCH  18  19
ENDBRANCH   1  18
TORSDOF 28
ENDMDL
MODEL 5
REMARK VINA RESULT:    -4.635      2.217      8.834
REMARK INTER + INTRA:         -15.717
REMARK INTER:                 -11.433
REMARK INTRA:                  -4.284
REMARK UNBOUND:                -3.495
REMARK SMILES CCCCCCCCCCCCCCCCCCCCCCCCCCCCCC(=O)[O-]
REMARK SMILES IDX 16 1 17 2 18 3 19 4 20 5 21 6 22 7 23 8 24 9 25 10 26 11
REMARK SMILES IDX 27 12 28 13 29 14 30 15 31 16 32 17 15 18 14 19 13 20 12 21
REMARK SMILES IDX 11 22 10 23 9 24 8 25 7 26 6 27 5 28 4 29 3 30 2 31 1 32
REMARK H PARENT
REMARK Flexibility Score: inf
ROOT
ATOM      1  C   UNL     1       3.440  43.260   9.028  1.00  0.00     0.000 C 
ENDROOT
BRANCH   1   2
ATOM      2  C   UNL     1       3.961  44.711   8.999  1.00  0.00     0.000 C 
BRANCH   2   3
ATOM      3  C   UNL     1       4.707  45.133  10.283  1.00  0.00     0.000 C 
BRANCH   3   4
ATOM      4  C   UNL     1       3.779  45.221  11.509  1.00  0.00     0.000 C 
BRANCH   4   5
ATOM      5  C   UNL     1       3.810  43.948  12.371  1.00  0.00     0.000 C 
BRANCH   5   6
ATOM      6  C   UNL     1       2.445  43.625  13.002  1.00  0.00     0.000 C 
BRANCH   6   7
ATOM      7  C   UNL     1       1.688  42.515  12.250  1.00  0.00     0.000 C 
BRANCH   7   8
ATOM      8  C   UNL     1       0.255  42.242  12.754  1.00  0.00     0.000 C 
BRANCH   8   9
ATOM      9  C   UNL     1       0.158  41.755  14.214  1.00  0.00     0.000 C 
BRANCH   9  10
ATOM     10  C   UNL     1       0.466  40.258  14.421  1.00  0.00     0.000 C 
BRANCH  10  11
ATOM     11  C   UNL     1       0.468  39.411  13.133  1.00  0.00     0.000 C 
BRANCH  11  12
ATOM     12  C   UNL     1       1.319  38.127  13.197  1.00  0.00     0.000 C 
BRANCH  12  13
ATOM     13  C   UNL     1       2.642  38.184  12.411  1.00  0.00     0.006 C 
BRANCH  13  14
ATOM     14  C   UNL     1       3.155  39.615  12.210  1.00  0.00     0.053 C 
BRANCH  14  15
ATOM     15  C   UNL     1       4.443  39.816  12.945  1.00  0.00     0.041 C 
ATOM     16  O   UNL     1       4.879  38.919  13.713  1.00  0.00    -0.550 OA
ATOM     17  O   UNL     1       5.136  41.012  12.818  1.00  0.00    -0.550 OA
ENDBRANCH  14  15
ENDBRANCH  13  14
ENDBRANCH  12  13
ENDBRANCH  11  12
ENDBRANCH  10  11
ENDBRANCH   9  10
ENDBRANCH   8   9
ENDBRANCH   7   8
ENDBRANCH   6   7
ENDBRANCH   5   6
ENDBRANCH   4   5
ENDBRANCH   3   4
ENDBRANCH   2   3
ENDBRANCH   1   2
BRANCH   1  18
ATOM     18  C   UNL     1       1.907  43.112   8.994  1.00  0.00     0.000 C 
BRANCH  18  19
ATOM     19  C   UNL     1       1.134  44.409   8.690  1.00  0.00     0.000 C 
BRANCH  19  20
ATOM     20  C   UNL     1       0.405  44.975   9.918  1.00  0.00     0.000 C 
BRANCH  20  21
ATOM     21  C   UNL     1       0.193  46.490   9.782  1.00  0.00     0.000 C 
BRANCH  21  22
ATOM     22  C   UNL     1       1.514  47.276   9.814  1.00  0.00     0.000 C 
BRANCH  22  23
ATOM     23  C   UNL     1       1.605  48.316   8.683  1.00  0.00     0.000 C 
BRANCH  23  24
ATOM     24  C   UNL     1       2.483  47.845   7.513  1.00  0.00    -0.000 C 
BRANCH  24  25
ATOM     25  C   UNL     1       3.564  48.868   7.128  1.00  0.00    -0.000 C 
BRANCH  25  26
ATOM     26  C   UNL     1       3.109  50.294   7.468  1.00  0.00    -0.000 C 
BRANCH  26  27
ATOM     27  C   UNL     1       4.128  51.060   8.332  1.00  0.00    -0.000 C 
BRANCH  27  28
ATOM     28  C   UNL     1       3.948  50.901   9.856  1.00  0.00    -0.000 C 
BRANCH  28  29
ATOM     29  C   UNL     1       4.869  49.861  10.519  1.00  0.00    -0.000 C 
BRANCH  29  30
ATOM     30  C   UNL     1       6.163  49.618   9.730  1.00  0.00    -0.000 C 
BRANCH  30  31
ATOM     31  C   UNL     1       6.223  48.179   9.205  1.00  0.00    -0.003 C 
ATOM     32  C   UNL     1       7.591  47.555   9.461  1.00  0.00     0.004 C 
ENDBRANCH  30  31
ENDBRANCH  29  30
ENDBRANCH  28  29
ENDBRANCH  27  28
ENDBRANCH  26  27
ENDBRANCH  25  26
ENDBRANCH  24  25
ENDBRANCH  23  24
ENDBRANCH  22  23
ENDBRANCH  21  22
ENDBRANCH  20  21
ENDBRANCH  19  20
ENDBRANCH  18  19
ENDBRANCH   1  18
TORSDOF 28
ENDMDL
MODEL 6
REMARK VINA RESULT:    -4.569      2.676      8.135
REMARK INTER + INTRA:         -15.542
REMARK INTER:                 -10.602
REMARK INTRA:                  -4.940
REMARK UNBOUND:                -3.495
REMARK SMILES CCCCCCCCCCCCCCCCCCCCCCCCCCCCCC(=O)[O-]
REMARK SMILES IDX 16 1 17 2 18 3 19 4 20 5 21 6 22 7 23 8 24 9 25 10 26 11
REMARK SMILES IDX 27 12 28 13 29 14 30 15 31 16 32 17 15 18 14 19 13 20 12 21
REMARK SMILES IDX 11 22 10 23 9 24 8 25 7 26 6 27 5 28 4 29 3 30 2 31 1 32
REMARK H PARENT
REMARK Flexibility Score: inf
ROOT
ATOM      1  C   UNL     1       4.235  43.533   9.953  1.00  0.00     0.000 C 
ENDROOT
BRANCH   1   2
ATOM      2  C   UNL     1       3.360  43.434   8.687  1.00  0.00     0.000 C 
BRANCH   2   3
ATOM      3  C   UNL     1       1.967  42.817   8.936  1.00  0.00     0.000 C 
BRANCH   3   4
ATOM      4  C   UNL     1       0.852  43.527   8.146  1.00  0.00     0.000 C 
BRANCH   4   5
ATOM      5  C   UNL     1       1.011  45.055   8.135  1.00  0.00     0.000 C 
BRANCH   5   6
ATOM      6  C   UNL     1      -0.222  45.785   8.697  1.00  0.00     0.000 C 
BRANCH   6   7
ATOM      7  C   UNL     1      -0.026  46.256  10.149  1.00  0.00     0.000 C 
BRANCH   7   8
ATOM      8  C   UNL     1      -1.104  45.778  11.144  1.00  0.00     0.000 C 
BRANCH   8   9
ATOM      9  C   UNL     1      -0.760  44.484  11.908  1.00  0.00     0.000 C 
BRANCH   9  10
ATOM     10  C   UNL     1       0.749  44.200  12.058  1.00  0.00     0.000 C 
BRANCH  10  11
ATOM     11  C   UNL     1       1.150  42.720  11.905  1.00  0.00     0.000 C 
BRANCH  11  12
ATOM     12  C   UNL     1       1.030  41.874  13.190  1.00  0.00     0.000 C 
BRANCH  12  13
ATOM     13  C   UNL     1       1.636  40.462  13.098  1.00  0.00     0.006 C 
BRANCH  13  14
ATOM     14  C   UNL     1       3.057  40.460  12.520  1.00  0.00     0.053 C 
BRANCH  14  15
ATOM     15  C   UNL     1       3.718  39.141  12.764  1.00  0.00     0.041 C 
ATOM     16  O   UNL     1       4.903  39.096  13.186  1.00  0.00    -0.550 OA
ATOM     17  O   UNL     1       3.043  37.961  12.480  1.00  0.00    -0.550 OA
ENDBRANCH  14  15
ENDBRANCH  13  14
ENDBRANCH  12  13
ENDBRANCH  11  12
ENDBRANCH  10  11
ENDBRANCH   9  10
ENDBRANCH   8   9
ENDBRANCH   7   8
ENDBRANCH   6   7
ENDBRANCH   5   6
ENDBRANCH   4   5
ENDBRANCH   3   4
ENDBRANCH   2   3
ENDBRANCH   1   2
BRANCH   1  18
ATOM     18  C   UNL     1       4.032  44.808  10.794  1.00  0.00     0.000 C 
BRANCH  18  19
ATOM     19  C   UNL     1       3.607  46.054   9.995  1.00  0.00     0.000 C 
BRANCH  19  20
ATOM     20  C   UNL     1       4.727  46.602   9.098  1.00  0.00     0.000 C 
BRANCH  20  21
ATOM     21  C   UNL     1       6.073  46.605   9.840  1.00  0.00     0.000 C 
BRANCH  21  22
ATOM     22  C   UNL     1       6.946  47.816   9.472  1.00  0.00     0.000 C 
BRANCH  22  23
ATOM     23  C   UNL     1       6.338  48.653   8.333  1.00  0.00     0.000 C 
BRANCH  23  24
ATOM     24  C   UNL     1       6.518  50.165   8.545  1.00  0.00    -0.000 C 
BRANCH  24  25
ATOM     25  C   UNL     1       6.339  50.587  10.011  1.00  0.00    -0.000 C 
BRANCH  25  26
ATOM     26  C   UNL     1       4.858  50.838  10.328  1.00  0.00    -0.000 C 
BRANCH  26  27
ATOM     27  C   UNL     1       4.206  49.682  11.110  1.00  0.00    -0.000 C 
BRANCH  27  28
ATOM     28  C   UNL     1       2.759  49.343  10.698  1.00  0.00    -0.000 C 
BRANCH  28  29
ATOM     29  C   UNL     1       2.226  50.121   9.482  1.00  0.00    -0.000 C 
BRANCH  29  30
ATOM     30  C   UNL     1       1.233  49.308   8.640  1.00  0.00    -0.000 C 
BRANCH  30  31
ATOM     31  C   UNL     1       1.946  48.602   7.481  1.00  0.00    -0.003 C 
ATOM     32  C   UNL     1       3.252  49.307   7.125  1.00  0.00     0.004 C 
ENDBRANCH  30  31
ENDBRANCH  29  30
ENDBRANCH  28  29
ENDBRANCH  27  28
ENDBRANCH  26  27
ENDBRANCH  25  26
ENDBRANCH  24  25
ENDBRANCH  23  24
ENDBRANCH  22  23
ENDBRANCH  21  22
ENDBRANCH  20  21
ENDBRANCH  19  20
ENDBRANCH  18  19
ENDBRANCH   1  18
TORSDOF 28
ENDMDL
MODEL 7
REMARK VINA RESULT:    -4.493      0.956      2.089
REMARK INTER + INTRA:         -15.343
REMARK INTER:                 -11.615
REMARK INTRA:                  -3.729
REMARK UNBOUND:                -3.495
REMARK SMILES CCCCCCCCCCCCCCCCCCCCCCCCCCCCCC(=O)[O-]
REMARK SMILES IDX 16 1 17 2 18 3 19 4 20 5 21 6 22 7 23 8 24 9 25 10 26 11
REMARK SMILES IDX 27 12 28 13 29 14 30 15 31 16 32 17 15 18 14 19 13 20 12 21
REMARK SMILES IDX 11 22 10 23 9 24 8 25 7 26 6 27 5 28 4 29 3 30 2 31 1 32
REMARK H PARENT
REMARK Flexibility Score: inf
ROOT
ATOM      1  C   UNL     1       3.841  43.557   9.192  1.00  0.00     0.000 C 
ENDROOT
BRANCH   1   2
ATOM      2  C   UNL     1       2.543  42.942   8.635  1.00  0.00     0.000 C 
BRANCH   2   3
ATOM      3  C   UNL     1       1.284  43.799   8.890  1.00  0.00     0.000 C 
BRANCH   3   4
ATOM      4  C   UNL     1       0.416  43.973   7.630  1.00  0.00     0.000 C 
BRANCH   4   5
ATOM      5  C   UNL     1      -0.380  45.287   7.632  1.00  0.00     0.000 C 
BRANCH   5   6
ATOM      6  C   UNL     1      -0.329  46.010   8.990  1.00  0.00     0.000 C 
BRANCH   6   7
ATOM      7  C   UNL     1       0.479  47.318   8.938  1.00  0.00     0.000 C 
BRANCH   7   8
ATOM      8  C   UNL     1       1.340  47.508   7.671  1.00  0.00     0.000 C 
BRANCH   8   9
ATOM      9  C   UNL     1       2.440  48.582   7.784  1.00  0.00     0.000 C 
BRANCH   9  10
ATOM     10  C   UNL     1       2.193  49.654   8.864  1.00  0.00     0.000 C 
BRANCH  10  11
ATOM     11  C   UNL     1       3.125  49.570  10.088  1.00  0.00     0.000 C 
BRANCH  11  12
ATOM     12  C   UNL     1       4.241  50.634  10.135  1.00  0.00     0.000 C 
BRANCH  12  13
ATOM     13  C   UNL     1       5.418  50.383   9.175  1.00  0.00     0.006 C 
BRANCH  13  14
ATOM     14  C   UNL     1       6.561  49.595   9.827  1.00  0.00     0.053 C 
BRANCH  14  15
ATOM     15  C   UNL     1       6.606  48.199   9.292  1.00  0.00     0.041 C 
ATOM     16  O   UNL     1       5.596  47.706   8.726  1.00  0.00    -0.550 OA
ATOM     17  O   UNL     1       7.746  47.425   9.462  1.00  0.00    -0.550 OA
ENDBRANCH  14  15
ENDBRANCH  13  14
ENDBRANCH  12  13
ENDBRANCH  11  12
ENDBRANCH  10  11
ENDBRANCH   9  10
ENDBRANCH   8   9
ENDBRANCH   7   8
ENDBRANCH   6   7
ENDBRANCH   5   6
ENDBRANCH   4   5
ENDBRANCH   3   4
ENDBRANCH   2   3
ENDBRANCH   1   2
BRANCH   1  18
ATOM     18  C   UNL     1       3.730  45.023   9.651  1.00  0.00     0.000 C 
BRANCH  18  19
ATOM     19  C   UNL     1       3.796  45.236  11.175  1.00  0.00     0.000 C 
BRANCH  19  20
ATOM     20  C   UNL     1       3.897  43.919  11.960  1.00  0.00     0.000 C 
BRANCH  20  21
ATOM     21  C   UNL     1       2.587  43.620  12.704  1.00  0.00     0.000 C 
BRANCH  21  22
ATOM     22  C   UNL     1       1.353  44.167  11.967  1.00  0.00     0.000 C 
BRANCH  22  23
ATOM     23  C   UNL     1       0.129  43.245  12.111  1.00  0.00     0.000 C 
BRANCH  23  24
ATOM     24  C   UNL     1       0.116  42.480  13.444  1.00  0.00    -0.000 C 
BRANCH  24  25
ATOM     25  C   UNL     1      -1.039  41.471  13.542  1.00  0.00    -0.000 C 
BRANCH  25  26
ATOM     26  C   UNL     1      -0.590  40.201  14.278  1.00  0.00    -0.000 C 
BRANCH  26  27
ATOM     27  C   UNL     1       0.911  39.903  14.104  1.00  0.00    -0.000 C 
BRANCH  27  28
ATOM     28  C   UNL     1       1.246  38.780  13.102  1.00  0.00    -0.000 C 
BRANCH  28  29
ATOM     29  C   UNL     1       2.660  38.840  12.499  1.00  0.00    -0.000 C 
BRANCH  29  30
ATOM     30  C   UNL     1       3.172  40.276  12.316  1.00  0.00    -0.000 C 
BRANCH  30  31
ATOM     31  C   UNL     1       4.671  40.367  12.621  1.00  0.00    -0.003 C 
ATOM     32  C   UNL     1       5.058  39.443  13.771  1.00  0.00     0.004 C 
ENDBRANCH  30  31
ENDBRANCH  29  30
ENDBRANCH  28  29
ENDBRANCH  27  28
ENDBRANCH  26  27
ENDBRANCH  25  26
ENDBRANCH  24  25
ENDBRANCH  23  24
ENDBRANCH  22  23
ENDBRANCH  21  22
ENDBRANCH  20  21
ENDBRANCH  19  20
ENDBRANCH  18  19
ENDBRANCH   1  18
TORSDOF 28
ENDMDL
MODEL 8
REMARK VINA RESULT:    -4.444      2.430      8.234
REMARK INTER + INTRA:         -15.213
REMARK INTER:                 -12.075
REMARK INTRA:                  -3.138
REMARK UNBOUND:                -3.495
REMARK SMILES CCCCCCCCCCCCCCCCCCCCCCCCCCCCCC(=O)[O-]
REMARK SMILES IDX 16 1 17 2 18 3 19 4 20 5 21 6 22 7 23 8 24 9 25 10 26 11
REMARK SMILES IDX 27 12 28 13 29 14 30 15 31 16 32 17 15 18 14 19 13 20 12 21
REMARK SMILES IDX 11 22 10 23 9 24 8 25 7 26 6 27 5 28 4 29 3 30 2 31 1 32
REMARK H PARENT
REMARK Flexibility Score: inf
ROOT
ATOM      1  C   UNL     1       6.012  47.910   8.607  1.00  0.00     0.000 C 
ENDROOT
BRANCH   1   2
ATOM      2  C   UNL     1       5.338  46.738   9.348  1.00  0.00     0.000 C 
BRANCH   2   3
ATOM      3  C   UNL     1       3.889  47.029   9.793  1.00  0.00     0.000 C 
BRANCH   3   4
ATOM      4  C   UNL     1       3.360  45.999  10.808  1.00  0.00     0.000 C 
BRANCH   4   5
ATOM      5  C   UNL     1       4.469  45.100  11.377  1.00  0.00     0.000 C 
BRANCH   5   6
ATOM      6  C   UNL     1       3.923  43.991  12.293  1.00  0.00     0.000 C 
BRANCH   6   7
ATOM      7  C   UNL     1       2.385  43.975  12.359  1.00  0.00     0.000 C 
BRANCH   7   8
ATOM      8  C   UNL     1       1.755  42.596  12.643  1.00  0.00     0.000 C 
BRANCH   8   9
ATOM      9  C   UNL     1       0.219  42.594  12.778  1.00  0.00     0.000 C 
BRANCH   9  10
ATOM     10  C   UNL     1      -0.359  41.427  13.604  1.00  0.00     0.000 C 
BRANCH  10  11
ATOM     11  C   UNL     1       0.693  40.532  14.288  1.00  0.00     0.000 C 
BRANCH  11  12
ATOM     12  C   UNL     1       1.075  39.258  13.507  1.00  0.00     0.000 C 
BRANCH  12  13
ATOM     13  C   UNL     1       2.166  39.454  12.439  1.00  0.00     0.006 C 
BRANCH  13  14
ATOM     14  C   UNL     1       3.432  38.635  12.722  1.00  0.00     0.053 C 
BRANCH  14  15
ATOM     15  C   UNL     1       4.552  39.533  13.143  1.00  0.00     0.041 C 
ATOM     16  O   UNL     1       5.251  39.242  14.150  1.00  0.00    -0.550 OA
ATOM     17  O   UNL     1       4.794  40.714  12.454  1.00  0.00    -0.550 OA
ENDBRANCH  14  15
ENDBRANCH  13  14
ENDBRANCH  12  13
ENDBRANCH  11  12
ENDBRANCH  10  11
ENDBRANCH   9  10
ENDBRANCH   8   9
ENDBRANCH   7   8
ENDBRANCH   6   7
ENDBRANCH   5   6
ENDBRANCH   4   5
ENDBRANCH   3   4
ENDBRANCH   2   3
ENDBRANCH   1   2
BRANCH   1  18
ATOM     18  C   UNL     1       6.629  48.992   9.512  1.00  0.00     0.000 C 
BRANCH  18  19
ATOM     19  C   UNL     1       5.943  50.369   9.441  1.00  0.00     0.000 C 
BRANCH  19  20
ATOM     20  C   UNL     1       4.672  50.450  10.300  1.00  0.00     0.000 C 
BRANCH  20  21
ATOM     21  C   UNL     1       3.444  50.773   9.436  1.00  0.00     0.000 C 
BRANCH  21  22
ATOM     22  C   UNL     1       3.711  50.572   7.934  1.00  0.00     0.000 C 
BRANCH  22  23
ATOM     23  C   UNL     1       2.417  50.336   7.135  1.00  0.00     0.000 C 
BRANCH  23  24
ATOM     24  C   UNL     1       1.621  49.121   7.640  1.00  0.00    -0.000 C 
BRANCH  24  25
ATOM     25  C   UNL     1       0.161  49.461   7.975  1.00  0.00    -0.000 C 
BRANCH  25  26
ATOM     26  C   UNL     1      -0.661  48.182   8.186  1.00  0.00    -0.000 C 
BRANCH  26  27
ATOM     27  C   UNL     1      -1.007  47.466   6.867  1.00  0.00    -0.000 C 
BRANCH  27  28
ATOM     28  C   UNL     1      -0.513  46.010   6.761  1.00  0.00    -0.000 C 
BRANCH  28  29
ATOM     29  C   UNL     1      -0.163  45.337   8.100  1.00  0.00    -0.000 C 
BRANCH  29  30
ATOM     30  C   UNL     1       0.616  44.026   7.926  1.00  0.00    -0.000 C 
BRANCH  30  31
ATOM     31  C   UNL     1       1.563  43.790   9.107  1.00  0.00    -0.003 C 
ATOM     32  C   UNL     1       2.419  42.545   8.889  1.00  0.00     0.004 C 
ENDBRANCH  30  31
ENDBRANCH  29  30
ENDBRANCH  28  29
ENDBRANCH  27  28
ENDBRANCH  26  27
ENDBRANCH  25  26
ENDBRANCH  24  25
ENDBRANCH  23  24
ENDBRANCH  22  23
ENDBRANCH  21  22
ENDBRANCH  20  21
ENDBRANCH  19  20
ENDBRANCH  18  19
ENDBRANCH   1  18
TORSDOF 28
ENDMDL
MODEL 9
REMARK VINA RESULT:    -4.403      2.979      7.604
REMARK INTER + INTRA:         -15.105
REMARK INTER:                 -11.052
REMARK INTRA:                  -4.053
REMARK UNBOUND:                -3.495
REMARK SMILES CCCCCCCCCCCCCCCCCCCCCCCCCCCCCC(=O)[O-]
REMARK SMILES IDX 16 1 17 2 18 3 19 4 20 5 21 6 22 7 23 8 24 9 25 10 26 11
REMARK SMILES IDX 27 12 28 13 29 14 30 15 31 16 32 17 15 18 14 19 13 20 12 21
REMARK SMILES IDX 11 22 10 23 9 24 8 25 7 26 6 27 5 28 4 29 3 30 2 31 1 32
REMARK H PARENT
REMARK Flexibility Score: inf
ROOT
ATOM      1  C   UNL     1       5.043  50.720   9.858  1.00  0.00     0.000 C 
ENDROOT
BRANCH   1   2
ATOM      2  C   UNL     1       6.015  49.858   9.028  1.00  0.00     0.000 C 
BRANCH   2   3
ATOM      3  C   UNL     1       6.493  48.580   9.753  1.00  0.00     0.000 C 
BRANCH   3   4
ATOM      4  C   UNL     1       6.092  47.291   9.013  1.00  0.00     0.000 C 
BRANCH   4   5
ATOM      5  C   UNL     1       4.635  47.314   8.525  1.00  0.00     0.000 C 
BRANCH   5   6
ATOM      6  C   UNL     1       3.650  46.754   9.567  1.00  0.00     0.000 C 
BRANCH   6   7
ATOM      7  C   UNL     1       4.345  46.319  10.869  1.00  0.00     0.000 C 
BRANCH   7   8
ATOM      8  C   UNL     1       4.415  44.795  11.098  1.00  0.00     0.000 C 
BRANCH   8   9
ATOM      9  C   UNL     1       4.114  43.934   9.854  1.00  0.00     0.000 C 
BRANCH   9  10
ATOM     10  C   UNL     1       3.588  42.516  10.158  1.00  0.00     0.000 C 
BRANCH  10  11
ATOM     11  C   UNL     1       3.545  42.146  11.654  1.00  0.00     0.000 C 
BRANCH  11  12
ATOM     12  C   UNL     1       4.700  41.245  12.137  1.00  0.00     0.000 C 
BRANCH  12  13
ATOM     13  C   UNL     1       4.274  40.068  13.033  1.00  0.00     0.006 C 
BRANCH  13  14
ATOM     14  C   UNL     1       2.802  39.680  12.848  1.00  0.00     0.053 C 
BRANCH  14  15
ATOM     15  C   UNL     1       2.688  38.258  12.400  1.00  0.00     0.041 C 
ATOM     16  O   UNL     1       3.705  37.640  11.989  1.00  0.00    -0.550 OA
ATOM     17  O   UNL     1       1.450  37.628  12.389  1.00  0.00    -0.550 OA
ENDBRANCH  14  15
ENDBRANCH  13  14
ENDBRANCH  12  13
ENDBRANCH  11  12
ENDBRANCH  10  11
ENDBRANCH   9  10
ENDBRANCH   8   9
ENDBRANCH   7   8
ENDBRANCH   6   7
ENDBRANCH   5   6
ENDBRANCH   4   5
ENDBRANCH   3   4
ENDBRANCH   2   3
ENDBRANCH   1   2
BRANCH   1  18
ATOM     18  C   UNL     1       3.618  50.837   9.287  1.00  0.00     0.000 C 
BRANCH  18  19
ATOM     19  C   UNL     1       3.532  50.869   7.749  1.00  0.00     0.000 C 
BRANCH  19  20
ATOM     20  C   UNL     1       2.496  49.886   7.186  1.00  0.00     0.000 C 
BRANCH  20  21
ATOM     21  C   UNL     1       1.180  49.961   7.975  1.00  0.00     0.000 C 
BRANCH  21  22
ATOM     22  C   UNL     1       0.830  48.632   8.665  1.00  0.00     0.000 C 
BRANCH  22  23
ATOM     23  C   UNL     1      -0.656  48.264   8.508  1.00  0.00     0.000 C 
BRANCH  23  24
ATOM     24  C   UNL     1      -1.028  47.903   7.061  1.00  0.00    -0.000 C 
BRANCH  24  25
ATOM     25  C   UNL     1      -0.575  46.490   6.663  1.00  0.00    -0.000 C 
BRANCH  25  26
ATOM     26  C   UNL     1      -0.881  45.485   7.782  1.00  0.00    -0.000 C 
BRANCH  26  27
ATOM     27  C   UNL     1       0.313  44.570   8.111  1.00  0.00    -0.000 C 
BRANCH  27  28
ATOM     28  C   UNL     1       0.745  44.560   9.592  1.00  0.00    -0.000 C 
BRANCH  28  29
ATOM     29  C   UNL     1      -0.261  45.192  10.571  1.00  0.00    -0.000 C 
BRANCH  29  30
ATOM     30  C   UNL     1      -0.100  44.677  12.008  1.00  0.00    -0.000 C 
BRANCH  30  31
ATOM     31  C   UNL     1       0.667  43.350  12.033  1.00  0.00    -0.003 C 
ATOM     32  C   UNL     1       0.030  42.362  13.004  1.00  0.00     0.004 C 
ENDBRANCH  30  31
ENDBRANCH  29  30
ENDBRANCH  28  29
ENDBRANCH  27  28
ENDBRANCH  26  27
ENDBRANCH  25  26
ENDBRANCH  24  25
ENDBRANCH  23  24
ENDBRANCH  22  23
ENDBRANCH  21  22
ENDBRANCH  20  21
ENDBRANCH  19  20
ENDBRANCH  18  19
ENDBRANCH   1  18
TORSDOF 28
ENDMDL
