MODEL 1
REMARK VINA RESULT:    -3.286      0.000      0.000
REMARK INTER + INTRA:         -11.745
REMARK INTER:                  -7.513
REMARK INTRA:                  -4.232
REMARK UNBOUND:                -4.232
REMARK SMILES CCCCCCCCCCCCCCCCCCCCCCCC(=O)[O-]
REMARK SMILES IDX 13 1 14 2 15 3 16 4 17 5 18 6 19 7 20 8 21 9 22 10 23 11
REMARK SMILES IDX 24 12 25 13 26 14 12 15 11 16 10 17 9 18 8 19 7 20 6 21 5 22
REMARK SMILES IDX 4 23 3 24 2 25 1 26
REMARK H PARENT
REMARK Flexibility Score: inf
ROOT
ATOM      1  C   UNL     1       5.718 107.548 179.856  1.00  0.00     0.000 C 
ENDROOT
BRANCH   1   2
ATOM      2  C   UNL     1       4.856 107.734 178.589  1.00  0.00     0.000 C 
BRANCH   2   3
ATOM      3  C   UNL     1       3.868 108.913 178.639  1.00  0.00     0.000 C 
BRANCH   3   4
ATOM      4  C   UNL     1       2.450 108.525 178.195  1.00  0.00     0.000 C 
BRANCH   4   5
ATOM      5  C   UNL     1       1.593 108.117 179.399  1.00  0.00     0.000 C 
BRANCH   5   6
ATOM      6  C   UNL     1       0.867 106.792 179.135  1.00  0.00     0.000 C 
BRANCH   6   7
ATOM      7  C   UNL     1       1.797 105.595 179.393  1.00  0.00     0.000 C 
BRANCH   7   8
ATOM      8  C   UNL     1       2.280 104.929 178.095  1.00  0.00     0.000 C 
BRANCH   8   9
ATOM      9  C   UNL     1       3.602 104.167 178.273  1.00  0.00     0.000 C 
BRANCH   9  10
ATOM     10  C   UNL     1       4.483 104.301 177.021  1.00  0.00     0.006 C 
BRANCH  10  11
ATOM     11  C   UNL     1       5.405 103.090 176.828  1.00  0.00     0.053 C 
BRANCH  11  12
ATOM     12  C   UNL     1       6.843 103.494 176.717  1.00  0.00     0.041 C 
ATOM     13  O   UNL     1       7.537 103.657 177.755  1.00  0.00    -0.550 OA
ATOM     14  O   UNL     1       7.414 103.700 175.467  1.00  0.00    -0.550 OA
ENDBRANCH  11  12
ENDBRANCH  10  11
ENDBRANCH   9  10
ENDBRANCH   8   9
ENDBRANCH   7   8
ENDBRANCH   6   7
ENDBRANCH   5   6
ENDBRANCH   4   5
ENDBRANCH   3   4
ENDBRANCH   2   3
ENDBRANCH   1   2
BRANCH   1  15
ATOM     15  C   UNL     1       5.372 106.310 180.701  1.00  0.00     0.000 C 
BRANCH  15  16
ATOM     16  C   UNL     1       4.274 106.588 181.742  1.00  0.00     0.000 C 
BRANCH  16  17
ATOM     17  C   UNL     1       4.840 106.981 183.116  1.00  0.00     0.000 C 
BRANCH  17  18
ATOM     18  C   UNL     1       6.321 106.593 183.278  1.00  0.00    -0.000 C 
BRANCH  18  19
ATOM     19  C   UNL     1       7.231 107.807 183.541  1.00  0.00    -0.000 C 
BRANCH  19  20
ATOM     20  C   UNL     1       6.603 108.915 184.407  1.00  0.00    -0.000 C 
BRANCH  20  21
ATOM     21  C   UNL     1       6.665 110.301 183.742  1.00  0.00    -0.000 C 
BRANCH  21  22
ATOM     22  C   UNL     1       6.226 110.278 182.268  1.00  0.00    -0.000 C 
BRANCH  22  23
ATOM     23  C   UNL     1       4.925 111.065 181.999  1.00  0.00    -0.000 C 
BRANCH  23  24
ATOM     24  C   UNL     1       3.702 110.144 181.870  1.00  0.00    -0.000 C 
BRANCH  24  25
ATOM     25  C   UNL     1       2.823 110.220 183.123  1.00  0.00    -0.003 C 
ATOM     26  C   UNL     1       1.777 109.109 183.130  1.00  0.00     0.004 C 
ENDBRANCH  24  25
ENDBRANCH  23  24
ENDBRANCH  22  23
ENDBRANCH  21  22
ENDBRANCH  20  21
ENDBRANCH  19  20
ENDBRANCH  18  19
ENDBRANCH  17  18
ENDBRANCH  16  17
ENDBRANCH  15  16
ENDBRANCH   1  15
TORSDOF 22
ENDMDL
MODEL 2
REMARK VINA RESULT:    -3.284      1.662      6.118
REMARK INTER + INTRA:         -11.740
REMARK INTER:                  -7.526
REMARK INTRA:                  -4.214
REMARK UNBOUND:                -4.232
REMARK SMILES CCCCCCCCCCCCCCCCCCCCCCCC(=O)[O-]
REMARK SMILES IDX 13 1 14 2 15 3 16 4 17 5 18 6 19 7 20 8 21 9 22 10 23 11
REMARK SMILES IDX 24 12 25 13 26 14 12 15 11 16 10 17 9 18 8 19 7 20 6 21 5 22
REMARK SMILES IDX 4 23 3 24 2 25 1 26
REMARK H PARENT
REMARK Flexibility Score: inf
ROOT
ATOM      1  C   UNL     1       3.790 109.182 180.968  1.00  0.00     0.000 C 
ENDROOT
BRANCH   1   2
ATOM      2  C   UNL     1       2.780 109.157 182.135  1.00  0.00     0.000 C 
BRANCH   2   3
ATOM      3  C   UNL     1       2.929 110.303 183.152  1.00  0.00     0.000 C 
BRANCH   3   4
ATOM      4  C   UNL     1       4.090 111.251 182.819  1.00  0.00     0.000 C 
BRANCH   4   5
ATOM      5  C   UNL     1       5.184 111.174 183.891  1.00  0.00     0.000 C 
BRANCH   5   6
ATOM      6  C   UNL     1       6.325 110.250 183.449  1.00  0.00     0.000 C 
BRANCH   6   7
ATOM      7  C   UNL     1       6.454 109.045 184.395  1.00  0.00     0.000 C 
BRANCH   7   8
ATOM      8  C   UNL     1       5.686 107.811 183.894  1.00  0.00     0.000 C 
BRANCH   8   9
ATOM      9  C   UNL     1       6.609 106.629 183.565  1.00  0.00     0.000 C 
BRANCH   9  10
ATOM     10  C   UNL     1       7.335 106.857 182.230  1.00  0.00     0.006 C 
BRANCH  10  11
ATOM     11  C   UNL     1       7.421 105.575 181.390  1.00  0.00     0.053 C 
BRANCH  11  12
ATOM     12  C   UNL     1       7.597 105.873 179.932  1.00  0.00     0.041 C 
ATOM     13  O   UNL     1       7.568 104.939 179.088  1.00  0.00    -0.550 OA
ATOM     14  O   UNL     1       7.802 107.179 179.508  1.00  0.00    -0.550 OA
ENDBRANCH  11  12
ENDBRANCH  10  11
ENDBRANCH   9  10
ENDBRANCH   8   9
ENDBRANCH   7   8
ENDBRANCH   6   7
ENDBRANCH   5   6
ENDBRANCH   4   5
ENDBRANCH   3   4
ENDBRANCH   2   3
ENDBRANCH   1   2
BRANCH   1  15
ATOM     15  C   UNL     1       4.320 107.803 180.539  1.00  0.00     0.000 C 
BRANCH  15  16
ATOM     16  C   UNL     1       3.631 106.643 181.278  1.00  0.00     0.000 C 
BRANCH  16  17
ATOM     17  C   UNL     1       3.151 105.533 180.329  1.00  0.00     0.000 C 
BRANCH  17  18
ATOM     18  C   UNL     1       4.075 105.356 179.111  1.00  0.00    -0.000 C 
BRANCH  18  19
ATOM     19  C   UNL     1       3.552 104.309 178.111  1.00  0.00    -0.000 C 
BRANCH  19  20
ATOM     20  C   UNL     1       3.648 104.719 176.629  1.00  0.00    -0.000 C 
BRANCH  20  21
ATOM     21  C   UNL     1       2.333 105.300 176.083  1.00  0.00    -0.000 C 
BRANCH  21  22
ATOM     22  C   UNL     1       1.123 104.991 176.981  1.00  0.00    -0.000 C 
BRANCH  22  23
ATOM     23  C   UNL     1       0.359 106.250 177.442  1.00  0.00    -0.000 C 
BRANCH  23  24
ATOM     24  C   UNL     1       1.111 107.546 177.104  1.00  0.00    -0.000 C 
BRANCH  24  25
ATOM     25  C   UNL     1       1.356 108.384 178.363  1.00  0.00    -0.003 C 
ATOM     26  C   UNL     1       0.457 107.930 179.510  1.00  0.00     0.004 C 
ENDBRANCH  24  25
ENDBRANCH  23  24
ENDBRANCH  22  23
ENDBRANCH  21  22
ENDBRANCH  20  21
ENDBRANCH  19  20
ENDBRANCH  18  19
ENDBRANCH  17  18
ENDBRANCH  16  17
ENDBRANCH  15  16
ENDBRANCH   1  15
TORSDOF 22
ENDMDL
MODEL 3
REMARK VINA RESULT:    -3.194      1.816      2.801
REMARK INTER + INTRA:         -11.535
REMARK INTER:                  -7.636
REMARK INTRA:                  -3.899
REMARK UNBOUND:                -4.232
REMARK SMILES CCCCCCCCCCCCCCCCCCCCCCCC(=O)[O-]
REMARK SMILES IDX 13 1 14 2 15 3 16 4 17 5 18 6 19 7 20 8 21 9 22 10 23 11
REMARK SMILES IDX 24 12 25 13 26 14 12 15 11 16 10 17 9 18 8 19 7 20 6 21 5 22
REMARK SMILES IDX 4 23 3 24 2 25 1 26
REMARK H PARENT
REMARK Flexibility Score: inf
ROOT
ATOM      1  C   UNL     1       5.148 108.163 178.903  1.00  0.00     0.000 C 
ENDROOT
BRANCH   1   2
ATOM      2  C   UNL     1       4.277 108.297 177.636  1.00  0.00     0.000 C 
BRANCH   2   3
ATOM      3  C   UNL     1       2.762 108.400 177.892  1.00  0.00     0.000 C 
BRANCH   3   4
ATOM      4  C   UNL     1       2.413 108.498 179.384  1.00  0.00     0.000 C 
BRANCH   4   5
ATOM      5  C   UNL     1       1.315 107.494 179.757  1.00  0.00     0.000 C 
BRANCH   5   6
ATOM      6  C   UNL     1       1.372 106.255 178.854  1.00  0.00     0.000 C 
BRANCH   6   7
ATOM      7  C   UNL     1       2.252 105.160 179.478  1.00  0.00     0.000 C 
BRANCH   7   8
ATOM      8  C   UNL     1       3.088 104.404 178.434  1.00  0.00     0.000 C 
BRANCH   8   9
ATOM      9  C   UNL     1       2.786 104.848 176.995  1.00  0.00     0.000 C 
BRANCH   9  10
ATOM     10  C   UNL     1       4.032 104.705 176.106  1.00  0.00     0.006 C 
BRANCH  10  11
ATOM     11  C   UNL     1       5.183 103.994 176.831  1.00  0.00     0.053 C 
BRANCH  11  12
ATOM     12  C   UNL     1       5.528 102.687 176.185  1.00  0.00     0.041 C 
ATOM     13  O   UNL     1       5.130 102.434 175.018  1.00  0.00    -0.550 OA
ATOM     14  O   UNL     1       6.279 101.745 176.877  1.00  0.00    -0.550 OA
ENDBRANCH  11  12
ENDBRANCH  10  11
ENDBRANCH   9  10
ENDBRANCH   8   9
ENDBRANCH   7   8
ENDBRANCH   6   7
ENDBRANCH   5   6
ENDBRANCH   4   5
ENDBRANCH   3   4
ENDBRANCH   2   3
ENDBRANCH   1   2
BRANCH   1  15
ATOM     15  C   UNL     1       5.990 106.878 178.980  1.00  0.00     0.000 C 
BRANCH  15  16
ATOM     16  C   UNL     1       5.765 106.096 180.286  1.00  0.00     0.000 C 
BRANCH  16  17
ATOM     17  C   UNL     1       5.412 107.007 181.473  1.00  0.00     0.000 C 
BRANCH  17  18
ATOM     18  C   UNL     1       4.076 106.625 182.135  1.00  0.00    -0.000 C 
BRANCH  18  19
ATOM     19  C   UNL     1       3.418 107.804 182.875  1.00  0.00    -0.000 C 
BRANCH  19  20
ATOM     20  C   UNL     1       4.173 109.142 182.769  1.00  0.00    -0.000 C 
BRANCH  20  21
ATOM     21  C   UNL     1       3.241 110.363 182.844  1.00  0.00    -0.000 C 
BRANCH  21  22
ATOM     22  C   UNL     1       3.974 111.653 183.250  1.00  0.00    -0.000 C 
BRANCH  22  23
ATOM     23  C   UNL     1       3.266 112.438 184.374  1.00  0.00    -0.000 C 
BRANCH  23  24
ATOM     24  C   UNL     1       3.998 113.742 184.726  1.00  0.00    -0.000 C 
BRANCH  24  25
ATOM     25  C   UNL     1       4.982 114.136 183.619  1.00  0.00    -0.003 C 
ATOM     26  C   UNL     1       6.310 114.607 184.205  1.00  0.00     0.004 C 
ENDBRANCH  24  25
ENDBRANCH  23  24
ENDBRANCH  22  23
ENDBRANCH  21  22
ENDBRANCH  20  21
ENDBRANCH  19  20
ENDBRANCH  18  19
ENDBRANCH  17  18
ENDBRANCH  16  17
ENDBRANCH  15  16
ENDBRANCH   1  15
TORSDOF 22
ENDMDL
MODEL 4
REMARK VINA RESULT:    -3.175      2.046      3.174
REMARK INTER + INTRA:         -11.490
REMARK INTER:                  -7.302
REMARK INTRA:                  -4.188
REMARK UNBOUND:                -4.232
REMARK SMILES CCCCCCCCCCCCCCCCCCCCCCCC(=O)[O-]
REMARK SMILES IDX 13 1 14 2 15 3 16 4 17 5 18 6 19 7 20 8 21 9 22 10 23 11
REMARK SMILES IDX 24 12 25 13 26 14 12 15 11 16 10 17 9 18 8 19 7 20 6 21 5 22
REMARK SMILES IDX 4 23 3 24 2 25 1 26
REMARK H PARENT
REMARK Flexibility Score: inf
ROOT
ATOM      1  C   UNL     1       3.613 108.941 180.588  1.00  0.00     0.000 C 
ENDROOT
BRANCH   1   2
ATOM      2  C   UNL     1       2.711 108.521 179.408  1.00  0.00     0.000 C 
BRANCH   2   3
ATOM      3  C   UNL     1       1.353 107.915 179.808  1.00  0.00     0.000 C 
BRANCH   3   4
ATOM      4  C   UNL     1       0.960 106.707 178.946  1.00  0.00     0.000 C 
BRANCH   4   5
ATOM      5  C   UNL     1       1.771 105.466 179.339  1.00  0.00     0.000 C 
BRANCH   5   6
ATOM      6  C   UNL     1       2.289 104.731 178.097  1.00  0.00     0.000 C 
BRANCH   6   7
ATOM      7  C   UNL     1       3.766 104.337 178.267  1.00  0.00     0.000 C 
BRANCH   7   8
ATOM      8  C   UNL     1       4.548 105.332 179.139  1.00  0.00     0.000 C 
BRANCH   8   9
ATOM      9  C   UNL     1       5.512 106.207 178.325  1.00  0.00     0.000 C 
BRANCH   9  10
ATOM     10  C   UNL     1       6.499 106.939 179.249  1.00  0.00     0.006 C 
BRANCH  10  11
ATOM     11  C   UNL     1       6.726 108.395 178.818  1.00  0.00     0.053 C 
BRANCH  11  12
ATOM     12  C   UNL     1       7.680 108.494 177.666  1.00  0.00     0.041 C 
ATOM     13  O   UNL     1       7.412 109.236 176.685  1.00  0.00    -0.550 OA
ATOM     14  O   UNL     1       8.859 107.760 177.673  1.00  0.00    -0.550 OA
ENDBRANCH  11  12
ENDBRANCH  10  11
ENDBRANCH   9  10
ENDBRANCH   8   9
ENDBRANCH   7   8
ENDBRANCH   6   7
ENDBRANCH   5   6
ENDBRANCH   4   5
ENDBRANCH   3   4
ENDBRANCH   2   3
ENDBRANCH   1   2
BRANCH   1  15
ATOM     15  C   UNL     1       2.887 109.107 181.934  1.00  0.00     0.000 C 
BRANCH  15  16
ATOM     16  C   UNL     1       3.382 108.119 183.004  1.00  0.00     0.000 C 
BRANCH  16  17
ATOM     17  C   UNL     1       4.385 107.094 182.451  1.00  0.00     0.000 C 
BRANCH  17  18
ATOM     18  C   UNL     1       5.663 106.999 183.302  1.00  0.00    -0.000 C 
BRANCH  18  19
ATOM     19  C   UNL     1       6.881 107.657 182.628  1.00  0.00    -0.000 C 
BRANCH  19  20
ATOM     20  C   UNL     1       7.131 109.124 183.026  1.00  0.00    -0.000 C 
BRANCH  20  21
ATOM     21  C   UNL     1       6.512 109.490 184.384  1.00  0.00    -0.000 C 
BRANCH  21  22
ATOM     22  C   UNL     1       5.856 110.881 184.389  1.00  0.00    -0.000 C 
BRANCH  22  23
ATOM     23  C   UNL     1       5.548 111.423 182.977  1.00  0.00    -0.000 C 
BRANCH  23  24
ATOM     24  C   UNL     1       4.383 112.426 182.978  1.00  0.00    -0.000 C 
BRANCH  24  25
ATOM     25  C   UNL     1       3.404 112.129 184.119  1.00  0.00    -0.003 C 
ATOM     26  C   UNL     1       2.947 113.415 184.802  1.00  0.00     0.004 C 
ENDBRANCH  24  25
ENDBRANCH  23  24
ENDBRANCH  22  23
ENDBRANCH  21  22
ENDBRANCH  20  21
ENDBRANCH  19  20
ENDBRANCH  18  19
ENDBRANCH  17  18
ENDBRANCH  16  17
ENDBRANCH  15  16
ENDBRANCH   1  15
TORSDOF 22
ENDMDL
MODEL 5
REMARK VINA RESULT:    -3.161      1.904      3.157
REMARK INTER + INTRA:         -11.458
REMARK INTER:                  -7.005
REMARK INTRA:                  -4.454
REMARK UNBOUND:                -4.232
REMARK SMILES CCCCCCCCCCCCCCCCCCCCCCCC(=O)[O-]
REMARK SMILES IDX 13 1 14 2 15 3 16 4 17 5 18 6 19 7 20 8 21 9 22 10 23 11
REMARK SMILES IDX 24 12 25 13 26 14 12 15 11 16 10 17 9 18 8 19 7 20 6 21 5 22
REMARK SMILES IDX 4 23 3 24 2 25 1 26
REMARK H PARENT
REMARK Flexibility Score: inf
ROOT
ATOM      1  C   UNL     1       4.443 107.139 182.355  1.00  0.00     0.000 C 
ENDROOT
BRANCH   1   2
ATOM      2  C   UNL     1       3.207 107.918 182.855  1.00  0.00     0.000 C 
BRANCH   2   3
ATOM      3  C   UNL     1       2.423 108.668 181.763  1.00  0.00     0.000 C 
BRANCH   3   4
ATOM      4  C   UNL     1       2.485 107.971 180.396  1.00  0.00     0.000 C 
BRANCH   4   5
ATOM      5  C   UNL     1       1.119 108.009 179.700  1.00  0.00     0.000 C 
BRANCH   5   6
ATOM      6  C   UNL     1       0.814 106.672 179.014  1.00  0.00     0.000 C 
BRANCH   6   7
ATOM      7  C   UNL     1       1.853 105.606 179.399  1.00  0.00     0.000 C 
BRANCH   7   8
ATOM      8  C   UNL     1       2.318 104.770 178.196  1.00  0.00     0.000 C 
BRANCH   8   9
ATOM      9  C   UNL     1       3.784 104.326 178.312  1.00  0.00     0.000 C 
BRANCH   9  10
ATOM     10  C   UNL     1       4.684 105.509 178.702  1.00  0.00     0.006 C 
BRANCH  10  11
ATOM     11  C   UNL     1       5.613 105.934 177.556  1.00  0.00     0.053 C 
BRANCH  11  12
ATOM     12  C   UNL     1       5.002 107.010 176.711  1.00  0.00     0.041 C 
ATOM     13  O   UNL     1       5.431 107.220 175.546  1.00  0.00    -0.550 OA
ATOM     14  O   UNL     1       3.966 107.787 177.214  1.00  0.00    -0.550 OA
ENDBRANCH  11  12
ENDBRANCH  10  11
ENDBRANCH   9  10
ENDBRANCH   8   9
ENDBRANCH   7   8
ENDBRANCH   6   7
ENDBRANCH   5   6
ENDBRANCH   4   5
ENDBRANCH   3   4
ENDBRANCH   2   3
ENDBRANCH   1   2
BRANCH   1  15
ATOM     15  C   UNL     1       5.561 106.957 183.397  1.00  0.00     0.000 C 
BRANCH  15  16
ATOM     16  C   UNL     1       6.948 107.343 182.856  1.00  0.00     0.000 C 
BRANCH  16  17
ATOM     17  C   UNL     1       7.599 108.489 183.648  1.00  0.00     0.000 C 
BRANCH  17  18
ATOM     18  C   UNL     1       6.630 109.139 184.651  1.00  0.00    -0.000 C 
BRANCH  18  19
ATOM     19  C   UNL     1       6.969 110.613 184.940  1.00  0.00    -0.000 C 
BRANCH  19  20
ATOM     20  C   UNL     1       5.884 111.623 184.524  1.00  0.00    -0.000 C 
BRANCH  20  21
ATOM     21  C   UNL     1       4.857 111.030 183.546  1.00  0.00    -0.000 C 
BRANCH  21  22
ATOM     22  C   UNL     1       4.460 112.008 182.426  1.00  0.00    -0.000 C 
BRANCH  22  23
ATOM     23  C   UNL     1       4.760 111.478 181.008  1.00  0.00    -0.000 C 
BRANCH  23  24
ATOM     24  C   UNL     1       5.876 110.421 181.004  1.00  0.00    -0.000 C 
BRANCH  24  25
ATOM     25  C   UNL     1       5.709 109.450 179.830  1.00  0.00    -0.003 C 
ATOM     26  C   UNL     1       7.017 108.727 179.523  1.00  0.00     0.004 C 
ENDBRANCH  24  25
ENDBRANCH  23  24
ENDBRANCH  22  23
ENDBRANCH  21  22
ENDBRANCH  20  21
ENDBRANCH  19  20
ENDBRANCH  18  19
ENDBRANCH  17  18
ENDBRANCH  16  17
ENDBRANCH  15  16
ENDBRANCH   1  15
TORSDOF 22
ENDMDL
MODEL 6
REMARK VINA RESULT:    -3.156      3.007      7.735
REMARK INTER + INTRA:         -11.446
REMARK INTER:                  -7.680
REMARK INTRA:                  -3.766
REMARK UNBOUND:                -4.232
REMARK SMILES CCCCCCCCCCCCCCCCCCCCCCCC(=O)[O-]
REMARK SMILES IDX 13 1 14 2 15 3 16 4 17 5 18 6 19 7 20 8 21 9 22 10 23 11
REMARK SMILES IDX 24 12 25 13 26 14 12 15 11 16 10 17 9 18 8 19 7 20 6 21 5 22
REMARK SMILES IDX 4 23 3 24 2 25 1 26
REMARK H PARENT
REMARK Flexibility Score: inf
ROOT
ATOM      1  C   UNL     1       0.002 106.694 177.623  1.00  0.00     0.000 C 
ENDROOT
BRANCH   1   2
ATOM      2  C   UNL     1       0.790 107.189 178.854  1.00  0.00     0.000 C 
BRANCH   2   3
ATOM      3  C   UNL     1       1.851 108.265 178.559  1.00  0.00     0.000 C 
BRANCH   3   4
ATOM      4  C   UNL     1       3.151 108.056 179.350  1.00  0.00     0.000 C 
BRANCH   4   5
ATOM      5  C   UNL     1       2.862 107.445 180.726  1.00  0.00     0.000 C 
BRANCH   5   6
ATOM      6  C   UNL     1       3.817 106.283 181.024  1.00  0.00     0.000 C 
BRANCH   6   7
ATOM      7  C   UNL     1       5.234 106.799 181.323  1.00  0.00     0.000 C 
BRANCH   7   8
ATOM      8  C   UNL     1       5.640 106.601 182.792  1.00  0.00     0.000 C 
BRANCH   8   9
ATOM      9  C   UNL     1       5.338 107.828 183.664  1.00  0.00     0.000 C 
BRANCH   9  10
ATOM     10  C   UNL     1       5.993 109.089 183.079  1.00  0.00     0.006 C 
BRANCH  10  11
ATOM     11  C   UNL     1       5.203 110.362 183.412  1.00  0.00     0.053 C 
BRANCH  11  12
ATOM     12  C   UNL     1       3.976 110.496 182.564  1.00  0.00     0.041 C 
ATOM     13  O   UNL     1       4.075 110.839 181.356  1.00  0.00    -0.550 OA
ATOM     14  O   UNL     1       2.722 110.252 183.109  1.00  0.00    -0.550 OA
ENDBRANCH  11  12
ENDBRANCH  10  11
ENDBRANCH   9  10
ENDBRANCH   8   9
ENDBRANCH   7   8
ENDBRANCH   6   7
ENDBRANCH   5   6
ENDBRANCH   4   5
ENDBRANCH   3   4
ENDBRANCH   2   3
ENDBRANCH   1   2
BRANCH   1  15
ATOM     15  C   UNL     1       0.592 105.453 176.930  1.00  0.00     0.000 C 
BRANCH  15  16
ATOM     16  C   UNL     1       1.664 104.750 177.780  1.00  0.00     0.000 C 
BRANCH  16  17
ATOM     17  C   UNL     1       3.053 104.766 177.120  1.00  0.00     0.000 C 
BRANCH  17  18
ATOM     18  C   UNL     1       4.154 104.223 178.047  1.00  0.00    -0.000 C 
BRANCH  18  19
ATOM     19  C   UNL     1       5.480 104.995 177.916  1.00  0.00    -0.000 C 
BRANCH  19  20
ATOM     20  C   UNL     1       5.580 105.911 176.683  1.00  0.00    -0.000 C 
BRANCH  20  21
ATOM     21  C   UNL     1       6.375 105.278 175.529  1.00  0.00    -0.000 C 
BRANCH  21  22
ATOM     22  C   UNL     1       5.497 104.941 174.311  1.00  0.00    -0.000 C 
BRANCH  22  23
ATOM     23  C   UNL     1       5.077 103.457 174.244  1.00  0.00    -0.000 C 
BRANCH  23  24
ATOM     24  C   UNL     1       6.199 102.512 174.698  1.00  0.00    -0.000 C 
BRANCH  24  25
ATOM     25  C   UNL     1       5.768 101.694 175.920  1.00  0.00    -0.003 C 
ATOM     26  C   UNL     1       6.866 101.663 176.979  1.00  0.00     0.004 C 
ENDBRANCH  24  25
ENDBRANCH  23  24
ENDBRANCH  22  23
ENDBRANCH  21  22
ENDBRANCH  20  21
ENDBRANCH  19  20
ENDBRANCH  18  19
ENDBRANCH  17  18
ENDBRANCH  16  17
ENDBRANCH  15  16
ENDBRANCH   1  15
TORSDOF 22
ENDMDL
MODEL 7
REMARK VINA RESULT:    -3.127      2.926      4.439
REMARK INTER + INTRA:         -11.380
REMARK INTER:                  -7.352
REMARK INTRA:                  -4.028
REMARK UNBOUND:                -4.232
REMARK SMILES CCCCCCCCCCCCCCCCCCCCCCCC(=O)[O-]
REMARK SMILES IDX 13 1 14 2 15 3 16 4 17 5 18 6 19 7 20 8 21 9 22 10 23 11
REMARK SMILES IDX 24 12 25 13 26 14 12 15 11 16 10 17 9 18 8 19 7 20 6 21 5 22
REMARK SMILES IDX 4 23 3 24 2 25 1 26
REMARK H PARENT
REMARK Flexibility Score: inf
ROOT
ATOM      1  C   UNL     1       3.554 108.055 181.977  1.00  0.00     0.000 C 
ENDROOT
BRANCH   1   2
ATOM      2  C   UNL     1       3.438 109.440 181.306  1.00  0.00     0.000 C 
BRANCH   2   3
ATOM      3  C   UNL     1       4.572 109.787 180.325  1.00  0.00     0.000 C 
BRANCH   3   4
ATOM      4  C   UNL     1       5.138 108.555 179.605  1.00  0.00     0.000 C 
BRANCH   4   5
ATOM      5  C   UNL     1       6.622 108.360 179.938  1.00  0.00     0.000 C 
BRANCH   5   6
ATOM      6  C   UNL     1       7.033 106.890 179.784  1.00  0.00     0.000 C 
BRANCH   6   7
ATOM      7  C   UNL     1       5.815 105.962 179.922  1.00  0.00     0.000 C 
BRANCH   7   8
ATOM      8  C   UNL     1       5.579 105.103 178.670  1.00  0.00     0.000 C 
BRANCH   8   9
ATOM      9  C   UNL     1       4.090 104.843 178.398  1.00  0.00     0.000 C 
BRANCH   9  10
ATOM     10  C   UNL     1       3.229 105.309 179.583  1.00  0.00     0.006 C 
BRANCH  10  11
ATOM     11  C   UNL     1       1.780 105.599 179.169  1.00  0.00     0.053 C 
BRANCH  11  12
ATOM     12  C   UNL     1       1.527 107.067 179.009  1.00  0.00     0.041 C 
ATOM     13  O   UNL     1       2.096 107.711 178.090  1.00  0.00    -0.550 OA
ATOM     14  O   UNL     1       0.670 107.724 179.882  1.00  0.00    -0.550 OA
ENDBRANCH  11  12
ENDBRANCH  10  11
ENDBRANCH   9  10
ENDBRANCH   8   9
ENDBRANCH   7   8
ENDBRANCH   6   7
ENDBRANCH   5   6
ENDBRANCH   4   5
ENDBRANCH   3   4
ENDBRANCH   2   3
ENDBRANCH   1   2
BRANCH   1  15
ATOM     15  C   UNL     1       4.255 108.054 183.347  1.00  0.00     0.000 C 
BRANCH  15  16
ATOM     16  C   UNL     1       5.538 107.205 183.358  1.00  0.00     0.000 C 
BRANCH  16  17
ATOM     17  C   UNL     1       6.791 108.024 183.706  1.00  0.00     0.000 C 
BRANCH  17  18
ATOM     18  C   UNL     1       6.581 109.536 183.516  1.00  0.00    -0.000 C 
BRANCH  18  19
ATOM     19  C   UNL     1       6.758 110.334 184.821  1.00  0.00    -0.000 C 
BRANCH  19  20
ATOM     20  C   UNL     1       5.812 111.538 184.981  1.00  0.00    -0.000 C 
BRANCH  20  21
ATOM     21  C   UNL     1       5.087 111.907 183.676  1.00  0.00    -0.000 C 
BRANCH  21  22
ATOM     22  C   UNL     1       3.566 112.053 183.856  1.00  0.00    -0.000 C 
BRANCH  22  23
ATOM     23  C   UNL     1       3.165 113.191 184.818  1.00  0.00    -0.000 C 
BRANCH  23  24
ATOM     24  C   UNL     1       3.910 114.501 184.517  1.00  0.00    -0.000 C 
BRANCH  24  25
ATOM     25  C   UNL     1       3.301 115.213 183.304  1.00  0.00    -0.003 C 
ATOM     26  C   UNL     1       4.319 115.344 182.175  1.00  0.00     0.004 C 
ENDBRANCH  24  25
ENDBRANCH  23  24
ENDBRANCH  22  23
ENDBRANCH  21  22
ENDBRANCH  20  21
ENDBRANCH  19  20
ENDBRANCH  18  19
ENDBRANCH  17  18
ENDBRANCH  16  17
ENDBRANCH  15  16
ENDBRANCH   1  15
TORSDOF 22
ENDMDL
MODEL 8
REMARK VINA RESULT:    -3.096      1.603      2.574
REMARK INTER + INTRA:         -11.310
REMARK INTER:                  -6.495
REMARK INTRA:                  -4.815
REMARK UNBOUND:                -4.232
REMARK SMILES CCCCCCCCCCCCCCCCCCCCCCCC(=O)[O-]
REMARK SMILES IDX 13 1 14 2 15 3 16 4 17 5 18 6 19 7 20 8 21 9 22 10 23 11
REMARK SMILES IDX 24 12 25 13 26 14 12 15 11 16 10 17 9 18 8 19 7 20 6 21 5 22
REMARK SMILES IDX 4 23 3 24 2 25 1 26
REMARK H PARENT
REMARK Flexibility Score: inf
ROOT
ATOM      1  C   UNL     1       5.252 108.216 179.066  1.00  0.00     0.000 C 
ENDROOT
BRANCH   1   2
ATOM      2  C   UNL     1       4.477 108.457 177.753  1.00  0.00     0.000 C 
BRANCH   2   3
ATOM      3  C   UNL     1       2.943 108.419 177.884  1.00  0.00     0.000 C 
BRANCH   3   4
ATOM      4  C   UNL     1       2.461 108.608 179.329  1.00  0.00     0.000 C 
BRANCH   4   5
ATOM      5  C   UNL     1       1.316 107.641 179.655  1.00  0.00     0.000 C 
BRANCH   5   6
ATOM      6  C   UNL     1       1.389 106.386 178.777  1.00  0.00     0.000 C 
BRANCH   6   7
ATOM      7  C   UNL     1       2.147 105.256 179.493  1.00  0.00     0.000 C 
BRANCH   7   8
ATOM      8  C   UNL     1       2.930 104.359 178.522  1.00  0.00     0.000 C 
BRANCH   8   9
ATOM      9  C   UNL     1       2.883 104.866 177.073  1.00  0.00     0.000 C 
BRANCH   9  10
ATOM     10  C   UNL     1       4.285 104.853 176.444  1.00  0.00     0.006 C 
BRANCH  10  11
ATOM     11  C   UNL     1       5.230 103.873 177.153  1.00  0.00     0.053 C 
BRANCH  11  12
ATOM     12  C   UNL     1       5.499 102.656 176.323  1.00  0.00     0.041 C 
ATOM     13  O   UNL     1       6.095 101.666 176.824  1.00  0.00    -0.550 OA
ATOM     14  O   UNL     1       5.100 102.618 174.993  1.00  0.00    -0.550 OA
ENDBRANCH  11  12
ENDBRANCH  10  11
ENDBRANCH   9  10
ENDBRANCH   8   9
ENDBRANCH   7   8
ENDBRANCH   6   7
ENDBRANCH   5   6
ENDBRANCH   4   5
ENDBRANCH   3   4
ENDBRANCH   2   3
ENDBRANCH   1   2
BRANCH   1  15
ATOM     15  C   UNL     1       6.033 106.892 179.125  1.00  0.00     0.000 C 
BRANCH  15  16
ATOM     16  C   UNL     1       5.644 106.024 180.334  1.00  0.00     0.000 C 
BRANCH  16  17
ATOM     17  C   UNL     1       5.398 106.851 181.607  1.00  0.00     0.000 C 
BRANCH  17  18
ATOM     18  C   UNL     1       3.981 106.657 182.173  1.00  0.00    -0.000 C 
BRANCH  18  19
ATOM     19  C   UNL     1       3.389 107.952 182.758  1.00  0.00    -0.000 C 
BRANCH  19  20
ATOM     20  C   UNL     1       4.377 109.129 182.865  1.00  0.00    -0.000 C 
BRANCH  20  21
ATOM     21  C   UNL     1       3.856 110.411 182.195  1.00  0.00    -0.000 C 
BRANCH  21  22
ATOM     22  C   UNL     1       4.940 111.148 181.389  1.00  0.00    -0.000 C 
BRANCH  22  23
ATOM     23  C   UNL     1       4.704 112.669 181.284  1.00  0.00    -0.000 C 
BRANCH  23  24
ATOM     24  C   UNL     1       4.619 113.148 179.826  1.00  0.00    -0.000 C 
BRANCH  24  25
ATOM     25  C   UNL     1       4.911 112.000 178.853  1.00  0.00    -0.003 C 
ATOM     26  C   UNL     1       4.316 112.281 177.477  1.00  0.00     0.004 C 
ENDBRANCH  24  25
ENDBRANCH  23  24
ENDBRANCH  22  23
ENDBRANCH  21  22
ENDBRANCH  20  21
ENDBRANCH  19  20
ENDBRANCH  18  19
ENDBRANCH  17  18
ENDBRANCH  16  17
ENDBRANCH  15  16
ENDBRANCH   1  15
TORSDOF 22
ENDMDL
MODEL 9
REMARK VINA RESULT:    -3.073      1.468      3.667
REMARK INTER + INTRA:         -11.258
REMARK INTER:                  -6.602
REMARK INTRA:                  -4.656
REMARK UNBOUND:                -4.232
REMARK SMILES CCCCCCCCCCCCCCCCCCCCCCCC(=O)[O-]
REMARK SMILES IDX 13 1 14 2 15 3 16 4 17 5 18 6 19 7 20 8 21 9 22 10 23 11
REMARK SMILES IDX 24 12 25 13 26 14 12 15 11 16 10 17 9 18 8 19 7 20 6 21 5 22
REMARK SMILES IDX 4 23 3 24 2 25 1 26
REMARK H PARENT
REMARK Flexibility Score: inf
ROOT
ATOM      1  C   UNL     1       3.957 109.589 182.417  1.00  0.00     0.000 C 
ENDROOT
BRANCH   1   2
ATOM      2  C   UNL     1       3.286 109.301 181.057  1.00  0.00     0.000 C 
BRANCH   2   3
ATOM      3  C   UNL     1       2.344 108.083 181.039  1.00  0.00     0.000 C 
BRANCH   3   4
ATOM      4  C   UNL     1       1.434 108.049 179.802  1.00  0.00     0.000 C 
BRANCH   4   5
ATOM      5  C   UNL     1       1.465 106.667 179.138  1.00  0.00     0.000 C 
BRANCH   5   6
ATOM      6  C   UNL     1       2.458 105.737 179.847  1.00  0.00     0.000 C 
BRANCH   6   7
ATOM      7  C   UNL     1       2.937 104.622 178.903  1.00  0.00     0.000 C 
BRANCH   7   8
ATOM      8  C   UNL     1       2.616 104.914 177.429  1.00  0.00     0.000 C 
BRANCH   8   9
ATOM      9  C   UNL     1       3.792 104.606 176.491  1.00  0.00     0.000 C 
BRANCH   9  10
ATOM     10  C   UNL     1       4.787 103.645 177.160  1.00  0.00     0.006 C 
BRANCH  10  11
ATOM     11  C   UNL     1       6.052 103.439 176.316  1.00  0.00     0.053 C 
BRANCH  11  12
ATOM     12  C   UNL     1       6.443 101.995 176.237  1.00  0.00     0.041 C 
ATOM     13  O   UNL     1       7.505 101.596 176.782  1.00  0.00    -0.550 OA
ATOM     14  O   UNL     1       5.639 101.093 175.551  1.00  0.00    -0.550 OA
ENDBRANCH  11  12
ENDBRANCH  10  11
ENDBRANCH   9  10
ENDBRANCH   8   9
ENDBRANCH   7   8
ENDBRANCH   6   7
ENDBRANCH   5   6
ENDBRANCH   4   5
ENDBRANCH   3   4
ENDBRANCH   2   3
ENDBRANCH   1   2
BRANCH   1  15
ATOM     15  C   UNL     1       5.379 109.022 182.572  1.00  0.00     0.000 C 
BRANCH  15  16
ATOM     16  C   UNL     1       5.474 107.946 183.668  1.00  0.00     0.000 C 
BRANCH  16  17
ATOM     17  C   UNL     1       6.037 106.613 183.148  1.00  0.00     0.000 C 
BRANCH  17  18
ATOM     18  C   UNL     1       5.489 106.242 181.759  1.00  0.00    -0.000 C 
BRANCH  18  19
ATOM     19  C   UNL     1       6.597 105.852 180.764  1.00  0.00    -0.000 C 
BRANCH  19  20
ATOM     20  C   UNL     1       6.334 106.263 179.303  1.00  0.00    -0.000 C 
BRANCH  20  21
ATOM     21  C   UNL     1       5.523 107.564 179.185  1.00  0.00    -0.000 C 
BRANCH  21  22
ATOM     22  C   UNL     1       5.003 107.818 177.759  1.00  0.00    -0.000 C 
BRANCH  22  23
ATOM     23  C   UNL     1       4.772 109.311 177.443  1.00  0.00    -0.000 C 
BRANCH  23  24
ATOM     24  C   UNL     1       3.385 109.571 176.837  1.00  0.00    -0.000 C 
BRANCH  24  25
ATOM     25  C   UNL     1       2.865 108.332 176.100  1.00  0.00    -0.003 C 
ATOM     26  C   UNL     1       1.352 108.394 175.916  1.00  0.00     0.004 C 
ENDBRANCH  24  25
ENDBRANCH  23  24
ENDBRANCH  22  23
ENDBRANCH  21  22
ENDBRANCH  20  21
ENDBRANCH  19  20
ENDBRANCH  18  19
ENDBRANCH  17  18
ENDBRANCH  16  17
ENDBRANCH  15  16
ENDBRANCH   1  15
TORSDOF 22
ENDMDL
