MODEL 1
REMARK VINA RESULT:    -4.305      0.000      0.000
REMARK INTER + INTRA:          -8.351
REMARK INTER:                  -7.326
REMARK INTRA:                  -1.025
REMARK UNBOUND:                -1.025
REMARK SMILES CCCCCCCCCCCCCC(=O)[O-]
REMARK SMILES IDX 8 1 9 2 10 3 11 4 12 5 13 6 14 7 15 8 16 9 7 10 6 11 5 12
REMARK SMILES IDX 4 13 3 14 2 15 1 16
REMARK H PARENT
REMARK Flexibility Score: inf
ROOT
ATOM      1  C   UNL     1      16.896   1.676  -4.869  1.00  0.00     0.000 C 
ENDROOT
BRANCH   1   2
ATOM      2  C   UNL     1      17.309   2.911  -4.053  1.00  0.00     0.000 C 
BRANCH   2   3
ATOM      3  C   UNL     1      18.698   2.762  -3.415  1.00  0.00     0.000 C 
BRANCH   3   4
ATOM      4  C   UNL     1      18.678   2.987  -1.895  1.00  0.00     0.000 C 
BRANCH   4   5
ATOM      5  C   UNL     1      17.241   3.027  -1.365  1.00  0.00     0.006 C 
BRANCH   5   6
ATOM      6  C   UNL     1      17.218   3.288   0.144  1.00  0.00     0.053 C 
BRANCH   6   7
ATOM      7  C   UNL     1      15.938   2.796   0.743  1.00  0.00     0.041 C 
ATOM      8  O   UNL     1      15.956   2.103   1.794  1.00  0.00    -0.550 OA
ATOM      9  O   UNL     1      14.723   3.143   0.167  1.00  0.00    -0.550 OA
ENDBRANCH   6   7
ENDBRANCH   5   6
ENDBRANCH   4   5
ENDBRANCH   3   4
ENDBRANCH   2   3
ENDBRANCH   1   2
BRANCH   1  10
ATOM     10  C   UNL     1      16.646   2.045  -6.336  1.00  0.00     0.000 C 
BRANCH  10  11
ATOM     11  C   UNL     1      17.930   2.561  -7.002  1.00  0.00    -0.000 C 
BRANCH  11  12
ATOM     12  C   UNL     1      17.680   3.823  -7.856  1.00  0.00    -0.000 C 
BRANCH  12  13
ATOM     13  C   UNL     1      17.631   5.121  -7.034  1.00  0.00    -0.000 C 
BRANCH  13  14
ATOM     14  C   UNL     1      16.334   5.917  -7.251  1.00  0.00    -0.000 C 
BRANCH  14  15
ATOM     15  C   UNL     1      15.169   5.390  -6.399  1.00  0.00    -0.003 C 
ATOM     16  C   UNL     1      13.820   5.972  -6.820  1.00  0.00     0.004 C 
ENDBRANCH  14  15
ENDBRANCH  13  14
ENDBRANCH  12  13
ENDBRANCH  11  12
ENDBRANCH  10  11
ENDBRANCH   1  10
TORSDOF 12
ENDMDL
MODEL 2
REMARK VINA RESULT:    -4.145      9.244     11.562
REMARK INTER + INTRA:          -8.077
REMARK INTER:                  -6.220
REMARK INTRA:                  -1.857
REMARK UNBOUND:                -1.025
REMARK SMILES CCCCCCCCCCCCCC(=O)[O-]
REMARK SMILES IDX 8 1 9 2 10 3 11 4 12 5 13 6 14 7 15 8 16 9 7 10 6 11 5 12
REMARK SMILES IDX 4 13 3 14 2 15 1 16
REMARK H PARENT
REMARK Flexibility Score: inf
ROOT
ATOM      1  C   UNL     1      16.513  13.175  -9.762  1.00  0.00     0.000 C 
ENDROOT
BRANCH   1   2
ATOM      2  C   UNL     1      15.119  12.778  -9.251  1.00  0.00     0.000 C 
BRANCH   2   3
ATOM      3  C   UNL     1      14.769  13.443  -7.911  1.00  0.00     0.000 C 
BRANCH   3   4
ATOM      4  C   UNL     1      15.650  12.946  -6.755  1.00  0.00     0.000 C 
BRANCH   4   5
ATOM      5  C   UNL     1      16.374  14.113  -6.075  1.00  0.00     0.006 C 
BRANCH   5   6
ATOM      6  C   UNL     1      17.455  13.606  -5.115  1.00  0.00     0.053 C 
BRANCH   6   7
ATOM      7  C   UNL     1      18.279  14.746  -4.603  1.00  0.00     0.041 C 
ATOM      8  O   UNL     1      17.879  15.931  -4.747  1.00  0.00    -0.550 OA
ATOM      9  O   UNL     1      19.465  14.496  -3.925  1.00  0.00    -0.550 OA
ENDBRANCH   6   7
ENDBRANCH   5   6
ENDBRANCH   4   5
ENDBRANCH   3   4
ENDBRANCH   2   3
ENDBRANCH   1   2
BRANCH   1  10
ATOM     10  C   UNL     1      16.577  14.675 -10.074  1.00  0.00     0.000 C 
BRANCH  10  11
ATOM     11  C   UNL     1      17.781  15.331  -9.382  1.00  0.00    -0.000 C 
BRANCH  11  12
ATOM     12  C   UNL     1      19.053  14.461  -9.471  1.00  0.00    -0.000 C 
BRANCH  12  13
ATOM     13  C   UNL     1      19.577  13.997  -8.102  1.00  0.00    -0.000 C 
BRANCH  13  14
ATOM     14  C   UNL     1      20.125  12.561  -8.127  1.00  0.00    -0.000 C 
BRANCH  14  15
ATOM     15  C   UNL     1      19.025  11.508  -7.923  1.00  0.00    -0.003 C 
ATOM     16  C   UNL     1      19.225  10.684  -6.652  1.00  0.00     0.004 C 
ENDBRANCH  14  15
ENDBRANCH  13  14
ENDBRANCH  12  13
ENDBRANCH  11  12
ENDBRANCH  10  11
ENDBRANCH   1  10
TORSDOF 12
ENDMDL
MODEL 3
REMARK VINA RESULT:    -4.130      9.400     11.590
REMARK INTER + INTRA:          -8.052
REMARK INTER:                  -6.395
REMARK INTRA:                  -1.658
REMARK UNBOUND:                -1.025
REMARK SMILES CCCCCCCCCCCCCC(=O)[O-]
REMARK SMILES IDX 8 1 9 2 10 3 11 4 12 5 13 6 14 7 15 8 16 9 7 10 6 11 5 12
REMARK SMILES IDX 4 13 3 14 2 15 1 16
REMARK H PARENT
REMARK Flexibility Score: inf
ROOT
ATOM      1  C   UNL     1      18.285  11.492  -6.903  1.00  0.00     0.000 C 
ENDROOT
BRANCH   1   2
ATOM      2  C   UNL     1      19.443  12.129  -7.687  1.00  0.00     0.000 C 
BRANCH   2   3
ATOM      3  C   UNL     1      18.998  13.338  -8.523  1.00  0.00     0.000 C 
BRANCH   3   4
ATOM      4  C   UNL     1      17.957  12.968  -9.590  1.00  0.00     0.000 C 
BRANCH   4   5
ATOM      5  C   UNL     1      16.679  13.798  -9.423  1.00  0.00     0.006 C 
BRANCH   5   6
ATOM      6  C   UNL     1      15.475  12.900  -9.124  1.00  0.00     0.053 C 
BRANCH   6   7
ATOM      7  C   UNL     1      14.809  13.320  -7.852  1.00  0.00     0.041 C 
ATOM      8  O   UNL     1      13.773  14.035  -7.885  1.00  0.00    -0.550 OA
ATOM      9  O   UNL     1      15.306  12.883  -6.631  1.00  0.00    -0.550 OA
ENDBRANCH   6   7
ENDBRANCH   5   6
ENDBRANCH   4   5
ENDBRANCH   3   4
ENDBRANCH   2   3
ENDBRANCH   1   2
BRANCH   1  10
ATOM     10  C   UNL     1      18.435  11.747  -5.398  1.00  0.00     0.000 C 
BRANCH  10  11
ATOM     11  C   UNL     1      19.849  12.240  -5.060  1.00  0.00    -0.000 C 
BRANCH  11  12
ATOM     12  C   UNL     1      19.851  13.264  -3.904  1.00  0.00    -0.000 C 
BRANCH  12  13
ATOM     13  C   UNL     1      18.719  14.300  -4.001  1.00  0.00    -0.000 C 
BRANCH  13  14
ATOM     14  C   UNL     1      18.898  15.274  -5.177  1.00  0.00    -0.000 C 
BRANCH  14  15
ATOM     15  C   UNL     1      17.628  15.406  -6.031  1.00  0.00    -0.003 C 
ATOM     16  C   UNL     1      16.422  15.886  -5.225  1.00  0.00     0.004 C 
ENDBRANCH  14  15
ENDBRANCH  13  14
ENDBRANCH  12  13
ENDBRANCH  11  12
ENDBRANCH  10  11
ENDBRANCH   1  10
TORSDOF 12
ENDMDL
MODEL 4
REMARK VINA RESULT:    -4.119      2.206      2.781
REMARK INTER + INTRA:          -8.033
REMARK INTER:                  -7.166
REMARK INTRA:                  -0.867
REMARK UNBOUND:                -1.025
REMARK SMILES CCCCCCCCCCCCCC(=O)[O-]
REMARK SMILES IDX 8 1 9 2 10 3 11 4 12 5 13 6 14 7 15 8 16 9 7 10 6 11 5 12
REMARK SMILES IDX 4 13 3 14 2 15 1 16
REMARK H PARENT
REMARK Flexibility Score: inf
ROOT
ATOM      1  C   UNL     1      18.393   3.378  -3.394  1.00  0.00     0.000 C 
ENDROOT
BRANCH   1   2
ATOM      2  C   UNL     1      19.450   4.487  -3.504  1.00  0.00     0.000 C 
BRANCH   2   3
ATOM      3  C   UNL     1      19.420   5.454  -2.311  1.00  0.00     0.000 C 
BRANCH   3   4
ATOM      4  C   UNL     1      19.063   4.755  -0.991  1.00  0.00     0.000 C 
BRANCH   4   5
ATOM      5  C   UNL     1      17.943   5.502  -0.258  1.00  0.00     0.006 C 
BRANCH   5   6
ATOM      6  C   UNL     1      18.484   6.235   0.973  1.00  0.00     0.053 C 
BRANCH   6   7
ATOM      7  C   UNL     1      18.387   5.366   2.187  1.00  0.00     0.041 C 
ATOM      8  O   UNL     1      19.148   5.565   3.171  1.00  0.00    -0.550 OA
ATOM      9  O   UNL     1      17.425   4.367   2.251  1.00  0.00    -0.550 OA
ENDBRANCH   6   7
ENDBRANCH   5   6
ENDBRANCH   4   5
ENDBRANCH   3   4
ENDBRANCH   2   3
ENDBRANCH   1   2
BRANCH   1  10
ATOM     10  C   UNL     1      18.358   2.523  -4.667  1.00  0.00     0.000 C 
BRANCH  10  11
ATOM     11  C   UNL     1      16.987   1.856  -4.845  1.00  0.00    -0.000 C 
BRANCH  11  12
ATOM     12  C   UNL     1      16.293   2.287  -6.156  1.00  0.00    -0.000 C 
BRANCH  12  13
ATOM     13  C   UNL     1      17.139   3.243  -7.012  1.00  0.00    -0.000 C 
BRANCH  13  14
ATOM     14  C   UNL     1      16.570   4.671  -7.053  1.00  0.00    -0.000 C 
BRANCH  14  15
ATOM     15  C   UNL     1      15.302   4.824  -6.199  1.00  0.00    -0.003 C 
ATOM     16  C   UNL     1      14.335   5.866  -6.761  1.00  0.00     0.004 C 
ENDBRANCH  14  15
ENDBRANCH  13  14
ENDBRANCH  12  13
ENDBRANCH  11  12
ENDBRANCH  10  11
ENDBRANCH   1  10
TORSDOF 12
ENDMDL
MODEL 5
REMARK VINA RESULT:    -4.099      9.503     11.200
REMARK INTER + INTRA:          -7.999
REMARK INTER:                  -6.167
REMARK INTRA:                  -1.832
REMARK UNBOUND:                -1.025
REMARK SMILES CCCCCCCCCCCCCC(=O)[O-]
REMARK SMILES IDX 8 1 9 2 10 3 11 4 12 5 13 6 14 7 15 8 16 9 7 10 6 11 5 12
REMARK SMILES IDX 4 13 3 14 2 15 1 16
REMARK H PARENT
REMARK Flexibility Score: inf
ROOT
ATOM      1  C   UNL     1      19.724  13.249  -4.390  1.00  0.00     0.000 C 
ENDROOT
BRANCH   1   2
ATOM      2  C   UNL     1      18.212  13.482  -4.530  1.00  0.00     0.000 C 
BRANCH   2   3
ATOM      3  C   UNL     1      17.879  14.801  -5.243  1.00  0.00     0.000 C 
BRANCH   3   4
ATOM      4  C   UNL     1      16.667  14.679  -6.178  1.00  0.00     0.000 C 
BRANCH   4   5
ATOM      5  C   UNL     1      16.093  13.258  -6.151  1.00  0.00     0.006 C 
BRANCH   5   6
ATOM      6  C   UNL     1      16.215  12.589  -7.524  1.00  0.00     0.053 C 
BRANCH   6   7
ATOM      7  C   UNL     1      15.123  13.057  -8.434  1.00  0.00     0.041 C 
ATOM      8  O   UNL     1      15.324  13.134  -9.675  1.00  0.00    -0.550 OA
ATOM      9  O   UNL     1      13.871  13.362  -7.918  1.00  0.00    -0.550 OA
ENDBRANCH   6   7
ENDBRANCH   5   6
ENDBRANCH   4   5
ENDBRANCH   3   4
ENDBRANCH   2   3
ENDBRANCH   1   2
BRANCH   1  10
ATOM     10  C   UNL     1      20.116  11.859  -4.906  1.00  0.00     0.000 C 
BRANCH  10  11
ATOM     11  C   UNL     1      19.173  11.401  -6.027  1.00  0.00    -0.000 C 
BRANCH  11  12
ATOM     12  C   UNL     1      19.921  10.650  -7.151  1.00  0.00    -0.000 C 
BRANCH  12  13
ATOM     13  C   UNL     1      19.943  11.409  -8.487  1.00  0.00    -0.000 C 
BRANCH  13  14
ATOM     14  C   UNL     1      19.839  12.933  -8.311  1.00  0.00    -0.000 C 
BRANCH  14  15
ATOM     15  C   UNL     1      19.107  13.613  -9.478  1.00  0.00    -0.003 C 
ATOM     16  C   UNL     1      18.566  14.994  -9.111  1.00  0.00     0.004 C 
ENDBRANCH  14  15
ENDBRANCH  13  14
ENDBRANCH  12  13
ENDBRANCH  11  12
ENDBRANCH  10  11
ENDBRANCH   1  10
TORSDOF 12
ENDMDL
MODEL 6
REMARK VINA RESULT:    -4.095      9.024     11.896
REMARK INTER + INTRA:          -7.992
REMARK INTER:                  -6.488
REMARK INTRA:                  -1.505
REMARK UNBOUND:                -1.025
REMARK SMILES CCCCCCCCCCCCCC(=O)[O-]
REMARK SMILES IDX 8 1 9 2 10 3 11 4 12 5 13 6 14 7 15 8 16 9 7 10 6 11 5 12
REMARK SMILES IDX 4 13 3 14 2 15 1 16
REMARK H PARENT
REMARK Flexibility Score: inf
ROOT
ATOM      1  C   UNL     1      17.602  15.100  -6.652  1.00  0.00     0.000 C 
ENDROOT
BRANCH   1   2
ATOM      2  C   UNL     1      18.754  15.066  -7.668  1.00  0.00     0.000 C 
BRANCH   2   3
ATOM      3  C   UNL     1      18.260  15.054  -9.122  1.00  0.00     0.000 C 
BRANCH   3   4
ATOM      4  C   UNL     1      17.634  13.710  -9.524  1.00  0.00     0.000 C 
BRANCH   4   5
ATOM      5  C   UNL     1      16.149  13.875  -9.863  1.00  0.00     0.006 C 
BRANCH   5   6
ATOM      6  C   UNL     1      15.307  12.784  -9.195  1.00  0.00     0.053 C 
BRANCH   6   7
ATOM      7  C   UNL     1      14.739  13.277  -7.901  1.00  0.00     0.041 C 
ATOM      8  O   UNL     1      13.817  14.135  -7.900  1.00  0.00    -0.550 OA
ATOM      9  O   UNL     1      15.196  12.755  -6.698  1.00  0.00    -0.550 OA
ENDBRANCH   6   7
ENDBRANCH   5   6
ENDBRANCH   4   5
ENDBRANCH   3   4
ENDBRANCH   2   3
ENDBRANCH   1   2
BRANCH   1  10
ATOM     10  C   UNL     1      18.128  15.349  -5.233  1.00  0.00     0.000 C 
BRANCH  10  11
ATOM     11  C   UNL     1      18.014  14.081  -4.373  1.00  0.00    -0.000 C 
BRANCH  11  12
ATOM     12  C   UNL     1      19.372  13.365  -4.205  1.00  0.00    -0.000 C 
BRANCH  12  13
ATOM     13  C   UNL     1      19.558  12.170  -5.153  1.00  0.00    -0.000 C 
BRANCH  13  14
ATOM     14  C   UNL     1      18.224  11.604  -5.669  1.00  0.00    -0.000 C 
BRANCH  14  15
ATOM     15  C   UNL     1      18.277  11.238  -7.160  1.00  0.00    -0.003 C 
ATOM     16  C   UNL     1      19.447  10.315  -7.500  1.00  0.00     0.004 C 
ENDBRANCH  14  15
ENDBRANCH  13  14
ENDBRANCH  12  13
ENDBRANCH  11  12
ENDBRANCH  10  11
ENDBRANCH   1  10
TORSDOF 12
ENDMDL
MODEL 7
REMARK VINA RESULT:    -4.092      3.225      7.041
REMARK INTER + INTRA:          -7.987
REMARK INTER:                  -6.793
REMARK INTRA:                  -1.194
REMARK UNBOUND:                -1.025
REMARK SMILES CCCCCCCCCCCCCC(=O)[O-]
REMARK SMILES IDX 8 1 9 2 10 3 11 4 12 5 13 6 14 7 15 8 16 9 7 10 6 11 5 12
REMARK SMILES IDX 4 13 3 14 2 15 1 16
REMARK H PARENT
REMARK Flexibility Score: inf
ROOT
ATOM      1  C   UNL     1      19.093   4.052  -2.143  1.00  0.00     0.000 C 
ENDROOT
BRANCH   1   2
ATOM      2  C   UNL     1      17.650   3.564  -2.350  1.00  0.00     0.000 C 
BRANCH   2   3
ATOM      3  C   UNL     1      17.454   2.848  -3.695  1.00  0.00     0.000 C 
BRANCH   3   4
ATOM      4  C   UNL     1      18.072   3.619  -4.871  1.00  0.00     0.000 C 
BRANCH   4   5
ATOM      5  C   UNL     1      17.298   3.356  -6.168  1.00  0.00     0.006 C 
BRANCH   5   6
ATOM      6  C   UNL     1      15.878   3.923  -6.085  1.00  0.00     0.053 C 
BRANCH   6   7
ATOM      7  C   UNL     1      15.816   5.278  -6.717  1.00  0.00     0.041 C 
ATOM      8  O   UNL     1      16.755   5.676  -7.456  1.00  0.00    -0.550 OA
ATOM      9  O   UNL     1      14.701   6.083  -6.528  1.00  0.00    -0.550 OA
ENDBRANCH   6   7
ENDBRANCH   5   6
ENDBRANCH   4   5
ENDBRANCH   3   4
ENDBRANCH   2   3
ENDBRANCH   1   2
BRANCH   1  10
ATOM     10  C   UNL     1      19.119   5.381  -1.379  1.00  0.00     0.000 C 
BRANCH  10  11
ATOM     11  C   UNL     1      17.905   5.506  -0.447  1.00  0.00    -0.000 C 
BRANCH  11  12
ATOM     12  C   UNL     1      18.313   5.863   0.999  1.00  0.00    -0.000 C 
BRANCH  12  13
ATOM     13  C   UNL     1      17.957   4.774   2.024  1.00  0.00    -0.000 C 
BRANCH  13  14
ATOM     14  C   UNL     1      17.741   3.395   1.380  1.00  0.00    -0.000 C 
BRANCH  14  15
ATOM     15  C   UNL     1      16.370   2.793   1.723  1.00  0.00    -0.003 C 
ATOM     16  C   UNL     1      15.389   2.856   0.552  1.00  0.00     0.004 C 
ENDBRANCH  14  15
ENDBRANCH  13  14
ENDBRANCH  12  13
ENDBRANCH  11  12
ENDBRANCH  10  11
ENDBRANCH   1  10
TORSDOF 12
ENDMDL
MODEL 8
REMARK VINA RESULT:    -4.090      1.842      2.202
REMARK INTER + INTRA:          -7.984
REMARK INTER:                  -6.653
REMARK INTRA:                  -1.332
REMARK UNBOUND:                -1.025
REMARK SMILES CCCCCCCCCCCCCC(=O)[O-]
REMARK SMILES IDX 8 1 9 2 10 3 11 4 12 5 13 6 14 7 15 8 16 9 7 10 6 11 5 12
REMARK SMILES IDX 4 13 3 14 2 15 1 16
REMARK H PARENT
REMARK Flexibility Score: inf
ROOT
ATOM      1  C   UNL     1      17.395   3.067  -3.785  1.00  0.00     0.000 C 
ENDROOT
BRANCH   1   2
ATOM      2  C   UNL     1      18.827   3.494  -4.145  1.00  0.00     0.000 C 
BRANCH   2   3
ATOM      3  C   UNL     1      19.842   3.148  -3.045  1.00  0.00     0.000 C 
BRANCH   3   4
ATOM      4  C   UNL     1      19.210   2.375  -1.878  1.00  0.00     0.000 C 
BRANCH   4   5
ATOM      5  C   UNL     1      19.381   3.137  -0.559  1.00  0.00     0.006 C 
BRANCH   5   6
ATOM      6  C   UNL     1      19.440   4.649  -0.800  1.00  0.00     0.053 C 
BRANCH   6   7
ATOM      7  C   UNL     1      18.194   5.310  -0.300  1.00  0.00     0.041 C 
ATOM      8  O   UNL     1      17.078   5.022  -0.807  1.00  0.00    -0.550 OA
ATOM      9  O   UNL     1      18.260   6.208   0.756  1.00  0.00    -0.550 OA
ENDBRANCH   6   7
ENDBRANCH   5   6
ENDBRANCH   4   5
ENDBRANCH   3   4
ENDBRANCH   2   3
ENDBRANCH   1   2
BRANCH   1  10
ATOM     10  C   UNL     1      16.791   2.185  -4.884  1.00  0.00     0.000 C 
BRANCH  10  11
ATOM     11  C   UNL     1      17.585   2.315  -6.193  1.00  0.00    -0.000 C 
BRANCH  11  12
ATOM     12  C   UNL     1      16.842   3.168  -7.245  1.00  0.00    -0.000 C 
BRANCH  12  13
ATOM     13  C   UNL     1      17.395   4.597  -7.378  1.00  0.00    -0.000 C 
BRANCH  13  14
ATOM     14  C   UNL     1      16.327   5.675  -7.132  1.00  0.00    -0.000 C 
BRANCH  14  15
ATOM     15  C   UNL     1      15.056   5.108  -6.481  1.00  0.00    -0.003 C 
ATOM     16  C   UNL     1      13.822   5.971  -6.745  1.00  0.00     0.004 C 
ENDBRANCH  14  15
ENDBRANCH  13  14
ENDBRANCH  12  13
ENDBRANCH  11  12
ENDBRANCH  10  11
ENDBRANCH   1  10
TORSDOF 12
ENDMDL
MODEL 9
REMARK VINA RESULT:    -4.058      3.199      7.363
REMARK INTER + INTRA:          -7.930
REMARK INTER:                  -6.686
REMARK INTRA:                  -1.244
REMARK UNBOUND:                -1.025
REMARK SMILES CCCCCCCCCCCCCC(=O)[O-]
REMARK SMILES IDX 8 1 9 2 10 3 11 4 12 5 13 6 14 7 15 8 16 9 7 10 6 11 5 12
REMARK SMILES IDX 4 13 3 14 2 15 1 16
REMARK H PARENT
REMARK Flexibility Score: inf
ROOT
ATOM      1  C   UNL     1      17.117   2.783  -0.553  1.00  0.00     0.000 C 
ENDROOT
BRANCH   1   2
ATOM      2  C   UNL     1      17.397   3.944  -1.521  1.00  0.00     0.000 C 
BRANCH   2   3
ATOM      3  C   UNL     1      18.108   3.486  -2.803  1.00  0.00     0.000 C 
BRANCH   3   4
ATOM      4  C   UNL     1      17.741   2.049  -3.203  1.00  0.00     0.000 C 
BRANCH   4   5
ATOM      5  C   UNL     1      17.097   2.013  -4.593  1.00  0.00     0.006 C 
BRANCH   5   6
ATOM      6  C   UNL     1      17.052   3.412  -5.216  1.00  0.00     0.053 C 
BRANCH   6   7
ATOM      7  C   UNL     1      15.860   3.551  -6.110  1.00  0.00     0.041 C 
ATOM      8  O   UNL     1      15.269   2.526  -6.541  1.00  0.00    -0.550 OA
ATOM      9  O   UNL     1      15.374   4.812  -6.429  1.00  0.00    -0.550 OA
ENDBRANCH   6   7
ENDBRANCH   5   6
ENDBRANCH   4   5
ENDBRANCH   3   4
ENDBRANCH   2   3
ENDBRANCH   1   2
BRANCH   1  10
ATOM     10  C   UNL     1      15.822   3.024   0.233  1.00  0.00     0.000 C 
BRANCH  10  11
ATOM     11  C   UNL     1      15.899   2.390   1.630  1.00  0.00    -0.000 C 
BRANCH  11  12
ATOM     12  C   UNL     1      17.324   2.453   2.222  1.00  0.00    -0.000 C 
BRANCH  12  13
ATOM     13  C   UNL     1      17.404   3.234   3.545  1.00  0.00    -0.000 C 
BRANCH  13  14
ATOM     14  C   UNL     1      17.880   4.683   3.355  1.00  0.00    -0.000 C 
BRANCH  14  15
ATOM     15  C   UNL     1      18.690   4.873   2.063  1.00  0.00    -0.003 C 
ATOM     16  C   UNL     1      18.362   6.184   1.349  1.00  0.00     0.004 C 
ENDBRANCH  14  15
ENDBRANCH  13  14
ENDBRANCH  12  13
ENDBRANCH  11  12
ENDBRANCH  10  11
ENDBRANCH   1  10
TORSDOF 12
ENDMDL
