MODEL 1
REMARK VINA RESULT:    -6.348      0.000      0.000
REMARK INTER + INTRA:          -7.898
REMARK INTER:                  -7.647
REMARK INTRA:                  -0.251
REMARK UNBOUND:                -0.251
REMARK SMILES O=c1c(O)c(-c2ccc(O)c(O)c2)oc2cc(O)cc(O)c12
REMARK SMILES IDX 5 1 3 2 2 3 1 4 22 5 20 6 19 7 17 8 16 9 15 10 14 11 6 12
REMARK SMILES IDX 7 13 8 14 9 15 13 16 11 17 10 18 12 20 4 22 21 24 18 26
REMARK H PARENT 10 19 12 21 4 23 21 25 18 27
REMARK Flexibility Score: inf
ROOT
ATOM      1  C   UNL     1     -42.167 -39.547 -20.297  1.00  0.00     0.180 A 
ATOM      2  C   UNL     1     -40.783 -39.639 -20.527  1.00  0.00     0.208 A 
ATOM      3  C   UNL     1     -40.023 -38.460 -20.586  1.00  0.00     0.238 A 
ATOM      4  O   UNL     1     -38.776 -38.552 -20.736  1.00  0.00    -0.285 OA
ATOM      5  C   UNL     1     -40.656 -37.204 -20.431  1.00  0.00     0.111 A 
ATOM      6  C   UNL     1     -39.990 -35.945 -20.512  1.00  0.00     0.134 A 
ATOM      7  C   UNL     1     -40.693 -34.771 -20.213  1.00  0.00     0.093 A 
ATOM      8  C   UNL     1     -42.052 -34.805 -19.900  1.00  0.00     0.123 A 
ATOM      9  C   UNL     1     -42.727 -36.026 -19.876  1.00  0.00     0.094 A 
ATOM     10  C   UNL     1     -42.044 -37.217 -20.134  1.00  0.00     0.146 A 
ATOM     11  O   UNL     1     -42.721 -38.358 -20.091  1.00  0.00    -0.452 OA
ENDROOT
BRANCH   1  12
ATOM     12  C   UNL     1     -43.038 -40.743 -20.247  1.00  0.00     0.025 A 
ATOM     13  C   UNL     1     -43.850 -41.053 -21.350  1.00  0.00     0.016 A 
ATOM     14  C   UNL     1     -44.664 -42.188 -21.332  1.00  0.00     0.051 A 
ATOM     15  C   UNL     1     -44.669 -43.038 -20.223  1.00  0.00     0.157 A 
ATOM     16  C   UNL     1     -43.028 -41.611 -19.141  1.00  0.00     0.062 A 
ATOM     17  C   UNL     1     -43.844 -42.753 -19.122  1.00  0.00     0.158 A 
BRANCH  15  18
ATOM     18  O   UNL     1     -45.494 -44.162 -20.234  1.00  0.00    -0.504 OA
ATOM     19  H   UNL     1     -45.530 -44.811 -19.457  1.00  0.00     0.293 HD
ENDBRANCH  15  18
BRANCH  17  20
ATOM     20  O   UNL     1     -43.833 -43.604 -18.019  1.00  0.00    -0.504 OA
ATOM     21  H   UNL     1     -43.846 -43.245 -17.071  1.00  0.00     0.293 HD
ENDBRANCH  17  20
ENDBRANCH   1  12
BRANCH   2  22
ATOM     22  O   UNL     1     -40.174 -40.891 -20.655  1.00  0.00    -0.502 OA
ATOM     23  H   UNL     1     -39.589 -41.288 -19.929  1.00  0.00     0.293 HD
ENDBRANCH   2  22
BRANCH   6  24
ATOM     24  O   UNL     1     -38.657 -35.791 -20.905  1.00  0.00    -0.507 OA
ATOM     25  H   UNL     1     -38.251 -34.929 -21.235  1.00  0.00     0.293 HD
ENDBRANCH   6  24
BRANCH   8  26
ATOM     26  O   UNL     1     -42.723 -33.616 -19.623  1.00  0.00    -0.508 OA
ATOM     27  H   UNL     1     -43.582 -33.370 -20.101  1.00  0.00     0.293 HD
ENDBRANCH   8  26
TORSDOF 6
ENDMDL
MODEL 2
REMARK VINA RESULT:    -6.131      0.663      1.431
REMARK INTER + INTRA:          -7.637
REMARK INTER:                  -7.373
REMARK INTRA:                  -0.263
REMARK UNBOUND:                -0.251
REMARK SMILES O=c1c(O)c(-c2ccc(O)c(O)c2)oc2cc(O)cc(O)c12
REMARK SMILES IDX 5 1 3 2 2 3 1 4 22 5 20 6 19 7 17 8 16 9 15 10 14 11 6 12
REMARK SMILES IDX 7 13 8 14 9 15 13 16 11 17 10 18 12 20 4 22 21 24 18 26
REMARK H PARENT 10 19 12 21 4 23 21 25 18 27
REMARK Flexibility Score: inf
ROOT
ATOM      1  C   UNL     1     -42.084 -39.675 -19.913  1.00  0.00     0.180 A 
ATOM      2  C   UNL     1     -40.740 -39.745 -20.321  1.00  0.00     0.208 A 
ATOM      3  C   UNL     1     -40.040 -38.553 -20.566  1.00  0.00     0.238 A 
ATOM      4  O   UNL     1     -38.823 -38.620 -20.877  1.00  0.00    -0.285 OA
ATOM      5  C   UNL     1     -40.696 -37.307 -20.417  1.00  0.00     0.111 A 
ATOM      6  C   UNL     1     -40.096 -36.039 -20.678  1.00  0.00     0.134 A 
ATOM      7  C   UNL     1     -40.797 -34.866 -20.372  1.00  0.00     0.093 A 
ATOM      8  C   UNL     1     -42.100 -34.915 -19.876  1.00  0.00     0.123 A 
ATOM      9  C   UNL     1     -42.719 -36.149 -19.673  1.00  0.00     0.094 A 
ATOM     10  C   UNL     1     -42.030 -37.337 -19.936  1.00  0.00     0.146 A 
ATOM     11  O   UNL     1     -42.652 -38.490 -19.720  1.00  0.00    -0.452 OA
ENDROOT
BRANCH   1  12
ATOM     12  C   UNL     1     -42.894 -40.888 -19.660  1.00  0.00     0.025 A 
ATOM     13  C   UNL     1     -42.718 -41.599 -18.463  1.00  0.00     0.016 A 
ATOM     14  C   UNL     1     -43.487 -42.735 -18.195  1.00  0.00     0.051 A 
ATOM     15  C   UNL     1     -44.452 -43.168 -19.108  1.00  0.00     0.157 A 
ATOM     16  C   UNL     1     -43.881 -41.313 -20.568  1.00  0.00     0.062 A 
ATOM     17  C   UNL     1     -44.655 -42.452 -20.300  1.00  0.00     0.158 A 
BRANCH  15  18
ATOM     18  O   UNL     1     -45.202 -44.305 -18.813  1.00  0.00    -0.504 OA
ATOM     19  H   UNL     1     -45.805 -44.357 -18.001  1.00  0.00     0.293 HD
ENDBRANCH  15  18
BRANCH  17  20
ATOM     20  O   UNL     1     -45.626 -42.869 -21.209  1.00  0.00    -0.504 OA
ATOM     21  H   UNL     1     -45.486 -43.682 -21.798  1.00  0.00     0.293 HD
ENDBRANCH  17  20
ENDBRANCH   1  12
BRANCH   2  22
ATOM     22  O   UNL     1     -40.106 -40.984 -20.440  1.00  0.00    -0.502 OA
ATOM     23  H   UNL     1     -40.579 -41.806 -20.795  1.00  0.00     0.293 HD
ENDBRANCH   2  22
BRANCH   6  24
ATOM     24  O   UNL     1     -38.833 -35.878 -21.258  1.00  0.00    -0.507 OA
ATOM     25  H   UNL     1     -38.236 -35.077 -21.120  1.00  0.00     0.293 HD
ENDBRANCH   6  24
BRANCH   8  26
ATOM     26  O   UNL     1     -42.774 -33.728 -19.597  1.00  0.00    -0.508 OA
ATOM     27  H   UNL     1     -42.355 -32.825 -19.784  1.00  0.00     0.293 HD
ENDBRANCH   8  26
TORSDOF 6
ENDMDL
MODEL 3
REMARK VINA RESULT:    -5.887      3.672      7.741
REMARK INTER + INTRA:          -7.343
REMARK INTER:                  -7.084
REMARK INTRA:                  -0.259
REMARK UNBOUND:                -0.251
REMARK SMILES O=c1c(O)c(-c2ccc(O)c(O)c2)oc2cc(O)cc(O)c12
REMARK SMILES IDX 5 1 3 2 2 3 1 4 22 5 20 6 19 7 17 8 16 9 15 10 14 11 6 12
REMARK SMILES IDX 7 13 8 14 9 15 13 16 11 17 10 18 12 20 4 22 21 24 18 26
REMARK H PARENT 10 19 12 21 4 23 21 25 18 27
REMARK Flexibility Score: inf
ROOT
ATOM      1  C   UNL     1     -45.066 -37.542 -19.994  1.00  0.00     0.180 A 
ATOM      2  C   UNL     1     -45.953 -37.538 -21.085  1.00  0.00     0.208 A 
ATOM      3  C   UNL     1     -47.132 -38.295 -21.007  1.00  0.00     0.238 A 
ATOM      4  O   UNL     1     -47.948 -38.243 -21.964  1.00  0.00    -0.285 OA
ATOM      5  C   UNL     1     -47.404 -39.059 -19.847  1.00  0.00     0.111 A 
ATOM      6  C   UNL     1     -48.548 -39.894 -19.676  1.00  0.00     0.134 A 
ATOM      7  C   UNL     1     -48.781 -40.501 -18.436  1.00  0.00     0.093 A 
ATOM      8  C   UNL     1     -47.878 -40.357 -17.382  1.00  0.00     0.123 A 
ATOM      9  C   UNL     1     -46.725 -39.592 -17.558  1.00  0.00     0.094 A 
ATOM     10  C   UNL     1     -46.484 -38.944 -18.772  1.00  0.00     0.146 A 
ATOM     11  O   UNL     1     -45.380 -38.217 -18.894  1.00  0.00    -0.452 OA
ENDROOT
BRANCH   1  12
ATOM     12  C   UNL     1     -43.791 -36.789 -20.012  1.00  0.00     0.025 A 
ATOM     13  C   UNL     1     -42.588 -37.475 -20.243  1.00  0.00     0.016 A 
ATOM     14  C   UNL     1     -41.376 -36.781 -20.285  1.00  0.00     0.051 A 
ATOM     15  C   UNL     1     -41.347 -35.395 -20.114  1.00  0.00     0.157 A 
ATOM     16  C   UNL     1     -43.763 -35.391 -19.862  1.00  0.00     0.062 A 
ATOM     17  C   UNL     1     -42.547 -34.693 -19.905  1.00  0.00     0.158 A 
BRANCH  15  18
ATOM     18  O   UNL     1     -40.122 -34.731 -20.158  1.00  0.00    -0.504 OA
ATOM     19  H   UNL     1     -39.873 -34.014 -19.487  1.00  0.00     0.293 HD
ENDBRANCH  15  18
BRANCH  17  20
ATOM     20  O   UNL     1     -42.528 -33.308 -19.748  1.00  0.00    -0.504 OA
ATOM     21  H   UNL     1     -43.152 -32.839 -19.103  1.00  0.00     0.293 HD
ENDBRANCH  17  20
ENDBRANCH   1  12
BRANCH   2  22
ATOM     22  O   UNL     1     -45.676 -36.759 -22.212  1.00  0.00    -0.502 OA
ATOM     23  H   UNL     1     -45.192 -37.127 -23.023  1.00  0.00     0.293 HD
ENDBRANCH   2  22
BRANCH   6  24
ATOM     24  O   UNL     1     -49.466 -40.178 -20.692  1.00  0.00    -0.507 OA
ATOM     25  H   UNL     1     -49.840 -41.093 -20.889  1.00  0.00     0.293 HD
ENDBRANCH   6  24
BRANCH   8  26
ATOM     26  O   UNL     1     -48.133 -40.990 -16.167  1.00  0.00    -0.508 OA
ATOM     27  H   UNL     1     -48.186 -41.998 -16.096  1.00  0.00     0.293 HD
ENDBRANCH   8  26
TORSDOF 6
ENDMDL
MODEL 4
REMARK VINA RESULT:    -5.845      1.409      3.131
REMARK INTER + INTRA:          -7.292
REMARK INTER:                  -6.959
REMARK INTRA:                  -0.333
REMARK UNBOUND:                -0.251
REMARK SMILES O=c1c(O)c(-c2ccc(O)c(O)c2)oc2cc(O)cc(O)c12
REMARK SMILES IDX 5 1 3 2 2 3 1 4 22 5 20 6 19 7 17 8 16 9 15 10 14 11 6 12
REMARK SMILES IDX 7 13 8 14 9 15 13 16 11 17 10 18 12 20 4 22 21 24 18 26
REMARK H PARENT 10 19 12 21 4 23 21 25 18 27
REMARK Flexibility Score: inf
ROOT
ATOM      1  C   UNL     1     -43.380 -38.819 -19.381  1.00  0.00     0.180 A 
ATOM      2  C   UNL     1     -44.278 -37.744 -19.266  1.00  0.00     0.208 A 
ATOM      3  C   UNL     1     -43.805 -36.437 -19.462  1.00  0.00     0.238 A 
ATOM      4  O   UNL     1     -44.625 -35.484 -19.413  1.00  0.00    -0.285 OA
ATOM      5  C   UNL     1     -42.437 -36.220 -19.753  1.00  0.00     0.111 A 
ATOM      6  C   UNL     1     -41.840 -34.935 -19.931  1.00  0.00     0.134 A 
ATOM      7  C   UNL     1     -40.506 -34.845 -20.345  1.00  0.00     0.093 A 
ATOM      8  C   UNL     1     -39.728 -35.988 -20.524  1.00  0.00     0.123 A 
ATOM      9  C   UNL     1     -40.284 -37.248 -20.296  1.00  0.00     0.094 A 
ATOM     10  C   UNL     1     -41.623 -37.371 -19.917  1.00  0.00     0.146 A 
ATOM     11  O   UNL     1     -42.117 -38.588 -19.720  1.00  0.00    -0.452 OA
ENDROOT
BRANCH   1  12
ATOM     12  C   UNL     1     -43.799 -40.223 -19.164  1.00  0.00     0.025 A 
ATOM     13  C   UNL     1     -44.163 -41.013 -20.266  1.00  0.00     0.016 A 
ATOM     14  C   UNL     1     -44.541 -42.346 -20.086  1.00  0.00     0.051 A 
ATOM     15  C   UNL     1     -44.548 -42.914 -18.809  1.00  0.00     0.157 A 
ATOM     16  C   UNL     1     -43.785 -40.802 -17.883  1.00  0.00     0.062 A 
ATOM     17  C   UNL     1     -44.163 -42.141 -17.700  1.00  0.00     0.158 A 
BRANCH  15  18
ATOM     18  O   UNL     1     -44.932 -44.246 -18.661  1.00  0.00    -0.504 OA
ATOM     19  H   UNL     1     -45.861 -44.568 -18.905  1.00  0.00     0.293 HD
ENDBRANCH  15  18
BRANCH  17  20
ATOM     20  O   UNL     1     -44.153 -42.704 -16.425  1.00  0.00    -0.504 OA
ATOM     21  H   UNL     1     -44.226 -42.133 -15.592  1.00  0.00     0.293 HD
ENDBRANCH  17  20
ENDBRANCH   1  12
BRANCH   2  22
ATOM     22  O   UNL     1     -45.629 -37.983 -19.000  1.00  0.00    -0.502 OA
ATOM     23  H   UNL     1     -46.369 -37.405 -19.380  1.00  0.00     0.293 HD
ENDBRANCH   2  22
BRANCH   6  24
ATOM     24  O   UNL     1     -42.502 -33.728 -19.689  1.00  0.00    -0.507 OA
ATOM     25  H   UNL     1     -42.732 -33.371 -18.774  1.00  0.00     0.293 HD
ENDBRANCH   6  24
BRANCH   8  26
ATOM     26  O   UNL     1     -38.399 -35.860 -20.921  1.00  0.00    -0.508 OA
ATOM     27  H   UNL     1     -37.908 -36.618 -21.382  1.00  0.00     0.293 HD
ENDBRANCH   8  26
TORSDOF 6
ENDMDL
MODEL 5
REMARK VINA RESULT:    -5.816      3.070      5.276
REMARK INTER + INTRA:          -7.257
REMARK INTER:                  -7.194
REMARK INTRA:                  -0.063
REMARK UNBOUND:                -0.251
REMARK SMILES O=c1c(O)c(-c2ccc(O)c(O)c2)oc2cc(O)cc(O)c12
REMARK SMILES IDX 5 1 3 2 2 3 1 4 22 5 20 6 19 7 17 8 16 9 15 10 14 11 6 12
REMARK SMILES IDX 7 13 8 14 9 15 13 16 11 17 10 18 12 20 4 22 21 24 18 26
REMARK H PARENT 10 19 12 21 4 23 21 25 18 27
REMARK Flexibility Score: inf
ROOT
ATOM      1  C   UNL     1     -43.729 -36.963 -19.823  1.00  0.00     0.180 A 
ATOM      2  C   UNL     1     -42.916 -35.825 -19.683  1.00  0.00     0.208 A 
ATOM      3  C   UNL     1     -41.543 -35.932 -19.956  1.00  0.00     0.238 A 
ATOM      4  O   UNL     1     -40.830 -34.897 -19.882  1.00  0.00    -0.285 OA
ATOM      5  C   UNL     1     -40.997 -37.178 -20.349  1.00  0.00     0.111 A 
ATOM      6  C   UNL     1     -39.614 -37.409 -20.611  1.00  0.00     0.134 A 
ATOM      7  C   UNL     1     -39.206 -38.649 -21.120  1.00  0.00     0.093 A 
ATOM      8  C   UNL     1     -40.120 -39.684 -21.314  1.00  0.00     0.123 A 
ATOM      9  C   UNL     1     -41.466 -39.487 -21.004  1.00  0.00     0.094 A 
ATOM     10  C   UNL     1     -41.909 -38.250 -20.529  1.00  0.00     0.146 A 
ATOM     11  O   UNL     1     -43.199 -38.101 -20.256  1.00  0.00    -0.452 OA
ENDROOT
BRANCH   1  12
ATOM     12  C   UNL     1     -45.181 -36.935 -19.529  1.00  0.00     0.025 A 
ATOM     13  C   UNL     1     -45.621 -36.510 -18.266  1.00  0.00     0.016 A 
ATOM     14  C   UNL     1     -46.987 -36.455 -17.975  1.00  0.00     0.051 A 
ATOM     15  C   UNL     1     -47.931 -36.809 -18.942  1.00  0.00     0.157 A 
ATOM     16  C   UNL     1     -46.133 -37.269 -20.509  1.00  0.00     0.062 A 
ATOM     17  C   UNL     1     -47.504 -37.214 -20.218  1.00  0.00     0.158 A 
BRANCH  15  18
ATOM     18  O   UNL     1     -49.286 -36.747 -18.621  1.00  0.00    -0.504 OA
ATOM     19  H   UNL     1     -49.815 -37.569 -18.356  1.00  0.00     0.293 HD
ENDBRANCH  15  18
BRANCH  17  20
ATOM     20  O   UNL     1     -48.441 -37.554 -21.193  1.00  0.00    -0.504 OA
ATOM     21  H   UNL     1     -48.165 -37.989 -22.066  1.00  0.00     0.293 HD
ENDBRANCH  17  20
ENDBRANCH   1  12
BRANCH   2  22
ATOM     22  O   UNL     1     -43.479 -34.600 -19.315  1.00  0.00    -0.502 OA
ATOM     23  H   UNL     1     -44.316 -34.232 -19.753  1.00  0.00     0.293 HD
ENDBRANCH   2  22
BRANCH   6  24
ATOM     24  O   UNL     1     -38.605 -36.473 -20.366  1.00  0.00    -0.507 OA
ATOM     25  H   UNL     1     -37.748 -36.401 -20.892  1.00  0.00     0.293 HD
ENDBRANCH   6  24
BRANCH   8  26
ATOM     26  O   UNL     1     -39.676 -40.909 -21.806  1.00  0.00    -0.508 OA
ATOM     27  H   UNL     1     -39.636 -41.733 -21.218  1.00  0.00     0.293 HD
ENDBRANCH   8  26
TORSDOF 6
ENDMDL
MODEL 6
REMARK VINA RESULT:    -5.781      2.359      3.763
REMARK INTER + INTRA:          -7.215
REMARK INTER:                  -6.880
REMARK INTRA:                  -0.334
REMARK UNBOUND:                -0.251
REMARK SMILES O=c1c(O)c(-c2ccc(O)c(O)c2)oc2cc(O)cc(O)c12
REMARK SMILES IDX 5 1 3 2 2 3 1 4 22 5 20 6 19 7 17 8 16 9 15 10 14 11 6 12
REMARK SMILES IDX 7 13 8 14 9 15 13 16 11 17 10 18 12 20 4 22 21 24 18 26
REMARK H PARENT 10 19 12 21 4 23 21 25 18 27
REMARK Flexibility Score: inf
ROOT
ATOM      1  C   UNL     1     -43.983 -38.024 -19.334  1.00  0.00     0.180 A 
ATOM      2  C   UNL     1     -44.276 -36.651 -19.265  1.00  0.00     0.208 A 
ATOM      3  C   UNL     1     -43.265 -35.723 -19.558  1.00  0.00     0.238 A 
ATOM      4  O   UNL     1     -43.548 -34.497 -19.549  1.00  0.00    -0.285 OA
ATOM      5  C   UNL     1     -41.968 -36.178 -19.900  1.00  0.00     0.111 A 
ATOM      6  C   UNL     1     -40.858 -35.326 -20.176  1.00  0.00     0.134 A 
ATOM      7  C   UNL     1     -39.656 -35.884 -20.631  1.00  0.00     0.093 A 
ATOM      8  C   UNL     1     -39.505 -37.265 -20.757  1.00  0.00     0.123 A 
ATOM      9  C   UNL     1     -40.566 -38.111 -20.432  1.00  0.00     0.094 A 
ATOM     10  C   UNL     1     -41.788 -37.581 -20.010  1.00  0.00     0.146 A 
ATOM     11  O   UNL     1     -42.776 -38.420 -19.721  1.00  0.00    -0.452 OA
ENDROOT
BRANCH   1  12
ATOM     12  C   UNL     1     -44.990 -39.062 -19.015  1.00  0.00     0.025 A 
ATOM     13  C   UNL     1     -45.749 -39.629 -20.051  1.00  0.00     0.016 A 
ATOM     14  C   UNL     1     -46.690 -40.625 -19.775  1.00  0.00     0.051 A 
ATOM     15  C   UNL     1     -46.876 -41.079 -18.466  1.00  0.00     0.157 A 
ATOM     16  C   UNL     1     -45.163 -39.535 -17.702  1.00  0.00     0.062 A 
ATOM     17  C   UNL     1     -46.107 -40.536 -17.423  1.00  0.00     0.158 A 
BRANCH  15  18
ATOM     18  O   UNL     1     -47.824 -42.072 -18.222  1.00  0.00    -0.504 OA
ATOM     19  H   UNL     1     -48.442 -42.417 -18.947  1.00  0.00     0.293 HD
ENDBRANCH  15  18
BRANCH  17  20
ATOM     20  O   UNL     1     -46.277 -40.995 -16.118  1.00  0.00    -0.504 OA
ATOM     21  H   UNL     1     -46.221 -41.981 -15.891  1.00  0.00     0.293 HD
ENDBRANCH  17  20
ENDBRANCH   1  12
BRANCH   2  22
ATOM     22  O   UNL     1     -45.569 -36.224 -18.948  1.00  0.00    -0.502 OA
ATOM     23  H   UNL     1     -45.765 -35.627 -18.153  1.00  0.00     0.293 HD
ENDBRANCH   2  22
BRANCH   6  24
ATOM     24  O   UNL     1     -40.873 -33.940 -19.996  1.00  0.00    -0.507 OA
ATOM     25  H   UNL     1     -40.053 -33.354 -19.968  1.00  0.00     0.293 HD
ENDBRANCH   6  24
BRANCH   8  26
ATOM     26  O   UNL     1     -38.290 -37.786 -21.196  1.00  0.00    -0.508 OA
ATOM     27  H   UNL     1     -37.428 -37.260 -21.115  1.00  0.00     0.293 HD
ENDBRANCH   8  26
TORSDOF 6
ENDMDL
MODEL 7
REMARK VINA RESULT:    -5.743      4.928      6.649
REMARK INTER + INTRA:          -7.169
REMARK INTER:                  -6.839
REMARK INTRA:                  -0.331
REMARK UNBOUND:                -0.251
REMARK SMILES O=c1c(O)c(-c2ccc(O)c(O)c2)oc2cc(O)cc(O)c12
REMARK SMILES IDX 5 1 3 2 2 3 1 4 22 5 20 6 19 7 17 8 16 9 15 10 14 11 6 12
REMARK SMILES IDX 7 13 8 14 9 15 13 16 11 17 10 18 12 20 4 22 21 24 18 26
REMARK H PARENT 10 19 12 21 4 23 21 25 18 27
REMARK Flexibility Score: inf
ROOT
ATOM      1  C   UNL     1     -46.782 -39.126 -18.742  1.00  0.00     0.180 A 
ATOM      2  C   UNL     1     -48.026 -39.477 -19.294  1.00  0.00     0.208 A 
ATOM      3  C   UNL     1     -49.055 -38.522 -19.315  1.00  0.00     0.238 A 
ATOM      4  O   UNL     1     -50.148 -38.824 -19.860  1.00  0.00    -0.285 OA
ATOM      5  C   UNL     1     -48.833 -37.234 -18.770  1.00  0.00     0.111 A 
ATOM      6  C   UNL     1     -49.816 -36.203 -18.702  1.00  0.00     0.134 A 
ATOM      7  C   UNL     1     -49.448 -34.925 -18.262  1.00  0.00     0.093 A 
ATOM      8  C   UNL     1     -48.150 -34.660 -17.826  1.00  0.00     0.123 A 
ATOM      9  C   UNL     1     -47.195 -35.678 -17.831  1.00  0.00     0.094 A 
ATOM     10  C   UNL     1     -47.524 -36.953 -18.300  1.00  0.00     0.146 A 
ATOM     11  O   UNL     1     -46.584 -37.890 -18.298  1.00  0.00    -0.452 OA
ENDROOT
BRANCH   1  12
ATOM     12  C   UNL     1     -45.657 -40.086 -18.661  1.00  0.00     0.025 A 
ATOM     13  C   UNL     1     -44.709 -40.128 -19.696  1.00  0.00     0.016 A 
ATOM     14  C   UNL     1     -43.629 -41.011 -19.629  1.00  0.00     0.051 A 
ATOM     15  C   UNL     1     -43.470 -41.854 -18.526  1.00  0.00     0.157 A 
ATOM     16  C   UNL     1     -45.484 -40.919 -17.541  1.00  0.00     0.062 A 
ATOM     17  C   UNL     1     -44.399 -41.806 -17.472  1.00  0.00     0.158 A 
BRANCH  15  18
ATOM     18  O   UNL     1     -42.383 -42.726 -18.489  1.00  0.00    -0.504 OA
ATOM     19  H   UNL     1     -42.442 -43.642 -18.060  1.00  0.00     0.293 HD
ENDBRANCH  15  18
BRANCH  17  20
ATOM     20  O   UNL     1     -44.239 -42.633 -16.362  1.00  0.00    -0.504 OA
ATOM     21  H   UNL     1     -44.914 -43.354 -16.135  1.00  0.00     0.293 HD
ENDBRANCH  17  20
ENDBRANCH   1  12
BRANCH   2  22
ATOM     22  O   UNL     1     -48.217 -40.746 -19.847  1.00  0.00    -0.502 OA
ATOM     23  H   UNL     1     -48.028 -40.949 -20.821  1.00  0.00     0.293 HD
ENDBRANCH   2  22
BRANCH   6  24
ATOM     24  O   UNL     1     -51.164 -36.386 -19.028  1.00  0.00    -0.507 OA
ATOM     25  H   UNL     1     -51.561 -37.250 -19.362  1.00  0.00     0.293 HD
ENDBRANCH   6  24
BRANCH   8  26
ATOM     26  O   UNL     1     -47.823 -33.382 -17.378  1.00  0.00    -0.508 OA
ATOM     27  H   UNL     1     -46.870 -33.041 -17.402  1.00  0.00     0.293 HD
ENDBRANCH   8  26
TORSDOF 6
ENDMDL
MODEL 8
REMARK VINA RESULT:    -5.742      1.894      7.124
REMARK INTER + INTRA:          -7.168
REMARK INTER:                  -6.848
REMARK INTRA:                  -0.320
REMARK UNBOUND:                -0.251
REMARK SMILES O=c1c(O)c(-c2ccc(O)c(O)c2)oc2cc(O)cc(O)c12
REMARK SMILES IDX 5 1 3 2 2 3 1 4 22 5 20 6 19 7 17 8 16 9 15 10 14 11 6 12
REMARK SMILES IDX 7 13 8 14 9 15 13 16 11 17 10 18 12 20 4 22 21 24 18 26
REMARK H PARENT 10 19 12 21 4 23 21 25 18 27
REMARK Flexibility Score: inf
ROOT
ATOM      1  C   UNL     1     -43.554 -38.786 -19.639  1.00  0.00     0.180 A 
ATOM      2  C   UNL     1     -44.206 -39.470 -20.680  1.00  0.00     0.208 A 
ATOM      3  C   UNL     1     -44.470 -40.840 -20.533  1.00  0.00     0.238 A 
ATOM      4  O   UNL     1     -45.104 -41.434 -21.444  1.00  0.00    -0.285 OA
ATOM      5  C   UNL     1     -44.065 -41.514 -19.356  1.00  0.00     0.111 A 
ATOM      6  C   UNL     1     -44.245 -42.910 -19.119  1.00  0.00     0.134 A 
ATOM      7  C   UNL     1     -43.923 -43.444 -17.865  1.00  0.00     0.093 A 
ATOM      8  C   UNL     1     -43.367 -42.649 -16.864  1.00  0.00     0.123 A 
ATOM      9  C   UNL     1     -43.131 -41.295 -17.106  1.00  0.00     0.094 A 
ATOM     10  C   UNL     1     -43.476 -40.726 -18.335  1.00  0.00     0.146 A 
ATOM     11  O   UNL     1     -43.244 -39.431 -18.521  1.00  0.00    -0.452 OA
ENDROOT
BRANCH   1  12
ATOM     12  C   UNL     1     -43.218 -37.346 -19.731  1.00  0.00     0.025 A 
ATOM     13  C   UNL     1     -44.162 -36.390 -19.322  1.00  0.00     0.016 A 
ATOM     14  C   UNL     1     -43.858 -35.028 -19.380  1.00  0.00     0.051 A 
ATOM     15  C   UNL     1     -42.606 -34.600 -19.832  1.00  0.00     0.157 A 
ATOM     16  C   UNL     1     -41.952 -36.915 -20.165  1.00  0.00     0.062 A 
ATOM     17  C   UNL     1     -41.645 -35.547 -20.223  1.00  0.00     0.158 A 
BRANCH  15  18
ATOM     18  O   UNL     1     -42.334 -33.234 -19.881  1.00  0.00    -0.504 OA
ATOM     19  H   UNL     1     -43.061 -32.536 -19.777  1.00  0.00     0.293 HD
ENDBRANCH  15  18
BRANCH  17  20
ATOM     20  O   UNL     1     -40.390 -35.129 -20.661  1.00  0.00    -0.504 OA
ATOM     21  H   UNL     1     -39.641 -35.789 -20.834  1.00  0.00     0.293 HD
ENDBRANCH  17  20
ENDBRANCH   1  12
BRANCH   2  22
ATOM     22  O   UNL     1     -44.618 -38.780 -21.824  1.00  0.00    -0.502 OA
ATOM     23  H   UNL     1     -44.089 -38.795 -22.688  1.00  0.00     0.293 HD
ENDBRANCH   2  22
BRANCH   6  24
ATOM     24  O   UNL     1     -44.708 -43.812 -20.082  1.00  0.00    -0.507 OA
ATOM     25  H   UNL     1     -44.581 -44.811 -20.041  1.00  0.00     0.293 HD
ENDBRANCH   6  24
BRANCH   8  26
ATOM     26  O   UNL     1     -43.044 -43.217 -15.634  1.00  0.00    -0.508 OA
ATOM     27  H   UNL     1     -42.810 -42.645 -14.832  1.00  0.00     0.293 HD
ENDBRANCH   8  26
TORSDOF 6
ENDMDL
MODEL 9
REMARK VINA RESULT:    -5.701      3.558      6.958
REMARK INTER + INTRA:          -7.119
REMARK INTER:                  -6.811
REMARK INTRA:                  -0.308
REMARK UNBOUND:                -0.251
REMARK SMILES O=c1c(O)c(-c2ccc(O)c(O)c2)oc2cc(O)cc(O)c12
REMARK SMILES IDX 5 1 3 2 2 3 1 4 22 5 20 6 19 7 17 8 16 9 15 10 14 11 6 12
REMARK SMILES IDX 7 13 8 14 9 15 13 16 11 17 10 18 12 20 4 22 21 24 18 26
REMARK H PARENT 10 19 12 21 4 23 21 25 18 27
REMARK Flexibility Score: inf
ROOT
ATOM      1  C   UNL     1     -43.637 -36.923 -20.687  1.00  0.00     0.180 A 
ATOM      2  C   UNL     1     -44.509 -37.064 -19.593  1.00  0.00     0.208 A 
ATOM      3  C   UNL     1     -45.867 -37.327 -19.835  1.00  0.00     0.238 A 
ATOM      4  O   UNL     1     -46.631 -37.507 -18.851  1.00  0.00    -0.285 OA
ATOM      5  C   UNL     1     -46.339 -37.430 -21.165  1.00  0.00     0.111 A 
ATOM      6  C   UNL     1     -47.702 -37.654 -21.526  1.00  0.00     0.134 A 
ATOM      7  C   UNL     1     -48.034 -37.868 -22.870  1.00  0.00     0.093 A 
ATOM      8  C   UNL     1     -47.065 -37.802 -23.871  1.00  0.00     0.123 A 
ATOM      9  C   UNL     1     -45.739 -37.524 -23.535  1.00  0.00     0.094 A 
ATOM     10  C   UNL     1     -45.372 -37.342 -22.199  1.00  0.00     0.146 A 
ATOM     11  O   UNL     1     -44.098 -37.089 -21.922  1.00  0.00    -0.452 OA
ENDROOT
BRANCH   1  12
ATOM     12  C   UNL     1     -42.198 -36.620 -20.513  1.00  0.00     0.025 A 
ATOM     13  C   UNL     1     -41.793 -35.294 -20.294  1.00  0.00     0.016 A 
ATOM     14  C   UNL     1     -40.443 -34.989 -20.106  1.00  0.00     0.051 A 
ATOM     15  C   UNL     1     -39.479 -36.002 -20.120  1.00  0.00     0.157 A 
ATOM     16  C   UNL     1     -41.230 -37.641 -20.505  1.00  0.00     0.062 A 
ATOM     17  C   UNL     1     -39.874 -37.336 -20.316  1.00  0.00     0.158 A 
BRANCH  15  18
ATOM     18  O   UNL     1     -38.140 -35.666 -19.932  1.00  0.00    -0.504 OA
ATOM     19  H   UNL     1     -37.749 -35.503 -19.012  1.00  0.00     0.293 HD
ENDBRANCH  15  18
BRANCH  17  20
ATOM     20  O   UNL     1     -38.920 -38.353 -20.316  1.00  0.00    -0.504 OA
ATOM     21  H   UNL     1     -37.960 -38.179 -20.044  1.00  0.00     0.293 HD
ENDBRANCH  17  20
ENDBRANCH   1  12
BRANCH   2  22
ATOM     22  O   UNL     1     -44.017 -36.981 -18.288  1.00  0.00    -0.502 OA
ATOM     23  H   UNL     1     -43.263 -36.355 -18.029  1.00  0.00     0.293 HD
ENDBRANCH   2  22
BRANCH   6  24
ATOM     24  O   UNL     1     -48.761 -37.649 -20.614  1.00  0.00    -0.507 OA
ATOM     25  H   UNL     1     -48.802 -38.210 -19.777  1.00  0.00     0.293 HD
ENDBRANCH   6  24
BRANCH   8  26
ATOM     26  O   UNL     1     -47.434 -38.004 -25.199  1.00  0.00    -0.508 OA
ATOM     27  H   UNL     1     -48.403 -38.122 -25.467  1.00  0.00     0.293 HD
ENDBRANCH   8  26
TORSDOF 6
ENDMDL
