MODEL 1
REMARK VINA RESULT:    -6.239      0.000      0.000
REMARK INTER + INTRA:         -12.288
REMARK INTER:                 -11.346
REMARK INTRA:                  -0.942
REMARK UNBOUND:                -0.942
REMARK SMILES CCCCCCCCCCCCCCCC(=O)[O-]
REMARK SMILES IDX 9 1 10 2 11 3 12 4 13 5 14 6 15 7 16 8 17 9 18 10 8 11 7 12
REMARK SMILES IDX 6 13 5 14 4 15 3 16 2 17 1 18
REMARK H PARENT
REMARK Flexibility Score: inf
ROOT
ATOM      1  C   UNL     1      93.179  -8.582  -3.299  1.00  0.00     0.000 C 
ENDROOT
BRANCH   1   2
ATOM      2  C   UNL     1      94.226  -7.955  -4.231  1.00  0.00     0.000 C 
BRANCH   2   3
ATOM      3  C   UNL     1      93.755  -7.892  -5.693  1.00  0.00     0.000 C 
BRANCH   3   4
ATOM      4  C   UNL     1      94.705  -7.075  -6.585  1.00  0.00     0.000 C 
BRANCH   4   5
ATOM      5  C   UNL     1      95.944  -6.573  -5.827  1.00  0.00     0.000 C 
BRANCH   5   6
ATOM      6  C   UNL     1      96.526  -5.285  -6.434  1.00  0.00     0.006 C 
BRANCH   6   7
ATOM      7  C   UNL     1      96.917  -4.264  -5.359  1.00  0.00     0.053 C 
BRANCH   7   8
ATOM      8  C   UNL     1      96.695  -2.856  -5.821  1.00  0.00     0.041 C 
ATOM      9  O   UNL     1      95.831  -2.605  -6.700  1.00  0.00    -0.550 OA
ATOM     10  O   UNL     1      97.465  -1.824  -5.299  1.00  0.00    -0.550 OA
ENDBRANCH   7   8
ENDBRANCH   6   7
ENDBRANCH   5   6
ENDBRANCH   4   5
ENDBRANCH   3   4
ENDBRANCH   2   3
ENDBRANCH   1   2
BRANCH   1  11
ATOM     11  C   UNL     1      92.842 -10.015  -3.738  1.00  0.00     0.000 C 
BRANCH  11  12
ATOM     12  C   UNL     1      91.468 -10.123  -4.422  1.00  0.00    -0.000 C 
BRANCH  12  13
ATOM     13  C   UNL     1      90.343  -9.295  -3.766  1.00  0.00    -0.000 C 
BRANCH  13  14
ATOM     14  C   UNL     1      89.283  -8.745  -4.737  1.00  0.00    -0.000 C 
BRANCH  14  15
ATOM     15  C   UNL     1      89.815  -7.599  -5.615  1.00  0.00    -0.000 C 
BRANCH  15  16
ATOM     16  C   UNL     1      88.687  -6.772  -6.252  1.00  0.00    -0.000 C 
BRANCH  16  17
ATOM     17  C   UNL     1      88.827  -5.268  -5.975  1.00  0.00    -0.003 C 
ATOM     18  C   UNL     1      88.244  -4.903  -4.612  1.00  0.00     0.004 C 
ENDBRANCH  16  17
ENDBRANCH  15  16
ENDBRANCH  14  15
ENDBRANCH  13  14
ENDBRANCH  12  13
ENDBRANCH  11  12
ENDBRANCH   1  11
TORSDOF 14
ENDMDL
MODEL 2
REMARK VINA RESULT:    -6.235     12.660     13.942
REMARK INTER + INTRA:         -12.279
REMARK INTER:                 -10.495
REMARK INTRA:                  -1.784
REMARK UNBOUND:                -0.942
REMARK SMILES CCCCCCCCCCCCCCCC(=O)[O-]
REMARK SMILES IDX 9 1 10 2 11 3 12 4 13 5 14 6 15 7 16 8 17 9 18 10 8 11 7 12
REMARK SMILES IDX 6 13 5 14 4 15 3 16 2 17 1 18
REMARK H PARENT
REMARK Flexibility Score: inf
ROOT
ATOM      1  C   UNL     1      93.164  -3.851   7.806  1.00  0.00     0.000 C 
ENDROOT
BRANCH   1   2
ATOM      2  C   UNL     1      93.211  -4.493   9.201  1.00  0.00     0.000 C 
BRANCH   2   3
ATOM      3  C   UNL     1      94.147  -3.745  10.164  1.00  0.00     0.000 C 
BRANCH   3   4
ATOM      4  C   UNL     1      95.193  -4.672  10.809  1.00  0.00     0.000 C 
BRANCH   4   5
ATOM      5  C   UNL     1      96.607  -4.070  10.792  1.00  0.00     0.000 C 
BRANCH   5   6
ATOM      6  C   UNL     1      96.677  -2.749  10.008  1.00  0.00     0.006 C 
BRANCH   6   7
ATOM      7  C   UNL     1      97.564  -2.861   8.762  1.00  0.00     0.053 C 
BRANCH   7   8
ATOM      8  C   UNL     1      96.777  -3.269   7.553  1.00  0.00     0.041 C 
ATOM      9  O   UNL     1      96.359  -2.400   6.745  1.00  0.00    -0.550 OA
ATOM     10  O   UNL     1      96.483  -4.609   7.336  1.00  0.00    -0.550 OA
ENDBRANCH   7   8
ENDBRANCH   6   7
ENDBRANCH   5   6
ENDBRANCH   4   5
ENDBRANCH   3   4
ENDBRANCH   2   3
ENDBRANCH   1   2
BRANCH   1  11
ATOM     11  C   UNL     1      92.696  -2.391   7.890  1.00  0.00     0.000 C 
BRANCH  11  12
ATOM     12  C   UNL     1      92.991  -1.594   6.607  1.00  0.00    -0.000 C 
BRANCH  12  13
ATOM     13  C   UNL     1      91.835  -0.703   6.108  1.00  0.00    -0.000 C 
BRANCH  13  14
ATOM     14  C   UNL     1      90.846  -1.388   5.149  1.00  0.00    -0.000 C 
BRANCH  14  15
ATOM     15  C   UNL     1      89.665  -2.048   5.881  1.00  0.00    -0.000 C 
BRANCH  15  16
ATOM     16  C   UNL     1      89.259  -3.392   5.253  1.00  0.00    -0.000 C 
BRANCH  16  17
ATOM     17  C   UNL     1      90.291  -4.500   5.508  1.00  0.00    -0.003 C 
ATOM     18  C   UNL     1      89.960  -5.276   6.780  1.00  0.00     0.004 C 
ENDBRANCH  16  17
ENDBRANCH  15  16
ENDBRANCH  14  15
ENDBRANCH  13  14
ENDBRANCH  12  13
ENDBRANCH  11  12
ENDBRANCH   1  11
TORSDOF 14
ENDMDL
MODEL 3
REMARK VINA RESULT:    -6.226     12.561     14.307
REMARK INTER + INTRA:         -12.263
REMARK INTER:                 -10.556
REMARK INTRA:                  -1.706
REMARK UNBOUND:                -0.942
REMARK SMILES CCCCCCCCCCCCCCCC(=O)[O-]
REMARK SMILES IDX 9 1 10 2 11 3 12 4 13 5 14 6 15 7 16 8 17 9 18 10 8 11 7 12
REMARK SMILES IDX 6 13 5 14 4 15 3 16 2 17 1 18
REMARK H PARENT
REMARK Flexibility Score: inf
ROOT
ATOM      1  C   UNL     1      97.027  -2.539   6.775  1.00  0.00     0.000 C 
ENDROOT
BRANCH   1   2
ATOM      2  C   UNL     1      98.424  -2.905   7.296  1.00  0.00     0.000 C 
BRANCH   2   3
ATOM      3  C   UNL     1      98.583  -4.413   7.553  1.00  0.00     0.000 C 
BRANCH   3   4
ATOM      4  C   UNL     1      99.603  -5.069   6.605  1.00  0.00     0.000 C 
BRANCH   4   5
ATOM      5  C   UNL     1      98.941  -5.714   5.377  1.00  0.00     0.000 C 
BRANCH   5   6
ATOM      6  C   UNL     1      97.571  -6.334   5.703  1.00  0.00     0.006 C 
BRANCH   6   7
ATOM      7  C   UNL     1      97.583  -7.862   5.577  1.00  0.00     0.053 C 
BRANCH   7   8
ATOM      8  C   UNL     1      97.266  -8.307   4.181  1.00  0.00     0.041 C 
ATOM      9  O   UNL     1      97.794  -9.349   3.713  1.00  0.00    -0.550 OA
ATOM     10  O   UNL     1      96.410  -7.554   3.389  1.00  0.00    -0.550 OA
ENDBRANCH   7   8
ENDBRANCH   6   7
ENDBRANCH   5   6
ENDBRANCH   4   5
ENDBRANCH   3   4
ENDBRANCH   2   3
ENDBRANCH   1   2
BRANCH   1  11
ATOM     11  C   UNL     1      95.943  -3.363   7.486  1.00  0.00     0.000 C 
BRANCH  11  12
ATOM     12  C   UNL     1      94.724  -2.518   7.896  1.00  0.00    -0.000 C 
BRANCH  12  13
ATOM     13  C   UNL     1      93.437  -3.319   8.179  1.00  0.00    -0.000 C 
BRANCH  13  14
ATOM     14  C   UNL     1      93.567  -4.410   9.258  1.00  0.00    -0.000 C 
BRANCH  14  15
ATOM     15  C   UNL     1      94.334  -3.931  10.502  1.00  0.00    -0.000 C 
BRANCH  15  16
ATOM     16  C   UNL     1      95.473  -4.885  10.896  1.00  0.00    -0.000 C 
BRANCH  16  17
ATOM     17  C   UNL     1      96.853  -4.215  10.837  1.00  0.00    -0.003 C 
ATOM     18  C   UNL     1      96.738  -2.704  11.021  1.00  0.00     0.004 C 
ENDBRANCH  16  17
ENDBRANCH  15  16
ENDBRANCH  14  15
ENDBRANCH  13  14
ENDBRANCH  12  13
ENDBRANCH  11  12
ENDBRANCH   1  11
TORSDOF 14
ENDMDL
MODEL 4
REMARK VINA RESULT:    -6.158     13.326     16.063
REMARK INTER + INTRA:         -12.140
REMARK INTER:                 -10.411
REMARK INTRA:                  -1.729
REMARK UNBOUND:                -0.942
REMARK SMILES CCCCCCCCCCCCCCCC(=O)[O-]
REMARK SMILES IDX 9 1 10 2 11 3 12 4 13 5 14 6 15 7 16 8 17 9 18 10 8 11 7 12
REMARK SMILES IDX 6 13 5 14 4 15 3 16 2 17 1 18
REMARK H PARENT
REMARK Flexibility Score: inf
ROOT
ATOM      1  C   UNL     1      82.504   0.130   1.472  1.00  0.00     0.000 C 
ENDROOT
BRANCH   1   2
ATOM      2  C   UNL     1      81.625   0.956   0.521  1.00  0.00     0.000 C 
BRANCH   2   3
ATOM      3  C   UNL     1      81.830   2.470   0.691  1.00  0.00     0.000 C 
BRANCH   3   4
ATOM      4  C   UNL     1      81.692   2.923   2.155  1.00  0.00     0.000 C 
BRANCH   4   5
ATOM      5  C   UNL     1      80.226   3.051   2.600  1.00  0.00     0.000 C 
BRANCH   5   6
ATOM      6  C   UNL     1      80.073   3.064   4.130  1.00  0.00     0.006 C 
BRANCH   6   7
ATOM      7  C   UNL     1      81.389   2.738   4.846  1.00  0.00     0.053 C 
BRANCH   7   8
ATOM      8  C   UNL     1      81.962   3.940   5.535  1.00  0.00     0.041 C 
ATOM      9  O   UNL     1      81.200   4.824   6.005  1.00  0.00    -0.550 OA
ATOM     10  O   UNL     1      83.338   4.096   5.629  1.00  0.00    -0.550 OA
ENDBRANCH   7   8
ENDBRANCH   6   7
ENDBRANCH   5   6
ENDBRANCH   4   5
ENDBRANCH   3   4
ENDBRANCH   2   3
ENDBRANCH   1   2
BRANCH   1  11
ATOM     11  C   UNL     1      83.684  -0.502   0.718  1.00  0.00     0.000 C 
BRANCH  11  12
ATOM     12  C   UNL     1      84.284  -1.712   1.456  1.00  0.00    -0.000 C 
BRANCH  12  13
ATOM     13  C   UNL     1      83.762  -1.930   2.891  1.00  0.00    -0.000 C 
BRANCH  13  14
ATOM     14  C   UNL     1      83.435  -3.389   3.256  1.00  0.00    -0.000 C 
BRANCH  14  15
ATOM     15  C   UNL     1      82.334  -3.993   2.367  1.00  0.00    -0.000 C 
BRANCH  15  16
ATOM     16  C   UNL     1      80.991  -3.259   2.511  1.00  0.00    -0.000 C 
BRANCH  16  17
ATOM     17  C   UNL     1      80.415  -2.808   1.161  1.00  0.00    -0.003 C 
ATOM     18  C   UNL     1      81.300  -3.268   0.006  1.00  0.00     0.004 C 
ENDBRANCH  16  17
ENDBRANCH  15  16
ENDBRANCH  14  15
ENDBRANCH  13  14
ENDBRANCH  12  13
ENDBRANCH  11  12
ENDBRANCH   1  11
TORSDOF 14
ENDMDL
MODEL 5
REMARK VINA RESULT:    -6.104     10.962     13.797
REMARK INTER + INTRA:         -12.042
REMARK INTER:                 -10.346
REMARK INTRA:                  -1.696
REMARK UNBOUND:                -0.942
REMARK SMILES CCCCCCCCCCCCCCCC(=O)[O-]
REMARK SMILES IDX 9 1 10 2 11 3 12 4 13 5 14 6 15 7 16 8 17 9 18 10 8 11 7 12
REMARK SMILES IDX 6 13 5 14 4 15 3 16 2 17 1 18
REMARK H PARENT
REMARK Flexibility Score: inf
ROOT
ATOM      1  C   UNL     1      86.197  -2.799   2.649  1.00  0.00     0.000 C 
ENDROOT
BRANCH   1   2
ATOM      2  C   UNL     1      84.746  -2.296   2.694  1.00  0.00     0.000 C 
BRANCH   2   3
ATOM      3  C   UNL     1      83.794  -3.298   3.366  1.00  0.00     0.000 C 
BRANCH   3   4
ATOM      4  C   UNL     1      82.717  -3.826   2.403  1.00  0.00     0.000 C 
BRANCH   4   5
ATOM      5  C   UNL     1      81.406  -3.026   2.485  1.00  0.00     0.000 C 
BRANCH   5   6
ATOM      6  C   UNL     1      80.879  -2.615   1.099  1.00  0.00     0.006 C 
BRANCH   6   7
ATOM      7  C   UNL     1      81.989  -2.060   0.199  1.00  0.00     0.053 C 
BRANCH   7   8
ATOM      8  C   UNL     1      82.270  -0.617   0.488  1.00  0.00     0.041 C 
ATOM      9  O   UNL     1      81.350   0.141   0.892  1.00  0.00    -0.550 OA
ATOM     10  O   UNL     1      83.544  -0.103   0.283  1.00  0.00    -0.550 OA
ENDBRANCH   7   8
ENDBRANCH   6   7
ENDBRANCH   5   6
ENDBRANCH   4   5
ENDBRANCH   3   4
ENDBRANCH   2   3
ENDBRANCH   1   2
BRANCH   1  11
ATOM     11  C   UNL     1      87.052  -1.924   1.720  1.00  0.00     0.000 C 
BRANCH  11  12
ATOM     12  C   UNL     1      88.529  -1.867   2.146  1.00  0.00    -0.000 C 
BRANCH  12  13
ATOM     13  C   UNL     1      88.979  -2.991   3.103  1.00  0.00    -0.000 C 
BRANCH  13  14
ATOM     14  C   UNL     1      89.735  -2.520   4.359  1.00  0.00    -0.000 C 
BRANCH  14  15
ATOM     15  C   UNL     1      88.896  -2.646   5.642  1.00  0.00    -0.000 C 
BRANCH  15  16
ATOM     16  C   UNL     1      88.157  -1.344   5.993  1.00  0.00    -0.000 C 
BRANCH  16  17
ATOM     17  C   UNL     1      86.633  -1.526   6.048  1.00  0.00    -0.003 C 
ATOM     18  C   UNL     1      86.265  -2.937   6.497  1.00  0.00     0.004 C 
ENDBRANCH  16  17
ENDBRANCH  15  16
ENDBRANCH  14  15
ENDBRANCH  13  14
ENDBRANCH  12  13
ENDBRANCH  11  12
ENDBRANCH   1  11
TORSDOF 14
ENDMDL
MODEL 6
REMARK VINA RESULT:    -6.084     12.758     14.774
REMARK INTER + INTRA:         -12.005
REMARK INTER:                 -10.334
REMARK INTRA:                  -1.671
REMARK UNBOUND:                -0.942
REMARK SMILES CCCCCCCCCCCCCCCC(=O)[O-]
REMARK SMILES IDX 9 1 10 2 11 3 12 4 13 5 14 6 15 7 16 8 17 9 18 10 8 11 7 12
REMARK SMILES IDX 6 13 5 14 4 15 3 16 2 17 1 18
REMARK H PARENT
REMARK Flexibility Score: inf
ROOT
ATOM      1  C   UNL     1      92.677  -2.629   7.744  1.00  0.00     0.000 C 
ENDROOT
BRANCH   1   2
ATOM      2  C   UNL     1      93.431  -1.686   6.795  1.00  0.00     0.000 C 
BRANCH   2   3
ATOM      3  C   UNL     1      92.527  -1.106   5.696  1.00  0.00     0.000 C 
BRANCH   3   4
ATOM      4  C   UNL     1      91.033  -1.345   5.973  1.00  0.00     0.000 C 
BRANCH   4   5
ATOM      5  C   UNL     1      90.232  -1.631   4.693  1.00  0.00     0.000 C 
BRANCH   5   6
ATOM      6  C   UNL     1      89.803  -3.104   4.581  1.00  0.00     0.006 C 
BRANCH   6   7
ATOM      7  C   UNL     1      89.472  -3.715   5.947  1.00  0.00     0.053 C 
BRANCH   7   8
ATOM      8  C   UNL     1      90.280  -4.948   6.217  1.00  0.00     0.041 C 
ATOM      9  O   UNL     1      91.124  -5.350   5.375  1.00  0.00    -0.550 OA
ATOM     10  O   UNL     1      90.080  -5.667   7.388  1.00  0.00    -0.550 OA
ENDBRANCH   7   8
ENDBRANCH   6   7
ENDBRANCH   5   6
ENDBRANCH   4   5
ENDBRANCH   3   4
ENDBRANCH   2   3
ENDBRANCH   1   2
BRANCH   1  11
ATOM     11  C   UNL     1      93.450  -3.940   7.944  1.00  0.00     0.000 C 
BRANCH  11  12
ATOM     12  C   UNL     1      93.315  -4.502   9.371  1.00  0.00    -0.000 C 
BRANCH  12  13
ATOM     13  C   UNL     1      94.203  -3.818  10.431  1.00  0.00    -0.000 C 
BRANCH  13  14
ATOM     14  C   UNL     1      95.531  -4.533  10.736  1.00  0.00    -0.000 C 
BRANCH  14  15
ATOM     15  C   UNL     1      96.723  -3.565  10.829  1.00  0.00    -0.000 C 
BRANCH  15  16
ATOM     16  C   UNL     1      96.918  -2.745   9.544  1.00  0.00    -0.000 C 
BRANCH  16  17
ATOM     17  C   UNL     1      97.104  -3.627   8.301  1.00  0.00    -0.003 C 
ATOM     18  C   UNL     1      97.413  -2.781   7.068  1.00  0.00     0.004 C 
ENDBRANCH  16  17
ENDBRANCH  15  16
ENDBRANCH  14  15
ENDBRANCH  13  14
ENDBRANCH  12  13
ENDBRANCH  11  12
ENDBRANCH   1  11
TORSDOF 14
ENDMDL
MODEL 7
REMARK VINA RESULT:    -6.062     13.495     15.927
REMARK INTER + INTRA:         -11.966
REMARK INTER:                 -10.381
REMARK INTRA:                  -1.585
REMARK UNBOUND:                -0.942
REMARK SMILES CCCCCCCCCCCCCCCC(=O)[O-]
REMARK SMILES IDX 9 1 10 2 11 3 12 4 13 5 14 6 15 7 16 8 17 9 18 10 8 11 7 12
REMARK SMILES IDX 6 13 5 14 4 15 3 16 2 17 1 18
REMARK H PARENT
REMARK Flexibility Score: inf
ROOT
ATOM      1  C   UNL     1      83.245   0.648  -0.131  1.00  0.00     0.000 C 
ENDROOT
BRANCH   1   2
ATOM      2  C   UNL     1      81.992   1.324  -0.705  1.00  0.00     0.000 C 
BRANCH   2   3
ATOM      3  C   UNL     1      81.567   2.564   0.099  1.00  0.00     0.000 C 
BRANCH   3   4
ATOM      4  C   UNL     1      80.273   2.334   0.898  1.00  0.00     0.000 C 
BRANCH   4   5
ATOM      5  C   UNL     1      80.297   3.018   2.274  1.00  0.00     0.000 C 
BRANCH   5   6
ATOM      6  C   UNL     1      81.471   2.545   3.147  1.00  0.00     0.006 C 
BRANCH   6   7
ATOM      7  C   UNL     1      81.149   2.629   4.644  1.00  0.00     0.053 C 
BRANCH   7   8
ATOM      8  C   UNL     1      81.980   3.668   5.335  1.00  0.00     0.041 C 
ATOM      9  O   UNL     1      82.982   4.165   4.759  1.00  0.00    -0.550 OA
ATOM     10  O   UNL     1      81.661   4.066   6.627  1.00  0.00    -0.550 OA
ENDBRANCH   7   8
ENDBRANCH   6   7
ENDBRANCH   5   6
ENDBRANCH   4   5
ENDBRANCH   3   4
ENDBRANCH   2   3
ENDBRANCH   1   2
BRANCH   1  11
ATOM     11  C   UNL     1      82.875  -0.322   1.001  1.00  0.00     0.000 C 
BRANCH  11  12
ATOM     12  C   UNL     1      81.574  -1.096   0.722  1.00  0.00    -0.000 C 
BRANCH  12  13
ATOM     13  C   UNL     1      81.751  -2.412  -0.062  1.00  0.00    -0.000 C 
BRANCH  13  14
ATOM     14  C   UNL     1      81.810  -3.687   0.800  1.00  0.00    -0.000 C 
BRANCH  14  15
ATOM     15  C   UNL     1      81.203  -3.490   2.199  1.00  0.00    -0.000 C 
BRANCH  15  16
ATOM     16  C   UNL     1      82.269  -3.467   3.307  1.00  0.00    -0.000 C 
BRANCH  16  17
ATOM     17  C   UNL     1      83.685  -3.721   2.770  1.00  0.00    -0.003 C 
ATOM     18  C   UNL     1      84.640  -2.608   3.195  1.00  0.00     0.004 C 
ENDBRANCH  16  17
ENDBRANCH  15  16
ENDBRANCH  14  15
ENDBRANCH  13  14
ENDBRANCH  12  13
ENDBRANCH  11  12
ENDBRANCH   1  11
TORSDOF 14
ENDMDL
MODEL 8
REMARK VINA RESULT:    -6.055     12.416     13.930
REMARK INTER + INTRA:         -11.952
REMARK INTER:                 -10.336
REMARK INTRA:                  -1.616
REMARK UNBOUND:                -0.942
REMARK SMILES CCCCCCCCCCCCCCCC(=O)[O-]
REMARK SMILES IDX 9 1 10 2 11 3 12 4 13 5 14 6 15 7 16 8 17 9 18 10 8 11 7 12
REMARK SMILES IDX 6 13 5 14 4 15 3 16 2 17 1 18
REMARK H PARENT
REMARK Flexibility Score: inf
ROOT
ATOM      1  C   UNL     1      92.668  -1.008   5.947  1.00  0.00     0.000 C 
ENDROOT
BRANCH   1   2
ATOM      2  C   UNL     1      92.412  -1.941   7.139  1.00  0.00     0.000 C 
BRANCH   2   3
ATOM      3  C   UNL     1      93.695  -2.620   7.645  1.00  0.00     0.000 C 
BRANCH   3   4
ATOM      4  C   UNL     1      93.407  -3.876   8.485  1.00  0.00     0.000 C 
BRANCH   4   5
ATOM      5  C   UNL     1      93.864  -3.729   9.945  1.00  0.00     0.000 C 
BRANCH   5   6
ATOM      6  C   UNL     1      94.754  -4.897  10.405  1.00  0.00     0.006 C 
BRANCH   6   7
ATOM      7  C   UNL     1      96.069  -4.411  11.028  1.00  0.00     0.053 C 
BRANCH   7   8
ATOM      8  C   UNL     1      96.808  -3.481  10.115  1.00  0.00     0.041 C 
ATOM      9  O   UNL     1      97.187  -3.873   8.981  1.00  0.00    -0.550 OA
ATOM     10  O   UNL     1      97.101  -2.188  10.530  1.00  0.00    -0.550 OA
ENDBRANCH   7   8
ENDBRANCH   6   7
ENDBRANCH   5   6
ENDBRANCH   4   5
ENDBRANCH   3   4
ENDBRANCH   2   3
ENDBRANCH   1   2
BRANCH   1  11
ATOM     11  C   UNL     1      91.359  -0.370   5.459  1.00  0.00     0.000 C 
BRANCH  11  12
ATOM     12  C   UNL     1      91.021  -0.737   4.003  1.00  0.00    -0.000 C 
BRANCH  12  13
ATOM     13  C   UNL     1      89.699  -1.508   3.812  1.00  0.00    -0.000 C 
BRANCH  13  14
ATOM     14  C   UNL     1      88.850  -1.682   5.084  1.00  0.00    -0.000 C 
BRANCH  14  15
ATOM     15  C   UNL     1      89.028  -3.064   5.735  1.00  0.00    -0.000 C 
BRANCH  15  16
ATOM     16  C   UNL     1      89.831  -4.033   4.852  1.00  0.00    -0.000 C 
BRANCH  16  17
ATOM     17  C   UNL     1      90.811  -4.896   5.659  1.00  0.00    -0.003 C 
ATOM     18  C   UNL     1      90.199  -5.323   6.990  1.00  0.00     0.004 C 
ENDBRANCH  16  17
ENDBRANCH  15  16
ENDBRANCH  14  15
ENDBRANCH  13  14
ENDBRANCH  12  13
ENDBRANCH  11  12
ENDBRANCH   1  11
TORSDOF 14
ENDMDL
MODEL 9
REMARK VINA RESULT:    -6.052     12.734     14.244
REMARK INTER + INTRA:         -11.947
REMARK INTER:                 -10.334
REMARK INTRA:                  -1.613
REMARK UNBOUND:                -0.942
REMARK SMILES CCCCCCCCCCCCCCCC(=O)[O-]
REMARK SMILES IDX 9 1 10 2 11 3 12 4 13 5 14 6 15 7 16 8 17 9 18 10 8 11 7 12
REMARK SMILES IDX 6 13 5 14 4 15 3 16 2 17 1 18
REMARK H PARENT
REMARK Flexibility Score: inf
ROOT
ATOM      1  C   UNL     1      96.825  -3.340   7.284  1.00  0.00     0.000 C 
ENDROOT
BRANCH   1   2
ATOM      2  C   UNL     1      97.978  -2.456   6.787  1.00  0.00     0.000 C 
BRANCH   2   3
ATOM      3  C   UNL     1      99.359  -3.061   7.088  1.00  0.00     0.000 C 
BRANCH   3   4
ATOM      4  C   UNL     1      99.712  -4.225   6.146  1.00  0.00     0.000 C 
BRANCH   4   5
ATOM      5  C   UNL     1      99.956  -5.542   6.899  1.00  0.00     0.000 C 
BRANCH   5   6
ATOM      6  C   UNL     1      99.363  -6.759   6.167  1.00  0.00     0.006 C 
BRANCH   6   7
ATOM      7  C   UNL     1      97.931  -6.501   5.684  1.00  0.00     0.053 C 
BRANCH   7   8
ATOM      8  C   UNL     1      97.273  -7.756   5.197  1.00  0.00     0.041 C 
ATOM      9  O   UNL     1      97.215  -8.771   5.938  1.00  0.00    -0.550 OA
ATOM     10  O   UNL     1      96.750  -7.812   3.911  1.00  0.00    -0.550 OA
ENDBRANCH   7   8
ENDBRANCH   6   7
ENDBRANCH   5   6
ENDBRANCH   4   5
ENDBRANCH   3   4
ENDBRANCH   2   3
ENDBRANCH   1   2
BRANCH   1  11
ATOM     11  C   UNL     1      97.136  -3.918   8.673  1.00  0.00     0.000 C 
BRANCH  11  12
ATOM     12  C   UNL     1      96.887  -2.909   9.808  1.00  0.00    -0.000 C 
BRANCH  12  13
ATOM     13  C   UNL     1      96.150  -3.477  11.039  1.00  0.00    -0.000 C 
BRANCH  13  14
ATOM     14  C   UNL     1      94.960  -4.401  10.723  1.00  0.00    -0.000 C 
BRANCH  14  15
ATOM     15  C   UNL     1      93.734  -3.636  10.196  1.00  0.00    -0.000 C 
BRANCH  15  16
ATOM     16  C   UNL     1      93.384  -4.010   8.747  1.00  0.00    -0.000 C 
BRANCH  16  17
ATOM     17  C   UNL     1      93.355  -2.792   7.812  1.00  0.00    -0.003 C 
ATOM     18  C   UNL     1      92.047  -2.734   7.027  1.00  0.00     0.004 C 
ENDBRANCH  16  17
ENDBRANCH  15  16
ENDBRANCH  14  15
ENDBRANCH  13  14
ENDBRANCH  12  13
ENDBRANCH  11  12
ENDBRANCH   1  11
TORSDOF 14
ENDMDL
