MODEL 1
REMARK VINA RESULT:    -5.470      0.000      0.000
REMARK INTER + INTRA:         -11.530
REMARK INTER:                  -9.947
REMARK INTRA:                  -1.583
REMARK UNBOUND:                -1.583
REMARK SMILES CCCCCCCCCCCCCCCC(=O)[O-]
REMARK SMILES IDX 9 1 10 2 11 3 12 4 13 5 14 6 15 7 16 8 17 9 18 10 8 11 7 12
REMARK SMILES IDX 6 13 5 14 4 15 3 16 2 17 1 18
REMARK H PARENT
REMARK Flexibility Score: inf
ROOT
ATOM      1  C   UNL     1     -11.226 -18.501  29.193  1.00  0.00     0.000 C 
ENDROOT
BRANCH   1   2
ATOM      2  C   UNL     1     -10.396 -18.931  30.416  1.00  0.00     0.000 C 
BRANCH   2   3
ATOM      3  C   UNL     1     -10.927 -18.339  31.732  1.00  0.00     0.000 C 
BRANCH   3   4
ATOM      4  C   UNL     1     -10.169 -17.097  32.244  1.00  0.00     0.000 C 
BRANCH   4   5
ATOM      5  C   UNL     1      -8.745 -16.948  31.667  1.00  0.00     0.000 C 
BRANCH   5   6
ATOM      6  C   UNL     1      -8.562 -15.646  30.865  1.00  0.00     0.006 C 
BRANCH   6   7
ATOM      7  C   UNL     1      -7.129 -15.101  30.959  1.00  0.00     0.053 C 
BRANCH   7   8
ATOM      8  C   UNL     1      -7.098 -13.655  31.347  1.00  0.00     0.041 C 
ATOM      9  O   UNL     1      -7.698 -13.261  32.382  1.00  0.00    -0.550 OA
ATOM     10  O   UNL     1      -6.383 -12.744  30.580  1.00  0.00    -0.550 OA
ENDBRANCH   7   8
ENDBRANCH   6   7
ENDBRANCH   5   6
ENDBRANCH   4   5
ENDBRANCH   3   4
ENDBRANCH   2   3
ENDBRANCH   1   2
BRANCH   1  11
ATOM     11  C   UNL     1     -12.214 -17.370  29.512  1.00  0.00     0.000 C 
BRANCH  11  12
ATOM     12  C   UNL     1     -12.003 -16.120  28.638  1.00  0.00    -0.000 C 
BRANCH  12  13
ATOM     13  C   UNL     1     -10.799 -16.267  27.683  1.00  0.00    -0.000 C 
BRANCH  13  14
ATOM     14  C   UNL     1     -10.888 -15.388  26.419  1.00  0.00    -0.000 C 
BRANCH  14  15
ATOM     15  C   UNL     1      -9.605 -14.617  26.070  1.00  0.00    -0.000 C 
BRANCH  15  16
ATOM     16  C   UNL     1      -8.361 -15.177  26.783  1.00  0.00    -0.000 C 
BRANCH  16  17
ATOM     17  C   UNL     1      -7.079 -14.422  26.398  1.00  0.00    -0.003 C 
ATOM     18  C   UNL     1      -5.954 -14.624  27.413  1.00  0.00     0.004 C 
ENDBRANCH  16  17
ENDBRANCH  15  16
ENDBRANCH  14  15
ENDBRANCH  13  14
ENDBRANCH  12  13
ENDBRANCH  11  12
ENDBRANCH   1  11
TORSDOF 14
ENDMDL
MODEL 2
REMARK VINA RESULT:    -5.367      1.579      5.005
REMARK INTER + INTRA:         -11.344
REMARK INTER:                  -9.698
REMARK INTRA:                  -1.646
REMARK UNBOUND:                -1.583
REMARK SMILES CCCCCCCCCCCCCCCC(=O)[O-]
REMARK SMILES IDX 9 1 10 2 11 3 12 4 13 5 14 6 15 7 16 8 17 9 18 10 8 11 7 12
REMARK SMILES IDX 6 13 5 14 4 15 3 16 2 17 1 18
REMARK H PARENT
REMARK Flexibility Score: inf
ROOT
ATOM      1  C   UNL     1     -11.212 -17.011  28.517  1.00  0.00     0.000 C 
ENDROOT
BRANCH   1   2
ATOM      2  C   UNL     1     -10.143 -16.076  27.923  1.00  0.00     0.000 C 
BRANCH   2   3
ATOM      3  C   UNL     1     -10.630 -15.344  26.662  1.00  0.00     0.000 C 
BRANCH   3   4
ATOM      4  C   UNL     1      -9.515 -14.741  25.784  1.00  0.00     0.000 C 
BRANCH   4   5
ATOM      5  C   UNL     1      -8.101 -15.258  26.121  1.00  0.00     0.000 C 
BRANCH   5   6
ATOM      6  C   UNL     1      -7.172 -14.148  26.649  1.00  0.00     0.006 C 
BRANCH   6   7
ATOM      7  C   UNL     1      -5.967 -14.714  27.416  1.00  0.00     0.053 C 
BRANCH   7   8
ATOM      8  C   UNL     1      -5.812 -14.088  28.768  1.00  0.00     0.041 C 
ATOM      9  O   UNL     1      -4.676 -13.734  29.179  1.00  0.00    -0.550 OA
ATOM     10  O   UNL     1      -6.929 -13.871  29.566  1.00  0.00    -0.550 OA
ENDBRANCH   7   8
ENDBRANCH   6   7
ENDBRANCH   5   6
ENDBRANCH   4   5
ENDBRANCH   3   4
ENDBRANCH   2   3
ENDBRANCH   1   2
BRANCH   1  11
ATOM     11  C   UNL     1     -12.534 -16.291  28.817  1.00  0.00     0.000 C 
BRANCH  11  12
ATOM     12  C   UNL     1     -13.493 -17.127  29.684  1.00  0.00    -0.000 C 
BRANCH  12  13
ATOM     13  C   UNL     1     -12.890 -18.493  30.077  1.00  0.00    -0.000 C 
BRANCH  13  14
ATOM     14  C   UNL     1     -12.398 -18.567  31.537  1.00  0.00    -0.000 C 
BRANCH  14  15
ATOM     15  C   UNL     1     -10.885 -18.782  31.705  1.00  0.00    -0.000 C 
BRANCH  15  16
ATOM     16  C   UNL     1     -10.161 -17.531  32.234  1.00  0.00    -0.000 C 
BRANCH  16  17
ATOM     17  C   UNL     1     -11.136 -16.390  32.567  1.00  0.00    -0.003 C 
ATOM     18  C   UNL     1     -10.768 -15.083  31.864  1.00  0.00     0.004 C 
ENDBRANCH  16  17
ENDBRANCH  15  16
ENDBRANCH  14  15
ENDBRANCH  13  14
ENDBRANCH  12  13
ENDBRANCH  11  12
ENDBRANCH   1  11
TORSDOF 14
ENDMDL
MODEL 3
REMARK VINA RESULT:    -5.303      2.303      4.931
REMARK INTER + INTRA:         -11.227
REMARK INTER:                 -10.102
REMARK INTRA:                  -1.126
REMARK UNBOUND:                -1.583
REMARK SMILES CCCCCCCCCCCCCCCC(=O)[O-]
REMARK SMILES IDX 9 1 10 2 11 3 12 4 13 5 14 6 15 7 16 8 17 9 18 10 8 11 7 12
REMARK SMILES IDX 6 13 5 14 4 15 3 16 2 17 1 18
REMARK H PARENT
REMARK Flexibility Score: inf
ROOT
ATOM      1  C   UNL     1      -9.959 -15.360  26.587  1.00  0.00     0.000 C 
ENDROOT
BRANCH   1   2
ATOM      2  C   UNL     1     -11.466 -15.668  26.512  1.00  0.00     0.000 C 
BRANCH   2   3
ATOM      3  C   UNL     1     -11.946 -16.565  27.664  1.00  0.00     0.000 C 
BRANCH   3   4
ATOM      4  C   UNL     1     -10.856 -16.970  28.677  1.00  0.00     0.000 C 
BRANCH   4   5
ATOM      5  C   UNL     1     -11.277 -18.109  29.630  1.00  0.00     0.000 C 
BRANCH   5   6
ATOM      6  C   UNL     1     -10.074 -18.784  30.316  1.00  0.00     0.006 C 
BRANCH   6   7
ATOM      7  C   UNL     1      -9.783 -18.187  31.701  1.00  0.00     0.053 C 
BRANCH   7   8
ATOM      8  C   UNL     1     -11.004 -18.148  32.568  1.00  0.00     0.041 C 
ATOM      9  O   UNL     1     -11.506 -19.215  33.009  1.00  0.00    -0.550 OA
ATOM     10  O   UNL     1     -11.574 -16.928  32.912  1.00  0.00    -0.550 OA
ENDBRANCH   7   8
ENDBRANCH   6   7
ENDBRANCH   5   6
ENDBRANCH   4   5
ENDBRANCH   3   4
ENDBRANCH   2   3
ENDBRANCH   1   2
BRANCH   1  11
ATOM     11  C   UNL     1      -9.542 -14.196  25.677  1.00  0.00     0.000 C 
BRANCH  11  12
ATOM     12  C   UNL     1      -8.070 -13.787  25.858  1.00  0.00    -0.000 C 
BRANCH  12  13
ATOM     13  C   UNL     1      -7.214 -14.921  26.464  1.00  0.00    -0.000 C 
BRANCH  13  14
ATOM     14  C   UNL     1      -6.376 -14.493  27.685  1.00  0.00    -0.000 C 
BRANCH  14  15
ATOM     15  C   UNL     1      -7.127 -14.501  29.027  1.00  0.00    -0.000 C 
BRANCH  15  16
ATOM     16  C   UNL     1      -6.390 -13.714  30.126  1.00  0.00    -0.000 C 
BRANCH  16  17
ATOM     17  C   UNL     1      -7.176 -13.684  31.447  1.00  0.00    -0.003 C 
ATOM     18  C   UNL     1      -8.213 -14.803  31.535  1.00  0.00     0.004 C 
ENDBRANCH  16  17
ENDBRANCH  15  16
ENDBRANCH  14  15
ENDBRANCH  13  14
ENDBRANCH  12  13
ENDBRANCH  11  12
ENDBRANCH   1  11
TORSDOF 14
ENDMDL
MODEL 4
REMARK VINA RESULT:    -5.230      2.424      4.461
REMARK INTER + INTRA:         -11.093
REMARK INTER:                  -9.659
REMARK INTRA:                  -1.435
REMARK UNBOUND:                -1.583
REMARK SMILES CCCCCCCCCCCCCCCC(=O)[O-]
REMARK SMILES IDX 9 1 10 2 11 3 12 4 13 5 14 6 15 7 16 8 17 9 18 10 8 11 7 12
REMARK SMILES IDX 6 13 5 14 4 15 3 16 2 17 1 18
REMARK H PARENT
REMARK Flexibility Score: inf
ROOT
ATOM      1  C   UNL     1      -9.082 -15.388  31.461  1.00  0.00     0.000 C 
ENDROOT
BRANCH   1   2
ATOM      2  C   UNL     1      -8.681 -16.812  31.887  1.00  0.00     0.000 C 
BRANCH   2   3
ATOM      3  C   UNL     1      -9.893 -17.743  32.061  1.00  0.00     0.000 C 
BRANCH   3   4
ATOM      4  C   UNL     1     -11.263 -17.035  32.091  1.00  0.00     0.000 C 
BRANCH   4   5
ATOM      5  C   UNL     1     -12.417 -17.875  31.504  1.00  0.00     0.000 C 
BRANCH   5   6
ATOM      6  C   UNL     1     -13.159 -17.152  30.364  1.00  0.00     0.006 C 
BRANCH   6   7
ATOM      7  C   UNL     1     -12.343 -15.984  29.789  1.00  0.00     0.053 C 
BRANCH   7   8
ATOM      8  C   UNL     1     -11.602 -16.370  28.546  1.00  0.00     0.041 C 
ATOM      9  O   UNL     1     -12.040 -16.035  27.414  1.00  0.00    -0.550 OA
ATOM     10  O   UNL     1     -10.410 -17.078  28.639  1.00  0.00    -0.550 OA
ENDBRANCH   7   8
ENDBRANCH   6   7
ENDBRANCH   5   6
ENDBRANCH   4   5
ENDBRANCH   3   4
ENDBRANCH   2   3
ENDBRANCH   1   2
BRANCH   1  11
ATOM     11  C   UNL     1      -7.937 -14.376  31.612  1.00  0.00     0.000 C 
BRANCH  11  12
ATOM     12  C   UNL     1      -6.806 -14.590  30.591  1.00  0.00    -0.000 C 
BRANCH  12  13
ATOM     13  C   UNL     1      -7.339 -14.791  29.156  1.00  0.00    -0.000 C 
BRANCH  13  14
ATOM     14  C   UNL     1      -6.492 -14.100  28.068  1.00  0.00    -0.000 C 
BRANCH  14  15
ATOM     15  C   UNL     1      -6.935 -14.379  26.622  1.00  0.00    -0.000 C 
BRANCH  15  16
ATOM     16  C   UNL     1      -8.259 -15.160  26.545  1.00  0.00    -0.000 C 
BRANCH  16  17
ATOM     17  C   UNL     1      -9.361 -14.370  25.821  1.00  0.00    -0.003 C 
ATOM     18  C   UNL     1      -8.843 -13.064  25.217  1.00  0.00     0.004 C 
ENDBRANCH  16  17
ENDBRANCH  15  16
ENDBRANCH  14  15
ENDBRANCH  13  14
ENDBRANCH  12  13
ENDBRANCH  11  12
ENDBRANCH   1  11
TORSDOF 14
ENDMDL
MODEL 5
REMARK VINA RESULT:    -5.217      2.654      4.798
REMARK INTER + INTRA:         -11.070
REMARK INTER:                  -9.575
REMARK INTRA:                  -1.495
REMARK UNBOUND:                -1.583
REMARK SMILES CCCCCCCCCCCCCCCC(=O)[O-]
REMARK SMILES IDX 9 1 10 2 11 3 12 4 13 5 14 6 15 7 16 8 17 9 18 10 8 11 7 12
REMARK SMILES IDX 6 13 5 14 4 15 3 16 2 17 1 18
REMARK H PARENT
REMARK Flexibility Score: inf
ROOT
ATOM      1  C   UNL     1      -9.372 -17.865  31.507  1.00  0.00     0.000 C 
ENDROOT
BRANCH   1   2
ATOM      2  C   UNL     1     -10.728 -18.131  32.186  1.00  0.00     0.000 C 
BRANCH   2   3
ATOM      3  C   UNL     1     -11.671 -16.918  32.123  1.00  0.00     0.000 C 
BRANCH   3   4
ATOM      4  C   UNL     1     -13.017 -17.171  31.415  1.00  0.00     0.000 C 
BRANCH   4   5
ATOM      5  C   UNL     1     -12.903 -17.321  29.883  1.00  0.00     0.000 C 
BRANCH   5   6
ATOM      6  C   UNL     1     -12.259 -16.093  29.213  1.00  0.00     0.006 C 
BRANCH   6   7
ATOM      7  C   UNL     1     -11.129 -16.483  28.248  1.00  0.00     0.053 C 
BRANCH   7   8
ATOM      8  C   UNL     1     -11.260 -15.804  26.919  1.00  0.00     0.041 C 
ATOM      9  O   UNL     1     -10.242 -15.347  26.335  1.00  0.00    -0.550 OA
ATOM     10  O   UNL     1     -12.505 -15.699  26.311  1.00  0.00    -0.550 OA
ENDBRANCH   7   8
ENDBRANCH   6   7
ENDBRANCH   5   6
ENDBRANCH   4   5
ENDBRANCH   3   4
ENDBRANCH   2   3
ENDBRANCH   1   2
BRANCH   1  11
ATOM     11  C   UNL     1      -8.936 -16.397  31.601  1.00  0.00     0.000 C 
BRANCH  11  12
ATOM     12  C   UNL     1      -7.433 -16.231  31.889  1.00  0.00    -0.000 C 
BRANCH  12  13
ATOM     13  C   UNL     1      -7.052 -14.769  32.204  1.00  0.00    -0.000 C 
BRANCH  13  14
ATOM     14  C   UNL     1      -7.377 -13.776  31.070  1.00  0.00    -0.000 C 
BRANCH  14  15
ATOM     15  C   UNL     1      -6.156 -13.085  30.439  1.00  0.00    -0.000 C 
BRANCH  15  16
ATOM     16  C   UNL     1      -5.677 -13.782  29.152  1.00  0.00    -0.000 C 
BRANCH  16  17
ATOM     17  C   UNL     1      -6.812 -14.533  28.438  1.00  0.00    -0.003 C 
ATOM     18  C   UNL     1      -6.716 -14.427  26.916  1.00  0.00     0.004 C 
ENDBRANCH  16  17
ENDBRANCH  15  16
ENDBRANCH  14  15
ENDBRANCH  13  14
ENDBRANCH  12  13
ENDBRANCH  11  12
ENDBRANCH   1  11
TORSDOF 14
ENDMDL
MODEL 6
REMARK VINA RESULT:    -5.172      2.563      5.875
REMARK INTER + INTRA:         -10.988
REMARK INTER:                  -9.618
REMARK INTRA:                  -1.370
REMARK UNBOUND:                -1.583
REMARK SMILES CCCCCCCCCCCCCCCC(=O)[O-]
REMARK SMILES IDX 9 1 10 2 11 3 12 4 13 5 14 6 15 7 16 8 17 9 18 10 8 11 7 12
REMARK SMILES IDX 6 13 5 14 4 15 3 16 2 17 1 18
REMARK H PARENT
REMARK Flexibility Score: inf
ROOT
ATOM      1  C   UNL     1      -8.459 -14.134  26.476  1.00  0.00     0.000 C 
ENDROOT
BRANCH   1   2
ATOM      2  C   UNL     1      -9.636 -14.980  25.956  1.00  0.00     0.000 C 
BRANCH   2   3
ATOM      3  C   UNL     1     -10.432 -15.647  27.090  1.00  0.00     0.000 C 
BRANCH   3   4
ATOM      4  C   UNL     1     -11.896 -15.990  26.748  1.00  0.00     0.000 C 
BRANCH   4   5
ATOM      5  C   UNL     1     -12.780 -16.273  27.981  1.00  0.00     0.000 C 
BRANCH   5   6
ATOM      6  C   UNL     1     -12.039 -16.034  29.310  1.00  0.00     0.006 C 
BRANCH   6   7
ATOM      7  C   UNL     1     -12.617 -16.875  30.458  1.00  0.00     0.053 C 
BRANCH   7   8
ATOM      8  C   UNL     1     -11.835 -18.131  30.689  1.00  0.00     0.041 C 
ATOM      9  O   UNL     1     -12.033 -18.824  31.720  1.00  0.00    -0.550 OA
ATOM     10  O   UNL     1     -10.902 -18.552  29.749  1.00  0.00    -0.550 OA
ENDBRANCH   7   8
ENDBRANCH   6   7
ENDBRANCH   5   6
ENDBRANCH   4   5
ENDBRANCH   3   4
ENDBRANCH   2   3
ENDBRANCH   1   2
BRANCH   1  11
ATOM     11  C   UNL     1      -7.095 -14.791  26.224  1.00  0.00     0.000 C 
BRANCH  11  12
ATOM     12  C   UNL     1      -6.223 -14.873  27.490  1.00  0.00    -0.000 C 
BRANCH  12  13
ATOM     13  C   UNL     1      -6.859 -14.141  28.691  1.00  0.00    -0.000 C 
BRANCH  13  14
ATOM     14  C   UNL     1      -6.047 -14.251  29.997  1.00  0.00    -0.000 C 
BRANCH  14  15
ATOM     15  C   UNL     1      -6.687 -15.122  31.091  1.00  0.00    -0.000 C 
BRANCH  15  16
ATOM     16  C   UNL     1      -8.069 -14.604  31.532  1.00  0.00    -0.000 C 
BRANCH  16  17
ATOM     17  C   UNL     1      -9.127 -15.718  31.559  1.00  0.00    -0.003 C 
ATOM     18  C   UNL     1      -8.540 -17.073  31.953  1.00  0.00     0.004 C 
ENDBRANCH  16  17
ENDBRANCH  15  16
ENDBRANCH  14  15
ENDBRANCH  13  14
ENDBRANCH  12  13
ENDBRANCH  11  12
ENDBRANCH   1  11
TORSDOF 14
ENDMDL
MODEL 7
REMARK VINA RESULT:    -5.156      2.588      5.159
REMARK INTER + INTRA:         -10.959
REMARK INTER:                  -9.677
REMARK INTRA:                  -1.282
REMARK UNBOUND:                -1.583
REMARK SMILES CCCCCCCCCCCCCCCC(=O)[O-]
REMARK SMILES IDX 9 1 10 2 11 3 12 4 13 5 14 6 15 7 16 8 17 9 18 10 8 11 7 12
REMARK SMILES IDX 6 13 5 14 4 15 3 16 2 17 1 18
REMARK H PARENT
REMARK Flexibility Score: inf
ROOT
ATOM      1  C   UNL     1      -6.103 -14.134  30.441  1.00  0.00     0.000 C 
ENDROOT
BRANCH   1   2
ATOM      2  C   UNL     1      -6.765 -15.130  31.411  1.00  0.00     0.000 C 
BRANCH   2   3
ATOM      3  C   UNL     1      -8.291 -14.954  31.491  1.00  0.00     0.000 C 
BRANCH   3   4
ATOM      4  C   UNL     1      -9.115 -16.164  31.007  1.00  0.00     0.000 C 
BRANCH   4   5
ATOM      5  C   UNL     1      -8.944 -17.429  31.875  1.00  0.00     0.000 C 
BRANCH   5   6
ATOM      6  C   UNL     1     -10.287 -18.105  32.210  1.00  0.00     0.006 C 
BRANCH   6   7
ATOM      7  C   UNL     1     -11.030 -18.577  30.952  1.00  0.00     0.053 C 
BRANCH   7   8
ATOM      8  C   UNL     1     -12.414 -18.011  30.866  1.00  0.00     0.041 C 
ATOM      9  O   UNL     1     -12.736 -17.011  31.559  1.00  0.00    -0.550 OA
ATOM     10  O   UNL     1     -13.344 -18.575  30.000  1.00  0.00    -0.550 OA
ENDBRANCH   7   8
ENDBRANCH   6   7
ENDBRANCH   5   6
ENDBRANCH   4   5
ENDBRANCH   3   4
ENDBRANCH   2   3
ENDBRANCH   1   2
BRANCH   1  11
ATOM     11  C   UNL     1      -6.793 -14.089  29.070  1.00  0.00     0.000 C 
BRANCH  11  12
ATOM     12  C   UNL     1      -5.852 -14.454  27.909  1.00  0.00    -0.000 C 
BRANCH  12  13
ATOM     13  C   UNL     1      -6.619 -14.761  26.605  1.00  0.00    -0.000 C 
BRANCH  13  14
ATOM     14  C   UNL     1      -8.095 -15.155  26.820  1.00  0.00    -0.000 C 
BRANCH  14  15
ATOM     15  C   UNL     1      -9.093 -14.496  25.854  1.00  0.00    -0.000 C 
BRANCH  15  16
ATOM     16  C   UNL     1     -10.546 -14.939  26.107  1.00  0.00    -0.000 C 
BRANCH  16  17
ATOM     17  C   UNL     1     -10.654 -15.964  27.247  1.00  0.00    -0.003 C 
ATOM     18  C   UNL     1     -12.100 -16.366  27.536  1.00  0.00     0.004 C 
ENDBRANCH  16  17
ENDBRANCH  15  16
ENDBRANCH  14  15
ENDBRANCH  13  14
ENDBRANCH  12  13
ENDBRANCH  11  12
ENDBRANCH   1  11
TORSDOF 14
ENDMDL
MODEL 8
REMARK VINA RESULT:    -5.155      2.209      4.981
REMARK INTER + INTRA:         -10.958
REMARK INTER:                  -9.781
REMARK INTRA:                  -1.178
REMARK UNBOUND:                -1.583
REMARK SMILES CCCCCCCCCCCCCCCC(=O)[O-]
REMARK SMILES IDX 9 1 10 2 11 3 12 4 13 5 14 6 15 7 16 8 17 9 18 10 8 11 7 12
REMARK SMILES IDX 6 13 5 14 4 15 3 16 2 17 1 18
REMARK H PARENT
REMARK Flexibility Score: inf
ROOT
ATOM      1  C   UNL     1     -11.185 -17.512  31.468  1.00  0.00     0.000 C 
ENDROOT
BRANCH   1   2
ATOM      2  C   UNL     1     -10.570 -18.600  30.569  1.00  0.00     0.000 C 
BRANCH   2   3
ATOM      3  C   UNL     1     -10.914 -18.406  29.083  1.00  0.00     0.000 C 
BRANCH   3   4
ATOM      4  C   UNL     1     -12.259 -17.703  28.809  1.00  0.00     0.000 C 
BRANCH   4   5
ATOM      5  C   UNL     1     -12.134 -16.413  27.971  1.00  0.00     0.000 C 
BRANCH   5   6
ATOM      6  C   UNL     1     -10.671 -16.043  27.664  1.00  0.00     0.006 C 
BRANCH   6   7
ATOM      7  C   UNL     1     -10.529 -15.287  26.335  1.00  0.00     0.053 C 
BRANCH   7   8
ATOM      8  C   UNL     1      -9.166 -14.689  26.166  1.00  0.00     0.041 C 
ATOM      9  O   UNL     1      -8.151 -15.280  26.620  1.00  0.00    -0.550 OA
ATOM     10  O   UNL     1      -9.013 -13.488  25.484  1.00  0.00    -0.550 OA
ENDBRANCH   7   8
ENDBRANCH   6   7
ENDBRANCH   5   6
ENDBRANCH   4   5
ENDBRANCH   3   4
ENDBRANCH   2   3
ENDBRANCH   1   2
BRANCH   1  11
ATOM     11  C   UNL     1     -10.140 -16.530  32.016  1.00  0.00     0.000 C 
BRANCH  11  12
ATOM     12  C   UNL     1      -8.701 -17.070  31.929  1.00  0.00    -0.000 C 
BRANCH  12  13
ATOM     13  C   UNL     1      -7.662 -15.946  31.731  1.00  0.00    -0.000 C 
BRANCH  13  14
ATOM     14  C   UNL     1      -8.279 -14.558  31.462  1.00  0.00    -0.000 C 
BRANCH  14  15
ATOM     15  C   UNL     1      -7.643 -13.398  32.246  1.00  0.00    -0.000 C 
BRANCH  15  16
ATOM     16  C   UNL     1      -6.148 -13.213  31.927  1.00  0.00    -0.000 C 
BRANCH  16  17
ATOM     17  C   UNL     1      -5.676 -11.771  32.166  1.00  0.00    -0.003 C 
ATOM     18  C   UNL     1      -5.824 -10.894  30.922  1.00  0.00     0.004 C 
ENDBRANCH  16  17
ENDBRANCH  15  16
ENDBRANCH  14  15
ENDBRANCH  13  14
ENDBRANCH  12  13
ENDBRANCH  11  12
ENDBRANCH   1  11
TORSDOF 14
ENDMDL
MODEL 9
REMARK VINA RESULT:    -5.091      2.693      5.029
REMARK INTER + INTRA:         -10.841
REMARK INTER:                  -9.614
REMARK INTRA:                  -1.227
REMARK UNBOUND:                -1.583
REMARK SMILES CCCCCCCCCCCCCCCC(=O)[O-]
REMARK SMILES IDX 9 1 10 2 11 3 12 4 13 5 14 6 15 7 16 8 17 9 18 10 8 11 7 12
REMARK SMILES IDX 6 13 5 14 4 15 3 16 2 17 1 18
REMARK H PARENT
REMARK Flexibility Score: inf
ROOT
ATOM      1  C   UNL     1      -6.538 -14.449  30.528  1.00  0.00     0.000 C 
ENDROOT
BRANCH   1   2
ATOM      2  C   UNL     1      -7.569 -13.919  31.542  1.00  0.00     0.000 C 
BRANCH   2   3
ATOM      3  C   UNL     1      -8.684 -14.935  31.839  1.00  0.00     0.000 C 
BRANCH   3   4
ATOM      4  C   UNL     1      -8.290 -16.414  31.649  1.00  0.00     0.000 C 
BRANCH   4   5
ATOM      5  C   UNL     1      -9.493 -17.378  31.563  1.00  0.00     0.000 C 
BRANCH   5   6
ATOM      6  C   UNL     1     -10.711 -16.748  30.862  1.00  0.00     0.006 C 
BRANCH   6   7
ATOM      7  C   UNL     1     -10.593 -16.802  29.331  1.00  0.00     0.053 C 
BRANCH   7   8
ATOM      8  C   UNL     1     -11.924 -16.667  28.657  1.00  0.00     0.041 C 
ATOM      9  O   UNL     1     -12.981 -16.615  29.338  1.00  0.00    -0.550 OA
ATOM     10  O   UNL     1     -11.995 -16.572  27.272  1.00  0.00    -0.550 OA
ENDBRANCH   7   8
ENDBRANCH   6   7
ENDBRANCH   5   6
ENDBRANCH   4   5
ENDBRANCH   3   4
ENDBRANCH   2   3
ENDBRANCH   1   2
BRANCH   1  11
ATOM     11  C   UNL     1      -6.199 -13.427  29.434  1.00  0.00     0.000 C 
BRANCH  11  12
ATOM     12  C   UNL     1      -5.134 -13.934  28.444  1.00  0.00    -0.000 C 
BRANCH  12  13
ATOM     13  C   UNL     1      -5.729 -14.863  27.365  1.00  0.00    -0.000 C 
BRANCH  13  14
ATOM     14  C   UNL     1      -6.955 -14.277  26.636  1.00  0.00    -0.000 C 
BRANCH  14  15
ATOM     15  C   UNL     1      -8.268 -15.049  26.843  1.00  0.00    -0.000 C 
BRANCH  15  16
ATOM     16  C   UNL     1      -9.391 -14.578  25.900  1.00  0.00    -0.000 C 
BRANCH  16  17
ATOM     17  C   UNL     1      -9.017 -13.293  25.145  1.00  0.00    -0.003 C 
ATOM     18  C   UNL     1     -10.049 -12.919  24.081  1.00  0.00     0.004 C 
ENDBRANCH  16  17
ENDBRANCH  15  16
ENDBRANCH  14  15
ENDBRANCH  13  14
ENDBRANCH  12  13
ENDBRANCH  11  12
ENDBRANCH   1  11
TORSDOF 14
ENDMDL
