MODEL 1
REMARK VINA RESULT:    12.625      0.000      0.000
REMARK INTER + INTRA:          15.090
REMARK INTER:                  15.209
REMARK INTRA:                  -0.119
REMARK UNBOUND:                -0.119
REMARK SMILES O=c1c(O)c(-c2ccc(O)c(O)c2)oc2cc(O)cc(O)c12
REMARK SMILES IDX 5 1 3 2 2 3 1 4 22 5 20 6 19 7 17 8 16 9 15 10 14 11 6 12
REMARK SMILES IDX 7 13 8 14 9 15 13 16 11 17 10 18 12 20 4 22 21 24 18 26
REMARK H PARENT 10 19 12 21 4 23 21 25 18 27
REMARK Flexibility Score: inf
ROOT
ATOM      1  C   UNL     1       8.484 -29.056  22.795  1.00  0.00     0.180 A 
ATOM      2  C   UNL     1       8.081 -30.156  22.018  1.00  0.00     0.208 A 
ATOM      3  C   UNL     1       8.394 -31.451  22.460  1.00  0.00     0.238 A 
ATOM      4  O   UNL     1       7.983 -32.434  21.789  1.00  0.00    -0.285 OA
ATOM      5  C   UNL     1       9.120 -31.630  23.661  1.00  0.00     0.111 A 
ATOM      6  C   UNL     1       9.527 -32.896  24.182  1.00  0.00     0.134 A 
ATOM      7  C   UNL     1      10.126 -32.963  25.446  1.00  0.00     0.093 A 
ATOM      8  C   UNL     1      10.393 -31.804  26.178  1.00  0.00     0.123 A 
ATOM      9  C   UNL     1      10.055 -30.559  25.652  1.00  0.00     0.094 A 
ATOM     10  C   UNL     1       9.422 -30.463  24.410  1.00  0.00     0.146 A 
ATOM     11  O   UNL     1       9.106 -29.259  23.950  1.00  0.00    -0.452 OA
ENDROOT
BRANCH   1  12
ATOM     12  C   UNL     1       8.213 -27.659  22.384  1.00  0.00     0.025 A 
ATOM     13  C   UNL     1       8.674 -27.155  21.155  1.00  0.00     0.016 A 
ATOM     14  C   UNL     1       8.427 -25.827  20.798  1.00  0.00     0.051 A 
ATOM     15  C   UNL     1       7.729 -24.979  21.667  1.00  0.00     0.157 A 
ATOM     16  C   UNL     1       7.532 -26.799  23.260  1.00  0.00     0.062 A 
ATOM     17  C   UNL     1       7.282 -25.469  22.906  1.00  0.00     0.158 A 
BRANCH  15  18
ATOM     18  O   UNL     1       7.483 -23.655  21.308  1.00  0.00    -0.504 OA
ATOM     19  H   UNL     1       6.898 -23.052  21.874  1.00  0.00     0.293 HD
ENDBRANCH  15  18
BRANCH  17  20
ATOM     20  O   UNL     1       6.591 -24.648  23.798  1.00  0.00    -0.504 OA
ATOM     21  H   UNL     1       5.589 -24.512  23.738  1.00  0.00     0.293 HD
ENDBRANCH  17  20
ENDBRANCH   1  12
BRANCH   2  22
ATOM     22  O   UNL     1       7.346 -29.957  20.847  1.00  0.00    -0.502 OA
ATOM     23  H   UNL     1       7.787 -29.773  19.952  1.00  0.00     0.293 HD
ENDBRANCH   2  22
BRANCH   6  24
ATOM     24  O   UNL     1       9.390 -34.104  23.491  1.00  0.00    -0.507 OA
ATOM     25  H   UNL     1      10.156 -34.639  23.113  1.00  0.00     0.293 HD
ENDBRANCH   6  24
BRANCH   8  26
ATOM     26  O   UNL     1      11.006 -31.878  27.427  1.00  0.00    -0.508 OA
ATOM     27  H   UNL     1      11.448 -32.730  27.751  1.00  0.00     0.293 HD
ENDBRANCH   8  26
TORSDOF 6
ENDMDL
MODEL 2
REMARK VINA RESULT:    14.600      1.402      6.662
REMARK INTER + INTRA:          17.468
REMARK INTER:                  17.280
REMARK INTRA:                   0.188
REMARK UNBOUND:                -0.119
REMARK SMILES O=c1c(O)c(-c2ccc(O)c(O)c2)oc2cc(O)cc(O)c12
REMARK SMILES IDX 5 1 3 2 2 3 1 4 22 5 20 6 19 7 17 8 16 9 15 10 14 11 6 12
REMARK SMILES IDX 7 13 8 14 9 15 13 16 11 17 10 18 12 20 4 22 21 24 18 26
REMARK H PARENT 10 19 12 21 4 23 21 25 18 27
REMARK Flexibility Score: inf
ROOT
ATOM      1  C   UNL     1       8.865 -30.057  22.737  1.00  0.00     0.180 A 
ATOM      2  C   UNL     1       9.023 -30.064  21.341  1.00  0.00     0.208 A 
ATOM      3  C   UNL     1       8.694 -28.910  20.612  1.00  0.00     0.238 A 
ATOM      4  O   UNL     1       8.889 -28.904  19.369  1.00  0.00    -0.285 OA
ATOM      5  C   UNL     1       8.194 -27.770  21.287  1.00  0.00     0.111 A 
ATOM      6  C   UNL     1       7.790 -26.560  20.644  1.00  0.00     0.134 A 
ATOM      7  C   UNL     1       7.436 -25.451  21.422  1.00  0.00     0.093 A 
ATOM      8  C   UNL     1       7.408 -25.528  22.816  1.00  0.00     0.123 A 
ATOM      9  C   UNL     1       7.742 -26.722  23.450  1.00  0.00     0.094 A 
ATOM     10  C   UNL     1       8.136 -27.835  22.703  1.00  0.00     0.146 A 
ATOM     11  O   UNL     1       8.457 -28.951  23.347  1.00  0.00    -0.452 OA
ENDROOT
BRANCH   1  12
ATOM     12  C   UNL     1       9.168 -31.243  23.571  1.00  0.00     0.025 A 
ATOM     13  C   UNL     1       8.936 -32.548  23.100  1.00  0.00     0.016 A 
ATOM     14  C   UNL     1       9.208 -33.651  23.912  1.00  0.00     0.051 A 
ATOM     15  C   UNL     1       9.699 -33.469  25.211  1.00  0.00     0.157 A 
ATOM     16  C   UNL     1       9.642 -31.066  24.880  1.00  0.00     0.062 A 
ATOM     17  C   UNL     1       9.914 -32.168  25.697  1.00  0.00     0.158 A 
BRANCH  15  18
ATOM     18  O   UNL     1       9.970 -34.572  26.019  1.00  0.00    -0.504 OA
ATOM     19  H   UNL     1      10.552 -35.336  25.697  1.00  0.00     0.293 HD
ENDBRANCH  15  18
BRANCH  17  20
ATOM     20  O   UNL     1      10.396 -31.953  26.989  1.00  0.00    -0.504 OA
ATOM     21  H   UNL     1      10.562 -32.714  27.635  1.00  0.00     0.293 HD
ENDBRANCH  17  20
ENDBRANCH   1  12
BRANCH   2  22
ATOM     22  O   UNL     1       9.538 -31.193  20.697  1.00  0.00    -0.502 OA
ATOM     23  H   UNL     1       9.010 -31.715  20.008  1.00  0.00     0.293 HD
ENDBRANCH   2  22
BRANCH   6  24
ATOM     24  O   UNL     1       7.695 -26.408  19.258  1.00  0.00    -0.507 OA
ATOM     25  H   UNL     1       7.405 -27.132  18.619  1.00  0.00     0.293 HD
ENDBRANCH   6  24
BRANCH   8  26
ATOM     26  O   UNL     1       7.037 -24.424  23.581  1.00  0.00    -0.508 OA
ATOM     27  H   UNL     1       7.626 -23.602  23.645  1.00  0.00     0.293 HD
ENDBRANCH   8  26
TORSDOF 6
ENDMDL
MODEL 3
REMARK VINA RESULT:    14.708     13.272     16.917
REMARK INTER + INTRA:          17.599
REMARK INTER:                  17.911
REMARK INTRA:                  -0.312
REMARK UNBOUND:                -0.119
REMARK SMILES O=c1c(O)c(-c2ccc(O)c(O)c2)oc2cc(O)cc(O)c12
REMARK SMILES IDX 5 1 3 2 2 3 1 4 22 5 20 6 19 7 17 8 16 9 15 10 14 11 6 12
REMARK SMILES IDX 7 13 8 14 9 15 13 16 11 17 10 18 12 20 4 22 21 24 18 26
REMARK H PARENT 10 19 12 21 4 23 21 25 18 27
REMARK Flexibility Score: inf
ROOT
ATOM      1  C   UNL     1      -1.279 -20.773  31.102  1.00  0.00     0.180 A 
ATOM      2  C   UNL     1      -1.451 -19.749  30.156  1.00  0.00     0.208 A 
ATOM      3  C   UNL     1      -1.909 -18.494  30.588  1.00  0.00     0.238 A 
ATOM      4  O   UNL     1      -2.009 -17.564  29.746  1.00  0.00    -0.285 OA
ATOM      5  C   UNL     1      -2.205 -18.284  31.956  1.00  0.00     0.111 A 
ATOM      6  C   UNL     1      -2.714 -17.065  32.499  1.00  0.00     0.134 A 
ATOM      7  C   UNL     1      -2.845 -16.929  33.886  1.00  0.00     0.093 A 
ATOM      8  C   UNL     1      -2.550 -17.990  34.746  1.00  0.00     0.123 A 
ATOM      9  C   UNL     1      -2.111 -19.203  34.222  1.00  0.00     0.094 A 
ATOM     10  C   UNL     1      -1.933 -19.358  32.845  1.00  0.00     0.146 A 
ATOM     11  O   UNL     1      -1.502 -20.527  32.387  1.00  0.00    -0.452 OA
ENDROOT
BRANCH   1  12
ATOM     12  C   UNL     1      -0.824 -22.131  30.720  1.00  0.00     0.025 A 
ATOM     13  C   UNL     1      -1.713 -23.075  30.177  1.00  0.00     0.016 A 
ATOM     14  C   UNL     1      -1.266 -24.356  29.846  1.00  0.00     0.051 A 
ATOM     15  C   UNL     1       0.069 -24.719  30.065  1.00  0.00     0.157 A 
ATOM     16  C   UNL     1       0.508 -22.505  30.957  1.00  0.00     0.062 A 
ATOM     17  C   UNL     1       0.959 -23.788  30.626  1.00  0.00     0.158 A 
BRANCH  15  18
ATOM     18  O   UNL     1       0.511 -25.998  29.732  1.00  0.00    -0.504 OA
ATOM     19  H   UNL     1       1.045 -26.562  30.384  1.00  0.00     0.293 HD
ENDBRANCH  15  18
BRANCH  17  20
ATOM     20  O   UNL     1       2.293 -24.120  30.863  1.00  0.00    -0.504 OA
ATOM     21  H   UNL     1       2.686 -25.008  30.575  1.00  0.00     0.293 HD
ENDBRANCH  17  20
ENDBRANCH   1  12
BRANCH   2  22
ATOM     22  O   UNL     1      -1.132 -19.970  28.814  1.00  0.00    -0.502 OA
ATOM     23  H   UNL     1      -0.477 -20.686  28.521  1.00  0.00     0.293 HD
ENDBRANCH   2  22
BRANCH   6  24
ATOM     24  O   UNL     1      -3.125 -15.978  31.722  1.00  0.00    -0.507 OA
ATOM     25  H   UNL     1      -3.105 -15.016  32.024  1.00  0.00     0.293 HD
ENDBRANCH   6  24
BRANCH   8  26
ATOM     26  O   UNL     1      -2.701 -17.850  36.124  1.00  0.00    -0.508 OA
ATOM     27  H   UNL     1      -1.917 -17.959  36.756  1.00  0.00     0.293 HD
ENDBRANCH   8  26
TORSDOF 6
ENDMDL
