MODEL 1
REMARK VINA RESULT:    -5.306      0.000      0.000
REMARK INTER + INTRA:          -5.616
REMARK INTER:                  -5.616
REMARK INTRA:                   0.000
REMARK UNBOUND:                 0.000
REMARK SMILES O=c1ccc2cc(O)c(O)cc2o1
REMARK SMILES IDX 4 1 3 2 2 3 1 4 13 5 12 6 11 7 9 8 7 9 6 10 5 11 8 12 10 14
REMARK H PARENT 8 13 10 15
REMARK Flexibility Score: inf
ROOT
ATOM      1  C   UNL     1      13.352 -17.576   6.940  1.00  0.00     0.019 A 
ATOM      2  C   UNL     1      14.273 -16.532   7.029  1.00  0.00     0.094 A 
ATOM      3  C   UNL     1      13.825 -15.264   7.414  1.00  0.00     0.336 A 
ATOM      4  O   UNL     1      14.641 -14.309   7.500  1.00  0.00    -0.246 OA
ATOM      5  O   UNL     1      12.539 -15.059   7.689  1.00  0.00    -0.423 OA
ATOM      6  C   UNL     1      11.629 -16.028   7.616  1.00  0.00     0.142 A 
ATOM      7  C   UNL     1      10.293 -15.754   7.918  1.00  0.00     0.098 A 
ATOM      8  C   UNL     1       9.322 -16.762   7.846  1.00  0.00     0.161 A 
ATOM      9  C   UNL     1       9.702 -18.073   7.463  1.00  0.00     0.158 A 
ATOM     10  C   UNL     1      11.044 -18.345   7.162  1.00  0.00     0.062 A 
ATOM     11  C   UNL     1      12.007 -17.331   7.236  1.00  0.00     0.022 A 
ENDROOT
BRANCH   9  12
ATOM     12  O   UNL     1       8.789 -19.125   7.371  1.00  0.00    -0.504 OA
ATOM     13  H   UNL     1       7.891 -19.135   7.830  1.00  0.00     0.293 HD
ENDBRANCH   9  12
BRANCH   8  14
ATOM     14  O   UNL     1       8.006 -16.420   8.161  1.00  0.00    -0.504 OA
ATOM     15  H   UNL     1       7.196 -16.806   7.695  1.00  0.00     0.293 HD
ENDBRANCH   8  14
TORSDOF 2
ENDMDL
MODEL 2
REMARK VINA RESULT:    -5.281      1.381      4.470
REMARK INTER + INTRA:          -5.590
REMARK INTER:                  -5.590
REMARK INTRA:                   0.000
REMARK UNBOUND:                 0.000
REMARK SMILES O=c1ccc2cc(O)c(O)cc2o1
REMARK SMILES IDX 4 1 3 2 2 3 1 4 13 5 12 6 11 7 9 8 7 9 6 10 5 11 8 12 10 14
REMARK H PARENT 8 13 10 15
REMARK Flexibility Score: inf
ROOT
ATOM      1  C   UNL     1       9.500 -18.541   7.485  1.00  0.00     0.019 A 
ATOM      2  C   UNL     1       8.298 -17.975   7.910  1.00  0.00     0.094 A 
ATOM      3  C   UNL     1       8.277 -16.624   8.272  1.00  0.00     0.336 A 
ATOM      4  O   UNL     1       7.202 -16.094   8.660  1.00  0.00    -0.246 OA
ATOM      5  O   UNL     1       9.387 -15.892   8.211  1.00  0.00    -0.423 OA
ATOM      6  C   UNL     1      10.553 -16.394   7.811  1.00  0.00     0.142 A 
ATOM      7  C   UNL     1      11.685 -15.578   7.766  1.00  0.00     0.098 A 
ATOM      8  C   UNL     1      12.920 -16.090   7.347  1.00  0.00     0.161 A 
ATOM      9  C   UNL     1      13.019 -17.451   6.964  1.00  0.00     0.158 A 
ATOM     10  C   UNL     1      11.881 -18.268   7.009  1.00  0.00     0.062 A 
ATOM     11  C   UNL     1      10.650 -17.747   7.430  1.00  0.00     0.022 A 
ENDROOT
BRANCH   9  12
ATOM     12  O   UNL     1      14.216 -18.029   6.536  1.00  0.00    -0.504 OA
ATOM     13  H   UNL     1      14.433 -18.231   5.571  1.00  0.00     0.293 HD
ENDBRANCH   9  12
BRANCH   8  14
ATOM     14  O   UNL     1      14.012 -15.220   7.325  1.00  0.00    -0.504 OA
ATOM     15  H   UNL     1      14.349 -14.757   6.493  1.00  0.00     0.293 HD
ENDBRANCH   8  14
TORSDOF 2
ENDMDL
MODEL 3
REMARK VINA RESULT:    -4.966      1.772      2.640
REMARK INTER + INTRA:          -5.256
REMARK INTER:                  -5.256
REMARK INTRA:                   0.000
REMARK UNBOUND:                 0.000
REMARK SMILES O=c1ccc2cc(O)c(O)cc2o1
REMARK SMILES IDX 4 1 3 2 2 3 1 4 13 5 12 6 11 7 9 8 7 9 6 10 5 11 8 12 10 14
REMARK H PARENT 8 13 10 15
REMARK Flexibility Score: inf
ROOT
ATOM      1  C   UNL     1      12.339 -16.074   8.350  1.00  0.00     0.019 A 
ATOM      2  C   UNL     1      13.539 -16.720   8.054  1.00  0.00     0.094 A 
ATOM      3  C   UNL     1      13.500 -17.947   7.383  1.00  0.00     0.336 A 
ATOM      4  O   UNL     1      14.572 -18.546   7.106  1.00  0.00    -0.246 OA
ATOM      5  O   UNL     1      12.335 -18.488   7.035  1.00  0.00    -0.423 OA
ATOM      6  C   UNL     1      11.168 -17.905   7.300  1.00  0.00     0.142 A 
ATOM      7  C   UNL     1       9.976 -18.519   6.910  1.00  0.00     0.098 A 
ATOM      8  C   UNL     1       8.739 -17.918   7.180  1.00  0.00     0.161 A 
ATOM      9  C   UNL     1       8.700 -16.673   7.857  1.00  0.00     0.158 A 
ATOM     10  C   UNL     1       9.898 -16.059   8.246  1.00  0.00     0.062 A 
ATOM     11  C   UNL     1      11.129 -16.666   7.972  1.00  0.00     0.022 A 
ENDROOT
BRANCH   9  12
ATOM     12  O   UNL     1       7.505 -16.018   8.159  1.00  0.00    -0.504 OA
ATOM     13  H   UNL     1       6.966 -16.184   8.997  1.00  0.00     0.293 HD
ENDBRANCH   9  12
BRANCH   8  14
ATOM     14  O   UNL     1       7.587 -18.586   6.763  1.00  0.00    -0.504 OA
ATOM     15  H   UNL     1       7.008 -19.148   7.372  1.00  0.00     0.293 HD
ENDBRANCH   8  14
TORSDOF 2
ENDMDL
MODEL 4
REMARK VINA RESULT:    -4.938      1.381      5.079
REMARK INTER + INTRA:          -5.227
REMARK INTER:                  -5.227
REMARK INTRA:                   0.000
REMARK UNBOUND:                 0.000
REMARK SMILES O=c1ccc2cc(O)c(O)cc2o1
REMARK SMILES IDX 4 1 3 2 2 3 1 4 13 5 12 6 11 7 9 8 7 9 6 10 5 11 8 12 10 14
REMARK H PARENT 8 13 10 15
REMARK Flexibility Score: inf
ROOT
ATOM      1  C   UNL     1       9.249 -16.115   8.237  1.00  0.00     0.019 A 
ATOM      2  C   UNL     1       8.175 -17.004   8.197  1.00  0.00     0.094 A 
ATOM      3  C   UNL     1       8.387 -18.301   7.721  1.00  0.00     0.336 A 
ATOM      4  O   UNL     1       7.430 -19.119   7.677  1.00  0.00    -0.246 OA
ATOM      5  O   UNL     1       9.596 -18.680   7.312  1.00  0.00    -0.423 OA
ATOM      6  C   UNL     1      10.646 -17.862   7.333  1.00  0.00     0.142 A 
ATOM      7  C   UNL     1      11.891 -18.315   6.891  1.00  0.00     0.098 A 
ATOM      8  C   UNL     1      13.007 -17.468   6.907  1.00  0.00     0.161 A 
ATOM      9  C   UNL     1      12.868 -16.138   7.377  1.00  0.00     0.158 A 
ATOM     10  C   UNL     1      11.618 -15.687   7.820  1.00  0.00     0.062 A 
ATOM     11  C   UNL     1      10.507 -16.540   7.800  1.00  0.00     0.022 A 
ENDROOT
BRANCH   9  12
ATOM     12  O   UNL     1      13.936 -15.239   7.421  1.00  0.00    -0.504 OA
ATOM     13  H   UNL     1      14.656 -15.182   6.715  1.00  0.00     0.293 HD
ENDBRANCH   9  12
BRANCH   8  14
ATOM     14  O   UNL     1      14.222 -17.983   6.452  1.00  0.00    -0.504 OA
ATOM     15  H   UNL     1      14.347 -18.934   6.132  1.00  0.00     0.293 HD
ENDBRANCH   8  14
TORSDOF 2
ENDMDL
MODEL 5
REMARK VINA RESULT:    -4.493      2.125      5.713
REMARK INTER + INTRA:          -4.755
REMARK INTER:                  -4.755
REMARK INTRA:                   0.000
REMARK UNBOUND:                 0.000
REMARK SMILES O=c1ccc2cc(O)c(O)cc2o1
REMARK SMILES IDX 4 1 3 2 2 3 1 4 13 5 12 6 11 7 9 8 7 9 6 10 5 11 8 12 10 14
REMARK H PARENT 8 13 10 15
REMARK Flexibility Score: inf
ROOT
ATOM      1  C   UNL     1       7.394 -16.384   8.774  1.00  0.00     0.019 A 
ATOM      2  C   UNL     1       6.237 -17.160   8.704  1.00  0.00     0.094 A 
ATOM      3  C   UNL     1       6.296 -18.409   8.078  1.00  0.00     0.336 A 
ATOM      4  O   UNL     1       5.263 -19.125   8.005  1.00  0.00    -0.246 OA
ATOM      5  O   UNL     1       7.439 -18.848   7.557  1.00  0.00    -0.423 OA
ATOM      6  C   UNL     1       8.565 -18.139   7.602  1.00  0.00     0.142 A 
ATOM      7  C   UNL     1       9.735 -18.651   7.039  1.00  0.00     0.098 A 
ATOM      8  C   UNL     1      10.929 -17.917   7.078  1.00  0.00     0.161 A 
ATOM      9  C   UNL     1      10.945 -16.642   7.696  1.00  0.00     0.158 A 
ATOM     10  C   UNL     1       9.769 -16.131   8.261  1.00  0.00     0.062 A 
ATOM     11  C   UNL     1       8.581 -16.871   8.218  1.00  0.00     0.022 A 
ENDROOT
BRANCH   9  12
ATOM     12  O   UNL     1      12.097 -15.857   7.772  1.00  0.00    -0.504 OA
ATOM     13  H   UNL     1      12.098 -14.849   7.714  1.00  0.00     0.293 HD
ENDBRANCH   9  12
BRANCH   8  14
ATOM     14  O   UNL     1      12.062 -18.488   6.496  1.00  0.00    -0.504 OA
ATOM     15  H   UNL     1      12.288 -19.472   6.547  1.00  0.00     0.293 HD
ENDBRANCH   8  14
TORSDOF 2
ENDMDL
MODEL 6
REMARK VINA RESULT:    -4.165      2.398      5.579
REMARK INTER + INTRA:          -4.408
REMARK INTER:                  -4.408
REMARK INTRA:                   0.000
REMARK UNBOUND:                 0.000
REMARK SMILES O=c1ccc2cc(O)c(O)cc2o1
REMARK SMILES IDX 4 1 3 2 2 3 1 4 13 5 12 6 11 7 9 8 7 9 6 10 5 11 8 12 10 14
REMARK H PARENT 8 13 10 15
REMARK Flexibility Score: inf
ROOT
ATOM      1  C   UNL     1       7.062 -19.122   7.169  1.00  0.00     0.019 A 
ATOM      2  C   UNL     1       5.830 -18.856   7.767  1.00  0.00     0.094 A 
ATOM      3  C   UNL     1       5.705 -17.732   8.590  1.00  0.00     0.336 A 
ATOM      4  O   UNL     1       4.602 -17.475   9.139  1.00  0.00    -0.246 OA
ATOM      5  O   UNL     1       6.747 -16.930   8.797  1.00  0.00    -0.423 OA
ATOM      6  C   UNL     1       7.939 -17.148   8.245  1.00  0.00     0.142 A 
ATOM      7  C   UNL     1       8.996 -16.271   8.498  1.00  0.00     0.098 A 
ATOM      8  C   UNL     1      10.256 -16.486   7.925  1.00  0.00     0.161 A 
ATOM      9  C   UNL     1      10.458 -17.606   7.080  1.00  0.00     0.158 A 
ATOM     10  C   UNL     1       9.395 -18.483   6.827  1.00  0.00     0.062 A 
ATOM     11  C   UNL     1       8.139 -18.261   7.404  1.00  0.00     0.022 A 
ENDROOT
BRANCH   9  12
ATOM     12  O   UNL     1      11.686 -17.882   6.475  1.00  0.00    -0.504 OA
ATOM     13  H   UNL     1      12.398 -17.187   6.300  1.00  0.00     0.293 HD
ENDBRANCH   9  12
BRANCH   8  14
ATOM     14  O   UNL     1      11.269 -15.571   8.219  1.00  0.00    -0.504 OA
ATOM     15  H   UNL     1      11.349 -14.661   7.788  1.00  0.00     0.293 HD
ENDBRANCH   8  14
TORSDOF 2
ENDMDL
MODEL 7
REMARK VINA RESULT:    -4.032      1.734      2.440
REMARK INTER + INTRA:          -4.268
REMARK INTER:                  -4.268
REMARK INTRA:                   0.000
REMARK UNBOUND:                 0.000
REMARK SMILES O=c1ccc2cc(O)c(O)cc2o1
REMARK SMILES IDX 4 1 3 2 2 3 1 4 13 5 12 6 11 7 9 8 7 9 6 10 5 11 8 12 10 14
REMARK H PARENT 8 13 10 15
REMARK Flexibility Score: inf
ROOT
ATOM      1  C   UNL     1      10.978 -18.602   7.166  1.00  0.00     0.019 A 
ATOM      2  C   UNL     1      12.105 -17.864   7.529  1.00  0.00     0.094 A 
ATOM      3  C   UNL     1      11.935 -16.686   8.263  1.00  0.00     0.336 A 
ATOM      4  O   UNL     1      12.939 -16.006   8.600  1.00  0.00    -0.246 OA
ATOM      5  O   UNL     1      10.717 -16.278   8.610  1.00  0.00    -0.423 OA
ATOM      6  C   UNL     1       9.616 -16.953   8.284  1.00  0.00     0.142 A 
ATOM      7  C   UNL     1       8.364 -16.476   8.675  1.00  0.00     0.098 A 
ATOM      8  C   UNL     1       7.196 -17.175   8.340  1.00  0.00     0.161 A 
ATOM      9  C   UNL     1       7.290 -18.378   7.596  1.00  0.00     0.158 A 
ATOM     10  C   UNL     1       8.548 -18.854   7.206  1.00  0.00     0.062 A 
ATOM     11  C   UNL     1       9.710 -18.149   7.544  1.00  0.00     0.022 A 
ENDROOT
BRANCH   9  12
ATOM     12  O   UNL     1       6.169 -19.125   7.228  1.00  0.00    -0.504 OA
ATOM     13  H   UNL     1       5.628 -18.956   6.392  1.00  0.00     0.293 HD
ENDBRANCH   9  12
BRANCH   8  14
ATOM     14  O   UNL     1       5.976 -16.643   8.763  1.00  0.00    -0.504 OA
ATOM     15  H   UNL     1       5.806 -16.292   9.696  1.00  0.00     0.293 HD
ENDBRANCH   8  14
TORSDOF 2
ENDMDL
MODEL 8
REMARK VINA RESULT:    -3.721      1.470      4.446
REMARK INTER + INTRA:          -3.939
REMARK INTER:                  -3.939
REMARK INTRA:                   0.000
REMARK UNBOUND:                 0.000
REMARK SMILES O=c1ccc2cc(O)c(O)cc2o1
REMARK SMILES IDX 4 1 3 2 2 3 1 4 13 5 12 6 11 7 9 8 7 9 6 10 5 11 8 12 10 14
REMARK H PARENT 8 13 10 15
REMARK Flexibility Score: inf
ROOT
ATOM      1  C   UNL     1      12.594 -18.483   8.631  1.00  0.00     0.019 A 
ATOM      2  C   UNL     1      11.388 -19.125   8.915  1.00  0.00     0.094 A 
ATOM      3  C   UNL     1      10.189 -18.436   8.707  1.00  0.00     0.336 A 
ATOM      4  O   UNL     1       9.090 -18.998   8.958  1.00  0.00    -0.246 OA
ATOM      5  O   UNL     1      10.200 -17.188   8.246  1.00  0.00    -0.423 OA
ATOM      6  C   UNL     1      11.328 -16.540   7.963  1.00  0.00     0.142 A 
ATOM      7  C   UNL     1      11.278 -15.231   7.480  1.00  0.00     0.098 A 
ATOM      8  C   UNL     1      12.456 -14.535   7.177  1.00  0.00     0.161 A 
ATOM      9  C   UNL     1      13.710 -15.169   7.363  1.00  0.00     0.158 A 
ATOM     10  C   UNL     1      13.757 -16.483   7.846  1.00  0.00     0.062 A 
ATOM     11  C   UNL     1      12.575 -17.171   8.147  1.00  0.00     0.022 A 
ENDROOT
BRANCH   9  12
ATOM     12  O   UNL     1      14.923 -14.536   7.082  1.00  0.00    -0.504 OA
ATOM     13  H   UNL     1      15.291 -13.759   7.611  1.00  0.00     0.293 HD
ENDBRANCH   9  12
BRANCH   8  14
ATOM     14  O   UNL     1      12.335 -13.229   6.699  1.00  0.00    -0.504 OA
ATOM     15  H   UNL     1      13.066 -12.534   6.762  1.00  0.00     0.293 HD
ENDBRANCH   8  14
TORSDOF 2
ENDMDL
