MODEL 1
REMARK VINA RESULT:    -2.368      0.000      0.000
REMARK INTER + INTRA:          -2.586
REMARK INTER:                  -2.575
REMARK INTRA:                  -0.011
REMARK UNBOUND:                -0.011
REMARK SMILES C[C@@H]1[C@H](C)CC[C@@]2(C(=O)[O-])CC[C@]3(C)C(=CC[C@@H]4[C@]5(C)CC[C@@H](O)C(C)(C)[C@@H]5CC[C@]43C)[C@@H]12
REMARK SMILES IDX 7 1 6 2 11 3 33 4 5 5 12 6 15 7 2 8 3 9 13 10 16 11 1 12
REMARK SMILES IDX 4 13 14 14 31 15 17 16 18 17 30 18 32 19 19 20 29 21 28 22
REMARK SMILES IDX 21 23 20 24 25 25 22 26 23 27 26 28 27 29 8 30 9 31 10 32
REMARK SMILES IDX 24 33
REMARK H PARENT 24 34
REMARK Flexibility Score: inf
ROOT
ATOM      1  C   UNL     1      12.202  40.264  19.888  1.00  0.00     0.017 C 
ATOM      2  C   UNL     1      13.752  40.314  20.034  1.00  0.00     0.014 C 
ATOM      3  C   UNL     1      11.768  38.762  19.984  1.00  0.00     0.014 C 
ATOM      4  C   UNL     1      11.529  41.137  21.016  1.00  0.00     0.030 C 
ATOM      5  C   UNL     1      14.312  41.738  20.060  1.00  0.00     0.004 C 
ATOM      6  C   UNL     1      10.407  38.545  20.677  1.00  0.00     0.013 C 
ATOM      7  C   UNL     1      11.299  40.293  22.288  1.00  0.00    -0.063 C 
ATOM      8  C   UNL     1      12.177  42.560  21.207  1.00  0.00    -0.003 C 
ATOM      9  C   UNL     1      13.736  42.508  21.252  1.00  0.00    -0.011 C 
ATOM     10  C   UNL     1      10.318  39.107  22.153  1.00  0.00    -0.006 C 
ATOM     11  C   UNL     1      11.887  40.588  23.475  1.00  0.00    -0.027 C 
ATOM     12  C   UNL     1      11.653  43.564  20.153  1.00  0.00     0.008 C 
ATOM     13  C   UNL     1      14.383  43.897  21.368  1.00  0.00     0.008 C 
ATOM     14  C   UNL     1       8.876  39.706  22.287  1.00  0.00     0.017 C 
ATOM     15  C   UNL     1      10.619  37.980  23.278  1.00  0.00    -0.020 C 
ATOM     16  C   UNL     1      11.866  39.696  24.688  1.00  0.00     0.032 C 
ATOM     17  C   UNL     1      10.701  38.679  24.693  1.00  0.00     0.006 C 
ATOM     18  C   UNL     1       9.493  36.922  23.343  1.00  0.00     0.008 C 
ATOM     19  C   UNL     1      11.951  37.252  22.913  1.00  0.00     0.012 C 
ATOM     20  C   UNL     1      10.601  37.789  26.032  1.00  0.00    -0.025 C 
ATOM     21  C   UNL     1       9.691  35.913  24.471  1.00  0.00     0.005 C 
ATOM     22  C   UNL     1       9.585  36.569  25.874  1.00  0.00     0.003 C 
ATOM     23  C   UNL     1      12.008  37.294  26.496  1.00  0.00     0.010 C 
ATOM     24  C   UNL     1      10.046  38.746  27.141  1.00  0.00     0.012 C 
ATOM     25  C   UNL     1       9.628  35.480  27.049  1.00  0.00    -0.006 C 
ATOM     26  C   UNL     1      11.988  36.305  27.664  1.00  0.00     0.033 C 
ATOM     27  C   UNL     1      11.103  35.090  27.373  1.00  0.00     0.120 C 
ATOM     28  C   UNL     1       8.875  34.178  26.640  1.00  0.00     0.014 C 
ATOM     29  C   UNL     1       8.890  35.990  28.329  1.00  0.00     0.014 C 
ENDROOT
BRANCH   1  30
ATOM     30  C   UNL     1      11.775  40.764  18.508  1.00  0.00     0.048 C 
ATOM     31  O   UNL     1      12.627  40.974  17.602  1.00  0.00    -0.550 OA
ATOM     32  O   UNL     1      10.426  40.884  18.192  1.00  0.00    -0.550 OA
ENDBRANCH   1  30
BRANCH  27  33
ATOM     33  O   UNL     1      11.156  34.229  28.486  1.00  0.00    -0.393 OA
ATOM     34  H   UNL     1      10.568  34.615  29.187  1.00  0.00     0.210 HD
ENDBRANCH  27  33
TORSDOF 2
ENDMDL
MODEL 2
REMARK VINA RESULT:    -2.051      1.550      3.075
REMARK INTER + INTRA:          -2.242
REMARK INTER:                  -3.608
REMARK INTRA:                   1.366
REMARK UNBOUND:                -0.011
REMARK SMILES C[C@@H]1[C@H](C)CC[C@@]2(C(=O)[O-])CC[C@]3(C)C(=CC[C@@H]4[C@]5(C)CC[C@@H](O)C(C)(C)[C@@H]5CC[C@]43C)[C@@H]12
REMARK SMILES IDX 7 1 6 2 11 3 33 4 5 5 12 6 15 7 2 8 3 9 13 10 16 11 1 12
REMARK SMILES IDX 4 13 14 14 31 15 17 16 18 17 30 18 32 19 19 20 29 21 28 22
REMARK SMILES IDX 21 23 20 24 25 25 22 26 23 27 26 28 27 29 8 30 9 31 10 32
REMARK SMILES IDX 24 33
REMARK H PARENT 24 34
REMARK Flexibility Score: inf
ROOT
ATOM      1  C   UNL     1      12.729  41.268  20.505  1.00  0.00     0.017 C 
ATOM      2  C   UNL     1      11.939  42.572  20.827  1.00  0.00     0.014 C 
ATOM      3  C   UNL     1      13.582  40.911  21.769  1.00  0.00     0.014 C 
ATOM      4  C   UNL     1      11.723  40.110  20.137  1.00  0.00     0.030 C 
ATOM      5  C   UNL     1      10.979  42.989  19.712  1.00  0.00     0.004 C 
ATOM      6  C   UNL     1      13.737  39.395  22.013  1.00  0.00     0.013 C 
ATOM      7  C   UNL     1      11.272  39.360  21.408  1.00  0.00    -0.063 C 
ATOM      8  C   UNL     1      10.600  40.529  19.114  1.00  0.00    -0.003 C 
ATOM      9  C   UNL     1       9.934  41.892  19.480  1.00  0.00    -0.011 C 
ATOM     10  C   UNL     1      12.376  38.609  22.186  1.00  0.00    -0.006 C 
ATOM     11  C   UNL     1       9.976  39.320  21.810  1.00  0.00    -0.027 C 
ATOM     12  C   UNL     1      11.124  40.503  17.659  1.00  0.00     0.008 C 
ATOM     13  C   UNL     1       8.885  42.347  18.454  1.00  0.00     0.008 C 
ATOM     14  C   UNL     1      12.585  37.242  21.450  1.00  0.00     0.017 C 
ATOM     15  C   UNL     1      11.953  38.411  23.738  1.00  0.00    -0.020 C 
ATOM     16  C   UNL     1       9.506  38.785  23.136  1.00  0.00     0.032 C 
ATOM     17  C   UNL     1      10.498  37.798  23.797  1.00  0.00     0.006 C 
ATOM     18  C   UNL     1      12.903  37.433  24.469  1.00  0.00     0.008 C 
ATOM     19  C   UNL     1      12.029  39.794  24.458  1.00  0.00     0.012 C 
ATOM     20  C   UNL     1       9.964  37.134  25.164  1.00  0.00    -0.025 C 
ATOM     21  C   UNL     1      12.462  37.137  25.899  1.00  0.00     0.005 C 
ATOM     22  C   UNL     1      11.117  36.365  25.954  1.00  0.00     0.003 C 
ATOM     23  C   UNL     1       9.263  38.191  26.077  1.00  0.00     0.010 C 
ATOM     24  C   UNL     1       8.881  36.087  24.736  1.00  0.00     0.012 C 
ATOM     25  C   UNL     1      10.746  35.913  27.446  1.00  0.00    -0.006 C 
ATOM     26  C   UNL     1       8.875  37.682  27.467  1.00  0.00     0.033 C 
ATOM     27  C   UNL     1      10.071  37.089  28.217  1.00  0.00     0.120 C 
ATOM     28  C   UNL     1      12.019  35.496  28.243  1.00  0.00     0.014 C 
ATOM     29  C   UNL     1       9.832  34.645  27.450  1.00  0.00     0.014 C 
ENDROOT
BRANCH   1  30
ATOM     30  C   UNL     1      13.709  41.502  19.356  1.00  0.00     0.048 C 
ATOM     31  O   UNL     1      14.954  41.419  19.539  1.00  0.00    -0.550 OA
ATOM     32  O   UNL     1      13.240  41.697  18.062  1.00  0.00    -0.550 OA
ENDBRANCH   1  30
BRANCH  27  33
ATOM     33  O   UNL     1       9.629  36.664  29.485  1.00  0.00    -0.393 OA
ATOM     34  H   UNL     1       9.563  37.471  30.061  1.00  0.00     0.210 HD
ENDBRANCH  27  33
TORSDOF 2
ENDMDL
MODEL 3
REMARK VINA RESULT:     0.153      1.202      8.486
REMARK INTER + INTRA:           0.156
REMARK INTER:                   0.100
REMARK INTRA:                   0.056
REMARK UNBOUND:                -0.011
REMARK SMILES C[C@@H]1[C@H](C)CC[C@@]2(C(=O)[O-])CC[C@]3(C)C(=CC[C@@H]4[C@]5(C)CC[C@@H](O)C(C)(C)[C@@H]5CC[C@]43C)[C@@H]12
REMARK SMILES IDX 7 1 6 2 11 3 33 4 5 5 12 6 15 7 2 8 3 9 13 10 16 11 1 12
REMARK SMILES IDX 4 13 14 14 31 15 17 16 18 17 30 18 32 19 19 20 29 21 28 22
REMARK SMILES IDX 21 23 20 24 25 25 22 26 23 27 26 28 27 29 8 30 9 31 10 32
REMARK SMILES IDX 24 33
REMARK H PARENT 24 34
REMARK Flexibility Score: inf
ROOT
ATOM      1  C   UNL     1      12.061  35.870  27.314  1.00  0.00     0.017 C 
ATOM      2  C   UNL     1      12.335  34.478  26.670  1.00  0.00     0.014 C 
ATOM      3  C   UNL     1      13.129  36.868  26.751  1.00  0.00     0.014 C 
ATOM      4  C   UNL     1      10.594  36.338  26.974  1.00  0.00     0.030 C 
ATOM      5  C   UNL     1      11.299  33.420  27.054  1.00  0.00     0.004 C 
ATOM      6  C   UNL     1      12.605  38.305  26.556  1.00  0.00     0.013 C 
ATOM      7  C   UNL     1      10.566  37.105  25.635  1.00  0.00    -0.063 C 
ATOM      8  C   UNL     1       9.495  35.229  27.189  1.00  0.00    -0.003 C 
ATOM      9  C   UNL     1       9.907  33.852  26.583  1.00  0.00    -0.011 C 
ATOM     10  C   UNL     1      11.359  38.431  25.591  1.00  0.00    -0.006 C 
ATOM     11  C   UNL     1       9.858  36.673  24.561  1.00  0.00    -0.027 C 
ATOM     12  C   UNL     1       9.088  35.119  28.677  1.00  0.00     0.008 C 
ATOM     13  C   UNL     1       8.875  32.744  26.846  1.00  0.00     0.008 C 
ATOM     14  C   UNL     1      10.436  39.521  26.236  1.00  0.00     0.017 C 
ATOM     15  C   UNL     1      11.772  38.803  24.069  1.00  0.00    -0.020 C 
ATOM     16  C   UNL     1       9.954  37.259  23.178  1.00  0.00     0.032 C 
ATOM     17  C   UNL     1      10.489  38.710  23.152  1.00  0.00     0.006 C 
ATOM     18  C   UNL     1      12.321  40.246  23.962  1.00  0.00     0.008 C 
ATOM     19  C   UNL     1      12.893  37.821  23.601  1.00  0.00     0.012 C 
ATOM     20  C   UNL     1      10.497  39.390  21.692  1.00  0.00    -0.025 C 
ATOM     21  C   UNL     1      12.610  40.665  22.524  1.00  0.00     0.005 C 
ATOM     22  C   UNL     1      11.321  40.756  21.665  1.00  0.00     0.003 C 
ATOM     23  C   UNL     1      11.017  38.398  20.602  1.00  0.00     0.010 C 
ATOM     24  C   UNL     1       9.001  39.714  21.362  1.00  0.00     0.012 C 
ATOM     25  C   UNL     1      11.613  41.356  20.207  1.00  0.00    -0.006 C 
ATOM     26  C   UNL     1      11.215  39.013  19.215  1.00  0.00     0.033 C 
ATOM     27  C   UNL     1      12.136  40.236  19.255  1.00  0.00     0.120 C 
ATOM     28  C   UNL     1      12.700  42.472  20.263  1.00  0.00     0.014 C 
ATOM     29  C   UNL     1      10.347  42.052  19.610  1.00  0.00     0.014 C 
ENDROOT
BRANCH   1  30
ATOM     30  C   UNL     1      12.260  35.812  28.828  1.00  0.00     0.048 C 
ATOM     31  O   UNL     1      11.690  36.639  29.590  1.00  0.00    -0.550 OA
ATOM     32  O   UNL     1      12.983  34.771  29.401  1.00  0.00    -0.550 OA
ENDBRANCH   1  30
BRANCH  27  33
ATOM     33  O   UNL     1      12.276  40.725  17.943  1.00  0.00    -0.393 OA
ATOM     34  H   UNL     1      12.252  39.943  17.331  1.00  0.00     0.210 HD
ENDBRANCH  27  33
TORSDOF 2
ENDMDL
MODEL 4
REMARK VINA RESULT:     0.219      1.583      8.212
REMARK INTER + INTRA:           0.227
REMARK INTER:                  -0.104
REMARK INTRA:                   0.330
REMARK UNBOUND:                -0.011
REMARK SMILES C[C@@H]1[C@H](C)CC[C@@]2(C(=O)[O-])CC[C@]3(C)C(=CC[C@@H]4[C@]5(C)CC[C@@H](O)C(C)(C)[C@@H]5CC[C@]43C)[C@@H]12
REMARK SMILES IDX 7 1 6 2 11 3 33 4 5 5 12 6 15 7 2 8 3 9 13 10 16 11 1 12
REMARK SMILES IDX 4 13 14 14 31 15 17 16 18 17 30 18 32 19 19 20 29 21 28 22
REMARK SMILES IDX 21 23 20 24 25 25 22 26 23 27 26 28 27 29 8 30 9 31 10 32
REMARK SMILES IDX 24 33
REMARK H PARENT 24 34
REMARK Flexibility Score: inf
ROOT
ATOM      1  C   UNL     1      10.275  36.950  27.333  1.00  0.00     0.017 C 
ATOM      2  C   UNL     1      11.410  37.551  28.214  1.00  0.00     0.014 C 
ATOM      3  C   UNL     1       9.429  38.144  26.776  1.00  0.00     0.014 C 
ATOM      4  C   UNL     1      10.900  36.088  26.169  1.00  0.00     0.030 C 
ATOM      5  C   UNL     1      12.384  36.499  28.747  1.00  0.00     0.004 C 
ATOM      6  C   UNL     1       8.876  37.912  25.354  1.00  0.00     0.013 C 
ATOM      7  C   UNL     1      11.197  36.973  24.940  1.00  0.00    -0.063 C 
ATOM      8  C   UNL     1      12.036  35.099  26.633  1.00  0.00    -0.003 C 
ATOM      9  C   UNL     1      13.071  35.779  27.582  1.00  0.00    -0.011 C 
ATOM     10  C   UNL     1       9.975  37.624  24.254  1.00  0.00    -0.006 C 
ATOM     11  C   UNL     1      12.452  37.147  24.452  1.00  0.00    -0.027 C 
ATOM     12  C   UNL     1      11.444  33.805  27.240  1.00  0.00     0.008 C 
ATOM     13  C   UNL     1      14.145  34.809  28.098  1.00  0.00     0.008 C 
ATOM     14  C   UNL     1       9.355  36.530  23.320  1.00  0.00     0.017 C 
ATOM     15  C   UNL     1      10.414  38.951  23.435  1.00  0.00    -0.020 C 
ATOM     16  C   UNL     1      12.831  38.148  23.395  1.00  0.00     0.032 C 
ATOM     17  C   UNL     1      11.644  38.598  22.509  1.00  0.00     0.006 C 
ATOM     18  C   UNL     1       9.274  39.464  22.524  1.00  0.00     0.008 C 
ATOM     19  C   UNL     1      10.763  40.078  24.459  1.00  0.00     0.012 C 
ATOM     20  C   UNL     1      12.051  39.588  21.305  1.00  0.00    -0.025 C 
ATOM     21  C   UNL     1       9.696  40.644  21.653  1.00  0.00     0.005 C 
ATOM     22  C   UNL     1      10.777  40.251  20.611  1.00  0.00     0.003 C 
ATOM     23  C   UNL     1      13.066  40.677  21.779  1.00  0.00     0.010 C 
ATOM     24  C   UNL     1      12.777  38.694  20.244  1.00  0.00     0.012 C 
ATOM     25  C   UNL     1      11.092  41.450  19.595  1.00  0.00    -0.006 C 
ATOM     26  C   UNL     1      13.376  41.759  20.742  1.00  0.00     0.033 C 
ATOM     27  C   UNL     1      12.108  42.448  20.232  1.00  0.00     0.120 C 
ATOM     28  C   UNL     1       9.801  42.250  19.247  1.00  0.00     0.014 C 
ATOM     29  C   UNL     1      11.619  40.914  18.224  1.00  0.00     0.014 C 
ENDROOT
BRANCH   1  30
ATOM     30  C   UNL     1       9.334  36.093  28.179  1.00  0.00     0.048 C 
ATOM     31  O   UNL     1       8.875  36.520  29.273  1.00  0.00    -0.550 OA
ATOM     32  O   UNL     1       8.875  34.871  27.698  1.00  0.00    -0.550 OA
ENDBRANCH   1  30
BRANCH  27  33
ATOM     33  O   UNL     1      12.486  43.434  19.302  1.00  0.00    -0.393 OA
ATOM     34  H   UNL     1      13.479  43.445  19.267  1.00  0.00     0.210 HD
ENDBRANCH  27  33
TORSDOF 2
ENDMDL
