MODEL 1
REMARK VINA RESULT:    77.554      0.000      0.000
REMARK INTER + INTRA:         114.395
REMARK INTER:                 113.824
REMARK INTRA:                   0.570
REMARK UNBOUND:                 0.570
REMARK SMILES O=c1c(O[C@@H]2O[C@@H](CO)[C@@H](O)[C@@H](O)[C@@H]2O)c(-c2ccc(O)c(O)c2)oc2cc(O)cc(O)c12
REMARK SMILES IDX 4 1 3 2 16 3 25 4 2 5 26 6 1 7 33 8 27 9 31 10 28 11 30 12
REMARK SMILES IDX 17 13 18 14 19 15 20 16 24 17 22 18 21 19 23 21 32 23 29 25
REMARK SMILES IDX 5 27 14 28 6 29 12 30 7 31 10 32 15 33 13 35 8 37 9 38 11 40
REMARK H PARENT 21 20 23 22 32 24 29 26 15 34 13 36 9 39 11 41
REMARK Flexibility Score: inf
ROOT
ATOM      1  O   UNL     1     -31.099  27.253 -15.766  1.00  0.00    -0.454 OA
ENDROOT
BRANCH   1   2
ATOM      2  C   UNL     1     -31.004  28.092 -16.881  1.00  0.00     0.214 A 
ATOM      3  C   UNL     1     -31.009  29.496 -16.763  1.00  0.00     0.180 A 
ATOM      4  O   UNL     1     -30.960  30.249 -17.861  1.00  0.00    -0.452 OA
ATOM      5  C   UNL     1     -30.888  27.522 -18.156  1.00  0.00     0.239 A 
ATOM      6  C   UNL     1     -30.901  29.749 -19.090  1.00  0.00     0.146 A 
ATOM      7  O   UNL     1     -30.826  26.268 -18.265  1.00  0.00    -0.285 OA
ATOM      8  C   UNL     1     -30.854  28.353 -19.296  1.00  0.00     0.111 A 
ATOM      9  C   UNL     1     -30.886  30.622 -20.181  1.00  0.00     0.094 A 
ATOM     10  C   UNL     1     -30.813  27.849 -20.618  1.00  0.00     0.134 A 
ATOM     11  C   UNL     1     -30.862  30.123 -21.482  1.00  0.00     0.123 A 
ATOM     12  C   UNL     1     -30.822  28.742 -21.699  1.00  0.00     0.093 A 
BRANCH   3  13
ATOM     13  C   UNL     1     -31.057  30.187 -15.456  1.00  0.00     0.025 A 
ATOM     14  C   UNL     1     -30.341  31.375 -15.227  1.00  0.00     0.016 A 
ATOM     15  C   UNL     1     -30.401  32.006 -13.985  1.00  0.00     0.051 A 
ATOM     16  C   UNL     1     -31.209  31.486 -12.965  1.00  0.00     0.157 A 
ATOM     17  C   UNL     1     -31.907  29.696 -14.448  1.00  0.00     0.062 A 
ATOM     18  C   UNL     1     -31.982  30.335 -13.207  1.00  0.00     0.158 A 
BRANCH  16  19
ATOM     19  O   UNL     1     -31.241  32.094 -11.712  1.00  0.00    -0.504 OA
ATOM     20  H   UNL     1     -32.110  32.308 -11.248  1.00  0.00     0.293 HD
ENDBRANCH  16  19
BRANCH  18  21
ATOM     21  O   UNL     1     -32.829  29.810 -12.229  1.00  0.00    -0.504 OA
ATOM     22  H   UNL     1     -32.494  29.565 -11.307  1.00  0.00     0.293 HD
ENDBRANCH  18  21
ENDBRANCH   3  13
BRANCH  10  23
ATOM     23  O   UNL     1     -30.789  26.475 -20.864  1.00  0.00    -0.507 OA
ATOM     24  H   UNL     1     -31.523  25.865 -20.532  1.00  0.00     0.293 HD
ENDBRANCH  10  23
BRANCH  11  25
ATOM     25  O   UNL     1     -30.888  31.012 -22.554  1.00  0.00    -0.508 OA
ATOM     26  H   UNL     1     -30.403  30.807 -23.417  1.00  0.00     0.293 HD
ENDBRANCH  11  25
ENDBRANCH   1   2
BRANCH   1  27
ATOM     27  C   UNL     1     -30.113  27.208 -14.732  1.00  0.00     0.339 C 
ATOM     28  C   UNL     1     -30.057  25.798 -14.112  1.00  0.00     0.214 C 
ATOM     29  O   UNL     1     -28.854  27.617 -15.250  1.00  0.00    -0.332 OA
ATOM     30  C   UNL     1     -29.736  24.743 -15.195  1.00  0.00     0.180 C 
ATOM     31  C   UNL     1     -28.094  26.600 -15.908  1.00  0.00     0.179 C 
ATOM     32  C   UNL     1     -28.931  25.366 -16.364  1.00  0.00     0.177 C 
BRANCH  28  33
ATOM     33  O   UNL     1     -31.279  25.481 -13.495  1.00  0.00    -0.384 OA
ATOM     34  H   UNL     1     -31.953  25.372 -14.218  1.00  0.00     0.211 HD
ENDBRANCH  28  33
BRANCH  30  35
ATOM     35  O   UNL     1     -29.027  23.674 -14.628  1.00  0.00    -0.387 OA
ATOM     36  H   UNL     1     -29.656  23.211 -14.014  1.00  0.00     0.211 HD
ENDBRANCH  30  35
BRANCH  31  37
ATOM     37  C   UNL     1     -26.875  26.220 -15.033  1.00  0.00     0.191 C 
BRANCH  37  38
ATOM     38  O   UNL     1     -26.879  26.904 -13.808  1.00  0.00    -0.394 OA
ATOM     39  H   UNL     1     -25.964  26.819 -13.426  1.00  0.00     0.210 HD
ENDBRANCH  37  38
ENDBRANCH  31  37
BRANCH  32  40
ATOM     40  O   UNL     1     -28.110  24.399 -16.980  1.00  0.00    -0.387 OA
ATOM     41  H   UNL     1     -28.154  23.583 -16.413  1.00  0.00     0.211 HD
ENDBRANCH  32  40
ENDBRANCH   1  27
TORSDOF 12
ENDMDL
