MODEL 1
REMARK VINA RESULT:    -4.554      0.000      0.000
REMARK INTER + INTRA:         -14.741
REMARK INTER:                 -10.412
REMARK INTRA:                  -4.329
REMARK UNBOUND:                -4.329
REMARK SMILES CCCCCCCCCCCCCCCCCCCCCCCC(=O)[O-]
REMARK SMILES IDX 13 1 14 2 15 3 16 4 17 5 18 6 19 7 20 8 21 9 22 10 23 11
REMARK SMILES IDX 24 12 25 13 26 14 12 15 11 16 10 17 9 18 8 19 7 20 6 21 5 22
REMARK SMILES IDX 4 23 3 24 2 25 1 26
REMARK H PARENT
REMARK Flexibility Score: inf
ROOT
ATOM      1  C   UNL     1      30.955  -7.923  12.889  1.00  0.00     0.000 C 
ENDROOT
BRANCH   1   2
ATOM      2  C   UNL     1      30.563  -6.761  11.956  1.00  0.00     0.000 C 
BRANCH   2   3
ATOM      3  C   UNL     1      30.972  -6.936  10.480  1.00  0.00     0.000 C 
BRANCH   3   4
ATOM      4  C   UNL     1      32.104  -6.009  10.000  1.00  0.00     0.000 C 
BRANCH   4   5
ATOM      5  C   UNL     1      32.808  -5.278  11.157  1.00  0.00     0.000 C 
BRANCH   5   6
ATOM      6  C   UNL     1      34.284  -5.680  11.300  1.00  0.00     0.000 C 
BRANCH   6   7
ATOM      7  C   UNL     1      34.461  -7.156  11.700  1.00  0.00     0.000 C 
BRANCH   7   8
ATOM      8  C   UNL     1      35.739  -7.774  11.108  1.00  0.00     0.000 C 
BRANCH   8   9
ATOM      9  C   UNL     1      35.438  -8.836  10.036  1.00  0.00     0.000 C 
BRANCH   9  10
ATOM     10  C   UNL     1      33.937  -9.156   9.919  1.00  0.00     0.006 C 
BRANCH  10  11
ATOM     11  C   UNL     1      33.370  -9.023   8.497  1.00  0.00     0.053 C 
BRANCH  11  12
ATOM     12  C   UNL     1      32.107  -9.809   8.320  1.00  0.00     0.041 C 
ATOM     13  O   UNL     1      31.353  -9.587   7.337  1.00  0.00    -0.550 OA
ATOM     14  O   UNL     1      31.753 -10.773   9.256  1.00  0.00    -0.550 OA
ENDBRANCH  11  12
ENDBRANCH  10  11
ENDBRANCH   9  10
ENDBRANCH   8   9
ENDBRANCH   7   8
ENDBRANCH   6   7
ENDBRANCH   5   6
ENDBRANCH   4   5
ENDBRANCH   3   4
ENDBRANCH   2   3
ENDBRANCH   1   2
BRANCH   1  15
ATOM     15  C   UNL     1      30.915  -9.320  12.243  1.00  0.00     0.000 C 
BRANCH  15  16
ATOM     16  C   UNL     1      31.805 -10.339  12.975  1.00  0.00     0.000 C 
BRANCH  16  17
ATOM     17  C   UNL     1      32.056  -9.961  14.444  1.00  0.00     0.000 C 
BRANCH  17  18
ATOM     18  C   UNL     1      31.711 -11.096  15.419  1.00  0.00    -0.000 C 
BRANCH  18  19
ATOM     19  C   UNL     1      30.837 -10.585  16.571  1.00  0.00    -0.000 C 
BRANCH  19  20
ATOM     20  C   UNL     1      30.478  -9.105  16.374  1.00  0.00    -0.000 C 
BRANCH  20  21
ATOM     21  C   UNL     1      28.958  -8.854  16.365  1.00  0.00    -0.000 C 
BRANCH  21  22
ATOM     22  C   UNL     1      28.280  -9.042  14.993  1.00  0.00    -0.000 C 
BRANCH  22  23
ATOM     23  C   UNL     1      27.502 -10.361  14.830  1.00  0.00    -0.000 C 
BRANCH  23  24
ATOM     24  C   UNL     1      28.228 -11.407  13.955  1.00  0.00    -0.000 C 
BRANCH  24  25
ATOM     25  C   UNL     1      28.191 -12.832  14.537  1.00  0.00    -0.003 C 
ATOM     26  C   UNL     1      27.848 -12.845  16.027  1.00  0.00     0.004 C 
ENDBRANCH  24  25
ENDBRANCH  23  24
ENDBRANCH  22  23
ENDBRANCH  21  22
ENDBRANCH  20  21
ENDBRANCH  19  20
ENDBRANCH  18  19
ENDBRANCH  17  18
ENDBRANCH  16  17
ENDBRANCH  15  16
ENDBRANCH   1  15
TORSDOF 22
ENDMDL
MODEL 2
REMARK VINA RESULT:    -4.541      2.445      7.302
REMARK INTER + INTRA:         -14.710
REMARK INTER:                 -10.876
REMARK INTRA:                  -3.833
REMARK UNBOUND:                -4.329
REMARK SMILES CCCCCCCCCCCCCCCCCCCCCCCC(=O)[O-]
REMARK SMILES IDX 13 1 14 2 15 3 16 4 17 5 18 6 19 7 20 8 21 9 22 10 23 11
REMARK SMILES IDX 24 12 25 13 26 14 12 15 11 16 10 17 9 18 8 19 7 20 6 21 5 22
REMARK SMILES IDX 4 23 3 24 2 25 1 26
REMARK H PARENT
REMARK Flexibility Score: inf
ROOT
ATOM      1  C   UNL     1      30.606  -7.335  12.347  1.00  0.00     0.000 C 
ENDROOT
BRANCH   1   2
ATOM      2  C   UNL     1      31.074  -8.760  11.990  1.00  0.00     0.000 C 
BRANCH   2   3
ATOM      3  C   UNL     1      30.475  -9.885  12.859  1.00  0.00     0.000 C 
BRANCH   3   4
ATOM      4  C   UNL     1      31.356 -10.342  14.036  1.00  0.00     0.000 C 
BRANCH   4   5
ATOM      5  C   UNL     1      31.340  -9.351  15.214  1.00  0.00     0.000 C 
BRANCH   5   6
ATOM      6  C   UNL     1      30.396  -9.791  16.344  1.00  0.00     0.000 C 
BRANCH   6   7
ATOM      7  C   UNL     1      29.178  -8.862  16.495  1.00  0.00     0.000 C 
BRANCH   7   8
ATOM      8  C   UNL     1      28.043  -9.222  15.521  1.00  0.00     0.000 C 
BRANCH   8   9
ATOM      9  C   UNL     1      27.554 -10.670  15.697  1.00  0.00     0.000 C 
BRANCH   9  10
ATOM     10  C   UNL     1      27.347 -11.396  14.354  1.00  0.00     0.006 C 
BRANCH  10  11
ATOM     11  C   UNL     1      28.360 -12.520  14.081  1.00  0.00     0.053 C 
BRANCH  11  12
ATOM     12  C   UNL     1      27.734 -13.876  14.189  1.00  0.00     0.041 C 
ATOM     13  O   UNL     1      27.987 -14.615  15.177  1.00  0.00    -0.550 OA
ATOM     14  O   UNL     1      26.888 -14.333  13.187  1.00  0.00    -0.550 OA
ENDBRANCH  11  12
ENDBRANCH  10  11
ENDBRANCH   9  10
ENDBRANCH   8   9
ENDBRANCH   7   8
ENDBRANCH   6   7
ENDBRANCH   5   6
ENDBRANCH   4   5
ENDBRANCH   3   4
ENDBRANCH   2   3
ENDBRANCH   1   2
BRANCH   1  15
ATOM     15  C   UNL     1      31.088  -6.231  11.388  1.00  0.00     0.000 C 
BRANCH  15  16
ATOM     16  C   UNL     1      31.465  -6.774   9.999  1.00  0.00     0.000 C 
BRANCH  16  17
ATOM     17  C   UNL     1      32.644  -6.018   9.366  1.00  0.00     0.000 C 
BRANCH  17  18
ATOM     18  C   UNL     1      33.662  -5.525  10.405  1.00  0.00    -0.000 C 
BRANCH  18  19
ATOM     19  C   UNL     1      35.022  -6.206  10.208  1.00  0.00    -0.000 C 
BRANCH  19  20
ATOM     20  C   UNL     1      35.539  -6.796  11.528  1.00  0.00    -0.000 C 
BRANCH  20  21
ATOM     21  C   UNL     1      34.413  -7.374  12.406  1.00  0.00    -0.000 C 
BRANCH  21  22
ATOM     22  C   UNL     1      34.746  -8.720  13.080  1.00  0.00    -0.000 C 
BRANCH  22  23
ATOM     23  C   UNL     1      34.882  -9.912  12.113  1.00  0.00    -0.000 C 
BRANCH  23  24
ATOM     24  C   UNL     1      33.968  -9.812  10.871  1.00  0.00    -0.000 C 
BRANCH  24  25
ATOM     25  C   UNL     1      34.732  -9.881   9.536  1.00  0.00    -0.003 C 
ATOM     26  C   UNL     1      33.899  -9.374   8.359  1.00  0.00     0.004 C 
ENDBRANCH  24  25
ENDBRANCH  23  24
ENDBRANCH  22  23
ENDBRANCH  21  22
ENDBRANCH  20  21
ENDBRANCH  19  20
ENDBRANCH  18  19
ENDBRANCH  17  18
ENDBRANCH  16  17
ENDBRANCH  15  16
ENDBRANCH   1  15
TORSDOF 22
ENDMDL
MODEL 3
REMARK VINA RESULT:    -4.522      2.556      3.202
REMARK INTER + INTRA:         -14.667
REMARK INTER:                 -11.120
REMARK INTRA:                  -3.547
REMARK UNBOUND:                -4.329
REMARK SMILES CCCCCCCCCCCCCCCCCCCCCCCC(=O)[O-]
REMARK SMILES IDX 13 1 14 2 15 3 16 4 17 5 18 6 19 7 20 8 21 9 22 10 23 11
REMARK SMILES IDX 24 12 25 13 26 14 12 15 11 16 10 17 9 18 8 19 7 20 6 21 5 22
REMARK SMILES IDX 4 23 3 24 2 25 1 26
REMARK H PARENT
REMARK Flexibility Score: inf
ROOT
ATOM      1  C   UNL     1      30.845  -8.117  13.175  1.00  0.00     0.000 C 
ENDROOT
BRANCH   1   2
ATOM      2  C   UNL     1      30.663  -7.114  12.019  1.00  0.00     0.000 C 
BRANCH   2   3
ATOM      3  C   UNL     1      31.232  -7.569  10.659  1.00  0.00     0.000 C 
BRANCH   3   4
ATOM      4  C   UNL     1      31.384  -6.454   9.608  1.00  0.00     0.000 C 
BRANCH   4   5
ATOM      5  C   UNL     1      32.853  -6.072   9.350  1.00  0.00     0.000 C 
BRANCH   5   6
ATOM      6  C   UNL     1      33.473  -5.286  10.516  1.00  0.00     0.000 C 
BRANCH   6   7
ATOM      7  C   UNL     1      34.554  -6.087  11.263  1.00  0.00     0.000 C 
BRANCH   7   8
ATOM      8  C   UNL     1      35.199  -7.166  10.377  1.00  0.00     0.000 C 
BRANCH   8   9
ATOM      9  C   UNL     1      35.013  -8.584  10.946  1.00  0.00     0.000 C 
BRANCH   9  10
ATOM     10  C   UNL     1      34.505  -8.581  12.400  1.00  0.00     0.006 C 
BRANCH  10  11
ATOM     11  C   UNL     1      35.263  -9.536  13.336  1.00  0.00     0.053 C 
BRANCH  11  12
ATOM     12  C   UNL     1      36.279  -8.816  14.168  1.00  0.00     0.041 C 
ATOM     13  O   UNL     1      37.302  -8.317  13.629  1.00  0.00    -0.550 OA
ATOM     14  O   UNL     1      36.107  -8.715  15.543  1.00  0.00    -0.550 OA
ENDBRANCH  11  12
ENDBRANCH  10  11
ENDBRANCH   9  10
ENDBRANCH   8   9
ENDBRANCH   7   8
ENDBRANCH   6   7
ENDBRANCH   5   6
ENDBRANCH   4   5
ENDBRANCH   3   4
ENDBRANCH   2   3
ENDBRANCH   1   2
BRANCH   1  15
ATOM     15  C   UNL     1      31.006  -9.587  12.745  1.00  0.00     0.000 C 
BRANCH  15  16
ATOM     16  C   UNL     1      31.437 -10.501  13.904  1.00  0.00     0.000 C 
BRANCH  16  17
ATOM     17  C   UNL     1      32.031  -9.719  15.087  1.00  0.00     0.000 C 
BRANCH  17  18
ATOM     18  C   UNL     1      31.309 -10.004  16.412  1.00  0.00    -0.000 C 
BRANCH  18  19
ATOM     19  C   UNL     1      30.451  -8.806  16.838  1.00  0.00    -0.000 C 
BRANCH  19  20
ATOM     20  C   UNL     1      28.963  -9.186  16.889  1.00  0.00    -0.000 C 
BRANCH  20  21
ATOM     21  C   UNL     1      28.267  -9.061  15.521  1.00  0.00    -0.000 C 
BRANCH  21  22
ATOM     22  C   UNL     1      27.461 -10.302  15.090  1.00  0.00    -0.000 C 
BRANCH  22  23
ATOM     23  C   UNL     1      28.292 -11.588  14.921  1.00  0.00    -0.000 C 
BRANCH  23  24
ATOM     24  C   UNL     1      28.054 -12.632  16.035  1.00  0.00    -0.000 C 
BRANCH  24  25
ATOM     25  C   UNL     1      28.573 -14.038  15.684  1.00  0.00    -0.003 C 
ATOM     26  C   UNL     1      27.789 -14.681  14.540  1.00  0.00     0.004 C 
ENDBRANCH  24  25
ENDBRANCH  23  24
ENDBRANCH  22  23
ENDBRANCH  21  22
ENDBRANCH  20  21
ENDBRANCH  19  20
ENDBRANCH  18  19
ENDBRANCH  17  18
ENDBRANCH  16  17
ENDBRANCH  15  16
ENDBRANCH   1  15
TORSDOF 22
ENDMDL
MODEL 4
REMARK VINA RESULT:    -4.510      2.864      7.309
REMARK INTER + INTRA:         -14.640
REMARK INTER:                 -10.999
REMARK INTRA:                  -3.641
REMARK UNBOUND:                -4.329
REMARK SMILES CCCCCCCCCCCCCCCCCCCCCCCC(=O)[O-]
REMARK SMILES IDX 13 1 14 2 15 3 16 4 17 5 18 6 19 7 20 8 21 9 22 10 23 11
REMARK SMILES IDX 24 12 25 13 26 14 12 15 11 16 10 17 9 18 8 19 7 20 6 21 5 22
REMARK SMILES IDX 4 23 3 24 2 25 1 26
REMARK H PARENT
REMARK Flexibility Score: inf
ROOT
ATOM      1  C   UNL     1      30.748  -7.351  12.242  1.00  0.00     0.000 C 
ENDROOT
BRANCH   1   2
ATOM      2  C   UNL     1      31.290  -8.771  11.987  1.00  0.00     0.000 C 
BRANCH   2   3
ATOM      3  C   UNL     1      31.088  -9.770  13.145  1.00  0.00     0.000 C 
BRANCH   3   4
ATOM      4  C   UNL     1      31.427  -9.226  14.545  1.00  0.00     0.000 C 
BRANCH   4   5
ATOM      5  C   UNL     1      30.966 -10.161  15.677  1.00  0.00     0.000 C 
BRANCH   5   6
ATOM      6  C   UNL     1      29.971  -9.485  16.634  1.00  0.00     0.000 C 
BRANCH   6   7
ATOM      7  C   UNL     1      28.686  -9.023  15.924  1.00  0.00     0.000 C 
BRANCH   7   8
ATOM      8  C   UNL     1      27.641 -10.146  15.817  1.00  0.00     0.000 C 
BRANCH   8   9
ATOM      9  C   UNL     1      27.407 -10.597  14.364  1.00  0.00     0.000 C 
BRANCH   9  10
ATOM     10  C   UNL     1      28.056 -11.957  14.050  1.00  0.00     0.006 C 
BRANCH  10  11
ATOM     11  C   UNL     1      27.491 -13.131  14.866  1.00  0.00     0.053 C 
BRANCH  11  12
ATOM     12  C   UNL     1      28.549 -13.809  15.680  1.00  0.00     0.041 C 
ATOM     13  O   UNL     1      28.842 -15.014  15.464  1.00  0.00    -0.550 OA
ATOM     14  O   UNL     1      29.197 -13.114  16.694  1.00  0.00    -0.550 OA
ENDBRANCH  11  12
ENDBRANCH  10  11
ENDBRANCH   9  10
ENDBRANCH   8   9
ENDBRANCH   7   8
ENDBRANCH   6   7
ENDBRANCH   5   6
ENDBRANCH   4   5
ENDBRANCH   3   4
ENDBRANCH   2   3
ENDBRANCH   1   2
BRANCH   1  15
ATOM     15  C   UNL     1      31.055  -6.327  11.134  1.00  0.00     0.000 C 
BRANCH  15  16
ATOM     16  C   UNL     1      31.950  -5.175  11.622  1.00  0.00     0.000 C 
BRANCH  16  17
ATOM     17  C   UNL     1      33.375  -5.247  11.049  1.00  0.00     0.000 C 
BRANCH  17  18
ATOM     18  C   UNL     1      33.465  -6.114   9.784  1.00  0.00    -0.000 C 
BRANCH  18  19
ATOM     19  C   UNL     1      34.466  -7.260   9.974  1.00  0.00    -0.000 C 
BRANCH  19  20
ATOM     20  C   UNL     1      35.722  -6.778  10.716  1.00  0.00    -0.000 C 
BRANCH  20  21
ATOM     21  C   UNL     1      36.054  -7.638  11.950  1.00  0.00    -0.000 C 
BRANCH  21  22
ATOM     22  C   UNL     1      34.829  -8.138  12.739  1.00  0.00    -0.000 C 
BRANCH  22  23
ATOM     23  C   UNL     1      35.111  -8.510  14.207  1.00  0.00    -0.000 C 
BRANCH  23  24
ATOM     24  C   UNL     1      35.121 -10.033  14.471  1.00  0.00    -0.000 C 
BRANCH  24  25
ATOM     25  C   UNL     1      34.677 -10.872  13.259  1.00  0.00    -0.003 C 
ATOM     26  C   UNL     1      34.045 -12.201  13.669  1.00  0.00     0.004 C 
ENDBRANCH  24  25
ENDBRANCH  23  24
ENDBRANCH  22  23
ENDBRANCH  21  22
ENDBRANCH  20  21
ENDBRANCH  19  20
ENDBRANCH  18  19
ENDBRANCH  17  18
ENDBRANCH  16  17
ENDBRANCH  15  16
ENDBRANCH   1  15
TORSDOF 22
ENDMDL
MODEL 5
REMARK VINA RESULT:    -4.459      2.306      7.326
REMARK INTER + INTRA:         -14.522
REMARK INTER:                 -10.709
REMARK INTRA:                  -3.813
REMARK UNBOUND:                -4.329
REMARK SMILES CCCCCCCCCCCCCCCCCCCCCCCC(=O)[O-]
REMARK SMILES IDX 13 1 14 2 15 3 16 4 17 5 18 6 19 7 20 8 21 9 22 10 23 11
REMARK SMILES IDX 24 12 25 13 26 14 12 15 11 16 10 17 9 18 8 19 7 20 6 21 5 22
REMARK SMILES IDX 4 23 3 24 2 25 1 26
REMARK H PARENT
REMARK Flexibility Score: inf
ROOT
ATOM      1  C   UNL     1      30.603  -7.047  12.388  1.00  0.00     0.000 C 
ENDROOT
BRANCH   1   2
ATOM      2  C   UNL     1      30.862  -8.555  12.569  1.00  0.00     0.000 C 
BRANCH   2   3
ATOM      3  C   UNL     1      32.189  -8.915  13.270  1.00  0.00     0.000 C 
BRANCH   3   4
ATOM      4  C   UNL     1      32.396 -10.415  13.547  1.00  0.00     0.000 C 
BRANCH   4   5
ATOM      5  C   UNL     1      31.399 -10.977  14.575  1.00  0.00     0.000 C 
BRANCH   5   6
ATOM      6  C   UNL     1      31.468 -10.246  15.926  1.00  0.00     0.000 C 
BRANCH   6   7
ATOM      7  C   UNL     1      30.082 -10.052  16.566  1.00  0.00     0.000 C 
BRANCH   7   8
ATOM      8  C   UNL     1      29.394  -8.760  16.095  1.00  0.00     0.000 C 
BRANCH   8   9
ATOM      9  C   UNL     1      28.257  -9.029  15.093  1.00  0.00     0.000 C 
BRANCH   9  10
ATOM     10  C   UNL     1      27.485 -10.324  15.403  1.00  0.00     0.006 C 
BRANCH  10  11
ATOM     11  C   UNL     1      27.476 -11.346  14.254  1.00  0.00     0.053 C 
BRANCH  11  12
ATOM     12  C   UNL     1      27.780 -12.732  14.734  1.00  0.00     0.041 C 
ATOM     13  O   UNL     1      28.052 -12.938  15.947  1.00  0.00    -0.550 OA
ATOM     14  O   UNL     1      27.786 -13.792  13.838  1.00  0.00    -0.550 OA
ENDBRANCH  11  12
ENDBRANCH  10  11
ENDBRANCH   9  10
ENDBRANCH   8   9
ENDBRANCH   7   8
ENDBRANCH   6   7
ENDBRANCH   5   6
ENDBRANCH   4   5
ENDBRANCH   3   4
ENDBRANCH   2   3
ENDBRANCH   1   2
BRANCH   1  15
ATOM     15  C   UNL     1      31.331  -6.398  11.196  1.00  0.00     0.000 C 
BRANCH  15  16
ATOM     16  C   UNL     1      32.101  -5.127  11.591  1.00  0.00     0.000 C 
BRANCH  16  17
ATOM     17  C   UNL     1      33.566  -5.152  11.128  1.00  0.00     0.000 C 
BRANCH  17  18
ATOM     18  C   UNL     1      34.251  -6.501  11.390  1.00  0.00    -0.000 C 
BRANCH  18  19
ATOM     19  C   UNL     1      35.311  -6.796  10.322  1.00  0.00    -0.000 C 
BRANCH  19  20
ATOM     20  C   UNL     1      34.921  -8.020   9.480  1.00  0.00    -0.000 C 
BRANCH  20  21
ATOM     21  C   UNL     1      33.831  -8.881  10.147  1.00  0.00    -0.000 C 
BRANCH  21  22
ATOM     22  C   UNL     1      33.394 -10.115   9.333  1.00  0.00    -0.000 C 
BRANCH  22  23
ATOM     23  C   UNL     1      31.963 -10.045   8.769  1.00  0.00    -0.000 C 
BRANCH  23  24
ATOM     24  C   UNL     1      31.343  -8.630   8.822  1.00  0.00    -0.000 C 
BRANCH  24  25
ATOM     25  C   UNL     1      31.350  -7.902   7.466  1.00  0.00    -0.003 C 
ATOM     26  C   UNL     1      32.133  -6.591   7.510  1.00  0.00     0.004 C 
ENDBRANCH  24  25
ENDBRANCH  23  24
ENDBRANCH  22  23
ENDBRANCH  21  22
ENDBRANCH  20  21
ENDBRANCH  19  20
ENDBRANCH  18  19
ENDBRANCH  17  18
ENDBRANCH  16  17
ENDBRANCH  15  16
ENDBRANCH   1  15
TORSDOF 22
ENDMDL
MODEL 6
REMARK VINA RESULT:    -4.436      2.822      7.836
REMARK INTER + INTRA:         -14.471
REMARK INTER:                 -10.977
REMARK INTRA:                  -3.494
REMARK UNBOUND:                -4.329
REMARK SMILES CCCCCCCCCCCCCCCCCCCCCCCC(=O)[O-]
REMARK SMILES IDX 13 1 14 2 15 3 16 4 17 5 18 6 19 7 20 8 21 9 22 10 23 11
REMARK SMILES IDX 24 12 25 13 26 14 12 15 11 16 10 17 9 18 8 19 7 20 6 21 5 22
REMARK SMILES IDX 4 23 3 24 2 25 1 26
REMARK H PARENT
REMARK Flexibility Score: inf
ROOT
ATOM      1  C   UNL     1      30.181  -8.568  13.583  1.00  0.00     0.000 C 
ENDROOT
BRANCH   1   2
ATOM      2  C   UNL     1      30.628  -9.965  13.108  1.00  0.00     0.000 C 
BRANCH   2   3
ATOM      3  C   UNL     1      29.520 -11.039  13.089  1.00  0.00     0.000 C 
BRANCH   3   4
ATOM      4  C   UNL     1      28.277 -10.712  13.937  1.00  0.00     0.000 C 
BRANCH   4   5
ATOM      5  C   UNL     1      27.070 -11.604  13.597  1.00  0.00     0.000 C 
BRANCH   5   6
ATOM      6  C   UNL     1      26.875 -12.744  14.609  1.00  0.00     0.000 C 
BRANCH   6   7
ATOM      7  C   UNL     1      27.745 -13.974  14.292  1.00  0.00     0.000 C 
BRANCH   7   8
ATOM      8  C   UNL     1      28.651 -14.369  15.470  1.00  0.00     0.000 C 
BRANCH   8   9
ATOM      9  C   UNL     1      28.957 -13.183  16.402  1.00  0.00     0.000 C 
BRANCH   9  10
ATOM     10  C   UNL     1      30.439 -13.117  16.815  1.00  0.00     0.006 C 
BRANCH  10  11
ATOM     11  C   UNL     1      31.260 -12.060  16.057  1.00  0.00     0.053 C 
BRANCH  11  12
ATOM     12  C   UNL     1      31.253 -10.737  16.758  1.00  0.00     0.041 C 
ATOM     13  O   UNL     1      32.291 -10.318  17.334  1.00  0.00    -0.550 OA
ATOM     14  O   UNL     1      30.091  -9.975  16.792  1.00  0.00    -0.550 OA
ENDBRANCH  11  12
ENDBRANCH  10  11
ENDBRANCH   9  10
ENDBRANCH   8   9
ENDBRANCH   7   8
ENDBRANCH   6   7
ENDBRANCH   5   6
ENDBRANCH   4   5
ENDBRANCH   3   4
ENDBRANCH   2   3
ENDBRANCH   1   2
BRANCH   1  15
ATOM     15  C   UNL     1      30.708  -7.393  12.740  1.00  0.00     0.000 C 
BRANCH  15  16
ATOM     16  C   UNL     1      30.976  -7.785  11.277  1.00  0.00     0.000 C 
BRANCH  16  17
ATOM     17  C   UNL     1      31.666  -6.667  10.479  1.00  0.00     0.000 C 
BRANCH  17  18
ATOM     18  C   UNL     1      32.152  -5.513  11.369  1.00  0.00    -0.000 C 
BRANCH  18  19
ATOM     19  C   UNL     1      33.563  -5.067  10.968  1.00  0.00    -0.000 C 
BRANCH  19  20
ATOM     20  C   UNL     1      34.263  -6.143  10.125  1.00  0.00    -0.000 C 
BRANCH  20  21
ATOM     21  C   UNL     1      35.731  -6.364  10.537  1.00  0.00    -0.000 C 
BRANCH  21  22
ATOM     22  C   UNL     1      36.018  -7.725  11.202  1.00  0.00    -0.000 C 
BRANCH  22  23
ATOM     23  C   UNL     1      35.408  -7.901  12.606  1.00  0.00    -0.000 C 
BRANCH  23  24
ATOM     24  C   UNL     1      34.175  -8.832  12.635  1.00  0.00    -0.000 C 
BRANCH  24  25
ATOM     25  C   UNL     1      34.380 -10.151  11.868  1.00  0.00    -0.003 C 
ATOM     26  C   UNL     1      33.404 -10.307  10.702  1.00  0.00     0.004 C 
ENDBRANCH  24  25
ENDBRANCH  23  24
ENDBRANCH  22  23
ENDBRANCH  21  22
ENDBRANCH  20  21
ENDBRANCH  19  20
ENDBRANCH  18  19
ENDBRANCH  17  18
ENDBRANCH  16  17
ENDBRANCH  15  16
ENDBRANCH   1  15
TORSDOF 22
ENDMDL
MODEL 7
REMARK VINA RESULT:    -4.419      2.728      7.650
REMARK INTER + INTRA:         -14.431
REMARK INTER:                 -10.346
REMARK INTRA:                  -4.085
REMARK UNBOUND:                -4.329
REMARK SMILES CCCCCCCCCCCCCCCCCCCCCCCC(=O)[O-]
REMARK SMILES IDX 13 1 14 2 15 3 16 4 17 5 18 6 19 7 20 8 21 9 22 10 23 11
REMARK SMILES IDX 24 12 25 13 26 14 12 15 11 16 10 17 9 18 8 19 7 20 6 21 5 22
REMARK SMILES IDX 4 23 3 24 2 25 1 26
REMARK H PARENT
REMARK Flexibility Score: inf
ROOT
ATOM      1  C   UNL     1      30.601  -7.755  12.649  1.00  0.00     0.000 C 
ENDROOT
BRANCH   1   2
ATOM      2  C   UNL     1      31.682  -8.631  13.312  1.00  0.00     0.000 C 
BRANCH   2   3
ATOM      3  C   UNL     1      31.413 -10.149  13.272  1.00  0.00     0.000 C 
BRANCH   3   4
ATOM      4  C   UNL     1      29.987 -10.551  12.856  1.00  0.00     0.000 C 
BRANCH   4   5
ATOM      5  C   UNL     1      29.261 -11.379  13.930  1.00  0.00     0.000 C 
BRANCH   5   6
ATOM      6  C   UNL     1      27.833 -10.878  14.199  1.00  0.00     0.000 C 
BRANCH   6   7
ATOM      7  C   UNL     1      27.806  -9.578  15.022  1.00  0.00     0.000 C 
BRANCH   7   8
ATOM      8  C   UNL     1      28.661  -9.675  16.297  1.00  0.00     0.000 C 
BRANCH   8   9
ATOM      9  C   UNL     1      29.681  -8.528  16.410  1.00  0.00     0.000 C 
BRANCH   9  10
ATOM     10  C   UNL     1      30.929  -8.919  17.224  1.00  0.00     0.006 C 
BRANCH  10  11
ATOM     11  C   UNL     1      31.533 -10.279  16.840  1.00  0.00     0.053 C 
BRANCH  11  12
ATOM     12  C   UNL     1      32.918 -10.451  17.386  1.00  0.00     0.041 C 
ATOM     13  O   UNL     1      33.693 -11.310  16.890  1.00  0.00    -0.550 OA
ATOM     14  O   UNL     1      33.344  -9.676  18.457  1.00  0.00    -0.550 OA
ENDBRANCH  11  12
ENDBRANCH  10  11
ENDBRANCH   9  10
ENDBRANCH   8   9
ENDBRANCH   7   8
ENDBRANCH   6   7
ENDBRANCH   5   6
ENDBRANCH   4   5
ENDBRANCH   3   4
ENDBRANCH   2   3
ENDBRANCH   1   2
BRANCH   1  15
ATOM     15  C   UNL     1      30.994  -7.154  11.286  1.00  0.00     0.000 C 
BRANCH  15  16
ATOM     16  C   UNL     1      31.293  -5.648  11.365  1.00  0.00     0.000 C 
BRANCH  16  17
ATOM     17  C   UNL     1      32.786  -5.350  11.584  1.00  0.00     0.000 C 
BRANCH  17  18
ATOM     18  C   UNL     1      33.631  -5.583  10.324  1.00  0.00    -0.000 C 
BRANCH  18  19
ATOM     19  C   UNL     1      34.957  -6.271  10.671  1.00  0.00    -0.000 C 
BRANCH  19  20
ATOM     20  C   UNL     1      34.714  -7.597  11.406  1.00  0.00    -0.000 C 
BRANCH  20  21
ATOM     21  C   UNL     1      34.766  -8.818  10.469  1.00  0.00    -0.000 C 
BRANCH  21  22
ATOM     22  C   UNL     1      33.393  -9.430  10.127  1.00  0.00    -0.000 C 
BRANCH  22  23
ATOM     23  C   UNL     1      33.122  -9.613   8.622  1.00  0.00    -0.000 C 
BRANCH  23  24
ATOM     24  C   UNL     1      32.988  -8.282   7.848  1.00  0.00    -0.000 C 
BRANCH  24  25
ATOM     25  C   UNL     1      31.532  -7.818   7.667  1.00  0.00    -0.003 C 
ATOM     26  C   UNL     1      31.406  -6.295   7.618  1.00  0.00     0.004 C 
ENDBRANCH  24  25
ENDBRANCH  23  24
ENDBRANCH  22  23
ENDBRANCH  21  22
ENDBRANCH  20  21
ENDBRANCH  19  20
ENDBRANCH  18  19
ENDBRANCH  17  18
ENDBRANCH  16  17
ENDBRANCH  15  16
ENDBRANCH   1  15
TORSDOF 22
ENDMDL
MODEL 8
REMARK VINA RESULT:    -4.381      2.501      7.920
REMARK INTER + INTRA:         -14.343
REMARK INTER:                 -10.992
REMARK INTRA:                  -3.352
REMARK UNBOUND:                -4.329
REMARK SMILES CCCCCCCCCCCCCCCCCCCCCCCC(=O)[O-]
REMARK SMILES IDX 13 1 14 2 15 3 16 4 17 5 18 6 19 7 20 8 21 9 22 10 23 11
REMARK SMILES IDX 24 12 25 13 26 14 12 15 11 16 10 17 9 18 8 19 7 20 6 21 5 22
REMARK SMILES IDX 4 23 3 24 2 25 1 26
REMARK H PARENT
REMARK Flexibility Score: inf
ROOT
ATOM      1  C   UNL     1      30.879  -9.680  12.264  1.00  0.00     0.000 C 
ENDROOT
BRANCH   1   2
ATOM      2  C   UNL     1      30.007 -10.536  13.203  1.00  0.00     0.000 C 
BRANCH   2   3
ATOM      3  C   UNL     1      29.283  -9.758  14.320  1.00  0.00     0.000 C 
BRANCH   3   4
ATOM      4  C   UNL     1      27.891 -10.296  14.697  1.00  0.00     0.000 C 
BRANCH   4   5
ATOM      5  C   UNL     1      27.301 -11.230  13.624  1.00  0.00     0.000 C 
BRANCH   5   6
ATOM      6  C   UNL     1      26.890 -12.597  14.192  1.00  0.00     0.000 C 
BRANCH   6   7
ATOM      7  C   UNL     1      28.088 -13.546  14.380  1.00  0.00     0.000 C 
BRANCH   7   8
ATOM      8  C   UNL     1      28.323 -13.907  15.856  1.00  0.00     0.000 C 
BRANCH   8   9
ATOM      9  C   UNL     1      29.814 -13.891  16.238  1.00  0.00     0.000 C 
BRANCH   9  10
ATOM     10  C   UNL     1      30.338 -12.473  16.533  1.00  0.00     0.006 C 
BRANCH  10  11
ATOM     11  C   UNL     1      31.730 -12.179  15.951  1.00  0.00     0.053 C 
BRANCH  11  12
ATOM     12  C   UNL     1      32.367 -10.988  16.597  1.00  0.00     0.041 C 
ATOM     13  O   UNL     1      32.814 -11.065  17.771  1.00  0.00    -0.550 OA
ATOM     14  O   UNL     1      32.447  -9.784  15.908  1.00  0.00    -0.550 OA
ENDBRANCH  11  12
ENDBRANCH  10  11
ENDBRANCH   9  10
ENDBRANCH   8   9
ENDBRANCH   7   8
ENDBRANCH   6   7
ENDBRANCH   5   6
ENDBRANCH   4   5
ENDBRANCH   3   4
ENDBRANCH   2   3
ENDBRANCH   1   2
BRANCH   1  15
ATOM     15  C   UNL     1      31.362  -8.345  12.860  1.00  0.00     0.000 C 
BRANCH  15  16
ATOM     16  C   UNL     1      30.566  -7.138  12.335  1.00  0.00     0.000 C 
BRANCH  16  17
ATOM     17  C   UNL     1      31.252  -6.447  11.145  1.00  0.00     0.000 C 
BRANCH  17  18
ATOM     18  C   UNL     1      32.112  -5.247  11.568  1.00  0.00    -0.000 C 
BRANCH  18  19
ATOM     19  C   UNL     1      33.474  -5.272  10.862  1.00  0.00    -0.000 C 
BRANCH  19  20
ATOM     20  C   UNL     1      34.218  -6.585  11.147  1.00  0.00    -0.000 C 
BRANCH  20  21
ATOM     21  C   UNL     1      34.534  -7.384   9.869  1.00  0.00    -0.000 C 
BRANCH  21  22
ATOM     22  C   UNL     1      34.223  -8.891   9.955  1.00  0.00    -0.000 C 
BRANCH  22  23
ATOM     23  C   UNL     1      32.995  -9.347   9.145  1.00  0.00    -0.000 C 
BRANCH  23  24
ATOM     24  C   UNL     1      32.727  -8.490   7.888  1.00  0.00    -0.000 C 
BRANCH  24  25
ATOM     25  C   UNL     1      31.435  -7.657   7.973  1.00  0.00    -0.003 C 
ATOM     26  C   UNL     1      31.580  -6.284   7.319  1.00  0.00     0.004 C 
ENDBRANCH  24  25
ENDBRANCH  23  24
ENDBRANCH  22  23
ENDBRANCH  21  22
ENDBRANCH  20  21
ENDBRANCH  19  20
ENDBRANCH  18  19
ENDBRANCH  17  18
ENDBRANCH  16  17
ENDBRANCH  15  16
ENDBRANCH   1  15
TORSDOF 22
ENDMDL
MODEL 9
REMARK VINA RESULT:    -4.349      2.356      7.706
REMARK INTER + INTRA:         -14.272
REMARK INTER:                 -10.398
REMARK INTRA:                  -3.874
REMARK UNBOUND:                -4.329
REMARK SMILES CCCCCCCCCCCCCCCCCCCCCCCC(=O)[O-]
REMARK SMILES IDX 13 1 14 2 15 3 16 4 17 5 18 6 19 7 20 8 21 9 22 10 23 11
REMARK SMILES IDX 24 12 25 13 26 14 12 15 11 16 10 17 9 18 8 19 7 20 6 21 5 22
REMARK SMILES IDX 4 23 3 24 2 25 1 26
REMARK H PARENT
REMARK Flexibility Score: inf
ROOT
ATOM      1  C   UNL     1      30.611  -7.232  12.480  1.00  0.00     0.000 C 
ENDROOT
BRANCH   1   2
ATOM      2  C   UNL     1      31.174  -8.666  12.426  1.00  0.00     0.000 C 
BRANCH   2   3
ATOM      3  C   UNL     1      32.575  -8.847  13.047  1.00  0.00     0.000 C 
BRANCH   3   4
ATOM      4  C   UNL     1      33.076 -10.300  13.118  1.00  0.00     0.000 C 
BRANCH   4   5
ATOM      5  C   UNL     1      32.759 -10.977  14.464  1.00  0.00     0.000 C 
BRANCH   5   6
ATOM      6  C   UNL     1      32.538  -9.964  15.598  1.00  0.00     0.000 C 
BRANCH   6   7
ATOM      7  C   UNL     1      31.159 -10.113  16.265  1.00  0.00     0.000 C 
BRANCH   7   8
ATOM      8  C   UNL     1      30.365  -8.796  16.268  1.00  0.00     0.000 C 
BRANCH   8   9
ATOM      9  C   UNL     1      28.845  -9.025  16.188  1.00  0.00     0.000 C 
BRANCH   9  10
ATOM     10  C   UNL     1      28.357  -9.292  14.752  1.00  0.00     0.006 C 
BRANCH  10  11
ATOM     11  C   UNL     1      27.301 -10.404  14.639  1.00  0.00     0.053 C 
BRANCH  11  12
ATOM     12  C   UNL     1      27.825 -11.725  15.111  1.00  0.00     0.041 C 
ATOM     13  O   UNL     1      28.854 -12.224  14.584  1.00  0.00    -0.550 OA
ATOM     14  O   UNL     1      27.164 -12.415  16.119  1.00  0.00    -0.550 OA
ENDBRANCH  11  12
ENDBRANCH  10  11
ENDBRANCH   9  10
ENDBRANCH   8   9
ENDBRANCH   7   8
ENDBRANCH   6   7
ENDBRANCH   5   6
ENDBRANCH   4   5
ENDBRANCH   3   4
ENDBRANCH   2   3
ENDBRANCH   1   2
BRANCH   1  15
ATOM     15  C   UNL     1      30.977  -6.342  11.278  1.00  0.00     0.000 C 
BRANCH  15  16
ATOM     16  C   UNL     1      32.081  -5.323  11.608  1.00  0.00     0.000 C 
BRANCH  16  17
ATOM     17  C   UNL     1      33.326  -5.489  10.722  1.00  0.00     0.000 C 
BRANCH  17  18
ATOM     18  C   UNL     1      32.998  -6.054   9.333  1.00  0.00    -0.000 C 
BRANCH  18  19
ATOM     19  C   UNL     1      33.941  -7.210   8.973  1.00  0.00    -0.000 C 
BRANCH  19  20
ATOM     20  C   UNL     1      33.330  -8.562   9.368  1.00  0.00    -0.000 C 
BRANCH  20  21
ATOM     21  C   UNL     1      34.394  -9.635   9.666  1.00  0.00    -0.000 C 
BRANCH  21  22
ATOM     22  C   UNL     1      35.802  -9.084   9.963  1.00  0.00    -0.000 C 
BRANCH  22  23
ATOM     23  C   UNL     1      36.168  -9.012  11.458  1.00  0.00    -0.000 C 
BRANCH  23  24
ATOM     24  C   UNL     1      36.188  -7.573  12.023  1.00  0.00    -0.000 C 
BRANCH  24  25
ATOM     25  C   UNL     1      36.876  -6.556  11.096  1.00  0.00    -0.003 C 
ATOM     26  C   UNL     1      38.308  -6.243  11.532  1.00  0.00     0.004 C 
ENDBRANCH  24  25
ENDBRANCH  23  24
ENDBRANCH  22  23
ENDBRANCH  21  22
ENDBRANCH  20  21
ENDBRANCH  19  20
ENDBRANCH  18  19
ENDBRANCH  17  18
ENDBRANCH  16  17
ENDBRANCH  15  16
ENDBRANCH   1  15
TORSDOF 22
ENDMDL
