MODEL 1
REMARK VINA RESULT:    -7.211      0.000      0.000
REMARK INTER + INTRA:         -18.641
REMARK INTER:                 -16.486
REMARK INTRA:                  -2.156
REMARK UNBOUND:                -2.156
REMARK SMILES CCCCCCCCCCCCCCCCCCCCCCCC(=O)[O-]
REMARK SMILES IDX 13 1 14 2 15 3 16 4 17 5 18 6 19 7 20 8 21 9 22 10 23 11
REMARK SMILES IDX 24 12 25 13 26 14 12 15 11 16 10 17 9 18 8 19 7 20 6 21 5 22
REMARK SMILES IDX 4 23 3 24 2 25 1 26
REMARK H PARENT
REMARK Flexibility Score: inf
ROOT
ATOM      1  C   UNL     1      -5.226   0.378   2.252  1.00  0.00     0.000 C 
ENDROOT
BRANCH   1   2
ATOM      2  C   UNL     1      -6.455   0.278   3.181  1.00  0.00     0.000 C 
BRANCH   2   3
ATOM      3  C   UNL     1      -6.799  -1.161   3.610  1.00  0.00     0.000 C 
BRANCH   3   4
ATOM      4  C   UNL     1      -6.294  -1.563   5.007  1.00  0.00     0.000 C 
BRANCH   4   5
ATOM      5  C   UNL     1      -4.878  -2.158   4.979  1.00  0.00     0.000 C 
BRANCH   5   6
ATOM      6  C   UNL     1      -3.900  -1.286   5.782  1.00  0.00     0.000 C 
BRANCH   6   7
ATOM      7  C   UNL     1      -3.081  -2.093   6.801  1.00  0.00     0.000 C 
BRANCH   7   8
ATOM      8  C   UNL     1      -2.004  -1.250   7.500  1.00  0.00     0.000 C 
BRANCH   8   9
ATOM      9  C   UNL     1      -2.493   0.188   7.726  1.00  0.00     0.000 C 
BRANCH   9  10
ATOM     10  C   UNL     1      -1.929   0.811   9.013  1.00  0.00     0.006 C 
BRANCH  10  11
ATOM     11  C   UNL     1      -0.422   1.086   8.923  1.00  0.00     0.053 C 
BRANCH  11  12
ATOM     12  C   UNL     1       0.317   0.289   9.952  1.00  0.00     0.041 C 
ATOM     13  O   UNL     1      -0.210  -0.738  10.456  1.00  0.00    -0.550 OA
ATOM     14  O   UNL     1       1.563   0.712  10.396  1.00  0.00    -0.550 OA
ENDBRANCH  11  12
ENDBRANCH  10  11
ENDBRANCH   9  10
ENDBRANCH   8   9
ENDBRANCH   7   8
ENDBRANCH   6   7
ENDBRANCH   5   6
ENDBRANCH   4   5
ENDBRANCH   3   4
ENDBRANCH   2   3
ENDBRANCH   1   2
BRANCH   1  15
ATOM     15  C   UNL     1      -3.983   0.924   2.977  1.00  0.00     0.000 C 
BRANCH  15  16
ATOM     16  C   UNL     1      -4.262   2.250   3.705  1.00  0.00     0.000 C 
BRANCH  16  17
ATOM     17  C   UNL     1      -3.284   2.499   4.868  1.00  0.00     0.000 C 
BRANCH  17  18
ATOM     18  C   UNL     1      -3.610   3.786   5.642  1.00  0.00    -0.000 C 
BRANCH  18  19
ATOM     19  C   UNL     1      -4.803   4.547   5.037  1.00  0.00    -0.000 C 
BRANCH  19  20
ATOM     20  C   UNL     1      -4.408   5.924   4.474  1.00  0.00    -0.000 C 
BRANCH  20  21
ATOM     21  C   UNL     1      -5.564   6.736   3.856  1.00  0.00    -0.000 C 
BRANCH  21  22
ATOM     22  C   UNL     1      -5.624   6.715   2.316  1.00  0.00    -0.000 C 
BRANCH  22  23
ATOM     23  C   UNL     1      -7.003   6.367   1.724  1.00  0.00    -0.000 C 
BRANCH  23  24
ATOM     24  C   UNL     1      -7.937   5.580   2.665  1.00  0.00    -0.000 C 
BRANCH  24  25
ATOM     25  C   UNL     1      -9.434   5.902   2.510  1.00  0.00    -0.003 C 
ATOM     26  C   UNL     1      -9.910   5.844   1.059  1.00  0.00     0.004 C 
ENDBRANCH  24  25
ENDBRANCH  23  24
ENDBRANCH  22  23
ENDBRANCH  21  22
ENDBRANCH  20  21
ENDBRANCH  19  20
ENDBRANCH  18  19
ENDBRANCH  17  18
ENDBRANCH  16  17
ENDBRANCH  15  16
ENDBRANCH   1  15
TORSDOF 22
ENDMDL
MODEL 2
REMARK VINA RESULT:    -6.958      3.986      9.085
REMARK INTER + INTRA:         -18.062
REMARK INTER:                 -16.253
REMARK INTRA:                  -1.809
REMARK UNBOUND:                -2.156
REMARK SMILES CCCCCCCCCCCCCCCCCCCCCCCC(=O)[O-]
REMARK SMILES IDX 13 1 14 2 15 3 16 4 17 5 18 6 19 7 20 8 21 9 22 10 23 11
REMARK SMILES IDX 24 12 25 13 26 14 12 15 11 16 10 17 9 18 8 19 7 20 6 21 5 22
REMARK SMILES IDX 4 23 3 24 2 25 1 26
REMARK H PARENT
REMARK Flexibility Score: inf
ROOT
ATOM      1  C   UNL     1      -2.890   2.888   6.211  1.00  0.00     0.000 C 
ENDROOT
BRANCH   1   2
ATOM      2  C   UNL     1      -3.303   3.791   5.029  1.00  0.00     0.000 C 
BRANCH   2   3
ATOM      3  C   UNL     1      -4.587   4.603   5.280  1.00  0.00     0.000 C 
BRANCH   3   4
ATOM      4  C   UNL     1      -4.641   5.972   4.580  1.00  0.00     0.000 C 
BRANCH   4   5
ATOM      5  C   UNL     1      -5.907   6.158   3.730  1.00  0.00     0.000 C 
BRANCH   5   6
ATOM      6  C   UNL     1      -5.553   6.650   2.318  1.00  0.00     0.000 C 
BRANCH   6   7
ATOM      7  C   UNL     1      -6.761   6.650   1.368  1.00  0.00     0.000 C 
BRANCH   7   8
ATOM      8  C   UNL     1      -7.994   5.963   1.974  1.00  0.00     0.000 C 
BRANCH   8   9
ATOM      9  C   UNL     1      -9.178   5.998   0.996  1.00  0.00     0.000 C 
BRANCH   9  10
ATOM     10  C   UNL     1     -10.511   5.629   1.666  1.00  0.00     0.006 C 
BRANCH  10  11
ATOM     11  C   UNL     1     -10.681   6.285   3.042  1.00  0.00     0.053 C 
BRANCH  11  12
ATOM     12  C   UNL     1     -10.864   5.242   4.100  1.00  0.00     0.041 C 
ATOM     13  O   UNL     1     -10.987   4.030   3.779  1.00  0.00    -0.550 OA
ATOM     14  O   UNL     1     -10.958   5.614   5.435  1.00  0.00    -0.550 OA
ENDBRANCH  11  12
ENDBRANCH  10  11
ENDBRANCH   9  10
ENDBRANCH   8   9
ENDBRANCH   7   8
ENDBRANCH   6   7
ENDBRANCH   5   6
ENDBRANCH   4   5
ENDBRANCH   3   4
ENDBRANCH   2   3
ENDBRANCH   1   2
BRANCH   1  15
ATOM     15  C   UNL     1      -3.443   3.392   7.557  1.00  0.00     0.000 C 
BRANCH  15  16
ATOM     16  C   UNL     1      -2.889   2.599   8.753  1.00  0.00     0.000 C 
BRANCH  16  17
ATOM     17  C   UNL     1      -1.677   1.730   8.370  1.00  0.00     0.000 C 
BRANCH  17  18
ATOM     18  C   UNL     1      -1.771   0.308   8.946  1.00  0.00    -0.000 C 
BRANCH  18  19
ATOM     19  C   UNL     1      -1.839  -0.765   7.845  1.00  0.00    -0.000 C 
BRANCH  19  20
ATOM     20  C   UNL     1      -3.094  -0.637   6.964  1.00  0.00    -0.000 C 
BRANCH  20  21
ATOM     21  C   UNL     1      -3.643  -1.966   6.407  1.00  0.00    -0.000 C 
BRANCH  21  22
ATOM     22  C   UNL     1      -4.085  -1.920   4.931  1.00  0.00    -0.000 C 
BRANCH  22  23
ATOM     23  C   UNL     1      -5.587  -1.659   4.711  1.00  0.00    -0.000 C 
BRANCH  23  24
ATOM     24  C   UNL     1      -5.916  -0.587   3.653  1.00  0.00    -0.000 C 
BRANCH  24  25
ATOM     25  C   UNL     1      -4.752   0.358   3.304  1.00  0.00    -0.003 C 
ATOM     26  C   UNL     1      -4.579   0.560   1.799  1.00  0.00     0.004 C 
ENDBRANCH  24  25
ENDBRANCH  23  24
ENDBRANCH  22  23
ENDBRANCH  21  22
ENDBRANCH  20  21
ENDBRANCH  19  20
ENDBRANCH  18  19
ENDBRANCH  17  18
ENDBRANCH  16  17
ENDBRANCH  15  16
ENDBRANCH   1  15
TORSDOF 22
ENDMDL
MODEL 3
REMARK VINA RESULT:    -6.932      3.940      9.162
REMARK INTER + INTRA:         -18.003
REMARK INTER:                 -15.647
REMARK INTRA:                  -2.356
REMARK UNBOUND:                -2.156
REMARK SMILES CCCCCCCCCCCCCCCCCCCCCCCC(=O)[O-]
REMARK SMILES IDX 13 1 14 2 15 3 16 4 17 5 18 6 19 7 20 8 21 9 22 10 23 11
REMARK SMILES IDX 24 12 25 13 26 14 12 15 11 16 10 17 9 18 8 19 7 20 6 21 5 22
REMARK SMILES IDX 4 23 3 24 2 25 1 26
REMARK H PARENT
REMARK Flexibility Score: inf
ROOT
ATOM      1  C   UNL     1      -4.055   0.914   2.624  1.00  0.00     0.000 C 
ENDROOT
BRANCH   1   2
ATOM      2  C   UNL     1      -4.311   1.709   3.922  1.00  0.00     0.000 C 
BRANCH   2   3
ATOM      3  C   UNL     1      -3.151   2.638   4.326  1.00  0.00     0.000 C 
BRANCH   3   4
ATOM      4  C   UNL     1      -3.307   3.318   5.697  1.00  0.00     0.000 C 
BRANCH   4   5
ATOM      5  C   UNL     1      -4.316   4.477   5.677  1.00  0.00     0.000 C 
BRANCH   5   6
ATOM      6  C   UNL     1      -3.966   5.490   4.576  1.00  0.00     0.000 C 
BRANCH   6   7
ATOM      7  C   UNL     1      -5.063   6.546   4.370  1.00  0.00     0.000 C 
BRANCH   7   8
ATOM      8  C   UNL     1      -6.474   5.940   4.340  1.00  0.00     0.000 C 
BRANCH   8   9
ATOM      9  C   UNL     1      -6.781   5.332   2.964  1.00  0.00     0.000 C 
BRANCH   9  10
ATOM     10  C   UNL     1      -7.587   6.281   2.063  1.00  0.00     0.006 C 
BRANCH  10  11
ATOM     11  C   UNL     1      -8.979   5.732   1.723  1.00  0.00     0.053 C 
BRANCH  11  12
ATOM     12  C   UNL     1      -9.809   5.610   2.963  1.00  0.00     0.041 C 
ATOM     13  O   UNL     1      -9.934   6.592   3.740  1.00  0.00    -0.550 OA
ATOM     14  O   UNL     1     -10.396   4.394   3.289  1.00  0.00    -0.550 OA
ENDBRANCH  11  12
ENDBRANCH  10  11
ENDBRANCH   9  10
ENDBRANCH   8   9
ENDBRANCH   7   8
ENDBRANCH   6   7
ENDBRANCH   5   6
ENDBRANCH   4   5
ENDBRANCH   3   4
ENDBRANCH   2   3
ENDBRANCH   1   2
BRANCH   1  15
ATOM     15  C   UNL     1      -5.270   0.066   2.204  1.00  0.00     0.000 C 
BRANCH  15  16
ATOM     16  C   UNL     1      -6.377   0.058   3.271  1.00  0.00     0.000 C 
BRANCH  16  17
ATOM     17  C   UNL     1      -6.643  -1.351   3.831  1.00  0.00     0.000 C 
BRANCH  17  18
ATOM     18  C   UNL     1      -5.911  -1.601   5.160  1.00  0.00    -0.000 C 
BRANCH  18  19
ATOM     19  C   UNL     1      -4.736  -2.581   5.006  1.00  0.00    -0.000 C 
BRANCH  19  20
ATOM     20  C   UNL     1      -3.610  -2.327   6.024  1.00  0.00    -0.000 C 
BRANCH  20  21
ATOM     21  C   UNL     1      -3.366  -0.846   6.375  1.00  0.00    -0.000 C 
BRANCH  21  22
ATOM     22  C   UNL     1      -2.472  -0.608   7.609  1.00  0.00    -0.000 C 
BRANCH  22  23
ATOM     23  C   UNL     1      -2.388   0.858   8.076  1.00  0.00    -0.000 C 
BRANCH  23  24
ATOM     24  C   UNL     1      -1.346   1.134   9.178  1.00  0.00    -0.000 C 
BRANCH  24  25
ATOM     25  C   UNL     1      -0.109   0.219   9.143  1.00  0.00    -0.003 C 
ATOM     26  C   UNL     1       0.685   0.240  10.449  1.00  0.00     0.004 C 
ENDBRANCH  24  25
ENDBRANCH  23  24
ENDBRANCH  22  23
ENDBRANCH  21  22
ENDBRANCH  20  21
ENDBRANCH  19  20
ENDBRANCH  18  19
ENDBRANCH  17  18
ENDBRANCH  16  17
ENDBRANCH  15  16
ENDBRANCH   1  15
TORSDOF 22
ENDMDL
MODEL 4
REMARK VINA RESULT:    -6.890      4.516      7.170
REMARK INTER + INTRA:         -17.906
REMARK INTER:                 -16.343
REMARK INTRA:                  -1.563
REMARK UNBOUND:                -2.156
REMARK SMILES CCCCCCCCCCCCCCCCCCCCCCCC(=O)[O-]
REMARK SMILES IDX 13 1 14 2 15 3 16 4 17 5 18 6 19 7 20 8 21 9 22 10 23 11
REMARK SMILES IDX 24 12 25 13 26 14 12 15 11 16 10 17 9 18 8 19 7 20 6 21 5 22
REMARK SMILES IDX 4 23 3 24 2 25 1 26
REMARK H PARENT
REMARK Flexibility Score: inf
ROOT
ATOM      1  C   UNL     1      -2.554  -2.027   6.673  1.00  0.00     0.000 C 
ENDROOT
BRANCH   1   2
ATOM      2  C   UNL     1      -3.959  -1.783   6.083  1.00  0.00     0.000 C 
BRANCH   2   3
ATOM      3  C   UNL     1      -4.019  -1.881   4.547  1.00  0.00     0.000 C 
BRANCH   3   4
ATOM      4  C   UNL     1      -4.996  -0.906   3.869  1.00  0.00     0.000 C 
BRANCH   4   5
ATOM      5  C   UNL     1      -4.418   0.511   3.723  1.00  0.00     0.000 C 
BRANCH   5   6
ATOM      6  C   UNL     1      -4.683   1.069   2.316  1.00  0.00     0.000 C 
BRANCH   6   7
ATOM      7  C   UNL     1      -4.390   0.048   1.206  1.00  0.00     0.000 C 
BRANCH   7   8
ATOM      8  C   UNL     1      -5.119   0.371  -0.107  1.00  0.00     0.000 C 
BRANCH   8   9
ATOM      9  C   UNL     1      -4.246   0.018  -1.320  1.00  0.00     0.000 C 
BRANCH   9  10
ATOM     10  C   UNL     1      -5.033  -0.705  -2.426  1.00  0.00     0.006 C 
BRANCH  10  11
ATOM     11  C   UNL     1      -4.121  -1.298  -3.508  1.00  0.00     0.053 C 
BRANCH  11  12
ATOM     12  C   UNL     1      -3.494  -2.569  -3.024  1.00  0.00     0.041 C 
ATOM     13  O   UNL     1      -2.263  -2.607  -2.761  1.00  0.00    -0.550 OA
ATOM     14  O   UNL     1      -4.257  -3.725  -2.920  1.00  0.00    -0.550 OA
ENDBRANCH  11  12
ENDBRANCH  10  11
ENDBRANCH   9  10
ENDBRANCH   8   9
ENDBRANCH   7   8
ENDBRANCH   6   7
ENDBRANCH   5   6
ENDBRANCH   4   5
ENDBRANCH   3   4
ENDBRANCH   2   3
ENDBRANCH   1   2
BRANCH   1  15
ATOM     15  C   UNL     1      -2.122  -0.913   7.644  1.00  0.00     0.000 C 
BRANCH  15  16
ATOM     16  C   UNL     1      -2.910   0.390   7.431  1.00  0.00     0.000 C 
BRANCH  16  17
ATOM     17  C   UNL     1      -2.374   1.548   8.292  1.00  0.00     0.000 C 
BRANCH  17  18
ATOM     18  C   UNL     1      -2.907   2.915   7.834  1.00  0.00    -0.000 C 
BRANCH  18  19
ATOM     19  C   UNL     1      -3.067   2.998   6.306  1.00  0.00    -0.000 C 
BRANCH  19  20
ATOM     20  C   UNL     1      -4.146   4.008   5.874  1.00  0.00    -0.000 C 
BRANCH  20  21
ATOM     21  C   UNL     1      -3.660   5.119   4.921  1.00  0.00    -0.000 C 
BRANCH  21  22
ATOM     22  C   UNL     1      -4.760   6.079   4.427  1.00  0.00    -0.000 C 
BRANCH  22  23
ATOM     23  C   UNL     1      -6.072   5.395   3.996  1.00  0.00    -0.000 C 
BRANCH  23  24
ATOM     24  C   UNL     1      -6.984   6.244   3.087  1.00  0.00    -0.000 C 
BRANCH  24  25
ATOM     25  C   UNL     1      -6.600   6.236   1.597  1.00  0.00    -0.003 C 
ATOM     26  C   UNL     1      -5.499   7.241   1.260  1.00  0.00     0.004 C 
ENDBRANCH  24  25
ENDBRANCH  23  24
ENDBRANCH  22  23
ENDBRANCH  21  22
ENDBRANCH  20  21
ENDBRANCH  19  20
ENDBRANCH  18  19
ENDBRANCH  17  18
ENDBRANCH  16  17
ENDBRANCH  15  16
ENDBRANCH   1  15
TORSDOF 22
ENDMDL
MODEL 5
REMARK VINA RESULT:    -6.843      4.455      7.799
REMARK INTER + INTRA:         -17.800
REMARK INTER:                 -15.996
REMARK INTRA:                  -1.804
REMARK UNBOUND:                -2.156
REMARK SMILES CCCCCCCCCCCCCCCCCCCCCCCC(=O)[O-]
REMARK SMILES IDX 13 1 14 2 15 3 16 4 17 5 18 6 19 7 20 8 21 9 22 10 23 11
REMARK SMILES IDX 24 12 25 13 26 14 12 15 11 16 10 17 9 18 8 19 7 20 6 21 5 22
REMARK SMILES IDX 4 23 3 24 2 25 1 26
REMARK H PARENT
REMARK Flexibility Score: inf
ROOT
ATOM      1  C   UNL     1      -4.601  -2.434   4.736  1.00  0.00     0.000 C 
ENDROOT
BRANCH   1   2
ATOM      2  C   UNL     1      -5.844  -1.569   5.036  1.00  0.00     0.000 C 
BRANCH   2   3
ATOM      3  C   UNL     1      -6.761  -1.347   3.818  1.00  0.00     0.000 C 
BRANCH   3   4
ATOM      4  C   UNL     1      -6.578   0.001   3.100  1.00  0.00     0.000 C 
BRANCH   4   5
ATOM      5  C   UNL     1      -5.210   0.643   3.378  1.00  0.00     0.000 C 
BRANCH   5   6
ATOM      6  C   UNL     1      -4.254   0.432   2.194  1.00  0.00     0.000 C 
BRANCH   6   7
ATOM      7  C   UNL     1      -4.981   0.408   0.840  1.00  0.00     0.000 C 
BRANCH   7   8
ATOM      8  C   UNL     1      -4.055   0.028  -0.325  1.00  0.00     0.000 C 
BRANCH   8   9
ATOM      9  C   UNL     1      -4.811   0.066  -1.662  1.00  0.00     0.000 C 
BRANCH   9  10
ATOM     10  C   UNL     1      -3.871  -0.002  -2.877  1.00  0.00     0.006 C 
BRANCH  10  11
ATOM     11  C   UNL     1      -3.983  -1.330  -3.635  1.00  0.00     0.053 C 
BRANCH  11  12
ATOM     12  C   UNL     1      -3.171  -2.390  -2.958  1.00  0.00     0.041 C 
ATOM     13  O   UNL     1      -3.567  -3.585  -2.953  1.00  0.00    -0.550 OA
ATOM     14  O   UNL     1      -2.007  -2.047  -2.281  1.00  0.00    -0.550 OA
ENDBRANCH  11  12
ENDBRANCH  10  11
ENDBRANCH   9  10
ENDBRANCH   8   9
ENDBRANCH   7   8
ENDBRANCH   6   7
ENDBRANCH   5   6
ENDBRANCH   4   5
ENDBRANCH   3   4
ENDBRANCH   2   3
ENDBRANCH   1   2
BRANCH   1  15
ATOM     15  C   UNL     1      -3.319  -1.861   5.367  1.00  0.00     0.000 C 
BRANCH  15  16
ATOM     16  C   UNL     1      -2.895  -2.627   6.632  1.00  0.00     0.000 C 
BRANCH  16  17
ATOM     17  C   UNL     1      -1.912  -1.823   7.502  1.00  0.00     0.000 C 
BRANCH  17  18
ATOM     18  C   UNL     1      -2.390  -0.382   7.746  1.00  0.00    -0.000 C 
BRANCH  18  19
ATOM     19  C   UNL     1      -1.532   0.349   8.793  1.00  0.00    -0.000 C 
BRANCH  19  20
ATOM     20  C   UNL     1      -1.528   1.876   8.600  1.00  0.00    -0.000 C 
BRANCH  20  21
ATOM     21  C   UNL     1      -2.859   2.583   8.927  1.00  0.00    -0.000 C 
BRANCH  21  22
ATOM     22  C   UNL     1      -3.485   3.365   7.755  1.00  0.00    -0.000 C 
BRANCH  22  23
ATOM     23  C   UNL     1      -3.034   2.907   6.355  1.00  0.00    -0.000 C 
BRANCH  23  24
ATOM     24  C   UNL     1      -3.221   3.950   5.235  1.00  0.00    -0.000 C 
BRANCH  24  25
ATOM     25  C   UNL     1      -4.530   4.755   5.312  1.00  0.00    -0.003 C 
ATOM     26  C   UNL     1      -4.524   5.992   4.414  1.00  0.00     0.004 C 
ENDBRANCH  24  25
ENDBRANCH  23  24
ENDBRANCH  22  23
ENDBRANCH  21  22
ENDBRANCH  20  21
ENDBRANCH  19  20
ENDBRANCH  18  19
ENDBRANCH  17  18
ENDBRANCH  16  17
ENDBRANCH  15  16
ENDBRANCH   1  15
TORSDOF 22
ENDMDL
MODEL 6
REMARK VINA RESULT:    -6.801      2.593      3.581
REMARK INTER + INTRA:         -17.703
REMARK INTER:                 -15.828
REMARK INTRA:                  -1.875
REMARK UNBOUND:                -2.156
REMARK SMILES CCCCCCCCCCCCCCCCCCCCCCCC(=O)[O-]
REMARK SMILES IDX 13 1 14 2 15 3 16 4 17 5 18 6 19 7 20 8 21 9 22 10 23 11
REMARK SMILES IDX 24 12 25 13 26 14 12 15 11 16 10 17 9 18 8 19 7 20 6 21 5 22
REMARK SMILES IDX 4 23 3 24 2 25 1 26
REMARK H PARENT
REMARK Flexibility Score: inf
ROOT
ATOM      1  C   UNL     1      -4.440   2.025   3.321  1.00  0.00     0.000 C 
ENDROOT
BRANCH   1   2
ATOM      2  C   UNL     1      -4.220   0.733   2.504  1.00  0.00     0.000 C 
BRANCH   2   3
ATOM      3  C   UNL     1      -5.522   0.004   2.124  1.00  0.00     0.000 C 
BRANCH   3   4
ATOM      4  C   UNL     1      -6.579  -0.066   3.239  1.00  0.00     0.000 C 
BRANCH   4   5
ATOM      5  C   UNL     1      -6.740  -1.480   3.820  1.00  0.00     0.000 C 
BRANCH   5   6
ATOM      6  C   UNL     1      -5.931  -1.636   5.118  1.00  0.00     0.000 C 
BRANCH   6   7
ATOM      7  C   UNL     1      -4.439  -1.895   4.860  1.00  0.00     0.000 C 
BRANCH   7   8
ATOM      8  C   UNL     1      -3.553  -1.499   6.050  1.00  0.00     0.000 C 
BRANCH   8   9
ATOM      9  C   UNL     1      -2.474  -2.562   6.309  1.00  0.00     0.000 C 
BRANCH   9  10
ATOM     10  C   UNL     1      -2.642  -3.258   7.669  1.00  0.00     0.006 C 
BRANCH  10  11
ATOM     11  C   UNL     1      -3.460  -4.552   7.572  1.00  0.00     0.053 C 
BRANCH  11  12
ATOM     12  C   UNL     1      -3.172  -5.442   8.741  1.00  0.00     0.041 C 
ATOM     13  O   UNL     1      -2.677  -6.585   8.559  1.00  0.00    -0.550 OA
ATOM     14  O   UNL     1      -3.504  -5.031  10.026  1.00  0.00    -0.550 OA
ENDBRANCH  11  12
ENDBRANCH  10  11
ENDBRANCH   9  10
ENDBRANCH   8   9
ENDBRANCH   7   8
ENDBRANCH   6   7
ENDBRANCH   5   6
ENDBRANCH   4   5
ENDBRANCH   3   4
ENDBRANCH   2   3
ENDBRANCH   1   2
BRANCH   1  15
ATOM     15  C   UNL     1      -3.599   2.055   4.611  1.00  0.00     0.000 C 
BRANCH  15  16
ATOM     16  C   UNL     1      -3.005   3.445   4.892  1.00  0.00     0.000 C 
BRANCH  16  17
ATOM     17  C   UNL     1      -4.063   4.444   5.393  1.00  0.00     0.000 C 
BRANCH  17  18
ATOM     18  C   UNL     1      -4.163   5.690   4.498  1.00  0.00    -0.000 C 
BRANCH  18  19
ATOM     19  C   UNL     1      -5.570   6.312   4.515  1.00  0.00    -0.000 C 
BRANCH  19  20
ATOM     20  C   UNL     1      -6.119   6.584   3.104  1.00  0.00    -0.000 C 
BRANCH  20  21
ATOM     21  C   UNL     1      -7.286   5.675   2.667  1.00  0.00    -0.000 C 
BRANCH  21  22
ATOM     22  C   UNL     1      -8.076   6.173   1.441  1.00  0.00    -0.000 C 
BRANCH  22  23
ATOM     23  C   UNL     1      -9.572   5.806   1.440  1.00  0.00    -0.000 C 
BRANCH  23  24
ATOM     24  C   UNL     1     -10.145   5.395   2.812  1.00  0.00    -0.000 C 
BRANCH  24  25
ATOM     25  C   UNL     1     -10.604   6.566   3.699  1.00  0.00    -0.003 C 
ATOM     26  C   UNL     1      -9.975   6.541   5.091  1.00  0.00     0.004 C 
ENDBRANCH  24  25
ENDBRANCH  23  24
ENDBRANCH  22  23
ENDBRANCH  21  22
ENDBRANCH  20  21
ENDBRANCH  19  20
ENDBRANCH  18  19
ENDBRANCH  17  18
ENDBRANCH  16  17
ENDBRANCH  15  16
ENDBRANCH   1  15
TORSDOF 22
ENDMDL
MODEL 7
REMARK VINA RESULT:    -6.658      4.252      7.252
REMARK INTER + INTRA:         -17.377
REMARK INTER:                 -15.555
REMARK INTRA:                  -1.822
REMARK UNBOUND:                -2.156
REMARK SMILES CCCCCCCCCCCCCCCCCCCCCCCC(=O)[O-]
REMARK SMILES IDX 13 1 14 2 15 3 16 4 17 5 18 6 19 7 20 8 21 9 22 10 23 11
REMARK SMILES IDX 24 12 25 13 26 14 12 15 11 16 10 17 9 18 8 19 7 20 6 21 5 22
REMARK SMILES IDX 4 23 3 24 2 25 1 26
REMARK H PARENT
REMARK Flexibility Score: inf
ROOT
ATOM      1  C   UNL     1      -4.579  -2.657   5.279  1.00  0.00     0.000 C 
ENDROOT
BRANCH   1   2
ATOM      2  C   UNL     1      -3.297  -2.488   6.121  1.00  0.00     0.000 C 
BRANCH   2   3
ATOM      3  C   UNL     1      -3.200  -1.134   6.849  1.00  0.00     0.000 C 
BRANCH   3   4
ATOM      4  C   UNL     1      -1.947  -0.951   7.723  1.00  0.00     0.000 C 
BRANCH   4   5
ATOM      5  C   UNL     1      -2.083   0.206   8.725  1.00  0.00     0.000 C 
BRANCH   5   6
ATOM      6  C   UNL     1      -1.816   1.557   8.044  1.00  0.00     0.000 C 
BRANCH   6   7
ATOM      7  C   UNL     1      -2.756   2.668   8.537  1.00  0.00     0.000 C 
BRANCH   7   8
ATOM      8  C   UNL     1      -3.519   3.352   7.394  1.00  0.00     0.000 C 
BRANCH   8   9
ATOM      9  C   UNL     1      -2.991   2.889   6.028  1.00  0.00     0.000 C 
BRANCH   9  10
ATOM     10  C   UNL     1      -3.711   3.570   4.852  1.00  0.00     0.006 C 
BRANCH  10  11
ATOM     11  C   UNL     1      -4.283   4.944   5.227  1.00  0.00     0.053 C 
BRANCH  11  12
ATOM     12  C   UNL     1      -5.427   5.296   4.328  1.00  0.00     0.041 C 
ATOM     13  O   UNL     1      -6.046   4.392   3.707  1.00  0.00    -0.550 OA
ATOM     14  O   UNL     1      -5.772   6.627   4.131  1.00  0.00    -0.550 OA
ENDBRANCH  11  12
ENDBRANCH  10  11
ENDBRANCH   9  10
ENDBRANCH   8   9
ENDBRANCH   7   8
ENDBRANCH   6   7
ENDBRANCH   5   6
ENDBRANCH   4   5
ENDBRANCH   3   4
ENDBRANCH   2   3
ENDBRANCH   1   2
BRANCH   1  15
ATOM     15  C   UNL     1      -5.369  -1.343   5.139  1.00  0.00     0.000 C 
BRANCH  15  16
ATOM     16  C   UNL     1      -6.492  -1.440   4.092  1.00  0.00     0.000 C 
BRANCH  16  17
ATOM     17  C   UNL     1      -6.536  -0.213   3.164  1.00  0.00     0.000 C 
BRANCH  17  18
ATOM     18  C   UNL     1      -5.223   0.586   3.186  1.00  0.00    -0.000 C 
BRANCH  18  19
ATOM     19  C   UNL     1      -4.316   0.254   1.988  1.00  0.00    -0.000 C 
BRANCH  19  20
ATOM     20  C   UNL     1      -5.029   0.423   0.635  1.00  0.00    -0.000 C 
BRANCH  20  21
ATOM     21  C   UNL     1      -4.188   0.048  -0.602  1.00  0.00    -0.000 C 
BRANCH  21  22
ATOM     22  C   UNL     1      -5.004  -0.341  -1.851  1.00  0.00    -0.000 C 
BRANCH  22  23
ATOM     23  C   UNL     1      -4.186  -0.993  -2.982  1.00  0.00    -0.000 C 
BRANCH  23  24
ATOM     24  C   UNL     1      -2.803  -0.361  -3.237  1.00  0.00    -0.000 C 
BRANCH  24  25
ATOM     25  C   UNL     1      -2.146  -0.756  -4.571  1.00  0.00    -0.003 C 
ATOM     26  C   UNL     1      -1.384  -2.079  -4.491  1.00  0.00     0.004 C 
ENDBRANCH  24  25
ENDBRANCH  23  24
ENDBRANCH  22  23
ENDBRANCH  21  22
ENDBRANCH  20  21
ENDBRANCH  19  20
ENDBRANCH  18  19
ENDBRANCH  17  18
ENDBRANCH  16  17
ENDBRANCH  15  16
ENDBRANCH   1  15
TORSDOF 22
ENDMDL
MODEL 8
REMARK VINA RESULT:    -6.606      4.519      7.950
REMARK INTER + INTRA:         -17.258
REMARK INTER:                 -15.635
REMARK INTRA:                  -1.623
REMARK UNBOUND:                -2.156
REMARK SMILES CCCCCCCCCCCCCCCCCCCCCCCC(=O)[O-]
REMARK SMILES IDX 13 1 14 2 15 3 16 4 17 5 18 6 19 7 20 8 21 9 22 10 23 11
REMARK SMILES IDX 24 12 25 13 26 14 12 15 11 16 10 17 9 18 8 19 7 20 6 21 5 22
REMARK SMILES IDX 4 23 3 24 2 25 1 26
REMARK H PARENT
REMARK Flexibility Score: inf
ROOT
ATOM      1  C   UNL     1      -3.024  -0.762   6.961  1.00  0.00     0.000 C 
ENDROOT
BRANCH   1   2
ATOM      2  C   UNL     1      -1.768  -0.835   7.856  1.00  0.00     0.000 C 
BRANCH   2   3
ATOM      3  C   UNL     1      -1.747   0.208   8.990  1.00  0.00     0.000 C 
BRANCH   3   4
ATOM      4  C   UNL     1      -1.623   1.671   8.528  1.00  0.00     0.000 C 
BRANCH   4   5
ATOM      5  C   UNL     1      -2.839   2.525   8.922  1.00  0.00     0.000 C 
BRANCH   5   6
ATOM      6  C   UNL     1      -3.401   3.273   7.703  1.00  0.00     0.000 C 
BRANCH   6   7
ATOM      7  C   UNL     1      -2.885   2.711   6.370  1.00  0.00     0.000 C 
BRANCH   7   8
ATOM      8  C   UNL     1      -3.156   3.649   5.184  1.00  0.00     0.000 C 
BRANCH   8   9
ATOM      9  C   UNL     1      -4.361   4.558   5.468  1.00  0.00     0.000 C 
BRANCH   9  10
ATOM     10  C   UNL     1      -5.325   4.655   4.274  1.00  0.00     0.006 C 
BRANCH  10  11
ATOM     11  C   UNL     1      -5.730   6.101   3.959  1.00  0.00     0.053 C 
BRANCH  11  12
ATOM     12  C   UNL     1      -6.917   6.124   3.047  1.00  0.00     0.041 C 
ATOM     13  O   UNL     1      -8.048   5.768   3.470  1.00  0.00    -0.550 OA
ATOM     14  O   UNL     1      -6.762   6.482   1.714  1.00  0.00    -0.550 OA
ENDBRANCH  11  12
ENDBRANCH  10  11
ENDBRANCH   9  10
ENDBRANCH   8   9
ENDBRANCH   7   8
ENDBRANCH   6   7
ENDBRANCH   5   6
ENDBRANCH   4   5
ENDBRANCH   3   4
ENDBRANCH   2   3
ENDBRANCH   1   2
BRANCH   1  15
ATOM     15  C   UNL     1      -3.409  -2.133   6.375  1.00  0.00     0.000 C 
BRANCH  15  16
ATOM     16  C   UNL     1      -4.497  -2.026   5.294  1.00  0.00     0.000 C 
BRANCH  16  17
ATOM     17  C   UNL     1      -3.994  -1.317   4.023  1.00  0.00     0.000 C 
BRANCH  17  18
ATOM     18  C   UNL     1      -4.927  -0.178   3.580  1.00  0.00    -0.000 C 
BRANCH  18  19
ATOM     19  C   UNL     1      -4.305   0.689   2.472  1.00  0.00    -0.000 C 
BRANCH  19  20
ATOM     20  C   UNL     1      -5.057   0.578   1.134  1.00  0.00    -0.000 C 
BRANCH  20  21
ATOM     21  C   UNL     1      -4.256  -0.060  -0.019  1.00  0.00    -0.000 C 
BRANCH  21  22
ATOM     22  C   UNL     1      -4.755   0.296  -1.433  1.00  0.00    -0.000 C 
BRANCH  22  23
ATOM     23  C   UNL     1      -4.815  -0.888  -2.417  1.00  0.00    -0.000 C 
BRANCH  23  24
ATOM     24  C   UNL     1      -3.709  -0.903  -3.491  1.00  0.00    -0.000 C 
BRANCH  24  25
ATOM     25  C   UNL     1      -2.407  -1.607  -3.070  1.00  0.00    -0.003 C 
ATOM     26  C   UNL     1      -1.523  -1.985  -4.258  1.00  0.00     0.004 C 
ENDBRANCH  24  25
ENDBRANCH  23  24
ENDBRANCH  22  23
ENDBRANCH  21  22
ENDBRANCH  20  21
ENDBRANCH  19  20
ENDBRANCH  18  19
ENDBRANCH  17  18
ENDBRANCH  16  17
ENDBRANCH  15  16
ENDBRANCH   1  15
TORSDOF 22
ENDMDL
MODEL 9
REMARK VINA RESULT:    -6.571      7.549      9.562
REMARK INTER + INTRA:         -17.177
REMARK INTER:                 -15.700
REMARK INTRA:                  -1.477
REMARK UNBOUND:                -2.156
REMARK SMILES CCCCCCCCCCCCCCCCCCCCCCCC(=O)[O-]
REMARK SMILES IDX 13 1 14 2 15 3 16 4 17 5 18 6 19 7 20 8 21 9 22 10 23 11
REMARK SMILES IDX 24 12 25 13 26 14 12 15 11 16 10 17 9 18 8 19 7 20 6 21 5 22
REMARK SMILES IDX 4 23 3 24 2 25 1 26
REMARK H PARENT
REMARK Flexibility Score: inf
ROOT
ATOM      1  C   UNL     1      -5.005   0.378   0.706  1.00  0.00     0.000 C 
ENDROOT
BRANCH   1   2
ATOM      2  C   UNL     1      -4.065   0.030  -0.468  1.00  0.00     0.000 C 
BRANCH   2   3
ATOM      3  C   UNL     1      -4.771  -0.032  -1.837  1.00  0.00     0.000 C 
BRANCH   3   4
ATOM      4  C   UNL     1      -4.959  -1.447  -2.410  1.00  0.00     0.000 C 
BRANCH   4   5
ATOM      5  C   UNL     1      -4.003  -1.750  -3.575  1.00  0.00     0.000 C 
BRANCH   5   6
ATOM      6  C   UNL     1      -3.219  -0.493  -3.982  1.00  0.00     0.000 C 
BRANCH   6   7
ATOM      7  C   UNL     1      -1.750  -0.792  -4.322  1.00  0.00     0.000 C 
BRANCH   7   8
ATOM      8  C   UNL     1      -1.442  -2.297  -4.351  1.00  0.00     0.000 C 
BRANCH   8   9
ATOM      9  C   UNL     1      -0.421  -2.626  -5.450  1.00  0.00     0.000 C 
BRANCH   9  10
ATOM     10  C   UNL     1      -0.328  -4.133  -5.741  1.00  0.00     0.006 C 
BRANCH  10  11
ATOM     11  C   UNL     1      -0.336  -4.446  -7.243  1.00  0.00     0.053 C 
BRANCH  11  12
ATOM     12  C   UNL     1       0.720  -3.653  -7.947  1.00  0.00     0.041 C 
ATOM     13  O   UNL     1       1.936  -3.943  -7.796  1.00  0.00    -0.550 OA
ATOM     14  O   UNL     1       0.365  -2.558  -8.724  1.00  0.00    -0.550 OA
ENDBRANCH  11  12
ENDBRANCH  10  11
ENDBRANCH   9  10
ENDBRANCH   8   9
ENDBRANCH   7   8
ENDBRANCH   6   7
ENDBRANCH   5   6
ENDBRANCH   4   5
ENDBRANCH   3   4
ENDBRANCH   2   3
ENDBRANCH   1   2
BRANCH   1  15
ATOM     15  C   UNL     1      -4.298   0.289   2.072  1.00  0.00     0.000 C 
BRANCH  15  16
ATOM     16  C   UNL     1      -4.761   1.386   3.045  1.00  0.00     0.000 C 
BRANCH  16  17
ATOM     17  C   UNL     1      -3.584   2.195   3.619  1.00  0.00     0.000 C 
BRANCH  17  18
ATOM     18  C   UNL     1      -3.608   2.255   5.155  1.00  0.00    -0.000 C 
BRANCH  18  19
ATOM     19  C   UNL     1      -3.411   3.685   5.688  1.00  0.00    -0.000 C 
BRANCH  19  20
ATOM     20  C   UNL     1      -2.930   4.665   4.603  1.00  0.00    -0.000 C 
BRANCH  20  21
ATOM     21  C   UNL     1      -3.771   5.950   4.460  1.00  0.00    -0.000 C 
BRANCH  21  22
ATOM     22  C   UNL     1      -5.279   5.773   4.724  1.00  0.00    -0.000 C 
BRANCH  22  23
ATOM     23  C   UNL     1      -6.091   5.250   3.524  1.00  0.00    -0.000 C 
BRANCH  23  24
ATOM     24  C   UNL     1      -6.483   6.319   2.484  1.00  0.00    -0.000 C 
BRANCH  24  25
ATOM     25  C   UNL     1      -7.810   6.054   1.752  1.00  0.00    -0.003 C 
ATOM     26  C   UNL     1      -8.970   5.767   2.704  1.00  0.00     0.004 C 
ENDBRANCH  24  25
ENDBRANCH  23  24
ENDBRANCH  22  23
ENDBRANCH  21  22
ENDBRANCH  20  21
ENDBRANCH  19  20
ENDBRANCH  18  19
ENDBRANCH  17  18
ENDBRANCH  16  17
ENDBRANCH  15  16
ENDBRANCH   1  15
TORSDOF 22
ENDMDL
