MODEL 1
REMARK VINA RESULT:    -4.234      0.000      0.000
REMARK INTER + INTRA:         -16.515
REMARK INTER:                 -10.669
REMARK INTRA:                  -5.846
REMARK UNBOUND:                -5.846
REMARK SMILES CCCCCCCCCCCCCCCCCCCCCCCCCCCC(=O)[O-]
REMARK SMILES IDX 15 1 16 2 17 3 18 4 19 5 20 6 21 7 22 8 23 9 24 10 25 11
REMARK SMILES IDX 26 12 27 13 28 14 29 15 30 16 14 17 13 18 12 19 11 20 10 21
REMARK SMILES IDX 9 22 8 23 7 24 6 25 5 26 4 27 3 28 2 29 1 30
REMARK H PARENT
REMARK Flexibility Score: inf
ROOT
ATOM      1  C   UNL     1      48.000 -36.882   0.136  1.00  0.00     0.000 C 
ENDROOT
BRANCH   1   2
ATOM      2  C   UNL     1      47.825 -37.120   1.651  1.00  0.00     0.000 C 
BRANCH   2   3
ATOM      3  C   UNL     1      46.349 -37.306   2.048  1.00  0.00     0.000 C 
BRANCH   3   4
ATOM      4  C   UNL     1      45.374 -36.803   0.968  1.00  0.00     0.000 C 
BRANCH   4   5
ATOM      5  C   UNL     1      44.179 -37.736   0.701  1.00  0.00     0.000 C 
BRANCH   5   6
ATOM      6  C   UNL     1      44.412 -39.169   1.211  1.00  0.00     0.000 C 
BRANCH   6   7
ATOM      7  C   UNL     1      44.716 -40.154   0.062  1.00  0.00     0.000 C 
BRANCH   7   8
ATOM      8  C   UNL     1      46.215 -40.306  -0.250  1.00  0.00     0.000 C 
BRANCH   8   9
ATOM      9  C   UNL     1      46.575 -39.857  -1.675  1.00  0.00     0.000 C 
BRANCH   9  10
ATOM     10  C   UNL     1      47.791 -40.601  -2.252  1.00  0.00     0.000 C 
BRANCH  10  11
ATOM     11  C   UNL     1      47.772 -40.674  -3.791  1.00  0.00     0.000 C 
BRANCH  11  12
ATOM     12  C   UNL     1      49.110 -41.165  -4.367  1.00  0.00     0.006 C 
BRANCH  12  13
ATOM     13  C   UNL     1      49.891 -42.035  -3.373  1.00  0.00     0.053 C 
BRANCH  13  14
ATOM     14  C   UNL     1      51.240 -41.447  -3.105  1.00  0.00     0.041 C 
ATOM     15  O   UNL     1      52.152 -42.162  -2.610  1.00  0.00    -0.550 OA
ATOM     16  O   UNL     1      51.481 -40.100  -3.365  1.00  0.00    -0.550 OA
ENDBRANCH  13  14
ENDBRANCH  12  13
ENDBRANCH  11  12
ENDBRANCH  10  11
ENDBRANCH   9  10
ENDBRANCH   8   9
ENDBRANCH   7   8
ENDBRANCH   6   7
ENDBRANCH   5   6
ENDBRANCH   4   5
ENDBRANCH   3   4
ENDBRANCH   2   3
ENDBRANCH   1   2
BRANCH   1  17
ATOM     17  C   UNL     1      49.011 -35.768  -0.197  1.00  0.00     0.000 C 
BRANCH  17  18
ATOM     18  C   UNL     1      49.532 -35.786  -1.645  1.00  0.00     0.000 C 
BRANCH  18  19
ATOM     19  C   UNL     1      49.270 -37.095  -2.418  1.00  0.00     0.000 C 
BRANCH  19  20
ATOM     20  C   UNL     1      49.891 -37.161  -3.826  1.00  0.00     0.000 C 
BRANCH  20  21
ATOM     21  C   UNL     1      48.861 -37.472  -4.923  1.00  0.00     0.000 C 
BRANCH  21  22
ATOM     22  C   UNL     1      48.201 -36.184  -5.437  1.00  0.00    -0.000 C 
BRANCH  22  23
ATOM     23  C   UNL     1      46.701 -36.358  -5.742  1.00  0.00    -0.000 C 
BRANCH  23  24
ATOM     24  C   UNL     1      46.055 -37.631  -5.155  1.00  0.00    -0.000 C 
BRANCH  24  25
ATOM     25  C   UNL     1      45.072 -37.387  -3.990  1.00  0.00    -0.000 C 
BRANCH  25  26
ATOM     26  C   UNL     1      45.685 -36.686  -2.763  1.00  0.00    -0.000 C 
BRANCH  26  27
ATOM     27  C   UNL     1      45.168 -35.257  -2.503  1.00  0.00    -0.000 C 
BRANCH  27  28
ATOM     28  C   UNL     1      46.263 -34.201  -2.251  1.00  0.00    -0.000 C 
BRANCH  28  29
ATOM     29  C   UNL     1      46.660 -33.375  -3.487  1.00  0.00    -0.003 C 
ATOM     30  C   UNL     1      48.138 -32.983  -3.492  1.00  0.00     0.004 C 
ENDBRANCH  28  29
ENDBRANCH  27  28
ENDBRANCH  26  27
ENDBRANCH  25  26
ENDBRANCH  24  25
ENDBRANCH  23  24
ENDBRANCH  22  23
ENDBRANCH  21  22
ENDBRANCH  20  21
ENDBRANCH  19  20
ENDBRANCH  18  19
ENDBRANCH  17  18
ENDBRANCH   1  17
TORSDOF 26
ENDMDL
MODEL 2
REMARK VINA RESULT:    -4.181      3.131      6.229
REMARK INTER + INTRA:         -16.382
REMARK INTER:                 -10.484
REMARK INTRA:                  -5.898
REMARK UNBOUND:                -5.846
REMARK SMILES CCCCCCCCCCCCCCCCCCCCCCCCCCCC(=O)[O-]
REMARK SMILES IDX 15 1 16 2 17 3 18 4 19 5 20 6 21 7 22 8 23 9 24 10 25 11
REMARK SMILES IDX 26 12 27 13 28 14 29 15 30 16 14 17 13 18 12 19 11 20 10 21
REMARK SMILES IDX 9 22 8 23 7 24 6 25 5 26 4 27 3 28 2 29 1 30
REMARK H PARENT
REMARK Flexibility Score: inf
ROOT
ATOM      1  C   UNL     1      50.789 -40.903  -3.108  1.00  0.00     0.000 C 
ENDROOT
BRANCH   1   2
ATOM      2  C   UNL     1      49.348 -41.432  -3.263  1.00  0.00     0.000 C 
BRANCH   2   3
ATOM      3  C   UNL     1      48.766 -41.149  -4.661  1.00  0.00     0.000 C 
BRANCH   3   4
ATOM      4  C   UNL     1      47.542 -40.217  -4.617  1.00  0.00     0.000 C 
BRANCH   4   5
ATOM      5  C   UNL     1      46.785 -40.218  -3.277  1.00  0.00     0.000 C 
BRANCH   5   6
ATOM      6  C   UNL     1      45.314 -39.789  -3.419  1.00  0.00     0.000 C 
BRANCH   6   7
ATOM      7  C   UNL     1      45.083 -38.335  -2.953  1.00  0.00     0.000 C 
BRANCH   7   8
ATOM      8  C   UNL     1      44.590 -37.395  -4.067  1.00  0.00     0.000 C 
BRANCH   8   9
ATOM      9  C   UNL     1      44.989 -35.930  -3.829  1.00  0.00     0.000 C 
BRANCH   9  10
ATOM     10  C   UNL     1      44.963 -35.532  -2.344  1.00  0.00     0.000 C 
BRANCH  10  11
ATOM     11  C   UNL     1      45.914 -34.362  -2.022  1.00  0.00     0.000 C 
BRANCH  11  12
ATOM     12  C   UNL     1      46.284 -33.550  -3.274  1.00  0.00     0.006 C 
BRANCH  12  13
ATOM     13  C   UNL     1      47.651 -32.865  -3.144  1.00  0.00     0.053 C 
BRANCH  13  14
ATOM     14  C   UNL     1      47.489 -31.452  -2.683  1.00  0.00     0.041 C 
ATOM     15  O   UNL     1      46.880 -30.618  -3.406  1.00  0.00    -0.550 OA
ATOM     16  O   UNL     1      48.044 -31.042  -1.473  1.00  0.00    -0.550 OA
ENDBRANCH  13  14
ENDBRANCH  12  13
ENDBRANCH  11  12
ENDBRANCH  10  11
ENDBRANCH   9  10
ENDBRANCH   8   9
ENDBRANCH   7   8
ENDBRANCH   6   7
ENDBRANCH   5   6
ENDBRANCH   4   5
ENDBRANCH   3   4
ENDBRANCH   2   3
ENDBRANCH   1   2
BRANCH   1  17
ATOM     17  C   UNL     1      50.874 -39.366  -3.043  1.00  0.00     0.000 C 
BRANCH  17  18
ATOM     18  C   UNL     1      52.072 -38.757  -3.794  1.00  0.00     0.000 C 
BRANCH  18  19
ATOM     19  C   UNL     1      51.809 -38.414  -5.275  1.00  0.00     0.000 C 
BRANCH  19  20
ATOM     20  C   UNL     1      50.383 -37.929  -5.593  1.00  0.00     0.000 C 
BRANCH  20  21
ATOM     21  C   UNL     1      50.294 -36.407  -5.783  1.00  0.00     0.000 C 
BRANCH  21  22
ATOM     22  C   UNL     1      49.196 -35.807  -4.892  1.00  0.00    -0.000 C 
BRANCH  22  23
ATOM     23  C   UNL     1      48.351 -36.876  -4.175  1.00  0.00    -0.000 C 
BRANCH  23  24
ATOM     24  C   UNL     1      48.481 -36.892  -2.637  1.00  0.00    -0.000 C 
BRANCH  24  25
ATOM     25  C   UNL     1      49.502 -35.891  -2.056  1.00  0.00    -0.000 C 
BRANCH  25  26
ATOM     26  C   UNL     1      49.141 -35.333  -0.666  1.00  0.00    -0.000 C 
BRANCH  26  27
ATOM     27  C   UNL     1      48.688 -36.389   0.362  1.00  0.00    -0.000 C 
BRANCH  27  28
ATOM     28  C   UNL     1      47.245 -36.220   0.879  1.00  0.00    -0.000 C 
BRANCH  28  29
ATOM     29  C   UNL     1      46.319 -37.419   0.610  1.00  0.00    -0.003 C 
ATOM     30  C   UNL     1      47.079 -38.681   0.202  1.00  0.00     0.004 C 
ENDBRANCH  28  29
ENDBRANCH  27  28
ENDBRANCH  26  27
ENDBRANCH  25  26
ENDBRANCH  24  25
ENDBRANCH  23  24
ENDBRANCH  22  23
ENDBRANCH  21  22
ENDBRANCH  20  21
ENDBRANCH  19  20
ENDBRANCH  18  19
ENDBRANCH  17  18
ENDBRANCH   1  17
TORSDOF 26
ENDMDL
MODEL 3
REMARK VINA RESULT:    -4.153      3.170      6.807
REMARK INTER + INTRA:         -16.313
REMARK INTER:                 -10.803
REMARK INTRA:                  -5.510
REMARK UNBOUND:                -5.846
REMARK SMILES CCCCCCCCCCCCCCCCCCCCCCCCCCCC(=O)[O-]
REMARK SMILES IDX 15 1 16 2 17 3 18 4 19 5 20 6 21 7 22 8 23 9 24 10 25 11
REMARK SMILES IDX 26 12 27 13 28 14 29 15 30 16 14 17 13 18 12 19 11 20 10 21
REMARK SMILES IDX 9 22 8 23 7 24 6 25 5 26 4 27 3 28 2 29 1 30
REMARK H PARENT
REMARK Flexibility Score: inf
ROOT
ATOM      1  C   UNL     1      52.158 -38.883  -3.384  1.00  0.00     0.000 C 
ENDROOT
BRANCH   1   2
ATOM      2  C   UNL     1      51.091 -38.109  -4.186  1.00  0.00     0.000 C 
BRANCH   2   3
ATOM      3  C   UNL     1      51.479 -37.939  -5.667  1.00  0.00     0.000 C 
BRANCH   3   4
ATOM      4  C   UNL     1      50.802 -36.723  -6.324  1.00  0.00     0.000 C 
BRANCH   4   5
ATOM      5  C   UNL     1      49.615 -36.147  -5.531  1.00  0.00     0.000 C 
BRANCH   5   6
ATOM      6  C   UNL     1      49.224 -34.728  -5.981  1.00  0.00     0.000 C 
BRANCH   6   7
ATOM      7  C   UNL     1      47.868 -34.704  -6.719  1.00  0.00     0.000 C 
BRANCH   7   8
ATOM      8  C   UNL     1      46.933 -35.867  -6.343  1.00  0.00     0.000 C 
BRANCH   8   9
ATOM      9  C   UNL     1      45.781 -35.432  -5.423  1.00  0.00     0.000 C 
BRANCH   9  10
ATOM     10  C   UNL     1      46.074 -35.676  -3.934  1.00  0.00     0.000 C 
BRANCH  10  11
ATOM     11  C   UNL     1      45.481 -34.585  -3.022  1.00  0.00     0.000 C 
BRANCH  11  12
ATOM     12  C   UNL     1      46.561 -33.866  -2.196  1.00  0.00     0.006 C 
BRANCH  12  13
ATOM     13  C   UNL     1      47.692 -33.310  -3.071  1.00  0.00     0.053 C 
BRANCH  13  14
ATOM     14  C   UNL     1      47.852 -31.839  -2.853  1.00  0.00     0.041 C 
ATOM     15  O   UNL     1      47.196 -31.261  -1.945  1.00  0.00    -0.550 OA
ATOM     16  O   UNL     1      48.697 -31.097  -3.674  1.00  0.00    -0.550 OA
ENDBRANCH  13  14
ENDBRANCH  12  13
ENDBRANCH  11  12
ENDBRANCH  10  11
ENDBRANCH   9  10
ENDBRANCH   8   9
ENDBRANCH   7   8
ENDBRANCH   6   7
ENDBRANCH   5   6
ENDBRANCH   4   5
ENDBRANCH   3   4
ENDBRANCH   2   3
ENDBRANCH   1   2
BRANCH   1  17
ATOM     17  C   UNL     1      51.735 -40.322  -3.030  1.00  0.00     0.000 C 
BRANCH  17  18
ATOM     18  C   UNL     1      50.544 -40.859  -3.843  1.00  0.00     0.000 C 
BRANCH  18  19
ATOM     19  C   UNL     1      49.346 -41.350  -3.004  1.00  0.00     0.000 C 
BRANCH  19  20
ATOM     20  C   UNL     1      47.959 -41.063  -3.608  1.00  0.00     0.000 C 
BRANCH  20  21
ATOM     21  C   UNL     1      47.947 -39.833  -4.527  1.00  0.00     0.000 C 
BRANCH  21  22
ATOM     22  C   UNL     1      46.520 -39.293  -4.702  1.00  0.00    -0.000 C 
BRANCH  22  23
ATOM     23  C   UNL     1      45.518 -39.909  -3.708  1.00  0.00    -0.000 C 
BRANCH  23  24
ATOM     24  C   UNL     1      44.595 -38.897  -2.995  1.00  0.00    -0.000 C 
BRANCH  24  25
ATOM     25  C   UNL     1      44.908 -38.669  -1.501  1.00  0.00    -0.000 C 
BRANCH  25  26
ATOM     26  C   UNL     1      45.961 -39.623  -0.908  1.00  0.00    -0.000 C 
BRANCH  26  27
ATOM     27  C   UNL     1      47.334 -38.982  -0.622  1.00  0.00    -0.000 C 
BRANCH  27  28
ATOM     28  C   UNL     1      47.480 -37.518  -1.083  1.00  0.00    -0.000 C 
BRANCH  28  29
ATOM     29  C   UNL     1      48.702 -37.241  -1.976  1.00  0.00    -0.003 C 
ATOM     30  C   UNL     1      49.530 -36.047  -1.499  1.00  0.00     0.004 C 
ENDBRANCH  28  29
ENDBRANCH  27  28
ENDBRANCH  26  27
ENDBRANCH  25  26
ENDBRANCH  24  25
ENDBRANCH  23  24
ENDBRANCH  22  23
ENDBRANCH  21  22
ENDBRANCH  20  21
ENDBRANCH  19  20
ENDBRANCH  18  19
ENDBRANCH  17  18
ENDBRANCH   1  17
TORSDOF 26
ENDMDL
MODEL 4
REMARK VINA RESULT:    -4.152      2.968      5.207
REMARK INTER + INTRA:         -16.308
REMARK INTER:                 -10.581
REMARK INTRA:                  -5.728
REMARK UNBOUND:                -5.846
REMARK SMILES CCCCCCCCCCCCCCCCCCCCCCCCCCCC(=O)[O-]
REMARK SMILES IDX 15 1 16 2 17 3 18 4 19 5 20 6 21 7 22 8 23 9 24 10 25 11
REMARK SMILES IDX 26 12 27 13 28 14 29 15 30 16 14 17 13 18 12 19 11 20 10 21
REMARK SMILES IDX 9 22 8 23 7 24 6 25 5 26 4 27 3 28 2 29 1 30
REMARK H PARENT
REMARK Flexibility Score: inf
ROOT
ATOM      1  C   UNL     1      51.759 -38.790  -3.286  1.00  0.00     0.000 C 
ENDROOT
BRANCH   1   2
ATOM      2  C   UNL     1      51.286 -40.170  -3.791  1.00  0.00     0.000 C 
BRANCH   2   3
ATOM      3  C   UNL     1      50.252 -40.815  -2.849  1.00  0.00     0.000 C 
BRANCH   3   4
ATOM      4  C   UNL     1      49.216 -41.671  -3.601  1.00  0.00     0.000 C 
BRANCH   4   5
ATOM      5  C   UNL     1      48.654 -41.019  -4.877  1.00  0.00     0.000 C 
BRANCH   5   6
ATOM      6  C   UNL     1      47.681 -39.864  -4.580  1.00  0.00     0.000 C 
BRANCH   6   7
ATOM      7  C   UNL     1      46.602 -40.261  -3.550  1.00  0.00     0.000 C 
BRANCH   7   8
ATOM      8  C   UNL     1      46.642 -39.432  -2.254  1.00  0.00     0.000 C 
BRANCH   8   9
ATOM      9  C   UNL     1      47.268 -38.043  -2.455  1.00  0.00     0.000 C 
BRANCH   9  10
ATOM     10  C   UNL     1      47.965 -37.508  -1.193  1.00  0.00     0.000 C 
BRANCH  10  11
ATOM     11  C   UNL     1      48.991 -36.401  -1.501  1.00  0.00     0.000 C 
BRANCH  11  12
ATOM     12  C   UNL     1      49.088 -35.366  -0.368  1.00  0.00     0.006 C 
BRANCH  12  13
ATOM     13  C   UNL     1      48.351 -35.817   0.900  1.00  0.00     0.053 C 
BRANCH  13  14
ATOM     14  C   UNL     1      47.257 -34.855   1.243  1.00  0.00     0.041 C 
ATOM     15  O   UNL     1      46.111 -35.285   1.543  1.00  0.00    -0.550 OA
ATOM     16  O   UNL     1      47.491 -33.483   1.195  1.00  0.00    -0.550 OA
ENDBRANCH  13  14
ENDBRANCH  12  13
ENDBRANCH  11  12
ENDBRANCH  10  11
ENDBRANCH   9  10
ENDBRANCH   8   9
ENDBRANCH   7   8
ENDBRANCH   6   7
ENDBRANCH   5   6
ENDBRANCH   4   5
ENDBRANCH   3   4
ENDBRANCH   2   3
ENDBRANCH   1   2
BRANCH   1  17
ATOM     17  C   UNL     1      50.839 -37.632  -3.717  1.00  0.00     0.000 C 
BRANCH  17  18
ATOM     18  C   UNL     1      50.506 -37.601  -5.219  1.00  0.00     0.000 C 
BRANCH  18  19
ATOM     19  C   UNL     1      49.817 -36.311  -5.711  1.00  0.00     0.000 C 
BRANCH  19  20
ATOM     20  C   UNL     1      48.314 -36.206  -5.391  1.00  0.00     0.000 C 
BRANCH  20  21
ATOM     21  C   UNL     1      47.556 -35.291  -6.364  1.00  0.00     0.000 C 
BRANCH  21  22
ATOM     22  C   UNL     1      46.120 -35.793  -6.582  1.00  0.00    -0.000 C 
BRANCH  22  23
ATOM     23  C   UNL     1      45.778 -37.027  -5.727  1.00  0.00    -0.000 C 
BRANCH  23  24
ATOM     24  C   UNL     1      44.628 -36.826  -4.717  1.00  0.00    -0.000 C 
BRANCH  24  25
ATOM     25  C   UNL     1      44.527 -35.409  -4.114  1.00  0.00    -0.000 C 
BRANCH  25  26
ATOM     26  C   UNL     1      44.736 -35.340  -2.589  1.00  0.00    -0.000 C 
BRANCH  26  27
ATOM     27  C   UNL     1      45.864 -34.394  -2.128  1.00  0.00    -0.000 C 
BRANCH  27  28
ATOM     28  C   UNL     1      46.543 -33.590  -3.255  1.00  0.00    -0.000 C 
BRANCH  28  29
ATOM     29  C   UNL     1      47.957 -33.083  -2.925  1.00  0.00    -0.003 C 
ATOM     30  C   UNL     1      48.730 -32.624  -4.161  1.00  0.00     0.004 C 
ENDBRANCH  28  29
ENDBRANCH  27  28
ENDBRANCH  26  27
ENDBRANCH  25  26
ENDBRANCH  24  25
ENDBRANCH  23  24
ENDBRANCH  22  23
ENDBRANCH  21  22
ENDBRANCH  20  21
ENDBRANCH  19  20
ENDBRANCH  18  19
ENDBRANCH  17  18
ENDBRANCH   1  17
TORSDOF 26
ENDMDL
MODEL 5
REMARK VINA RESULT:    -4.094      3.360      6.669
REMARK INTER + INTRA:         -16.164
REMARK INTER:                 -10.500
REMARK INTRA:                  -5.664
REMARK UNBOUND:                -5.846
REMARK SMILES CCCCCCCCCCCCCCCCCCCCCCCCCCCC(=O)[O-]
REMARK SMILES IDX 15 1 16 2 17 3 18 4 19 5 20 6 21 7 22 8 23 9 24 10 25 11
REMARK SMILES IDX 26 12 27 13 28 14 29 15 30 16 14 17 13 18 12 19 11 20 10 21
REMARK SMILES IDX 9 22 8 23 7 24 6 25 5 26 4 27 3 28 2 29 1 30
REMARK H PARENT
REMARK Flexibility Score: inf
ROOT
ATOM      1  C   UNL     1      49.232 -36.754  -3.707  1.00  0.00     0.000 C 
ENDROOT
BRANCH   1   2
ATOM      2  C   UNL     1      49.435 -36.702  -5.236  1.00  0.00     0.000 C 
BRANCH   2   3
ATOM      3  C   UNL     1      49.261 -35.280  -5.802  1.00  0.00     0.000 C 
BRANCH   3   4
ATOM      4  C   UNL     1      48.263 -35.224  -6.973  1.00  0.00     0.000 C 
BRANCH   4   5
ATOM      5  C   UNL     1      46.799 -35.003  -6.554  1.00  0.00     0.000 C 
BRANCH   5   6
ATOM      6  C   UNL     1      45.845 -36.068  -7.125  1.00  0.00     0.000 C 
BRANCH   6   7
ATOM      7  C   UNL     1      45.316 -37.022  -6.032  1.00  0.00     0.000 C 
BRANCH   7   8
ATOM      8  C   UNL     1      45.684 -36.596  -4.600  1.00  0.00     0.000 C 
BRANCH   8   9
ATOM      9  C   UNL     1      44.510 -35.948  -3.851  1.00  0.00     0.000 C 
BRANCH   9  10
ATOM     10  C   UNL     1      44.746 -34.464  -3.527  1.00  0.00     0.000 C 
BRANCH  10  11
ATOM     11  C   UNL     1      45.967 -34.239  -2.614  1.00  0.00     0.000 C 
BRANCH  11  12
ATOM     12  C   UNL     1      47.082 -33.448  -3.318  1.00  0.00     0.006 C 
BRANCH  12  13
ATOM     13  C   UNL     1      47.980 -32.696  -2.327  1.00  0.00     0.053 C 
BRANCH  13  14
ATOM     14  C   UNL     1      47.530 -31.276  -2.182  1.00  0.00     0.041 C 
ATOM     15  O   UNL     1      46.769 -30.765  -3.047  1.00  0.00    -0.550 OA
ATOM     16  O   UNL     1      47.980 -30.505  -1.114  1.00  0.00    -0.550 OA
ENDBRANCH  13  14
ENDBRANCH  12  13
ENDBRANCH  11  12
ENDBRANCH  10  11
ENDBRANCH   9  10
ENDBRANCH   8   9
ENDBRANCH   7   8
ENDBRANCH   6   7
ENDBRANCH   5   6
ENDBRANCH   4   5
ENDBRANCH   3   4
ENDBRANCH   2   3
ENDBRANCH   1   2
BRANCH   1  17
ATOM     17  C   UNL     1      50.259 -37.645  -2.982  1.00  0.00     0.000 C 
BRANCH  17  18
ATOM     18  C   UNL     1      51.297 -38.309  -3.904  1.00  0.00     0.000 C 
BRANCH  18  19
ATOM     19  C   UNL     1      51.264 -39.851  -3.923  1.00  0.00     0.000 C 
BRANCH  19  20
ATOM     20  C   UNL     1      50.275 -40.499  -2.936  1.00  0.00     0.000 C 
BRANCH  20  21
ATOM     21  C   UNL     1      49.203 -41.351  -3.632  1.00  0.00     0.000 C 
BRANCH  21  22
ATOM     22  C   UNL     1      48.651 -40.632  -4.872  1.00  0.00    -0.000 C 
BRANCH  22  23
ATOM     23  C   UNL     1      47.342 -39.871  -4.592  1.00  0.00    -0.000 C 
BRANCH  23  24
ATOM     24  C   UNL     1      46.291 -40.650  -3.772  1.00  0.00    -0.000 C 
BRANCH  24  25
ATOM     25  C   UNL     1      45.136 -39.796  -3.209  1.00  0.00    -0.000 C 
BRANCH  25  26
ATOM     26  C   UNL     1      45.231 -39.495  -1.701  1.00  0.00    -0.000 C 
BRANCH  26  27
ATOM     27  C   UNL     1      46.533 -39.965  -1.023  1.00  0.00    -0.000 C 
BRANCH  27  28
ATOM     28  C   UNL     1      47.558 -38.850  -0.733  1.00  0.00    -0.000 C 
BRANCH  28  29
ATOM     29  C   UNL     1      46.972 -37.429  -0.690  1.00  0.00    -0.003 C 
ATOM     30  C   UNL     1      47.996 -36.374  -0.271  1.00  0.00     0.004 C 
ENDBRANCH  28  29
ENDBRANCH  27  28
ENDBRANCH  26  27
ENDBRANCH  25  26
ENDBRANCH  24  25
ENDBRANCH  23  24
ENDBRANCH  22  23
ENDBRANCH  21  22
ENDBRANCH  20  21
ENDBRANCH  19  20
ENDBRANCH  18  19
ENDBRANCH  17  18
ENDBRANCH   1  17
TORSDOF 26
ENDMDL
MODEL 6
REMARK VINA RESULT:    -4.086      2.999      6.658
REMARK INTER + INTRA:         -16.143
REMARK INTER:                 -10.473
REMARK INTRA:                  -5.670
REMARK UNBOUND:                -5.846
REMARK SMILES CCCCCCCCCCCCCCCCCCCCCCCCCCCC(=O)[O-]
REMARK SMILES IDX 15 1 16 2 17 3 18 4 19 5 20 6 21 7 22 8 23 9 24 10 25 11
REMARK SMILES IDX 26 12 27 13 28 14 29 15 30 16 14 17 13 18 12 19 11 20 10 21
REMARK SMILES IDX 9 22 8 23 7 24 6 25 5 26 4 27 3 28 2 29 1 30
REMARK H PARENT
REMARK Flexibility Score: inf
ROOT
ATOM      1  C   UNL     1      50.577 -41.733  -3.366  1.00  0.00     0.000 C 
ENDROOT
BRANCH   1   2
ATOM      2  C   UNL     1      49.222 -41.369  -4.009  1.00  0.00     0.000 C 
BRANCH   2   3
ATOM      3  C   UNL     1      48.248 -40.727  -3.003  1.00  0.00     0.000 C 
BRANCH   3   4
ATOM      4  C   UNL     1      46.832 -40.548  -3.578  1.00  0.00     0.000 C 
BRANCH   4   5
ATOM      5  C   UNL     1      46.751 -39.614  -4.799  1.00  0.00     0.000 C 
BRANCH   5   6
ATOM      6  C   UNL     1      45.579 -38.620  -4.718  1.00  0.00     0.000 C 
BRANCH   6   7
ATOM      7  C   UNL     1      45.670 -37.523  -5.800  1.00  0.00     0.000 C 
BRANCH   7   8
ATOM      8  C   UNL     1      45.114 -36.159  -5.354  1.00  0.00     0.000 C 
BRANCH   8   9
ATOM      9  C   UNL     1      44.493 -36.200  -3.948  1.00  0.00     0.000 C 
BRANCH   9  10
ATOM     10  C   UNL     1      44.799 -34.943  -3.118  1.00  0.00     0.000 C 
BRANCH  10  11
ATOM     11  C   UNL     1      45.980 -34.128  -3.680  1.00  0.00     0.000 C 
BRANCH  11  12
ATOM     12  C   UNL     1      46.848 -33.519  -2.567  1.00  0.00     0.006 C 
BRANCH  12  13
ATOM     13  C   UNL     1      46.418 -32.090  -2.207  1.00  0.00     0.053 C 
BRANCH  13  14
ATOM     14  C   UNL     1      47.061 -31.099  -3.125  1.00  0.00     0.041 C 
ATOM     15  O   UNL     1      48.277 -31.221  -3.431  1.00  0.00    -0.550 OA
ATOM     16  O   UNL     1      46.329 -30.020  -3.613  1.00  0.00    -0.550 OA
ENDBRANCH  13  14
ENDBRANCH  12  13
ENDBRANCH  11  12
ENDBRANCH  10  11
ENDBRANCH   9  10
ENDBRANCH   8   9
ENDBRANCH   7   8
ENDBRANCH   6   7
ENDBRANCH   5   6
ENDBRANCH   4   5
ENDBRANCH   3   4
ENDBRANCH   2   3
ENDBRANCH   1   2
BRANCH   1  17
ATOM     17  C   UNL     1      51.312 -40.522  -2.759  1.00  0.00     0.000 C 
BRANCH  17  18
ATOM     18  C   UNL     1      51.728 -39.447  -3.778  1.00  0.00     0.000 C 
BRANCH  18  19
ATOM     19  C   UNL     1      51.046 -38.075  -3.598  1.00  0.00     0.000 C 
BRANCH  19  20
ATOM     20  C   UNL     1      50.148 -37.629  -4.766  1.00  0.00     0.000 C 
BRANCH  20  21
ATOM     21  C   UNL     1      48.993 -36.719  -4.324  1.00  0.00     0.000 C 
BRANCH  21  22
ATOM     22  C   UNL     1      48.988 -36.542  -2.798  1.00  0.00    -0.000 C 
BRANCH  22  23
ATOM     23  C   UNL     1      47.748 -37.159  -2.125  1.00  0.00    -0.000 C 
BRANCH  23  24
ATOM     24  C   UNL     1      47.992 -37.759  -0.723  1.00  0.00    -0.000 C 
BRANCH  24  25
ATOM     25  C   UNL     1      47.099 -37.186   0.397  1.00  0.00    -0.000 C 
BRANCH  25  26
ATOM     26  C   UNL     1      45.712 -36.702  -0.065  1.00  0.00    -0.000 C 
BRANCH  26  27
ATOM     27  C   UNL     1      44.600 -37.769  -0.017  1.00  0.00    -0.000 C 
BRANCH  27  28
ATOM     28  C   UNL     1      44.630 -38.796  -1.167  1.00  0.00    -0.000 C 
BRANCH  28  29
ATOM     29  C   UNL     1      44.607 -40.268  -0.720  1.00  0.00    -0.003 C 
ATOM     30  C   UNL     1      45.819 -40.652   0.129  1.00  0.00     0.004 C 
ENDBRANCH  28  29
ENDBRANCH  27  28
ENDBRANCH  26  27
ENDBRANCH  25  26
ENDBRANCH  24  25
ENDBRANCH  23  24
ENDBRANCH  22  23
ENDBRANCH  21  22
ENDBRANCH  20  21
ENDBRANCH  19  20
ENDBRANCH  18  19
ENDBRANCH  17  18
ENDBRANCH   1  17
TORSDOF 26
ENDMDL
MODEL 7
REMARK VINA RESULT:    -4.075      2.664      6.562
REMARK INTER + INTRA:         -16.115
REMARK INTER:                 -10.423
REMARK INTRA:                  -5.692
REMARK UNBOUND:                -5.846
REMARK SMILES CCCCCCCCCCCCCCCCCCCCCCCCCCCC(=O)[O-]
REMARK SMILES IDX 15 1 16 2 17 3 18 4 19 5 20 6 21 7 22 8 23 9 24 10 25 11
REMARK SMILES IDX 26 12 27 13 28 14 29 15 30 16 14 17 13 18 12 19 11 20 10 21
REMARK SMILES IDX 9 22 8 23 7 24 6 25 5 26 4 27 3 28 2 29 1 30
REMARK H PARENT
REMARK Flexibility Score: inf
ROOT
ATOM      1  C   UNL     1      48.674 -35.580  -0.661  1.00  0.00     0.000 C 
ENDROOT
BRANCH   1   2
ATOM      2  C   UNL     1      49.561 -36.263  -1.723  1.00  0.00     0.000 C 
BRANCH   2   3
ATOM      3  C   UNL     1      48.734 -36.943  -2.830  1.00  0.00     0.000 C 
BRANCH   3   4
ATOM      4  C   UNL     1      48.654 -36.099  -4.115  1.00  0.00     0.000 C 
BRANCH   4   5
ATOM      5  C   UNL     1      47.794 -36.717  -5.232  1.00  0.00     0.000 C 
BRANCH   5   6
ATOM      6  C   UNL     1      47.303 -35.677  -6.255  1.00  0.00     0.000 C 
BRANCH   6   7
ATOM      7  C   UNL     1      45.799 -35.833  -6.569  1.00  0.00     0.000 C 
BRANCH   7   8
ATOM      8  C   UNL     1      45.145 -37.052  -5.896  1.00  0.00     0.000 C 
BRANCH   8   9
ATOM      9  C   UNL     1      43.959 -36.671  -4.996  1.00  0.00     0.000 C 
BRANCH   9  10
ATOM     10  C   UNL     1      44.218 -35.405  -4.162  1.00  0.00     0.000 C 
BRANCH  10  11
ATOM     11  C   UNL     1      45.072 -35.679  -2.909  1.00  0.00     0.000 C 
BRANCH  11  12
ATOM     12  C   UNL     1      45.678 -34.393  -2.325  1.00  0.00     0.006 C 
BRANCH  12  13
ATOM     13  C   UNL     1      46.193 -33.442  -3.413  1.00  0.00     0.053 C 
BRANCH  13  14
ATOM     14  C   UNL     1      47.452 -32.766  -2.969  1.00  0.00     0.041 C 
ATOM     15  O   UNL     1      48.398 -32.598  -3.784  1.00  0.00    -0.550 OA
ATOM     16  O   UNL     1      47.596 -32.355  -1.647  1.00  0.00    -0.550 OA
ENDBRANCH  13  14
ENDBRANCH  12  13
ENDBRANCH  11  12
ENDBRANCH  10  11
ENDBRANCH   9  10
ENDBRANCH   8   9
ENDBRANCH   7   8
ENDBRANCH   6   7
ENDBRANCH   5   6
ENDBRANCH   4   5
ENDBRANCH   3   4
ENDBRANCH   2   3
ENDBRANCH   1   2
BRANCH   1  17
ATOM     17  C   UNL     1      48.328 -36.494   0.530  1.00  0.00     0.000 C 
BRANCH  17  18
ATOM     18  C   UNL     1      47.186 -37.491   0.263  1.00  0.00     0.000 C 
BRANCH  18  19
ATOM     19  C   UNL     1      47.611 -38.973   0.205  1.00  0.00     0.000 C 
BRANCH  19  20
ATOM     20  C   UNL     1      46.460 -39.980   0.031  1.00  0.00     0.000 C 
BRANCH  20  21
ATOM     21  C   UNL     1      45.131 -39.313  -0.353  1.00  0.00     0.000 C 
BRANCH  21  22
ATOM     22  C   UNL     1      44.660 -39.784  -1.737  1.00  0.00    -0.000 C 
BRANCH  22  23
ATOM     23  C   UNL     1      45.512 -39.216  -2.887  1.00  0.00    -0.000 C 
BRANCH  23  24
ATOM     24  C   UNL     1      45.998 -40.255  -3.920  1.00  0.00    -0.000 C 
BRANCH  24  25
ATOM     25  C   UNL     1      47.515 -40.239  -4.199  1.00  0.00    -0.000 C 
BRANCH  25  26
ATOM     26  C   UNL     1      48.394 -40.703  -3.022  1.00  0.00    -0.000 C 
BRANCH  26  27
ATOM     27  C   UNL     1      49.472 -41.744  -3.385  1.00  0.00    -0.000 C 
BRANCH  27  28
ATOM     28  C   UNL     1      50.927 -41.243  -3.278  1.00  0.00    -0.000 C 
BRANCH  28  29
ATOM     29  C   UNL     1      51.095 -39.718  -3.391  1.00  0.00    -0.003 C 
ATOM     30  C   UNL     1      51.069 -39.221  -4.837  1.00  0.00     0.004 C 
ENDBRANCH  28  29
ENDBRANCH  27  28
ENDBRANCH  26  27
ENDBRANCH  25  26
ENDBRANCH  24  25
ENDBRANCH  23  24
ENDBRANCH  22  23
ENDBRANCH  21  22
ENDBRANCH  20  21
ENDBRANCH  19  20
ENDBRANCH  18  19
ENDBRANCH  17  18
ENDBRANCH   1  17
TORSDOF 26
ENDMDL
MODEL 8
REMARK VINA RESULT:    -4.058      2.449      5.878
REMARK INTER + INTRA:         -16.071
REMARK INTER:                 -10.749
REMARK INTRA:                  -5.321
REMARK UNBOUND:                -5.846
REMARK SMILES CCCCCCCCCCCCCCCCCCCCCCCCCCCC(=O)[O-]
REMARK SMILES IDX 15 1 16 2 17 3 18 4 19 5 20 6 21 7 22 8 23 9 24 10 25 11
REMARK SMILES IDX 26 12 27 13 28 14 29 15 30 16 14 17 13 18 12 19 11 20 10 21
REMARK SMILES IDX 9 22 8 23 7 24 6 25 5 26 4 27 3 28 2 29 1 30
REMARK H PARENT
REMARK Flexibility Score: inf
ROOT
ATOM      1  C   UNL     1      48.891 -40.662  -2.854  1.00  0.00     0.000 C 
ENDROOT
BRANCH   1   2
ATOM      2  C   UNL     1      49.086 -41.454  -4.163  1.00  0.00     0.000 C 
BRANCH   2   3
ATOM      3  C   UNL     1      49.808 -40.630  -5.246  1.00  0.00     0.000 C 
BRANCH   3   4
ATOM      4  C   UNL     1      50.792 -39.605  -4.654  1.00  0.00     0.000 C 
BRANCH   4   5
ATOM      5  C   UNL     1      50.725 -38.209  -5.300  1.00  0.00     0.000 C 
BRANCH   5   6
ATOM      6  C   UNL     1      49.954 -37.189  -4.444  1.00  0.00     0.000 C 
BRANCH   6   7
ATOM      7  C   UNL     1      50.290 -37.316  -2.943  1.00  0.00     0.000 C 
BRANCH   7   8
ATOM      8  C   UNL     1      49.544 -36.309  -2.050  1.00  0.00     0.000 C 
BRANCH   8   9
ATOM      9  C   UNL     1      48.201 -36.850  -1.535  1.00  0.00     0.000 C 
BRANCH   9  10
ATOM     10  C   UNL     1      47.468 -35.864  -0.611  1.00  0.00     0.000 C 
BRANCH  10  11
ATOM     11  C   UNL     1      45.944 -35.855  -0.835  1.00  0.00     0.000 C 
BRANCH  11  12
ATOM     12  C   UNL     1      45.446 -37.144  -1.509  1.00  0.00     0.006 C 
BRANCH  12  13
ATOM     13  C   UNL     1      44.450 -37.916  -0.633  1.00  0.00     0.053 C 
BRANCH  13  14
ATOM     14  C   UNL     1      45.099 -39.125  -0.039  1.00  0.00     0.041 C 
ATOM     15  O   UNL     1      46.181 -39.012   0.597  1.00  0.00    -0.550 OA
ATOM     16  O   UNL     1      44.531 -40.384  -0.218  1.00  0.00    -0.550 OA
ENDBRANCH  13  14
ENDBRANCH  12  13
ENDBRANCH  11  12
ENDBRANCH  10  11
ENDBRANCH   9  10
ENDBRANCH   8   9
ENDBRANCH   7   8
ENDBRANCH   6   7
ENDBRANCH   5   6
ENDBRANCH   4   5
ENDBRANCH   3   4
ENDBRANCH   2   3
ENDBRANCH   1   2
BRANCH   1  17
ATOM     17  C   UNL     1      47.427 -40.259  -2.592  1.00  0.00     0.000 C 
BRANCH  17  18
ATOM     18  C   UNL     1      46.558 -40.144  -3.857  1.00  0.00     0.000 C 
BRANCH  18  19
ATOM     19  C   UNL     1      46.628 -38.781  -4.577  1.00  0.00     0.000 C 
BRANCH  19  20
ATOM     20  C   UNL     1      45.303 -38.295  -5.193  1.00  0.00     0.000 C 
BRANCH  20  21
ATOM     21  C   UNL     1      45.204 -36.765  -5.276  1.00  0.00     0.000 C 
BRANCH  21  22
ATOM     22  C   UNL     1      46.468 -36.102  -4.707  1.00  0.00    -0.000 C 
BRANCH  22  23
ATOM     23  C   UNL     1      46.580 -34.610  -5.073  1.00  0.00    -0.000 C 
BRANCH  23  24
ATOM     24  C   UNL     1      48.016 -34.104  -5.330  1.00  0.00    -0.000 C 
BRANCH  24  25
ATOM     25  C   UNL     1      48.725 -33.497  -4.101  1.00  0.00    -0.000 C 
BRANCH  25  26
ATOM     26  C   UNL     1      48.646 -31.961  -4.003  1.00  0.00    -0.000 C 
BRANCH  26  27
ATOM     27  C   UNL     1      47.691 -31.426  -2.918  1.00  0.00    -0.000 C 
BRANCH  27  28
ATOM     28  C   UNL     1      47.461 -32.374  -1.724  1.00  0.00    -0.000 C 
BRANCH  28  29
ATOM     29  C   UNL     1      47.965 -31.844  -0.371  1.00  0.00    -0.003 C 
ATOM     30  C   UNL     1      47.153 -32.367   0.814  1.00  0.00     0.004 C 
ENDBRANCH  28  29
ENDBRANCH  27  28
ENDBRANCH  26  27
ENDBRANCH  25  26
ENDBRANCH  24  25
ENDBRANCH  23  24
ENDBRANCH  22  23
ENDBRANCH  21  22
ENDBRANCH  20  21
ENDBRANCH  19  20
ENDBRANCH  18  19
ENDBRANCH  17  18
ENDBRANCH   1  17
TORSDOF 26
ENDMDL
MODEL 9
REMARK VINA RESULT:    -4.020      3.184      6.520
REMARK INTER + INTRA:         -15.977
REMARK INTER:                  -9.981
REMARK INTRA:                  -5.996
REMARK UNBOUND:                -5.846
REMARK SMILES CCCCCCCCCCCCCCCCCCCCCCCCCCCC(=O)[O-]
REMARK SMILES IDX 15 1 16 2 17 3 18 4 19 5 20 6 21 7 22 8 23 9 24 10 25 11
REMARK SMILES IDX 26 12 27 13 28 14 29 15 30 16 14 17 13 18 12 19 11 20 10 21
REMARK SMILES IDX 9 22 8 23 7 24 6 25 5 26 4 27 3 28 2 29 1 30
REMARK H PARENT
REMARK Flexibility Score: inf
ROOT
ATOM      1  C   UNL     1      50.709 -38.310  -3.792  1.00  0.00     0.000 C 
ENDROOT
BRANCH   1   2
ATOM      2  C   UNL     1      50.207 -37.816  -5.165  1.00  0.00     0.000 C 
BRANCH   2   3
ATOM      3  C   UNL     1      49.458 -36.475  -5.068  1.00  0.00     0.000 C 
BRANCH   3   4
ATOM      4  C   UNL     1      47.941 -36.623  -5.289  1.00  0.00     0.000 C 
BRANCH   4   5
ATOM      5  C   UNL     1      47.342 -35.627  -6.297  1.00  0.00     0.000 C 
BRANCH   5   6
ATOM      6  C   UNL     1      45.883 -35.951  -6.664  1.00  0.00     0.000 C 
BRANCH   6   7
ATOM      7  C   UNL     1      45.380 -37.237  -5.973  1.00  0.00     0.000 C 
BRANCH   7   8
ATOM      8  C   UNL     1      44.101 -37.039  -5.141  1.00  0.00     0.000 C 
BRANCH   8   9
ATOM      9  C   UNL     1      43.992 -35.627  -4.543  1.00  0.00     0.000 C 
BRANCH   9  10
ATOM     10  C   UNL     1      44.282 -35.589  -3.034  1.00  0.00     0.000 C 
BRANCH  10  11
ATOM     11  C   UNL     1      45.692 -35.058  -2.709  1.00  0.00     0.000 C 
BRANCH  11  12
ATOM     12  C   UNL     1      45.985 -33.719  -3.406  1.00  0.00     0.006 C 
BRANCH  12  13
ATOM     13  C   UNL     1      47.478 -33.367  -3.389  1.00  0.00     0.053 C 
BRANCH  13  14
ATOM     14  C   UNL     1      47.672 -31.903  -3.148  1.00  0.00     0.041 C 
ATOM     15  O   UNL     1      46.823 -31.258  -2.477  1.00  0.00    -0.550 OA
ATOM     16  O   UNL     1      48.768 -31.242  -3.696  1.00  0.00    -0.550 OA
ENDBRANCH  13  14
ENDBRANCH  12  13
ENDBRANCH  11  12
ENDBRANCH  10  11
ENDBRANCH   9  10
ENDBRANCH   8   9
ENDBRANCH   7   8
ENDBRANCH   6   7
ENDBRANCH   5   6
ENDBRANCH   4   5
ENDBRANCH   3   4
ENDBRANCH   2   3
ENDBRANCH   1   2
BRANCH   1  17
ATOM     17  C   UNL     1      50.926 -39.834  -3.729  1.00  0.00     0.000 C 
BRANCH  17  18
ATOM     18  C   UNL     1      49.763 -40.622  -3.100  1.00  0.00     0.000 C 
BRANCH  18  19
ATOM     19  C   UNL     1      48.737 -41.187  -4.104  1.00  0.00     0.000 C 
BRANCH  19  20
ATOM     20  C   UNL     1      47.518 -40.286  -4.375  1.00  0.00     0.000 C 
BRANCH  20  21
ATOM     21  C   UNL     1      46.579 -40.166  -3.165  1.00  0.00     0.000 C 
BRANCH  21  22
ATOM     22  C   UNL     1      46.365 -38.694  -2.781  1.00  0.00    -0.000 C 
BRANCH  22  23
ATOM     23  C   UNL     1      46.539 -38.435  -1.273  1.00  0.00    -0.000 C 
BRANCH  23  24
ATOM     24  C   UNL     1      47.975 -38.081  -0.829  1.00  0.00    -0.000 C 
BRANCH  24  25
ATOM     25  C   UNL     1      48.589 -36.848  -1.526  1.00  0.00    -0.000 C 
BRANCH  25  26
ATOM     26  C   UNL     1      49.047 -35.728  -0.573  1.00  0.00    -0.000 C 
BRANCH  26  27
ATOM     27  C   UNL     1      48.014 -35.319   0.496  1.00  0.00    -0.000 C 
BRANCH  27  28
ATOM     28  C   UNL     1      47.390 -33.922   0.300  1.00  0.00    -0.000 C 
BRANCH  28  29
ATOM     29  C   UNL     1      45.993 -33.747   0.919  1.00  0.00    -0.003 C 
ATOM     30  C   UNL     1      45.199 -32.603   0.286  1.00  0.00     0.004 C 
ENDBRANCH  28  29
ENDBRANCH  27  28
ENDBRANCH  26  27
ENDBRANCH  25  26
ENDBRANCH  24  25
ENDBRANCH  23  24
ENDBRANCH  22  23
ENDBRANCH  21  22
ENDBRANCH  20  21
ENDBRANCH  19  20
ENDBRANCH  18  19
ENDBRANCH  17  18
ENDBRANCH   1  17
TORSDOF 26
ENDMDL
