MODEL 1
REMARK VINA RESULT:    -3.597      0.000      0.000
REMARK INTER + INTRA:          -8.012
REMARK INTER:                  -6.120
REMARK INTRA:                  -1.892
REMARK UNBOUND:                -1.892
REMARK SMILES CCCCCCCCCCCCCC(=O)[O-]
REMARK SMILES IDX 8 1 9 2 10 3 11 4 12 5 13 6 14 7 15 8 16 9 7 10 6 11 5 12
REMARK SMILES IDX 4 13 3 14 2 15 1 16
REMARK H PARENT
REMARK Flexibility Score: inf
ROOT
ATOM      1  C   UNL     1     -42.782 -49.560  37.675  1.00  0.00     0.000 C 
ENDROOT
BRANCH   1   2
ATOM      2  C   UNL     1     -43.688 -48.375  37.311  1.00  0.00     0.000 C 
BRANCH   2   3
ATOM      3  C   UNL     1     -45.003 -48.426  38.100  1.00  0.00     0.000 C 
BRANCH   3   4
ATOM      4  C   UNL     1     -46.213 -48.387  37.155  1.00  0.00     0.000 C 
BRANCH   4   5
ATOM      5  C   UNL     1     -46.858 -49.771  36.954  1.00  0.00     0.006 C 
BRANCH   5   6
ATOM      6  C   UNL     1     -46.500 -50.799  38.039  1.00  0.00     0.053 C 
BRANCH   6   7
ATOM      7  C   UNL     1     -46.739 -52.205  37.581  1.00  0.00     0.041 C 
ATOM      8  O   UNL     1     -45.953 -52.748  36.762  1.00  0.00    -0.550 OA
ATOM      9  O   UNL     1     -47.851 -52.904  38.035  1.00  0.00    -0.550 OA
ENDBRANCH   6   7
ENDBRANCH   5   6
ENDBRANCH   4   5
ENDBRANCH   3   4
ENDBRANCH   2   3
ENDBRANCH   1   2
BRANCH   1  10
ATOM     10  C   UNL     1     -42.890 -50.725  36.676  1.00  0.00     0.000 C 
BRANCH  10  11
ATOM     11  C   UNL     1     -43.600 -50.382  35.350  1.00  0.00    -0.000 C 
BRANCH  11  12
ATOM     12  C   UNL     1     -42.666 -49.948  34.203  1.00  0.00    -0.000 C 
BRANCH  12  13
ATOM     13  C   UNL     1     -42.783 -48.467  33.791  1.00  0.00    -0.000 C 
BRANCH  13  14
ATOM     14  C   UNL     1     -41.622 -47.569  34.255  1.00  0.00    -0.000 C 
BRANCH  14  15
ATOM     15  C   UNL     1     -40.431 -48.371  34.800  1.00  0.00    -0.003 C 
ATOM     16  C   UNL     1     -39.943 -47.795  36.127  1.00  0.00     0.004 C 
ENDBRANCH  14  15
ENDBRANCH  13  14
ENDBRANCH  12  13
ENDBRANCH  11  12
ENDBRANCH  10  11
ENDBRANCH   1  10
TORSDOF 12
ENDMDL
MODEL 2
REMARK VINA RESULT:    -3.546      3.295      5.341
REMARK INTER + INTRA:          -7.925
REMARK INTER:                  -6.185
REMARK INTRA:                  -1.740
REMARK UNBOUND:                -1.892
REMARK SMILES CCCCCCCCCCCCCC(=O)[O-]
REMARK SMILES IDX 8 1 9 2 10 3 11 4 12 5 13 6 14 7 15 8 16 9 7 10 6 11 5 12
REMARK SMILES IDX 4 13 3 14 2 15 1 16
REMARK H PARENT
REMARK Flexibility Score: inf
ROOT
ATOM      1  C   UNL     1     -40.567 -48.343  35.018  1.00  0.00     0.000 C 
ENDROOT
BRANCH   1   2
ATOM      2  C   UNL     1     -40.484 -47.871  36.477  1.00  0.00     0.000 C 
BRANCH   2   3
ATOM      3  C   UNL     1     -40.470 -49.065  37.440  1.00  0.00     0.000 C 
BRANCH   3   4
ATOM      4  C   UNL     1     -41.721 -49.067  38.332  1.00  0.00     0.000 C 
BRANCH   4   5
ATOM      5  C   UNL     1     -42.513 -47.748  38.251  1.00  0.00     0.006 C 
BRANCH   5   6
ATOM      6  C   UNL     1     -43.563 -47.574  39.360  1.00  0.00     0.053 C 
BRANCH   6   7
ATOM      7  C   UNL     1     -43.304 -46.355  40.192  1.00  0.00     0.041 C 
ATOM      8  O   UNL     1     -42.297 -46.304  40.946  1.00  0.00    -0.550 OA
ATOM      9  O   UNL     1     -44.194 -45.289  40.159  1.00  0.00    -0.550 OA
ENDBRANCH   6   7
ENDBRANCH   5   6
ENDBRANCH   4   5
ENDBRANCH   3   4
ENDBRANCH   2   3
ENDBRANCH   1   2
BRANCH   1  10
ATOM     10  C   UNL     1     -41.772 -47.749  34.265  1.00  0.00     0.000 C 
BRANCH  10  11
ATOM     11  C   UNL     1     -42.794 -48.784  33.754  1.00  0.00    -0.000 C 
BRANCH  11  12
ATOM     12  C   UNL     1     -43.180 -49.877  34.771  1.00  0.00    -0.000 C 
BRANCH  12  13
ATOM     13  C   UNL     1     -44.351 -49.514  35.706  1.00  0.00    -0.000 C 
BRANCH  13  14
ATOM     14  C   UNL     1     -44.781 -50.633  36.672  1.00  0.00    -0.000 C 
BRANCH  14  15
ATOM     15  C   UNL     1     -46.006 -50.252  37.517  1.00  0.00    -0.003 C 
ATOM     16  C   UNL     1     -46.501 -48.852  37.165  1.00  0.00     0.004 C 
ENDBRANCH  14  15
ENDBRANCH  13  14
ENDBRANCH  12  13
ENDBRANCH  11  12
ENDBRANCH  10  11
ENDBRANCH   1  10
TORSDOF 12
ENDMDL
MODEL 3
REMARK VINA RESULT:    -3.526      2.571      4.651
REMARK INTER + INTRA:          -7.892
REMARK INTER:                  -6.528
REMARK INTRA:                  -1.364
REMARK UNBOUND:                -1.892
REMARK SMILES CCCCCCCCCCCCCC(=O)[O-]
REMARK SMILES IDX 8 1 9 2 10 3 11 4 12 5 13 6 14 7 15 8 16 9 7 10 6 11 5 12
REMARK SMILES IDX 4 13 3 14 2 15 1 16
REMARK H PARENT
REMARK Flexibility Score: inf
ROOT
ATOM      1  C   UNL     1     -40.372 -48.562  35.176  1.00  0.00     0.000 C 
ENDROOT
BRANCH   1   2
ATOM      2  C   UNL     1     -41.235 -47.657  34.285  1.00  0.00     0.000 C 
BRANCH   2   3
ATOM      3  C   UNL     1     -42.724 -47.994  34.438  1.00  0.00     0.000 C 
BRANCH   3   4
ATOM      4  C   UNL     1     -42.945 -49.514  34.447  1.00  0.00     0.000 C 
BRANCH   4   5
ATOM      5  C   UNL     1     -43.917 -49.969  35.552  1.00  0.00     0.006 C 
BRANCH   5   6
ATOM      6  C   UNL     1     -44.439 -48.830  36.442  1.00  0.00     0.053 C 
BRANCH   6   7
ATOM      7  C   UNL     1     -45.604 -49.262  37.279  1.00  0.00     0.041 C 
ATOM      8  O   UNL     1     -46.770 -49.232  36.806  1.00  0.00    -0.550 OA
ATOM      9  O   UNL     1     -45.404 -49.666  38.593  1.00  0.00    -0.550 OA
ENDBRANCH   6   7
ENDBRANCH   5   6
ENDBRANCH   4   5
ENDBRANCH   3   4
ENDBRANCH   2   3
ENDBRANCH   1   2
BRANCH   1  10
ATOM     10  C   UNL     1     -40.079 -47.941  36.555  1.00  0.00     0.000 C 
BRANCH  10  11
ATOM     11  C   UNL     1     -41.020 -48.399  37.687  1.00  0.00    -0.000 C 
BRANCH  11  12
ATOM     12  C   UNL     1     -41.537 -47.272  38.603  1.00  0.00    -0.000 C 
BRANCH  12  13
ATOM     13  C   UNL     1     -42.632 -47.693  39.602  1.00  0.00    -0.000 C 
BRANCH  13  14
ATOM     14  C   UNL     1     -43.655 -46.595  39.947  1.00  0.00    -0.000 C 
BRANCH  14  15
ATOM     15  C   UNL     1     -43.005 -45.219  40.152  1.00  0.00    -0.003 C 
ATOM     16  C   UNL     1     -42.299 -45.142  41.503  1.00  0.00     0.004 C 
ENDBRANCH  14  15
ENDBRANCH  13  14
ENDBRANCH  12  13
ENDBRANCH  11  12
ENDBRANCH  10  11
ENDBRANCH   1  10
TORSDOF 12
ENDMDL
MODEL 4
REMARK VINA RESULT:    -3.494      1.369      2.390
REMARK INTER + INTRA:          -7.837
REMARK INTER:                  -6.426
REMARK INTRA:                  -1.411
REMARK UNBOUND:                -1.892
REMARK SMILES CCCCCCCCCCCCCC(=O)[O-]
REMARK SMILES IDX 8 1 9 2 10 3 11 4 12 5 13 6 14 7 15 8 16 9 7 10 6 11 5 12
REMARK SMILES IDX 4 13 3 14 2 15 1 16
REMARK H PARENT
REMARK Flexibility Score: inf
ROOT
ATOM      1  C   UNL     1     -42.546 -47.955  37.935  1.00  0.00     0.000 C 
ENDROOT
BRANCH   1   2
ATOM      2  C   UNL     1     -43.910 -48.321  38.540  1.00  0.00     0.000 C 
BRANCH   2   3
ATOM      3  C   UNL     1     -45.045 -48.033  37.549  1.00  0.00     0.000 C 
BRANCH   3   4
ATOM      4  C   UNL     1     -45.376 -49.279  36.715  1.00  0.00     0.000 C 
BRANCH   4   5
ATOM      5  C   UNL     1     -46.773 -49.850  37.023  1.00  0.00     0.006 C 
BRANCH   5   6
ATOM      6  C   UNL     1     -46.783 -51.352  37.350  1.00  0.00     0.053 C 
BRANCH   6   7
ATOM      7  C   UNL     1     -46.880 -51.605  38.824  1.00  0.00     0.041 C 
ATOM      8  O   UNL     1     -47.594 -52.545  39.261  1.00  0.00    -0.550 OA
ATOM      9  O   UNL     1     -46.207 -50.779  39.716  1.00  0.00    -0.550 OA
ENDBRANCH   6   7
ENDBRANCH   5   6
ENDBRANCH   4   5
ENDBRANCH   3   4
ENDBRANCH   2   3
ENDBRANCH   1   2
BRANCH   1  10
ATOM     10  C   UNL     1     -41.559 -49.137  37.927  1.00  0.00     0.000 C 
BRANCH  10  11
ATOM     11  C   UNL     1     -40.391 -49.002  36.929  1.00  0.00    -0.000 C 
BRANCH  11  12
ATOM     12  C   UNL     1     -40.453 -47.761  36.016  1.00  0.00    -0.000 C 
BRANCH  12  13
ATOM     13  C   UNL     1     -40.861 -48.046  34.556  1.00  0.00    -0.000 C 
BRANCH  13  14
ATOM     14  C   UNL     1     -42.361 -47.871  34.254  1.00  0.00    -0.000 C 
BRANCH  14  15
ATOM     15  C   UNL     1     -43.051 -49.191  33.884  1.00  0.00    -0.003 C 
ATOM     16  C   UNL     1     -42.050 -50.342  33.842  1.00  0.00     0.004 C 
ENDBRANCH  14  15
ENDBRANCH  13  14
ENDBRANCH  12  13
ENDBRANCH  11  12
ENDBRANCH  10  11
ENDBRANCH   1  10
TORSDOF 12
ENDMDL
MODEL 5
REMARK VINA RESULT:    -3.483      1.588      2.390
REMARK INTER + INTRA:          -7.818
REMARK INTER:                  -6.663
REMARK INTRA:                  -1.155
REMARK UNBOUND:                -1.892
REMARK SMILES CCCCCCCCCCCCCC(=O)[O-]
REMARK SMILES IDX 8 1 9 2 10 3 11 4 12 5 13 6 14 7 15 8 16 9 7 10 6 11 5 12
REMARK SMILES IDX 4 13 3 14 2 15 1 16
REMARK H PARENT
REMARK Flexibility Score: inf
ROOT
ATOM      1  C   UNL     1     -45.009 -49.400  38.266  1.00  0.00     0.000 C 
ENDROOT
BRANCH   1   2
ATOM      2  C   UNL     1     -46.209 -48.904  37.446  1.00  0.00     0.000 C 
BRANCH   2   3
ATOM      3  C   UNL     1     -47.019 -50.082  36.889  1.00  0.00     0.000 C 
BRANCH   3   4
ATOM      4  C   UNL     1     -46.361 -51.421  37.253  1.00  0.00     0.000 C 
BRANCH   4   5
ATOM      5  C   UNL     1     -47.371 -52.460  37.775  1.00  0.00     0.006 C 
BRANCH   5   6
ATOM      6  C   UNL     1     -47.055 -52.996  39.181  1.00  0.00     0.053 C 
BRANCH   6   7
ATOM      7  C   UNL     1     -47.754 -52.212  40.250  1.00  0.00     0.041 C 
ATOM      8  O   UNL     1     -47.289 -51.106  40.632  1.00  0.00    -0.550 OA
ATOM      9  O   UNL     1     -48.900 -52.721  40.847  1.00  0.00    -0.550 OA
ENDBRANCH   6   7
ENDBRANCH   5   6
ENDBRANCH   4   5
ENDBRANCH   3   4
ENDBRANCH   2   3
ENDBRANCH   1   2
BRANCH   1  10
ATOM     10  C   UNL     1     -43.658 -49.086  37.599  1.00  0.00     0.000 C 
BRANCH  10  11
ATOM     11  C   UNL     1     -43.756 -48.380  36.231  1.00  0.00    -0.000 C 
BRANCH  11  12
ATOM     12  C   UNL     1     -43.358 -49.247  35.019  1.00  0.00    -0.000 C 
BRANCH  12  13
ATOM     13  C   UNL     1     -42.680 -48.482  33.865  1.00  0.00    -0.000 C 
BRANCH  13  14
ATOM     14  C   UNL     1     -41.506 -47.579  34.285  1.00  0.00    -0.000 C 
BRANCH  14  15
ATOM     15  C   UNL     1     -40.332 -48.367  34.883  1.00  0.00    -0.003 C 
ATOM     16  C   UNL     1     -39.939 -47.814  36.250  1.00  0.00     0.004 C 
ENDBRANCH  14  15
ENDBRANCH  13  14
ENDBRANCH  12  13
ENDBRANCH  11  12
ENDBRANCH  10  11
ENDBRANCH   1  10
TORSDOF 12
ENDMDL
MODEL 6
REMARK VINA RESULT:    -3.420      4.036      5.304
REMARK INTER + INTRA:          -7.711
REMARK INTER:                  -6.377
REMARK INTRA:                  -1.335
REMARK UNBOUND:                -1.892
REMARK SMILES CCCCCCCCCCCCCC(=O)[O-]
REMARK SMILES IDX 8 1 9 2 10 3 11 4 12 5 13 6 14 7 15 8 16 9 7 10 6 11 5 12
REMARK SMILES IDX 4 13 3 14 2 15 1 16
REMARK H PARENT
REMARK Flexibility Score: inf
ROOT
ATOM      1  C   UNL     1     -44.405 -51.441  38.590  1.00  0.00     0.000 C 
ENDROOT
BRANCH   1   2
ATOM      2  C   UNL     1     -43.361 -50.670  39.411  1.00  0.00     0.000 C 
BRANCH   2   3
ATOM      3  C   UNL     1     -44.037 -49.679  40.367  1.00  0.00     0.000 C 
BRANCH   3   4
ATOM      4  C   UNL     1     -43.104 -48.502  40.689  1.00  0.00     0.000 C 
BRANCH   4   5
ATOM      5  C   UNL     1     -43.031 -47.469  39.550  1.00  0.00     0.006 C 
BRANCH   5   6
ATOM      6  C   UNL     1     -42.039 -46.322  39.800  1.00  0.00     0.053 C 
BRANCH   6   7
ATOM      7  C   UNL     1     -42.680 -45.169  40.509  1.00  0.00     0.041 C 
ATOM      8  O   UNL     1     -43.825 -44.772  40.167  1.00  0.00    -0.550 OA
ATOM      9  O   UNL     1     -41.998 -44.512  41.526  1.00  0.00    -0.550 OA
ENDBRANCH   6   7
ENDBRANCH   5   6
ENDBRANCH   4   5
ENDBRANCH   3   4
ENDBRANCH   2   3
ENDBRANCH   1   2
BRANCH   1  10
ATOM     10  C   UNL     1     -45.687 -50.628  38.337  1.00  0.00     0.000 C 
BRANCH  10  11
ATOM     11  C   UNL     1     -45.772 -49.963  36.948  1.00  0.00    -0.000 C 
BRANCH  11  12
ATOM     12  C   UNL     1     -45.112 -48.573  36.849  1.00  0.00    -0.000 C 
BRANCH  12  13
ATOM     13  C   UNL     1     -43.750 -48.548  36.126  1.00  0.00    -0.000 C 
BRANCH  13  14
ATOM     14  C   UNL     1     -43.610 -49.552  34.968  1.00  0.00    -0.000 C 
BRANCH  14  15
ATOM     15  C   UNL     1     -42.757 -49.011  33.811  1.00  0.00    -0.003 C 
ATOM     16  C   UNL     1     -42.060 -47.712  34.204  1.00  0.00     0.004 C 
ENDBRANCH  14  15
ENDBRANCH  13  14
ENDBRANCH  12  13
ENDBRANCH  11  12
ENDBRANCH  10  11
ENDBRANCH   1  10
TORSDOF 12
ENDMDL
MODEL 7
REMARK VINA RESULT:    -3.368      1.534      2.470
REMARK INTER + INTRA:          -7.623
REMARK INTER:                  -6.096
REMARK INTRA:                  -1.527
REMARK UNBOUND:                -1.892
REMARK SMILES CCCCCCCCCCCCCC(=O)[O-]
REMARK SMILES IDX 8 1 9 2 10 3 11 4 12 5 13 6 14 7 15 8 16 9 7 10 6 11 5 12
REMARK SMILES IDX 4 13 3 14 2 15 1 16
REMARK H PARENT
REMARK Flexibility Score: inf
ROOT
ATOM      1  C   UNL     1     -42.804 -48.898  39.214  1.00  0.00     0.000 C 
ENDROOT
BRANCH   1   2
ATOM      2  C   UNL     1     -44.083 -49.030  40.054  1.00  0.00     0.000 C 
BRANCH   2   3
ATOM      3  C   UNL     1     -44.449 -50.504  40.269  1.00  0.00     0.000 C 
BRANCH   3   4
ATOM      4  C   UNL     1     -45.972 -50.687  40.347  1.00  0.00     0.000 C 
BRANCH   4   5
ATOM      5  C   UNL     1     -46.614 -50.942  38.971  1.00  0.00     0.006 C 
BRANCH   5   6
ATOM      6  C   UNL     1     -45.931 -52.048  38.150  1.00  0.00     0.053 C 
BRANCH   6   7
ATOM      7  C   UNL     1     -46.815 -53.245  37.976  1.00  0.00     0.041 C 
ATOM      8  O   UNL     1     -47.990 -53.108  37.545  1.00  0.00    -0.550 OA
ATOM      9  O   UNL     1     -46.350 -54.508  38.322  1.00  0.00    -0.550 OA
ENDBRANCH   6   7
ENDBRANCH   5   6
ENDBRANCH   4   5
ENDBRANCH   3   4
ENDBRANCH   2   3
ENDBRANCH   1   2
BRANCH   1  10
ATOM     10  C   UNL     1     -43.048 -48.214  37.856  1.00  0.00     0.000 C 
BRANCH  10  11
ATOM     11  C   UNL     1     -44.499 -48.293  37.340  1.00  0.00    -0.000 C 
BRANCH  11  12
ATOM     12  C   UNL     1     -44.709 -49.210  36.119  1.00  0.00    -0.000 C 
BRANCH  12  13
ATOM     13  C   UNL     1     -43.422 -49.830  35.540  1.00  0.00    -0.000 C 
BRANCH  13  14
ATOM     14  C   UNL     1     -43.020 -49.312  34.147  1.00  0.00    -0.000 C 
BRANCH  14  15
ATOM     15  C   UNL     1     -42.429 -47.896  34.185  1.00  0.00    -0.003 C 
ATOM     16  C   UNL     1     -40.978 -47.920  34.657  1.00  0.00     0.004 C 
ENDBRANCH  14  15
ENDBRANCH  13  14
ENDBRANCH  12  13
ENDBRANCH  11  12
ENDBRANCH  10  11
ENDBRANCH   1  10
TORSDOF 12
ENDMDL
MODEL 8
REMARK VINA RESULT:    -3.332      4.023      5.624
REMARK INTER + INTRA:          -7.562
REMARK INTER:                  -6.129
REMARK INTRA:                  -1.433
REMARK UNBOUND:                -1.892
REMARK SMILES CCCCCCCCCCCCCC(=O)[O-]
REMARK SMILES IDX 8 1 9 2 10 3 11 4 12 5 13 6 14 7 15 8 16 9 7 10 6 11 5 12
REMARK SMILES IDX 4 13 3 14 2 15 1 16
REMARK H PARENT
REMARK Flexibility Score: inf
ROOT
ATOM      1  C   UNL     1     -39.576 -48.880  36.318  1.00  0.00     0.000 C 
ENDROOT
BRANCH   1   2
ATOM      2  C   UNL     1     -40.596 -49.218  37.415  1.00  0.00     0.000 C 
BRANCH   2   3
ATOM      3  C   UNL     1     -40.798 -48.028  38.362  1.00  0.00     0.000 C 
BRANCH   3   4
ATOM      4  C   UNL     1     -42.249 -47.526  38.311  1.00  0.00     0.000 C 
BRANCH   4   5
ATOM      5  C   UNL     1     -42.927 -47.518  39.694  1.00  0.00     0.006 C 
BRANCH   5   6
ATOM      6  C   UNL     1     -42.127 -46.789  40.785  1.00  0.00     0.053 C 
BRANCH   6   7
ATOM      7  C   UNL     1     -42.564 -45.365  40.945  1.00  0.00     0.041 C 
ATOM      8  O   UNL     1     -43.565 -44.934  40.315  1.00  0.00    -0.550 OA
ATOM      9  O   UNL     1     -41.843 -44.505  41.765  1.00  0.00    -0.550 OA
ENDBRANCH   6   7
ENDBRANCH   5   6
ENDBRANCH   4   5
ENDBRANCH   3   4
ENDBRANCH   2   3
ENDBRANCH   1   2
BRANCH   1  10
ATOM     10  C   UNL     1     -40.156 -49.017  34.899  1.00  0.00     0.000 C 
BRANCH  10  11
ATOM     11  C   UNL     1     -40.921 -47.780  34.386  1.00  0.00    -0.000 C 
BRANCH  11  12
ATOM     12  C   UNL     1     -42.457 -47.884  34.465  1.00  0.00    -0.000 C 
BRANCH  12  13
ATOM     13  C   UNL     1     -43.038 -49.261  34.085  1.00  0.00    -0.000 C 
BRANCH  13  14
ATOM     14  C   UNL     1     -43.620 -50.068  35.260  1.00  0.00    -0.000 C 
BRANCH  14  15
ATOM     15  C   UNL     1     -44.520 -49.224  36.173  1.00  0.00    -0.003 C 
ATOM     16  C   UNL     1     -45.517 -50.103  36.924  1.00  0.00     0.004 C 
ENDBRANCH  14  15
ENDBRANCH  13  14
ENDBRANCH  12  13
ENDBRANCH  11  12
ENDBRANCH  10  11
ENDBRANCH   1  10
TORSDOF 12
ENDMDL
MODEL 9
REMARK VINA RESULT:    -3.322      3.879      6.606
REMARK INTER + INTRA:          -7.544
REMARK INTER:                  -5.585
REMARK INTRA:                  -1.958
REMARK UNBOUND:                -1.892
REMARK SMILES CCCCCCCCCCCCCC(=O)[O-]
REMARK SMILES IDX 8 1 9 2 10 3 11 4 12 5 13 6 14 7 15 8 16 9 7 10 6 11 5 12
REMARK SMILES IDX 4 13 3 14 2 15 1 16
REMARK H PARENT
REMARK Flexibility Score: inf
ROOT
ATOM      1  C   UNL     1     -45.403 -51.185  37.236  1.00  0.00     0.000 C 
ENDROOT
BRANCH   1   2
ATOM      2  C   UNL     1     -46.922 -51.407  37.242  1.00  0.00     0.000 C 
BRANCH   2   3
ATOM      3  C   UNL     1     -47.261 -52.878  37.514  1.00  0.00     0.000 C 
BRANCH   3   4
ATOM      4  C   UNL     1     -45.986 -53.703  37.742  1.00  0.00     0.000 C 
BRANCH   4   5
ATOM      5  C   UNL     1     -46.220 -54.927  38.647  1.00  0.00     0.006 C 
BRANCH   5   6
ATOM      6  C   UNL     1     -47.637 -55.517  38.556  1.00  0.00     0.053 C 
BRANCH   6   7
ATOM      7  C   UNL     1     -47.648 -56.992  38.817  1.00  0.00     0.041 C 
ATOM      8  O   UNL     1     -48.011 -57.794  37.917  1.00  0.00    -0.550 OA
ATOM      9  O   UNL     1     -47.288 -57.479  40.068  1.00  0.00    -0.550 OA
ENDBRANCH   6   7
ENDBRANCH   5   6
ENDBRANCH   4   5
ENDBRANCH   3   4
ENDBRANCH   2   3
ENDBRANCH   1   2
BRANCH   1  10
ATOM     10  C   UNL     1     -44.953 -50.098  38.230  1.00  0.00     0.000 C 
BRANCH  10  11
ATOM     11  C   UNL     1     -44.118 -50.611  39.420  1.00  0.00    -0.000 C 
BRANCH  11  12
ATOM     12  C   UNL     1     -44.867 -50.666  40.767  1.00  0.00    -0.000 C 
BRANCH  12  13
ATOM     13  C   UNL     1     -45.965 -51.744  40.859  1.00  0.00    -0.000 C 
BRANCH  13  14
ATOM     14  C   UNL     1     -47.406 -51.203  40.886  1.00  0.00    -0.000 C 
BRANCH  14  15
ATOM     15  C   UNL     1     -48.460 -52.318  40.941  1.00  0.00    -0.003 C 
ATOM     16  C   UNL     1     -47.942 -53.526  41.717  1.00  0.00     0.004 C 
ENDBRANCH  14  15
ENDBRANCH  13  14
ENDBRANCH  12  13
ENDBRANCH  11  12
ENDBRANCH  10  11
ENDBRANCH   1  10
TORSDOF 12
ENDMDL
