MODEL 1
REMARK VINA RESULT:     1.347      0.000      0.000
REMARK INTER + INTRA:           2.358
REMARK INTER:                   3.394
REMARK INTRA:                  -1.035
REMARK UNBOUND:                -1.035
REMARK SMILES CCCCCCCCCCCCCCCCCCCCCCCCCCCC(=O)[O-]
REMARK SMILES IDX 15 1 16 2 17 3 18 4 19 5 20 6 21 7 22 8 23 9 24 10 25 11
REMARK SMILES IDX 26 12 27 13 28 14 29 15 30 16 14 17 13 18 12 19 11 20 10 21
REMARK SMILES IDX 9 22 8 23 7 24 6 25 5 26 4 27 3 28 2 29 1 30
REMARK H PARENT
REMARK Flexibility Score: inf
ROOT
ATOM      1  C   UNL     1      45.653  12.861 -32.234  1.00  0.00     0.000 C 
ENDROOT
BRANCH   1   2
ATOM      2  C   UNL     1      44.246  12.321 -32.548  1.00  0.00     0.000 C 
BRANCH   2   3
ATOM      3  C   UNL     1      43.746  12.743 -33.937  1.00  0.00     0.000 C 
BRANCH   3   4
ATOM      4  C   UNL     1      43.254  11.551 -34.778  1.00  0.00     0.000 C 
BRANCH   4   5
ATOM      5  C   UNL     1      41.892  11.813 -35.446  1.00  0.00     0.000 C 
BRANCH   5   6
ATOM      6  C   UNL     1      41.872  13.003 -36.421  1.00  0.00     0.000 C 
BRANCH   6   7
ATOM      7  C   UNL     1      40.450  13.431 -36.811  1.00  0.00     0.000 C 
BRANCH   7   8
ATOM      8  C   UNL     1      39.547  13.525 -35.571  1.00  0.00     0.000 C 
BRANCH   8   9
ATOM      9  C   UNL     1      38.154  14.105 -35.880  1.00  0.00     0.000 C 
BRANCH   9  10
ATOM     10  C   UNL     1      37.800  15.395 -35.116  1.00  0.00     0.000 C 
BRANCH  10  11
ATOM     11  C   UNL     1      37.061  15.128 -33.797  1.00  0.00     0.000 C 
BRANCH  11  12
ATOM     12  C   UNL     1      37.449  13.761 -33.218  1.00  0.00     0.006 C 
BRANCH  12  13
ATOM     13  C   UNL     1      36.937  13.604 -31.782  1.00  0.00     0.053 C 
BRANCH  13  14
ATOM     14  C   UNL     1      37.694  12.524 -31.073  1.00  0.00     0.041 C 
ATOM     15  O   UNL     1      38.744  12.048 -31.584  1.00  0.00    -0.550 OA
ATOM     16  O   UNL     1      37.205  11.996 -29.886  1.00  0.00    -0.550 OA
ENDBRANCH  13  14
ENDBRANCH  12  13
ENDBRANCH  11  12
ENDBRANCH  10  11
ENDBRANCH   9  10
ENDBRANCH   8   9
ENDBRANCH   7   8
ENDBRANCH   6   7
ENDBRANCH   5   6
ENDBRANCH   4   5
ENDBRANCH   3   4
ENDBRANCH   2   3
ENDBRANCH   1   2
BRANCH   1  17
ATOM     17  C   UNL     1      46.712  11.737 -32.221  1.00  0.00     0.000 C 
BRANCH  17  18
ATOM     18  C   UNL     1      46.752  10.938 -30.906  1.00  0.00     0.000 C 
BRANCH  18  19
ATOM     19  C   UNL     1      46.618  11.830 -29.663  1.00  0.00     0.000 C 
BRANCH  19  20
ATOM     20  C   UNL     1      46.497  11.022 -28.361  1.00  0.00     0.000 C 
BRANCH  20  21
ATOM     21  C   UNL     1      45.179  11.266 -27.592  1.00  0.00     0.000 C 
BRANCH  21  22
ATOM     22  C   UNL     1      45.299  10.911 -26.100  1.00  0.00    -0.000 C 
BRANCH  22  23
ATOM     23  C   UNL     1      44.673  11.969 -25.175  1.00  0.00    -0.000 C 
BRANCH  23  24
ATOM     24  C   UNL     1      45.119  11.859 -23.702  1.00  0.00    -0.000 C 
BRANCH  24  25
ATOM     25  C   UNL     1      46.587  12.269 -23.503  1.00  0.00    -0.000 C 
BRANCH  25  26
ATOM     26  C   UNL     1      47.384  11.242 -22.678  1.00  0.00    -0.000 C 
BRANCH  26  27
ATOM     27  C   UNL     1      46.770  10.958 -21.290  1.00  0.00    -0.000 C 
BRANCH  27  28
ATOM     28  C   UNL     1      47.571  11.612 -20.154  1.00  0.00    -0.000 C 
BRANCH  28  29
ATOM     29  C   UNL     1      48.920  10.908 -19.956  1.00  0.00    -0.003 C 
ATOM     30  C   UNL     1      49.791  11.654 -18.950  1.00  0.00     0.004 C 
ENDBRANCH  28  29
ENDBRANCH  27  28
ENDBRANCH  26  27
ENDBRANCH  25  26
ENDBRANCH  24  25
ENDBRANCH  23  24
ENDBRANCH  22  23
ENDBRANCH  21  22
ENDBRANCH  20  21
ENDBRANCH  19  20
ENDBRANCH  18  19
ENDBRANCH  17  18
ENDBRANCH   1  17
TORSDOF 26
ENDMDL
MODEL 2
REMARK VINA RESULT:     4.014      1.572      4.084
REMARK INTER + INTRA:           9.079
REMARK INTER:                  10.231
REMARK INTRA:                  -1.152
REMARK UNBOUND:                -1.035
REMARK SMILES CCCCCCCCCCCCCCCCCCCCCCCCCCCC(=O)[O-]
REMARK SMILES IDX 15 1 16 2 17 3 18 4 19 5 20 6 21 7 22 8 23 9 24 10 25 11
REMARK SMILES IDX 26 12 27 13 28 14 29 15 30 16 14 17 13 18 12 19 11 20 10 21
REMARK SMILES IDX 9 22 8 23 7 24 6 25 5 26 4 27 3 28 2 29 1 30
REMARK H PARENT
REMARK Flexibility Score: inf
ROOT
ATOM      1  C   UNL     1      46.790  10.979 -28.644  1.00  0.00     0.000 C 
ENDROOT
BRANCH   1   2
ATOM      2  C   UNL     1      46.626  10.992 -30.175  1.00  0.00     0.000 C 
BRANCH   2   3
ATOM      3  C   UNL     1      46.498  12.411 -30.746  1.00  0.00     0.000 C 
BRANCH   3   4
ATOM      4  C   UNL     1      45.258  12.581 -31.642  1.00  0.00     0.000 C 
BRANCH   4   5
ATOM      5  C   UNL     1      45.618  12.819 -33.120  1.00  0.00     0.000 C 
BRANCH   5   6
ATOM      6  C   UNL     1      44.415  12.851 -34.079  1.00  0.00     0.000 C 
BRANCH   6   7
ATOM      7  C   UNL     1      43.566  11.573 -34.013  1.00  0.00     0.000 C 
BRANCH   7   8
ATOM      8  C   UNL     1      42.430  11.617 -35.048  1.00  0.00     0.000 C 
BRANCH   8   9
ATOM      9  C   UNL     1      42.092  13.046 -35.513  1.00  0.00     0.000 C 
BRANCH   9  10
ATOM     10  C   UNL     1      40.903  13.152 -36.487  1.00  0.00     0.000 C 
BRANCH  10  11
ATOM     11  C   UNL     1      40.237  14.535 -36.474  1.00  0.00     0.000 C 
BRANCH  11  12
ATOM     12  C   UNL     1      39.655  14.850 -35.089  1.00  0.00     0.006 C 
BRANCH  12  13
ATOM     13  C   UNL     1      38.123  14.860 -35.123  1.00  0.00     0.053 C 
BRANCH  13  14
ATOM     14  C   UNL     1      37.575  13.715 -34.329  1.00  0.00     0.041 C 
ATOM     15  O   UNL     1      37.227  12.652 -34.910  1.00  0.00    -0.550 OA
ATOM     16  O   UNL     1      37.387  13.845 -32.959  1.00  0.00    -0.550 OA
ENDBRANCH  13  14
ENDBRANCH  12  13
ENDBRANCH  11  12
ENDBRANCH  10  11
ENDBRANCH   9  10
ENDBRANCH   8   9
ENDBRANCH   7   8
ENDBRANCH   6   7
ENDBRANCH   5   6
ENDBRANCH   4   5
ENDBRANCH   3   4
ENDBRANCH   2   3
ENDBRANCH   1   2
BRANCH   1  17
ATOM     17  C   UNL     1      45.428  10.901 -27.919  1.00  0.00     0.000 C 
BRANCH  17  18
ATOM     18  C   UNL     1      45.540  10.932 -26.385  1.00  0.00     0.000 C 
BRANCH  18  19
ATOM     19  C   UNL     1      44.392  11.705 -25.719  1.00  0.00     0.000 C 
BRANCH  19  20
ATOM     20  C   UNL     1      44.446  11.647 -24.184  1.00  0.00     0.000 C 
BRANCH  20  21
ATOM     21  C   UNL     1      45.358  12.719 -23.548  1.00  0.00     0.000 C 
BRANCH  21  22
ATOM     22  C   UNL     1      46.617  12.110 -22.905  1.00  0.00    -0.000 C 
BRANCH  22  23
ATOM     23  C   UNL     1      46.399  11.671 -21.447  1.00  0.00    -0.000 C 
BRANCH  23  24
ATOM     24  C   UNL     1      47.578  10.877 -20.847  1.00  0.00    -0.000 C 
BRANCH  24  25
ATOM     25  C   UNL     1      48.749  11.788 -20.442  1.00  0.00    -0.000 C 
BRANCH  25  26
ATOM     26  C   UNL     1      49.276  11.484 -19.028  1.00  0.00    -0.000 C 
BRANCH  26  27
ATOM     27  C   UNL     1      50.744  11.010 -19.006  1.00  0.00    -0.000 C 
BRANCH  27  28
ATOM     28  C   UNL     1      51.685  11.995 -19.715  1.00  0.00    -0.000 C 
BRANCH  28  29
ATOM     29  C   UNL     1      52.993  12.168 -18.932  1.00  0.00    -0.003 C 
ATOM     30  C   UNL     1      54.194  11.700 -19.748  1.00  0.00     0.004 C 
ENDBRANCH  28  29
ENDBRANCH  27  28
ENDBRANCH  26  27
ENDBRANCH  25  26
ENDBRANCH  24  25
ENDBRANCH  23  24
ENDBRANCH  22  23
ENDBRANCH  21  22
ENDBRANCH  20  21
ENDBRANCH  19  20
ENDBRANCH  18  19
ENDBRANCH  17  18
ENDBRANCH   1  17
TORSDOF 26
ENDMDL
