MODEL 1
REMARK VINA RESULT:    -2.897      0.000      0.000
REMARK INTER + INTRA:          -8.005
REMARK INTER:                  -6.623
REMARK INTRA:                  -1.382
REMARK UNBOUND:                -1.382
REMARK SMILES CCCCCCCCCCCCCCCCCCCCCCCC(=O)[O-]
REMARK SMILES IDX 13 1 14 2 15 3 16 4 17 5 18 6 19 7 20 8 21 9 22 10 23 11
REMARK SMILES IDX 24 12 25 13 26 14 12 15 11 16 10 17 9 18 8 19 7 20 6 21 5 22
REMARK SMILES IDX 4 23 3 24 2 25 1 26
REMARK H PARENT
REMARK Flexibility Score: inf
ROOT
ATOM      1  C   UNL     1       2.111  -4.811 -11.542  1.00  0.00     0.000 C 
ENDROOT
BRANCH   1   2
ATOM      2  C   UNL     1       1.164  -5.993 -11.828  1.00  0.00     0.000 C 
BRANCH   2   3
ATOM      3  C   UNL     1       1.596  -7.281 -11.100  1.00  0.00     0.000 C 
BRANCH   3   4
ATOM      4  C   UNL     1       1.183  -8.554 -11.857  1.00  0.00     0.000 C 
BRANCH   4   5
ATOM      5  C   UNL     1       0.741  -9.683 -10.905  1.00  0.00     0.000 C 
BRANCH   5   6
ATOM      6  C   UNL     1       0.801 -11.046 -11.615  1.00  0.00     0.000 C 
BRANCH   6   7
ATOM      7  C   UNL     1       0.621 -12.256 -10.680  1.00  0.00     0.000 C 
BRANCH   7   8
ATOM      8  C   UNL     1      -0.313 -12.045  -9.469  1.00  0.00     0.000 C 
BRANCH   8   9
ATOM      9  C   UNL     1      -1.751 -12.565  -9.648  1.00  0.00     0.000 C 
BRANCH   9  10
ATOM     10  C   UNL     1      -2.223 -12.780 -11.108  1.00  0.00     0.006 C 
BRANCH  10  11
ATOM     11  C   UNL     1      -3.513 -12.044 -11.519  1.00  0.00     0.053 C 
BRANCH  11  12
ATOM     12  C   UNL     1      -3.519 -10.592 -11.151  1.00  0.00     0.041 C 
ATOM     13  O   UNL     1      -4.316 -10.187 -10.258  1.00  0.00    -0.550 OA
ATOM     14  O   UNL     1      -2.727  -9.668 -11.827  1.00  0.00    -0.550 OA
ENDBRANCH  11  12
ENDBRANCH  10  11
ENDBRANCH   9  10
ENDBRANCH   8   9
ENDBRANCH   7   8
ENDBRANCH   6   7
ENDBRANCH   5   6
ENDBRANCH   4   5
ENDBRANCH   3   4
ENDBRANCH   2   3
ENDBRANCH   1   2
BRANCH   1  15
ATOM     15  C   UNL     1       1.382  -3.564 -11.004  1.00  0.00     0.000 C 
BRANCH  15  16
ATOM     16  C   UNL     1       2.281  -2.312 -10.950  1.00  0.00     0.000 C 
BRANCH  16  17
ATOM     17  C   UNL     1       3.274  -2.248 -12.125  1.00  0.00     0.000 C 
BRANCH  17  18
ATOM     18  C   UNL     1       4.270  -1.076 -12.003  1.00  0.00    -0.000 C 
BRANCH  18  19
ATOM     19  C   UNL     1       5.630  -1.501 -11.406  1.00  0.00    -0.000 C 
BRANCH  19  20
ATOM     20  C   UNL     1       6.765  -0.477 -11.631  1.00  0.00    -0.000 C 
BRANCH  20  21
ATOM     21  C   UNL     1       8.077  -1.140 -12.088  1.00  0.00    -0.000 C 
BRANCH  21  22
ATOM     22  C   UNL     1       9.026  -1.497 -10.923  1.00  0.00    -0.000 C 
BRANCH  22  23
ATOM     23  C   UNL     1       8.842  -2.946 -10.425  1.00  0.00    -0.000 C 
BRANCH  23  24
ATOM     24  C   UNL     1       9.024  -3.996 -11.538  1.00  0.00    -0.000 C 
BRANCH  24  25
ATOM     25  C   UNL     1       7.963  -5.114 -11.575  1.00  0.00    -0.003 C 
ATOM     26  C   UNL     1       8.564  -6.521 -11.505  1.00  0.00     0.004 C 
ENDBRANCH  24  25
ENDBRANCH  23  24
ENDBRANCH  22  23
ENDBRANCH  21  22
ENDBRANCH  20  21
ENDBRANCH  19  20
ENDBRANCH  18  19
ENDBRANCH  17  18
ENDBRANCH  16  17
ENDBRANCH  15  16
ENDBRANCH   1  15
TORSDOF 22
ENDMDL
MODEL 2
REMARK VINA RESULT:    -2.646      1.325      2.688
REMARK INTER + INTRA:          -7.430
REMARK INTER:                  -5.892
REMARK INTRA:                  -1.538
REMARK UNBOUND:                -1.382
REMARK SMILES CCCCCCCCCCCCCCCCCCCCCCCC(=O)[O-]
REMARK SMILES IDX 13 1 14 2 15 3 16 4 17 5 18 6 19 7 20 8 21 9 22 10 23 11
REMARK SMILES IDX 24 12 25 13 26 14 12 15 11 16 10 17 9 18 8 19 7 20 6 21 5 22
REMARK SMILES IDX 4 23 3 24 2 25 1 26
REMARK H PARENT
REMARK Flexibility Score: inf
ROOT
ATOM      1  C   UNL     1       1.714  -2.452 -11.819  1.00  0.00     0.000 C 
ENDROOT
BRANCH   1   2
ATOM      2  C   UNL     1       0.442  -3.323 -11.853  1.00  0.00     0.000 C 
BRANCH   2   3
ATOM      3  C   UNL     1       0.763  -4.822 -12.018  1.00  0.00     0.000 C 
BRANCH   3   4
ATOM      4  C   UNL     1       1.197  -5.481 -10.698  1.00  0.00     0.000 C 
BRANCH   4   5
ATOM      5  C   UNL     1       1.926  -6.820 -10.926  1.00  0.00     0.000 C 
BRANCH   5   6
ATOM      6  C   UNL     1       1.005  -7.825 -11.638  1.00  0.00     0.000 C 
BRANCH   6   7
ATOM      7  C   UNL     1       1.593  -9.241 -11.767  1.00  0.00     0.000 C 
BRANCH   7   8
ATOM      8  C   UNL     1       0.572 -10.400 -11.786  1.00  0.00     0.000 C 
BRANCH   8   9
ATOM      9  C   UNL     1       0.422 -11.167 -10.459  1.00  0.00     0.000 C 
BRANCH   9  10
ATOM     10  C   UNL     1      -0.991 -11.717 -10.144  1.00  0.00     0.006 C 
BRANCH  10  11
ATOM     11  C   UNL     1      -2.075 -11.451 -11.207  1.00  0.00     0.053 C 
BRANCH  11  12
ATOM     12  C   UNL     1      -2.966 -10.292 -10.879  1.00  0.00     0.041 C 
ATOM     13  O   UNL     1      -2.488  -9.123 -10.899  1.00  0.00    -0.550 OA
ATOM     14  O   UNL     1      -4.284 -10.482 -10.471  1.00  0.00    -0.550 OA
ENDBRANCH  11  12
ENDBRANCH  10  11
ENDBRANCH   9  10
ENDBRANCH   8   9
ENDBRANCH   7   8
ENDBRANCH   6   7
ENDBRANCH   5   6
ENDBRANCH   4   5
ENDBRANCH   3   4
ENDBRANCH   2   3
ENDBRANCH   1   2
BRANCH   1  15
ATOM     15  C   UNL     1       2.192  -2.131 -10.389  1.00  0.00     0.000 C 
BRANCH  15  16
ATOM     16  C   UNL     1       3.712  -1.887 -10.297  1.00  0.00     0.000 C 
BRANCH  16  17
ATOM     17  C   UNL     1       4.281  -1.227 -11.567  1.00  0.00     0.000 C 
BRANCH  17  18
ATOM     18  C   UNL     1       5.798  -0.960 -11.475  1.00  0.00    -0.000 C 
BRANCH  18  19
ATOM     19  C   UNL     1       6.646  -2.076 -12.125  1.00  0.00    -0.000 C 
BRANCH  19  20
ATOM     20  C   UNL     1       7.945  -2.408 -11.357  1.00  0.00    -0.000 C 
BRANCH  20  21
ATOM     21  C   UNL     1       8.589  -3.725 -11.826  1.00  0.00    -0.000 C 
BRANCH  21  22
ATOM     22  C   UNL     1       7.582  -4.888 -11.969  1.00  0.00    -0.000 C 
BRANCH  22  23
ATOM     23  C   UNL     1       8.082  -6.194 -11.314  1.00  0.00    -0.000 C 
BRANCH  23  24
ATOM     24  C   UNL     1       7.684  -7.456 -12.104  1.00  0.00    -0.000 C 
BRANCH  24  25
ATOM     25  C   UNL     1       6.709  -8.409 -11.384  1.00  0.00    -0.003 C 
ATOM     26  C   UNL     1       5.279  -8.337 -11.927  1.00  0.00     0.004 C 
ENDBRANCH  24  25
ENDBRANCH  23  24
ENDBRANCH  22  23
ENDBRANCH  21  22
ENDBRANCH  20  21
ENDBRANCH  19  20
ENDBRANCH  18  19
ENDBRANCH  17  18
ENDBRANCH  16  17
ENDBRANCH  15  16
ENDBRANCH   1  15
TORSDOF 22
ENDMDL
MODEL 3
REMARK VINA RESULT:    -2.642      4.486     11.529
REMARK INTER + INTRA:          -7.421
REMARK INTER:                  -5.836
REMARK INTRA:                  -1.586
REMARK UNBOUND:                -1.382
REMARK SMILES CCCCCCCCCCCCCCCCCCCCCCCC(=O)[O-]
REMARK SMILES IDX 13 1 14 2 15 3 16 4 17 5 18 6 19 7 20 8 21 9 22 10 23 11
REMARK SMILES IDX 24 12 25 13 26 14 12 15 11 16 10 17 9 18 8 19 7 20 6 21 5 22
REMARK SMILES IDX 4 23 3 24 2 25 1 26
REMARK H PARENT
REMARK Flexibility Score: inf
ROOT
ATOM      1  C   UNL     1       0.969  -3.484 -10.349  1.00  0.00     0.000 C 
ENDROOT
BRANCH   1   2
ATOM      2  C   UNL     1       1.654  -2.105 -10.421  1.00  0.00     0.000 C 
BRANCH   2   3
ATOM      3  C   UNL     1       2.167  -1.779 -11.838  1.00  0.00     0.000 C 
BRANCH   3   4
ATOM      4  C   UNL     1       3.515  -1.036 -11.821  1.00  0.00     0.000 C 
BRANCH   4   5
ATOM      5  C   UNL     1       4.701  -1.971 -12.124  1.00  0.00     0.000 C 
BRANCH   5   6
ATOM      6  C   UNL     1       5.903  -1.632 -11.228  1.00  0.00     0.000 C 
BRANCH   6   7
ATOM      7  C   UNL     1       7.216  -1.387 -11.993  1.00  0.00     0.000 C 
BRANCH   7   8
ATOM      8  C   UNL     1       8.412  -2.277 -11.590  1.00  0.00     0.000 C 
BRANCH   8   9
ATOM      9  C   UNL     1       8.250  -3.036 -10.260  1.00  0.00     0.000 C 
BRANCH   9  10
ATOM     10  C   UNL     1       9.125  -2.544  -9.081  1.00  0.00     0.006 C 
BRANCH  10  11
ATOM     11  C   UNL     1       8.692  -1.220  -8.422  1.00  0.00     0.053 C 
BRANCH  11  12
ATOM     12  C   UNL     1       8.903  -1.191  -6.939  1.00  0.00     0.041 C 
ATOM     13  O   UNL     1       9.036  -0.077  -6.358  1.00  0.00    -0.550 OA
ATOM     14  O   UNL     1       9.040  -2.364  -6.202  1.00  0.00    -0.550 OA
ENDBRANCH  11  12
ENDBRANCH  10  11
ENDBRANCH   9  10
ENDBRANCH   8   9
ENDBRANCH   7   8
ENDBRANCH   6   7
ENDBRANCH   5   6
ENDBRANCH   4   5
ENDBRANCH   3   4
ENDBRANCH   2   3
ENDBRANCH   1   2
BRANCH   1  15
ATOM     15  C   UNL     1       0.573  -4.038 -11.732  1.00  0.00     0.000 C 
BRANCH  15  16
ATOM     16  C   UNL     1       1.257  -5.379 -12.067  1.00  0.00     0.000 C 
BRANCH  16  17
ATOM     17  C   UNL     1       0.455  -6.593 -11.561  1.00  0.00     0.000 C 
BRANCH  17  18
ATOM     18  C   UNL     1       1.004  -7.935 -12.088  1.00  0.00    -0.000 C 
BRANCH  18  19
ATOM     19  C   UNL     1       0.864  -9.086 -11.066  1.00  0.00    -0.000 C 
BRANCH  19  20
ATOM     20  C   UNL     1       1.163 -10.485 -11.647  1.00  0.00    -0.000 C 
BRANCH  20  21
ATOM     21  C   UNL     1       1.431 -11.535 -10.554  1.00  0.00    -0.000 C 
BRANCH  21  22
ATOM     22  C   UNL     1       0.384 -12.669 -10.516  1.00  0.00    -0.000 C 
BRANCH  22  23
ATOM     23  C   UNL     1      -0.750 -12.402  -9.503  1.00  0.00    -0.000 C 
BRANCH  23  24
ATOM     24  C   UNL     1      -2.096 -12.069 -10.176  1.00  0.00    -0.000 C 
BRANCH  24  25
ATOM     25  C   UNL     1      -2.495 -10.580 -10.163  1.00  0.00    -0.003 C 
ATOM     26  C   UNL     1      -3.055 -10.091 -11.501  1.00  0.00     0.004 C 
ENDBRANCH  24  25
ENDBRANCH  23  24
ENDBRANCH  22  23
ENDBRANCH  21  22
ENDBRANCH  20  21
ENDBRANCH  19  20
ENDBRANCH  18  19
ENDBRANCH  17  18
ENDBRANCH  16  17
ENDBRANCH  15  16
ENDBRANCH   1  15
TORSDOF 22
ENDMDL
MODEL 4
REMARK VINA RESULT:    -2.330      3.231      9.657
REMARK INTER + INTRA:          -6.709
REMARK INTER:                  -5.390
REMARK INTRA:                  -1.319
REMARK UNBOUND:                -1.382
REMARK SMILES CCCCCCCCCCCCCCCCCCCCCCCC(=O)[O-]
REMARK SMILES IDX 13 1 14 2 15 3 16 4 17 5 18 6 19 7 20 8 21 9 22 10 23 11
REMARK SMILES IDX 24 12 25 13 26 14 12 15 11 16 10 17 9 18 8 19 7 20 6 21 5 22
REMARK SMILES IDX 4 23 3 24 2 25 1 26
REMARK H PARENT
REMARK Flexibility Score: inf
ROOT
ATOM      1  C   UNL     1       3.144  -3.807 -11.331  1.00  0.00     0.000 C 
ENDROOT
BRANCH   1   2
ATOM      2  C   UNL     1       3.266  -2.490 -12.124  1.00  0.00     0.000 C 
BRANCH   2   3
ATOM      3  C   UNL     1       3.965  -1.381 -11.312  1.00  0.00     0.000 C 
BRANCH   3   4
ATOM      4  C   UNL     1       5.472  -1.295 -11.606  1.00  0.00     0.000 C 
BRANCH   4   5
ATOM      5  C   UNL     1       6.315  -1.216 -10.318  1.00  0.00     0.000 C 
BRANCH   5   6
ATOM      6  C   UNL     1       7.657  -1.942 -10.502  1.00  0.00     0.000 C 
BRANCH   6   7
ATOM      7  C   UNL     1       7.708  -2.885 -11.718  1.00  0.00     0.000 C 
BRANCH   7   8
ATOM      8  C   UNL     1       8.767  -4.006 -11.664  1.00  0.00     0.000 C 
BRANCH   8   9
ATOM      9  C   UNL     1       8.271  -5.354 -11.109  1.00  0.00     0.000 C 
BRANCH   9  10
ATOM     10  C   UNL     1       8.214  -6.529 -12.116  1.00  0.00     0.006 C 
BRANCH  10  11
ATOM     11  C   UNL     1       6.962  -7.424 -12.044  1.00  0.00     0.053 C 
BRANCH  11  12
ATOM     12  C   UNL     1       7.225  -8.777 -11.457  1.00  0.00     0.041 C 
ATOM     13  O   UNL     1       6.321  -9.339 -10.777  1.00  0.00    -0.550 OA
ATOM     14  O   UNL     1       8.470  -9.390 -11.573  1.00  0.00    -0.550 OA
ENDBRANCH  11  12
ENDBRANCH  10  11
ENDBRANCH   9  10
ENDBRANCH   8   9
ENDBRANCH   7   8
ENDBRANCH   6   7
ENDBRANCH   5   6
ENDBRANCH   4   5
ENDBRANCH   3   4
ENDBRANCH   2   3
ENDBRANCH   1   2
BRANCH   1  15
ATOM     15  C   UNL     1       2.005  -3.787 -10.292  1.00  0.00     0.000 C 
BRANCH  15  16
ATOM     16  C   UNL     1       0.791  -2.945 -10.738  1.00  0.00     0.000 C 
BRANCH  16  17
ATOM     17  C   UNL     1       0.251  -3.373 -12.116  1.00  0.00     0.000 C 
BRANCH  17  18
ATOM     18  C   UNL     1      -0.851  -4.448 -12.018  1.00  0.00    -0.000 C 
BRANCH  18  19
ATOM     19  C   UNL     1      -1.080  -4.947 -10.574  1.00  0.00    -0.000 C 
BRANCH  19  20
ATOM     20  C   UNL     1      -0.841  -6.461 -10.385  1.00  0.00    -0.000 C 
BRANCH  20  21
ATOM     21  C   UNL     1       0.401  -6.963 -11.143  1.00  0.00    -0.000 C 
BRANCH  21  22
ATOM     22  C   UNL     1       0.145  -8.244 -11.968  1.00  0.00    -0.000 C 
BRANCH  22  23
ATOM     23  C   UNL     1      -1.256  -8.844 -11.720  1.00  0.00    -0.000 C 
BRANCH  23  24
ATOM     24  C   UNL     1      -1.212 -10.323 -11.290  1.00  0.00    -0.000 C 
BRANCH  24  25
ATOM     25  C   UNL     1      -1.983 -10.662  -9.999  1.00  0.00    -0.003 C 
ATOM     26  C   UNL     1      -1.539 -11.979  -9.356  1.00  0.00     0.004 C 
ENDBRANCH  24  25
ENDBRANCH  23  24
ENDBRANCH  22  23
ENDBRANCH  21  22
ENDBRANCH  20  21
ENDBRANCH  19  20
ENDBRANCH  18  19
ENDBRANCH  17  18
ENDBRANCH  16  17
ENDBRANCH  15  16
ENDBRANCH   1  15
TORSDOF 22
ENDMDL
MODEL 5
REMARK VINA RESULT:    -2.102      3.616     10.886
REMARK INTER + INTRA:          -6.188
REMARK INTER:                  -5.108
REMARK INTRA:                  -1.080
REMARK UNBOUND:                -1.382
REMARK SMILES CCCCCCCCCCCCCCCCCCCCCCCC(=O)[O-]
REMARK SMILES IDX 13 1 14 2 15 3 16 4 17 5 18 6 19 7 20 8 21 9 22 10 23 11
REMARK SMILES IDX 24 12 25 13 26 14 12 15 11 16 10 17 9 18 8 19 7 20 6 21 5 22
REMARK SMILES IDX 4 23 3 24 2 25 1 26
REMARK H PARENT
REMARK Flexibility Score: inf
ROOT
ATOM      1  C   UNL     1       1.098  -2.600 -10.218  1.00  0.00     0.000 C 
ENDROOT
BRANCH   1   2
ATOM      2  C   UNL     1       2.382  -1.797  -9.924  1.00  0.00     0.000 C 
BRANCH   2   3
ATOM      3  C   UNL     1       3.386  -1.850 -11.093  1.00  0.00     0.000 C 
BRANCH   3   4
ATOM      4  C   UNL     1       4.840  -1.654 -10.631  1.00  0.00     0.000 C 
BRANCH   4   5
ATOM      5  C   UNL     1       5.684  -0.887 -11.666  1.00  0.00     0.000 C 
BRANCH   5   6
ATOM      6  C   UNL     1       6.976  -1.655 -11.991  1.00  0.00     0.000 C 
BRANCH   6   7
ATOM      7  C   UNL     1       7.855  -1.963 -10.766  1.00  0.00     0.000 C 
BRANCH   7   8
ATOM      8  C   UNL     1       8.989  -2.988 -10.985  1.00  0.00     0.000 C 
BRANCH   8   9
ATOM      9  C   UNL     1       8.754  -3.996 -12.125  1.00  0.00     0.000 C 
BRANCH   9  10
ATOM     10  C   UNL     1       9.036  -5.482 -11.792  1.00  0.00     0.006 C 
BRANCH  10  11
ATOM     11  C   UNL     1       8.957  -5.871 -10.303  1.00  0.00     0.053 C 
BRANCH  11  12
ATOM     12  C   UNL     1       8.810  -7.344 -10.075  1.00  0.00     0.041 C 
ATOM     13  O   UNL     1       8.465  -7.758  -8.932  1.00  0.00    -0.550 OA
ATOM     14  O   UNL     1       9.125  -8.268 -11.067  1.00  0.00    -0.550 OA
ENDBRANCH  11  12
ENDBRANCH  10  11
ENDBRANCH   9  10
ENDBRANCH   8   9
ENDBRANCH   7   8
ENDBRANCH   6   7
ENDBRANCH   5   6
ENDBRANCH   4   5
ENDBRANCH   3   4
ENDBRANCH   2   3
ENDBRANCH   1   2
BRANCH   1  15
ATOM     15  C   UNL     1       0.948  -2.984 -11.703  1.00  0.00     0.000 C 
BRANCH  15  16
ATOM     16  C   UNL     1       1.596  -4.341 -12.048  1.00  0.00     0.000 C 
BRANCH  16  17
ATOM     17  C   UNL     1       1.158  -5.464 -11.090  1.00  0.00     0.000 C 
BRANCH  17  18
ATOM     18  C   UNL     1       0.492  -6.648 -11.821  1.00  0.00    -0.000 C 
BRANCH  18  19
ATOM     19  C   UNL     1       0.785  -8.010 -11.152  1.00  0.00    -0.000 C 
BRANCH  19  20
ATOM     20  C   UNL     1      -0.364  -9.035 -11.280  1.00  0.00    -0.000 C 
BRANCH  20  21
ATOM     21  C   UNL     1      -0.751  -9.662  -9.929  1.00  0.00    -0.000 C 
BRANCH  21  22
ATOM     22  C   UNL     1      -0.711 -11.206  -9.930  1.00  0.00    -0.000 C 
BRANCH  22  23
ATOM     23  C   UNL     1      -2.113 -11.840 -10.055  1.00  0.00    -0.000 C 
BRANCH  23  24
ATOM     24  C   UNL     1      -2.463 -12.252 -11.498  1.00  0.00    -0.000 C 
BRANCH  24  25
ATOM     25  C   UNL     1      -3.750 -11.628 -12.073  1.00  0.00    -0.003 C 
ATOM     26  C   UNL     1      -4.008 -10.204 -11.574  1.00  0.00     0.004 C 
ENDBRANCH  24  25
ENDBRANCH  23  24
ENDBRANCH  22  23
ENDBRANCH  21  22
ENDBRANCH  20  21
ENDBRANCH  19  20
ENDBRANCH  18  19
ENDBRANCH  17  18
ENDBRANCH  16  17
ENDBRANCH  15  16
ENDBRANCH   1  15
TORSDOF 22
ENDMDL
MODEL 6
REMARK VINA RESULT:    -2.019      3.270      9.854
REMARK INTER + INTRA:          -5.998
REMARK INTER:                  -5.146
REMARK INTRA:                  -0.851
REMARK UNBOUND:                -1.382
REMARK SMILES CCCCCCCCCCCCCCCCCCCCCCCC(=O)[O-]
REMARK SMILES IDX 13 1 14 2 15 3 16 4 17 5 18 6 19 7 20 8 21 9 22 10 23 11
REMARK SMILES IDX 24 12 25 13 26 14 12 15 11 16 10 17 9 18 8 19 7 20 6 21 5 22
REMARK SMILES IDX 4 23 3 24 2 25 1 26
REMARK H PARENT
REMARK Flexibility Score: inf
ROOT
ATOM      1  C   UNL     1       3.276  -0.852 -11.409  1.00  0.00     0.000 C 
ENDROOT
BRANCH   1   2
ATOM      2  C   UNL     1       4.660  -1.391 -10.994  1.00  0.00     0.000 C 
BRANCH   2   3
ATOM      3  C   UNL     1       5.734  -1.135 -12.069  1.00  0.00     0.000 C 
BRANCH   3   4
ATOM      4  C   UNL     1       6.792  -2.250 -12.124  1.00  0.00     0.000 C 
BRANCH   4   5
ATOM      5  C   UNL     1       8.034  -1.920 -11.275  1.00  0.00     0.000 C 
BRANCH   5   6
ATOM      6  C   UNL     1       7.856  -2.423  -9.833  1.00  0.00     0.000 C 
BRANCH   6   7
ATOM      7  C   UNL     1       9.014  -3.296  -9.318  1.00  0.00     0.000 C 
BRANCH   7   8
ATOM      8  C   UNL     1       9.125  -4.709  -9.931  1.00  0.00     0.000 C 
BRANCH   8   9
ATOM      9  C   UNL     1       8.272  -4.947 -11.192  1.00  0.00     0.000 C 
BRANCH   9  10
ATOM     10  C   UNL     1       8.140  -6.418 -11.658  1.00  0.00     0.006 C 
BRANCH  10  11
ATOM     11  C   UNL     1       9.005  -7.449 -10.907  1.00  0.00     0.053 C 
BRANCH  11  12
ATOM     12  C   UNL     1       8.221  -8.334  -9.988  1.00  0.00     0.041 C 
ATOM     13  O   UNL     1       8.494  -8.336  -8.755  1.00  0.00    -0.550 OA
ATOM     14  O   UNL     1       7.259  -9.215 -10.474  1.00  0.00    -0.550 OA
ENDBRANCH  11  12
ENDBRANCH  10  11
ENDBRANCH   9  10
ENDBRANCH   8   9
ENDBRANCH   7   8
ENDBRANCH   6   7
ENDBRANCH   5   6
ENDBRANCH   4   5
ENDBRANCH   3   4
ENDBRANCH   2   3
ENDBRANCH   1   2
BRANCH   1  15
ATOM     15  C   UNL     1       2.376  -1.924 -12.056  1.00  0.00     0.000 C 
BRANCH  15  16
ATOM     16  C   UNL     1       2.561  -3.325 -11.440  1.00  0.00     0.000 C 
BRANCH  16  17
ATOM     17  C   UNL     1       1.240  -3.919 -10.916  1.00  0.00     0.000 C 
BRANCH  17  18
ATOM     18  C   UNL     1       0.595  -4.910 -11.908  1.00  0.00    -0.000 C 
BRANCH  18  19
ATOM     19  C   UNL     1       1.212  -6.324 -11.832  1.00  0.00    -0.000 C 
BRANCH  19  20
ATOM     20  C   UNL     1       1.683  -6.731 -10.418  1.00  0.00    -0.000 C 
BRANCH  20  21
ATOM     21  C   UNL     1       1.224  -8.147 -10.027  1.00  0.00    -0.000 C 
BRANCH  21  22
ATOM     22  C   UNL     1      -0.042  -8.615 -10.779  1.00  0.00    -0.000 C 
BRANCH  22  23
ATOM     23  C   UNL     1      -1.005  -9.422  -9.883  1.00  0.00    -0.000 C 
BRANCH  23  24
ATOM     24  C   UNL     1      -1.401 -10.782 -10.490  1.00  0.00    -0.000 C 
BRANCH  24  25
ATOM     25  C   UNL     1      -0.828 -12.021  -9.774  1.00  0.00    -0.003 C 
ATOM     26  C   UNL     1       0.632 -12.307 -10.133  1.00  0.00     0.004 C 
ENDBRANCH  24  25
ENDBRANCH  23  24
ENDBRANCH  22  23
ENDBRANCH  21  22
ENDBRANCH  20  21
ENDBRANCH  19  20
ENDBRANCH  18  19
ENDBRANCH  17  18
ENDBRANCH  16  17
ENDBRANCH  15  16
ENDBRANCH   1  15
TORSDOF 22
ENDMDL
MODEL 7
REMARK VINA RESULT:    -1.968      2.037      3.610
REMARK INTER + INTRA:          -5.881
REMARK INTER:                  -4.815
REMARK INTRA:                  -1.067
REMARK UNBOUND:                -1.382
REMARK SMILES CCCCCCCCCCCCCCCCCCCCCCCC(=O)[O-]
REMARK SMILES IDX 13 1 14 2 15 3 16 4 17 5 18 6 19 7 20 8 21 9 22 10 23 11
REMARK SMILES IDX 24 12 25 13 26 14 12 15 11 16 10 17 9 18 8 19 7 20 6 21 5 22
REMARK SMILES IDX 4 23 3 24 2 25 1 26
REMARK H PARENT
REMARK Flexibility Score: inf
ROOT
ATOM      1  C   UNL     1       2.612  -2.284 -11.347  1.00  0.00     0.000 C 
ENDROOT
BRANCH   1   2
ATOM      2  C   UNL     1       1.258  -3.001 -11.177  1.00  0.00     0.000 C 
BRANCH   2   3
ATOM      3  C   UNL     1       1.168  -4.290 -12.017  1.00  0.00     0.000 C 
BRANCH   3   4
ATOM      4  C   UNL     1       2.118  -5.390 -11.513  1.00  0.00     0.000 C 
BRANCH   4   5
ATOM      5  C   UNL     1       1.481  -6.791 -11.588  1.00  0.00     0.000 C 
BRANCH   5   6
ATOM      6  C   UNL     1       0.227  -6.866 -10.701  1.00  0.00     0.000 C 
BRANCH   6   7
ATOM      7  C   UNL     1      -0.990  -7.522 -11.376  1.00  0.00     0.000 C 
BRANCH   7   8
ATOM      8  C   UNL     1      -1.485  -8.843 -10.748  1.00  0.00     0.000 C 
BRANCH   8   9
ATOM      9  C   UNL     1      -2.268  -9.770 -11.697  1.00  0.00     0.000 C 
BRANCH   9  10
ATOM     10  C   UNL     1      -2.107 -11.291 -11.453  1.00  0.00     0.006 C 
BRANCH  10  11
ATOM     11  C   UNL     1      -0.672 -11.843 -11.539  1.00  0.00     0.053 C 
BRANCH  11  12
ATOM     12  C   UNL     1       0.104 -11.701 -10.265  1.00  0.00     0.041 C 
ATOM     13  O   UNL     1       1.299 -11.295 -10.314  1.00  0.00    -0.550 OA
ATOM     14  O   UNL     1      -0.435 -12.087  -9.040  1.00  0.00    -0.550 OA
ENDBRANCH  11  12
ENDBRANCH  10  11
ENDBRANCH   9  10
ENDBRANCH   8   9
ENDBRANCH   7   8
ENDBRANCH   6   7
ENDBRANCH   5   6
ENDBRANCH   4   5
ENDBRANCH   3   4
ENDBRANCH   2   3
ENDBRANCH   1   2
BRANCH   1  15
ATOM     15  C   UNL     1       3.174  -1.726 -10.025  1.00  0.00     0.000 C 
BRANCH  15  16
ATOM     16  C   UNL     1       4.689  -1.440 -10.081  1.00  0.00     0.000 C 
BRANCH  16  17
ATOM     17  C   UNL     1       5.233  -1.427 -11.522  1.00  0.00     0.000 C 
BRANCH  17  18
ATOM     18  C   UNL     1       6.757  -1.653 -11.589  1.00  0.00    -0.000 C 
BRANCH  18  19
ATOM     19  C   UNL     1       7.135  -3.053 -12.124  1.00  0.00    -0.000 C 
BRANCH  19  20
ATOM     20  C   UNL     1       8.642  -3.381 -12.022  1.00  0.00    -0.000 C 
BRANCH  20  21
ATOM     21  C   UNL     1       8.917  -4.895 -12.016  1.00  0.00    -0.000 C 
BRANCH  21  22
ATOM     22  C   UNL     1       8.027  -5.680 -11.028  1.00  0.00    -0.000 C 
BRANCH  22  23
ATOM     23  C   UNL     1       8.709  -6.958 -10.495  1.00  0.00    -0.000 C 
BRANCH  23  24
ATOM     24  C   UNL     1       8.372  -8.213 -11.324  1.00  0.00    -0.000 C 
BRANCH  24  25
ATOM     25  C   UNL     1       7.380  -9.195 -10.669  1.00  0.00    -0.003 C 
ATOM     26  C   UNL     1       6.641 -10.074 -11.681  1.00  0.00     0.004 C 
ENDBRANCH  24  25
ENDBRANCH  23  24
ENDBRANCH  22  23
ENDBRANCH  21  22
ENDBRANCH  20  21
ENDBRANCH  19  20
ENDBRANCH  18  19
ENDBRANCH  17  18
ENDBRANCH  16  17
ENDBRANCH  15  16
ENDBRANCH   1  15
TORSDOF 22
ENDMDL
MODEL 8
REMARK VINA RESULT:    -1.705      1.661      2.731
REMARK INTER + INTRA:          -5.279
REMARK INTER:                  -4.909
REMARK INTRA:                  -0.370
REMARK UNBOUND:                -1.382
REMARK SMILES CCCCCCCCCCCCCCCCCCCCCCCC(=O)[O-]
REMARK SMILES IDX 13 1 14 2 15 3 16 4 17 5 18 6 19 7 20 8 21 9 22 10 23 11
REMARK SMILES IDX 24 12 25 13 26 14 12 15 11 16 10 17 9 18 8 19 7 20 6 21 5 22
REMARK SMILES IDX 4 23 3 24 2 25 1 26
REMARK H PARENT
REMARK Flexibility Score: inf
ROOT
ATOM      1  C   UNL     1       2.368  -3.943 -10.799  1.00  0.00     0.000 C 
ENDROOT
BRANCH   1   2
ATOM      2  C   UNL     1       1.574  -4.920 -11.689  1.00  0.00     0.000 C 
BRANCH   2   3
ATOM      3  C   UNL     1       2.120  -6.360 -11.611  1.00  0.00     0.000 C 
BRANCH   3   4
ATOM      4  C   UNL     1       1.066  -7.412 -11.996  1.00  0.00     0.000 C 
BRANCH   4   5
ATOM      5  C   UNL     1       0.294  -7.940 -10.772  1.00  0.00     0.000 C 
BRANCH   5   6
ATOM      6  C   UNL     1      -1.035  -8.582 -11.203  1.00  0.00     0.000 C 
BRANCH   6   7
ATOM      7  C   UNL     1      -0.881  -9.923 -11.943  1.00  0.00     0.000 C 
BRANCH   7   8
ATOM      8  C   UNL     1       0.553 -10.487 -12.036  1.00  0.00     0.000 C 
BRANCH   8   9
ATOM      9  C   UNL     1       0.990 -11.373 -10.855  1.00  0.00     0.000 C 
BRANCH   9  10
ATOM     10  C   UNL     1      -0.146 -12.072 -10.068  1.00  0.00     0.006 C 
BRANCH  10  11
ATOM     11  C   UNL     1      -1.066 -12.999 -10.885  1.00  0.00     0.053 C 
BRANCH  11  12
ATOM     12  C   UNL     1      -2.471 -12.493 -11.009  1.00  0.00     0.041 C 
ATOM     13  O   UNL     1      -3.058 -12.572 -12.125  1.00  0.00    -0.550 OA
ATOM     14  O   UNL     1      -3.113 -11.864  -9.945  1.00  0.00    -0.550 OA
ENDBRANCH  11  12
ENDBRANCH  10  11
ENDBRANCH   9  10
ENDBRANCH   8   9
ENDBRANCH   7   8
ENDBRANCH   6   7
ENDBRANCH   5   6
ENDBRANCH   4   5
ENDBRANCH   3   4
ENDBRANCH   2   3
ENDBRANCH   1   2
BRANCH   1  15
ATOM     15  C   UNL     1       2.129  -2.463 -11.158  1.00  0.00     0.000 C 
BRANCH  15  16
ATOM     16  C   UNL     1       2.990  -1.490 -10.326  1.00  0.00     0.000 C 
BRANCH  16  17
ATOM     17  C   UNL     1       4.496  -1.788 -10.444  1.00  0.00     0.000 C 
BRANCH  17  18
ATOM     18  C   UNL     1       5.184  -0.968 -11.555  1.00  0.00    -0.000 C 
BRANCH  18  19
ATOM     19  C   UNL     1       6.266  -0.009 -11.013  1.00  0.00    -0.000 C 
BRANCH  19  20
ATOM     20  C   UNL     1       7.436   0.239 -11.992  1.00  0.00    -0.000 C 
BRANCH  20  21
ATOM     21  C   UNL     1       8.363  -0.983 -12.125  1.00  0.00    -0.000 C 
BRANCH  21  22
ATOM     22  C   UNL     1       9.091  -1.351 -10.813  1.00  0.00    -0.000 C 
BRANCH  22  23
ATOM     23  C   UNL     1       8.306  -2.370  -9.960  1.00  0.00    -0.000 C 
BRANCH  23  24
ATOM     24  C   UNL     1       8.895  -2.558  -8.549  1.00  0.00    -0.000 C 
BRANCH  24  25
ATOM     25  C   UNL     1       9.035  -1.270  -7.712  1.00  0.00    -0.003 C 
ATOM     26  C   UNL     1       8.917  -1.512  -6.204  1.00  0.00     0.004 C 
ENDBRANCH  24  25
ENDBRANCH  23  24
ENDBRANCH  22  23
ENDBRANCH  21  22
ENDBRANCH  20  21
ENDBRANCH  19  20
ENDBRANCH  18  19
ENDBRANCH  17  18
ENDBRANCH  16  17
ENDBRANCH  15  16
ENDBRANCH   1  15
TORSDOF 22
ENDMDL
