MODEL 1
REMARK VINA RESULT:    -8.343      0.000      0.000
REMARK INTER + INTRA:         -16.692
REMARK INTER:                 -13.708
REMARK INTRA:                  -2.984
REMARK UNBOUND:                -2.984
REMARK SMILES C[C@H]1O[C@@H](OC[C@H]2O[C@@H](Oc3c(-c4ccc(O)c(O)c4)oc4cc(O)cc(O)c4c3=O)[C@H](O)[C@@H](O)[C@@H]2O)[C@@H](O)[C@H](O)[C@@H]1O
REMARK SMILES IDX 7 1 36 2 34 3 32 4 9 5 8 6 6 7 5 8 4 9 1 10 2 11 42 12 3 13
REMARK SMILES IDX 40 14 38 15 43 16 41 18 39 20 37 22 35 24 10 26 11 27 12 28
REMARK SMILES IDX 30 29 21 30 29 31 31 32 22 33 27 34 23 35 26 36 24 37 13 38
REMARK SMILES IDX 20 39 14 40 18 41 15 42 16 43 19 44 17 46 28 48 25 50 33 52
REMARK H PARENT 43 17 41 19 39 21 37 23 35 25 19 45 17 47 28 49 25 51 33 53
REMARK Flexibility Score: inf
ROOT
ATOM      1  C   UNL     1     -26.617 -29.160 115.756  1.00  0.00     0.180 C 
ATOM      2  C   UNL     1     -27.290 -30.227 116.681  1.00  0.00     0.177 C 
ATOM      3  C   UNL     1     -28.700 -29.758 117.111  1.00  0.00     0.180 C 
ATOM      4  C   UNL     1     -29.572 -29.309 115.909  1.00  0.00     0.214 C 
ATOM      5  C   UNL     1     -28.723 -29.079 114.646  1.00  0.00     0.339 C 
ATOM      6  O   UNL     1     -27.530 -28.390 114.977  1.00  0.00    -0.332 OA
ENDROOT
BRANCH   1   7
ATOM      7  C   UNL     1     -25.532 -29.759 114.838  1.00  0.00     0.198 C 
BRANCH   7   8
ATOM      8  O   UNL     1     -25.356 -28.979 113.668  1.00  0.00    -0.347 OA
BRANCH   8   9
ATOM      9  C   UNL     1     -24.000 -28.902 113.257  1.00  0.00     0.281 C 
ATOM     10  C   UNL     1     -25.128 -25.986 113.849  1.00  0.00     0.041 C 
ATOM     11  C   UNL     1     -23.777 -26.507 113.285  1.00  0.00     0.150 C 
ATOM     12  C   UNL     1     -23.671 -26.451 111.738  1.00  0.00     0.174 C 
ATOM     13  O   UNL     1     -23.378 -27.760 113.830  1.00  0.00    -0.344 OA
ATOM     14  C   UNL     1     -24.405 -27.629 111.104  1.00  0.00     0.179 C 
ATOM     15  C   UNL     1     -23.901 -28.943 111.720  1.00  0.00     0.202 C 
BRANCH  12  16
ATOM     16  O   UNL     1     -22.322 -26.489 111.342  1.00  0.00    -0.388 OA
ATOM     17  H   UNL     1     -21.797 -26.761 112.141  1.00  0.00     0.211 HD
ENDBRANCH  12  16
BRANCH  14  18
ATOM     18  O   UNL     1     -24.182 -27.636 109.717  1.00  0.00    -0.387 OA
ATOM     19  H   UNL     1     -23.502 -26.937 109.517  1.00  0.00     0.211 HD
ENDBRANCH  14  18
BRANCH  15  20
ATOM     20  O   UNL     1     -24.653 -30.020 111.229  1.00  0.00    -0.385 OA
ATOM     21  H   UNL     1     -25.383 -30.186 111.875  1.00  0.00     0.211 HD
ENDBRANCH  15  20
ENDBRANCH   8   9
ENDBRANCH   7   8
ENDBRANCH   1   7
BRANCH   2  22
ATOM     22  O   UNL     1     -26.504 -30.501 117.810  1.00  0.00    -0.387 OA
ATOM     23  H   UNL     1     -26.803 -29.899 118.551  1.00  0.00     0.211 HD
ENDBRANCH   2  22
BRANCH   3  24
ATOM     24  O   UNL     1     -29.356 -30.754 117.862  1.00  0.00    -0.387 OA
ATOM     25  H   UNL     1     -29.709 -30.328 118.688  1.00  0.00     0.211 HD
ENDBRANCH   3  24
BRANCH   5  26
ATOM     26  O   UNL     1     -28.435 -30.311 113.971  1.00  0.00    -0.454 OA
BRANCH  26  27
ATOM     27  C   UNL     1     -29.430 -31.061 113.332  1.00  0.00     0.214 A 
ATOM     28  C   UNL     1     -29.788 -30.785 112.001  1.00  0.00     0.180 A 
ATOM     29  C   UNL     1     -30.085 -32.106 114.002  1.00  0.00     0.239 A 
ATOM     30  O   UNL     1     -30.757 -31.476 111.409  1.00  0.00    -0.452 OA
ATOM     31  C   UNL     1     -31.122 -32.809 113.352  1.00  0.00     0.111 A 
ATOM     32  O   UNL     1     -29.730 -32.417 115.172  1.00  0.00    -0.285 OA
ATOM     33  C   UNL     1     -31.429 -32.449 112.019  1.00  0.00     0.146 A 
ATOM     34  C   UNL     1     -31.854 -33.852 113.970  1.00  0.00     0.134 A 
ATOM     35  C   UNL     1     -32.443 -33.115 111.325  1.00  0.00     0.094 A 
ATOM     36  C   UNL     1     -32.870 -34.510 113.257  1.00  0.00     0.093 A 
ATOM     37  C   UNL     1     -33.164 -34.146 111.941  1.00  0.00     0.123 A 
BRANCH  28  38
ATOM     38  C   UNL     1     -29.093 -29.746 111.224  1.00  0.00     0.025 A 
ATOM     39  C   UNL     1     -28.036 -30.095 110.375  1.00  0.00     0.062 A 
ATOM     40  C   UNL     1     -29.519 -28.411 111.293  1.00  0.00     0.016 A 
ATOM     41  C   UNL     1     -27.403 -29.122 109.593  1.00  0.00     0.158 A 
ATOM     42  C   UNL     1     -28.898 -27.440 110.503  1.00  0.00     0.051 A 
ATOM     43  C   UNL     1     -27.828 -27.784 109.667  1.00  0.00     0.157 A 
BRANCH  41  44
ATOM     44  O   UNL     1     -26.358 -29.503 108.760  1.00  0.00    -0.504 OA
ATOM     45  H   UNL     1     -26.283 -29.176 107.802  1.00  0.00     0.293 HD
ENDBRANCH  41  44
BRANCH  43  46
ATOM     46  O   UNL     1     -27.190 -26.801 108.907  1.00  0.00    -0.504 OA
ATOM     47  H   UNL     1     -26.186 -26.707 108.915  1.00  0.00     0.293 HD
ENDBRANCH  43  46
ENDBRANCH  28  38
BRANCH  34  48
ATOM     48  O   UNL     1     -31.581 -34.242 115.282  1.00  0.00    -0.507 OA
ATOM     49  H   UNL     1     -32.274 -34.725 115.844  1.00  0.00     0.293 HD
ENDBRANCH  34  48
BRANCH  37  50
ATOM     50  O   UNL     1     -34.177 -34.805 111.249  1.00  0.00    -0.508 OA
ATOM     51  H   UNL     1     -35.092 -34.384 111.130  1.00  0.00     0.293 HD
ENDBRANCH  37  50
ENDBRANCH  26  27
ENDBRANCH   5  26
BRANCH   4  52
ATOM     52  O   UNL     1     -30.239 -28.114 116.227  1.00  0.00    -0.384 OA
ATOM     53  H   UNL     1     -30.016 -27.900 117.173  1.00  0.00     0.211 HD
ENDBRANCH   4  52
TORSDOF 16
ENDMDL
MODEL 2
REMARK VINA RESULT:    -8.332      8.453     13.042
REMARK INTER + INTRA:         -16.673
REMARK INTER:                 -14.614
REMARK INTRA:                  -2.059
REMARK UNBOUND:                -2.984
REMARK SMILES C[C@H]1O[C@@H](OC[C@H]2O[C@@H](Oc3c(-c4ccc(O)c(O)c4)oc4cc(O)cc(O)c4c3=O)[C@H](O)[C@@H](O)[C@@H]2O)[C@@H](O)[C@H](O)[C@@H]1O
REMARK SMILES IDX 7 1 36 2 34 3 32 4 9 5 8 6 6 7 5 8 4 9 1 10 2 11 42 12 3 13
REMARK SMILES IDX 40 14 38 15 43 16 41 18 39 20 37 22 35 24 10 26 11 27 12 28
REMARK SMILES IDX 30 29 21 30 29 31 31 32 22 33 27 34 23 35 26 36 24 37 13 38
REMARK SMILES IDX 20 39 14 40 18 41 15 42 16 43 19 44 17 46 28 48 25 50 33 52
REMARK H PARENT 43 17 41 19 39 21 37 23 35 25 19 45 17 47 28 49 25 51 33 53
REMARK Flexibility Score: inf
ROOT
ATOM      1  C   UNL     1     -28.769 -21.125 103.448  1.00  0.00     0.180 C 
ATOM      2  C   UNL     1     -28.383 -19.608 103.428  1.00  0.00     0.177 C 
ATOM      3  C   UNL     1     -29.598 -18.735 103.819  1.00  0.00     0.180 C 
ATOM      4  C   UNL     1     -30.274 -19.207 105.132  1.00  0.00     0.214 C 
ATOM      5  C   UNL     1     -29.824 -20.625 105.525  1.00  0.00     0.339 C 
ATOM      6  O   UNL     1     -29.793 -21.462 104.383  1.00  0.00    -0.332 OA
ENDROOT
BRANCH   1   7
ATOM      7  C   UNL     1     -27.554 -22.051 103.656  1.00  0.00     0.198 C 
BRANCH   7   8
ATOM      8  O   UNL     1     -27.498 -23.061 102.664  1.00  0.00    -0.347 OA
BRANCH   8   9
ATOM      9  C   UNL     1     -28.778 -23.572 102.326  1.00  0.00     0.281 C 
ATOM     10  C   UNL     1     -27.008 -25.859 103.653  1.00  0.00     0.041 C 
ATOM     11  C   UNL     1     -28.421 -25.852 103.006  1.00  0.00     0.150 C 
ATOM     12  C   UNL     1     -28.449 -26.344 101.535  1.00  0.00     0.174 C 
ATOM     13  O   UNL     1     -29.131 -24.633 103.203  1.00  0.00    -0.344 OA
ATOM     14  C   UNL     1     -27.994 -25.238 100.586  1.00  0.00     0.179 C 
ATOM     15  C   UNL     1     -28.823 -23.971 100.838  1.00  0.00     0.202 C 
BRANCH  12  16
ATOM     16  O   UNL     1     -29.751 -26.741 101.180  1.00  0.00    -0.388 OA
ATOM     17  H   UNL     1     -29.691 -27.690 100.890  1.00  0.00     0.211 HD
ENDBRANCH  12  16
BRANCH  14  18
ATOM     18  O   UNL     1     -28.155 -25.659  99.256  1.00  0.00    -0.387 OA
ATOM     19  H   UNL     1     -27.250 -25.715  98.844  1.00  0.00     0.211 HD
ENDBRANCH  14  18
BRANCH  15  20
ATOM     20  O   UNL     1     -28.331 -22.916 100.055  1.00  0.00    -0.385 OA
ATOM     21  H   UNL     1     -29.015 -22.201 100.063  1.00  0.00     0.211 HD
ENDBRANCH  15  20
ENDBRANCH   8   9
ENDBRANCH   7   8
ENDBRANCH   1   7
BRANCH   2  22
ATOM     22  O   UNL     1     -27.888 -19.219 102.174  1.00  0.00    -0.387 OA
ATOM     23  H   UNL     1     -28.430 -19.678 101.470  1.00  0.00     0.211 HD
ENDBRANCH   2  22
BRANCH   3  24
ATOM     24  O   UNL     1     -29.237 -17.375 103.901  1.00  0.00    -0.387 OA
ATOM     25  H   UNL     1     -29.939 -16.846 103.435  1.00  0.00     0.211 HD
ENDBRANCH   3  24
BRANCH   5  26
ATOM     26  O   UNL     1     -28.553 -20.612 106.189  1.00  0.00    -0.454 OA
BRANCH  26  27
ATOM     27  C   UNL     1     -28.441 -20.535 107.582  1.00  0.00     0.214 A 
ATOM     28  C   UNL     1     -28.586 -21.687 108.375  1.00  0.00     0.180 A 
ATOM     29  C   UNL     1     -28.175 -19.311 108.216  1.00  0.00     0.239 A 
ATOM     30  O   UNL     1     -28.512 -21.604 109.700  1.00  0.00    -0.452 OA
ATOM     31  C   UNL     1     -28.122 -19.253 109.625  1.00  0.00     0.111 A 
ATOM     32  O   UNL     1     -27.972 -18.280 107.520  1.00  0.00    -0.285 OA
ATOM     33  C   UNL     1     -28.300 -20.458 110.343  1.00  0.00     0.146 A 
ATOM     34  C   UNL     1     -27.893 -18.052 110.341  1.00  0.00     0.134 A 
ATOM     35  C   UNL     1     -28.252 -20.460 111.739  1.00  0.00     0.094 A 
ATOM     36  C   UNL     1     -27.849 -18.073 111.744  1.00  0.00     0.093 A 
ATOM     37  C   UNL     1     -28.026 -19.270 112.442  1.00  0.00     0.123 A 
BRANCH  28  38
ATOM     38  C   UNL     1     -28.799 -23.010 107.767  1.00  0.00     0.025 A 
ATOM     39  C   UNL     1     -27.727 -23.899 107.627  1.00  0.00     0.062 A 
ATOM     40  C   UNL     1     -30.086 -23.404 107.371  1.00  0.00     0.016 A 
ATOM     41  C   UNL     1     -27.930 -25.178 107.098  1.00  0.00     0.158 A 
ATOM     42  C   UNL     1     -30.295 -24.686 106.855  1.00  0.00     0.051 A 
ATOM     43  C   UNL     1     -29.219 -25.570 106.696  1.00  0.00     0.157 A 
BRANCH  41  44
ATOM     44  O   UNL     1     -26.843 -26.036 106.974  1.00  0.00    -0.504 OA
ATOM     45  H   UNL     1     -25.885 -25.711 107.060  1.00  0.00     0.293 HD
ENDBRANCH  41  44
BRANCH  43  46
ATOM     46  O   UNL     1     -29.430 -26.836 106.148  1.00  0.00    -0.504 OA
ATOM     47  H   UNL     1     -28.679 -27.344 105.706  1.00  0.00     0.293 HD
ENDBRANCH  43  46
ENDBRANCH  28  38
BRANCH  34  48
ATOM     48  O   UNL     1     -27.709 -16.841 109.672  1.00  0.00    -0.507 OA
ATOM     49  H   UNL     1     -26.788 -16.427 109.575  1.00  0.00     0.293 HD
ENDBRANCH  34  48
BRANCH  37  50
ATOM     50  O   UNL     1     -27.982 -19.274 113.835  1.00  0.00    -0.508 OA
ATOM     51  H   UNL     1     -28.829 -19.367 114.387  1.00  0.00     0.293 HD
ENDBRANCH  37  50
ENDBRANCH  26  27
ENDBRANCH   5  26
BRANCH   4  52
ATOM     52  O   UNL     1     -31.671 -19.204 104.975  1.00  0.00    -0.384 OA
ATOM     53  H   UNL     1     -31.853 -19.110 104.002  1.00  0.00     0.211 HD
ENDBRANCH   4  52
TORSDOF 16
ENDMDL
MODEL 3
REMARK VINA RESULT:    -8.025      6.478     11.482
REMARK INTER + INTRA:         -16.169
REMARK INTER:                 -13.196
REMARK INTRA:                  -2.973
REMARK UNBOUND:                -2.984
REMARK SMILES C[C@H]1O[C@@H](OC[C@H]2O[C@@H](Oc3c(-c4ccc(O)c(O)c4)oc4cc(O)cc(O)c4c3=O)[C@H](O)[C@@H](O)[C@@H]2O)[C@@H](O)[C@H](O)[C@@H]1O
REMARK SMILES IDX 7 1 36 2 34 3 32 4 9 5 8 6 6 7 5 8 4 9 1 10 2 11 42 12 3 13
REMARK SMILES IDX 40 14 38 15 43 16 41 18 39 20 37 22 35 24 10 26 11 27 12 28
REMARK SMILES IDX 30 29 21 30 29 31 31 32 22 33 27 34 23 35 26 36 24 37 13 38
REMARK SMILES IDX 20 39 14 40 18 41 15 42 16 43 19 44 17 46 28 48 25 50 33 52
REMARK H PARENT 43 17 41 19 39 21 37 23 35 25 19 45 17 47 28 49 25 51 33 53
REMARK Flexibility Score: inf
ROOT
ATOM      1  C   UNL     1     -28.453 -25.651 105.891  1.00  0.00     0.180 C 
ATOM      2  C   UNL     1     -27.582 -25.237 104.660  1.00  0.00     0.177 C 
ATOM      3  C   UNL     1     -28.455 -25.142 103.387  1.00  0.00     0.180 C 
ATOM      4  C   UNL     1     -29.723 -24.274 103.596  1.00  0.00     0.214 C 
ATOM      5  C   UNL     1     -30.006 -24.032 105.089  1.00  0.00     0.339 C 
ATOM      6  O   UNL     1     -29.814 -25.228 105.824  1.00  0.00    -0.332 OA
ENDROOT
BRANCH   1   7
ATOM      7  C   UNL     1     -27.841 -25.209 107.236  1.00  0.00     0.198 C 
BRANCH   7   8
ATOM      8  O   UNL     1     -26.909 -26.162 107.718  1.00  0.00    -0.347 OA
BRANCH   8   9
ATOM      9  C   UNL     1     -27.509 -27.408 108.032  1.00  0.00     0.281 C 
ATOM     10  C   UNL     1     -26.119 -26.185 110.620  1.00  0.00     0.041 C 
ATOM     11  C   UNL     1     -26.827 -27.538 110.336  1.00  0.00     0.150 C 
ATOM     12  C   UNL     1     -25.858 -28.711 110.032  1.00  0.00     0.174 C 
ATOM     13  O   UNL     1     -27.895 -27.437 109.399  1.00  0.00    -0.344 OA
ATOM     14  C   UNL     1     -25.370 -28.647 108.587  1.00  0.00     0.179 C 
ATOM     15  C   UNL     1     -26.575 -28.570 107.639  1.00  0.00     0.202 C 
BRANCH  12  16
ATOM     16  O   UNL     1     -26.504 -29.942 110.240  1.00  0.00    -0.388 OA
ATOM     17  H   UNL     1     -26.092 -30.349 111.047  1.00  0.00     0.211 HD
ENDBRANCH  12  16
BRANCH  14  18
ATOM     18  O   UNL     1     -24.604 -29.789 108.294  1.00  0.00    -0.387 OA
ATOM     19  H   UNL     1     -23.666 -29.604 108.573  1.00  0.00     0.211 HD
ENDBRANCH  14  18
BRANCH  15  20
ATOM     20  O   UNL     1     -26.134 -28.391 106.319  1.00  0.00    -0.385 OA
ATOM     21  H   UNL     1     -26.936 -28.390 105.740  1.00  0.00     0.211 HD
ENDBRANCH  15  20
ENDBRANCH   8   9
ENDBRANCH   7   8
ENDBRANCH   1   7
BRANCH   2  22
ATOM     22  O   UNL     1     -26.520 -26.131 104.455  1.00  0.00    -0.387 OA
ATOM     23  H   UNL     1     -26.084 -25.901 103.585  1.00  0.00     0.211 HD
ENDBRANCH   2  22
BRANCH   3  24
ATOM     24  O   UNL     1     -27.702 -24.673 102.291  1.00  0.00    -0.387 OA
ATOM     25  H   UNL     1     -26.807 -24.402 102.632  1.00  0.00     0.211 HD
ENDBRANCH   3  24
BRANCH   5  26
ATOM     26  O   UNL     1     -29.198 -22.970 105.614  1.00  0.00    -0.454 OA
BRANCH  26  27
ATOM     27  C   UNL     1     -29.736 -21.725 105.961  1.00  0.00     0.214 A 
ATOM     28  C   UNL     1     -30.181 -21.478 107.271  1.00  0.00     0.180 A 
ATOM     29  C   UNL     1     -29.837 -20.697 105.011  1.00  0.00     0.239 A 
ATOM     30  O   UNL     1     -30.722 -20.306 107.587  1.00  0.00    -0.452 OA
ATOM     31  C   UNL     1     -30.435 -19.470 105.372  1.00  0.00     0.111 A 
ATOM     32  O   UNL     1     -29.380 -20.873 103.849  1.00  0.00    -0.285 OA
ATOM     33  C   UNL     1     -30.872 -19.317 106.709  1.00  0.00     0.146 A 
ATOM     34  C   UNL     1     -30.606 -18.396 104.465  1.00  0.00     0.134 A 
ATOM     35  C   UNL     1     -31.466 -18.123 107.124  1.00  0.00     0.094 A 
ATOM     36  C   UNL     1     -31.205 -17.203 104.899  1.00  0.00     0.093 A 
ATOM     37  C   UNL     1     -31.633 -17.064 106.222  1.00  0.00     0.123 A 
BRANCH  28  38
ATOM     38  C   UNL     1     -30.041 -22.493 108.328  1.00  0.00     0.025 A 
ATOM     39  C   UNL     1     -30.983 -23.522 108.441  1.00  0.00     0.062 A 
ATOM     40  C   UNL     1     -28.937 -22.460 109.193  1.00  0.00     0.016 A 
ATOM     41  C   UNL     1     -30.830 -24.519 109.411  1.00  0.00     0.158 A 
ATOM     42  C   UNL     1     -28.775 -23.464 110.153  1.00  0.00     0.051 A 
ATOM     43  C   UNL     1     -29.727 -24.483 110.281  1.00  0.00     0.157 A 
BRANCH  41  44
ATOM     44  O   UNL     1     -31.784 -25.527 109.495  1.00  0.00    -0.504 OA
ATOM     45  H   UNL     1     -31.856 -26.137 110.304  1.00  0.00     0.293 HD
ENDBRANCH  41  44
BRANCH  43  46
ATOM     46  O   UNL     1     -29.575 -25.462 111.265  1.00  0.00    -0.504 OA
ATOM     47  H   UNL     1     -30.135 -25.448 112.104  1.00  0.00     0.293 HD
ENDBRANCH  43  46
ENDBRANCH  28  38
BRANCH  34  48
ATOM     48  O   UNL     1     -30.185 -18.502 103.138  1.00  0.00    -0.507 OA
ATOM     49  H   UNL     1     -30.379 -19.332 102.588  1.00  0.00     0.293 HD
ENDBRANCH  34  48
BRANCH  37  50
ATOM     50  O   UNL     1     -32.229 -15.875 106.637  1.00  0.00    -0.508 OA
ATOM     51  H   UNL     1     -31.823 -15.314 107.379  1.00  0.00     0.293 HD
ENDBRANCH  37  50
ENDBRANCH  26  27
ENDBRANCH   5  26
BRANCH   4  52
ATOM     52  O   UNL     1     -30.837 -24.915 103.025  1.00  0.00    -0.384 OA
ATOM     53  H   UNL     1     -30.705 -24.901 102.039  1.00  0.00     0.211 HD
ENDBRANCH   4  52
TORSDOF 16
ENDMDL
MODEL 4
REMARK VINA RESULT:    -7.966      6.764     11.269
REMARK INTER + INTRA:         -16.073
REMARK INTER:                 -14.059
REMARK INTRA:                  -2.014
REMARK UNBOUND:                -2.984
REMARK SMILES C[C@H]1O[C@@H](OC[C@H]2O[C@@H](Oc3c(-c4ccc(O)c(O)c4)oc4cc(O)cc(O)c4c3=O)[C@H](O)[C@@H](O)[C@@H]2O)[C@@H](O)[C@H](O)[C@@H]1O
REMARK SMILES IDX 7 1 36 2 34 3 32 4 9 5 8 6 6 7 5 8 4 9 1 10 2 11 42 12 3 13
REMARK SMILES IDX 40 14 38 15 43 16 41 18 39 20 37 22 35 24 10 26 11 27 12 28
REMARK SMILES IDX 30 29 21 30 29 31 31 32 22 33 27 34 23 35 26 36 24 37 13 38
REMARK SMILES IDX 20 39 14 40 18 41 15 42 16 43 19 44 17 46 28 48 25 50 33 52
REMARK H PARENT 43 17 41 19 39 21 37 23 35 25 19 45 17 47 28 49 25 51 33 53
REMARK Flexibility Score: inf
ROOT
ATOM      1  C   UNL     1     -28.015 -26.183 106.522  1.00  0.00     0.180 C 
ATOM      2  C   UNL     1     -27.272 -26.060 105.151  1.00  0.00     0.177 C 
ATOM      3  C   UNL     1     -28.266 -26.236 103.979  1.00  0.00     0.180 C 
ATOM      4  C   UNL     1     -29.516 -25.327 104.115  1.00  0.00     0.214 C 
ATOM      5  C   UNL     1     -29.653 -24.760 105.539  1.00  0.00     0.339 C 
ATOM      6  O   UNL     1     -29.380 -25.768 106.496  1.00  0.00    -0.332 OA
ENDROOT
BRANCH   1   7
ATOM      7  C   UNL     1     -27.279 -25.464 107.670  1.00  0.00     0.198 C 
BRANCH   7   8
ATOM      8  O   UNL     1     -26.690 -26.390 108.567  1.00  0.00    -0.347 OA
BRANCH   8   9
ATOM      9  C   UNL     1     -27.153 -27.717 108.370  1.00  0.00     0.281 C 
ATOM     10  C   UNL     1     -27.177 -27.004 111.471  1.00  0.00     0.041 C 
ATOM     11  C   UNL     1     -27.471 -28.308 110.680  1.00  0.00     0.150 C 
ATOM     12  C   UNL     1     -26.284 -29.307 110.637  1.00  0.00     0.174 C 
ATOM     13  O   UNL     1     -28.058 -28.080 109.403  1.00  0.00    -0.344 OA
ATOM     14  C   UNL     1     -25.261 -28.885 109.586  1.00  0.00     0.179 C 
ATOM     15  C   UNL     1     -25.963 -28.687 108.235  1.00  0.00     0.202 C 
BRANCH  12  16
ATOM     16  O   UNL     1     -26.747 -30.599 110.329  1.00  0.00    -0.388 OA
ATOM     17  H   UNL     1     -26.820 -30.649 109.339  1.00  0.00     0.211 HD
ENDBRANCH  12  16
BRANCH  14  18
ATOM     18  O   UNL     1     -24.267 -29.871 109.469  1.00  0.00    -0.387 OA
ATOM     19  H   UNL     1     -24.655 -30.632 108.958  1.00  0.00     0.211 HD
ENDBRANCH  14  18
BRANCH  15  20
ATOM     20  O   UNL     1     -25.052 -28.185 107.293  1.00  0.00    -0.385 OA
ATOM     21  H   UNL     1     -24.183 -28.624 107.462  1.00  0.00     0.211 HD
ENDBRANCH  15  20
ENDBRANCH   8   9
ENDBRANCH   7   8
ENDBRANCH   1   7
BRANCH   2  22
ATOM     22  O   UNL     1     -26.227 -26.990 105.045  1.00  0.00    -0.387 OA
ATOM     23  H   UNL     1     -26.593 -27.895 105.262  1.00  0.00     0.211 HD
ENDBRANCH   2  22
BRANCH   3  24
ATOM     24  O   UNL     1     -27.628 -26.028 102.740  1.00  0.00    -0.387 OA
ATOM     25  H   UNL     1     -28.276 -25.576 102.136  1.00  0.00     0.211 HD
ENDBRANCH   3  24
BRANCH   5  26
ATOM     26  O   UNL     1     -28.808 -23.619 105.737  1.00  0.00    -0.454 OA
BRANCH  26  27
ATOM     27  C   UNL     1     -29.310 -22.312 105.751  1.00  0.00     0.214 A 
ATOM     28  C   UNL     1     -29.286 -21.524 104.588  1.00  0.00     0.180 A 
ATOM     29  C   UNL     1     -29.852 -21.764 106.924  1.00  0.00     0.239 A 
ATOM     30  O   UNL     1     -29.734 -20.272 104.614  1.00  0.00    -0.452 OA
ATOM     31  C   UNL     1     -30.301 -20.425 106.925  1.00  0.00     0.111 A 
ATOM     32  O   UNL     1     -29.948 -22.476 107.960  1.00  0.00    -0.285 OA
ATOM     33  C   UNL     1     -30.221 -19.701 105.712  1.00  0.00     0.146 A 
ATOM     34  C   UNL     1     -30.829 -19.788 108.074  1.00  0.00     0.134 A 
ATOM     35  C   UNL     1     -30.655 -18.374 105.654  1.00  0.00     0.094 A 
ATOM     36  C   UNL     1     -31.261 -18.454 107.997  1.00  0.00     0.093 A 
ATOM     37  C   UNL     1     -31.176 -17.748 106.793  1.00  0.00     0.123 A 
BRANCH  28  38
ATOM     38  C   UNL     1     -28.792 -22.064 103.311  1.00  0.00     0.025 A 
ATOM     39  C   UNL     1     -27.420 -22.059 103.032  1.00  0.00     0.062 A 
ATOM     40  C   UNL     1     -29.687 -22.631 102.391  1.00  0.00     0.016 A 
ATOM     41  C   UNL     1     -26.936 -22.616 101.843  1.00  0.00     0.158 A 
ATOM     42  C   UNL     1     -29.205 -23.201 101.210  1.00  0.00     0.051 A 
ATOM     43  C   UNL     1     -27.834 -23.178 100.920  1.00  0.00     0.157 A 
BRANCH  41  44
ATOM     44  O   UNL     1     -25.568 -22.595 101.598  1.00  0.00    -0.504 OA
ATOM     45  H   UNL     1     -25.170 -22.919 100.721  1.00  0.00     0.293 HD
ENDBRANCH  41  44
BRANCH  43  46
ATOM     46  O   UNL     1     -27.365 -23.719  99.721  1.00  0.00    -0.504 OA
ATOM     47  H   UNL     1     -26.853 -23.154  99.060  1.00  0.00     0.293 HD
ENDBRANCH  43  46
ENDBRANCH  28  38
BRANCH  34  48
ATOM     48  O   UNL     1     -30.931 -20.467 109.290  1.00  0.00    -0.507 OA
ATOM     49  H   UNL     1     -31.801 -20.489 109.810  1.00  0.00     0.293 HD
ENDBRANCH  34  48
BRANCH  37  50
ATOM     50  O   UNL     1     -31.605 -16.425 106.734  1.00  0.00    -0.508 OA
ATOM     51  H   UNL     1     -32.438 -16.165 106.216  1.00  0.00     0.293 HD
ENDBRANCH  37  50
ENDBRANCH  26  27
ENDBRANCH   5  26
BRANCH   4  52
ATOM     52  O   UNL     1     -30.674 -26.063 103.809  1.00  0.00    -0.384 OA
ATOM     53  H   UNL     1     -30.381 -26.992 103.603  1.00  0.00     0.211 HD
ENDBRANCH   4  52
TORSDOF 16
ENDMDL
MODEL 5
REMARK VINA RESULT:    -7.946      6.812     11.760
REMARK INTER + INTRA:         -16.040
REMARK INTER:                 -14.098
REMARK INTRA:                  -1.942
REMARK UNBOUND:                -2.984
REMARK SMILES C[C@H]1O[C@@H](OC[C@H]2O[C@@H](Oc3c(-c4ccc(O)c(O)c4)oc4cc(O)cc(O)c4c3=O)[C@H](O)[C@@H](O)[C@@H]2O)[C@@H](O)[C@H](O)[C@@H]1O
REMARK SMILES IDX 7 1 36 2 34 3 32 4 9 5 8 6 6 7 5 8 4 9 1 10 2 11 42 12 3 13
REMARK SMILES IDX 40 14 38 15 43 16 41 18 39 20 37 22 35 24 10 26 11 27 12 28
REMARK SMILES IDX 30 29 21 30 29 31 31 32 22 33 27 34 23 35 26 36 24 37 13 38
REMARK SMILES IDX 20 39 14 40 18 41 15 42 16 43 19 44 17 46 28 48 25 50 33 52
REMARK H PARENT 43 17 41 19 39 21 37 23 35 25 19 45 17 47 28 49 25 51 33 53
REMARK Flexibility Score: inf
ROOT
ATOM      1  C   UNL     1     -29.323 -25.940 106.587  1.00  0.00     0.180 C 
ATOM      2  C   UNL     1     -28.548 -26.491 105.344  1.00  0.00     0.177 C 
ATOM      3  C   UNL     1     -29.288 -26.120 104.037  1.00  0.00     0.180 C 
ATOM      4  C   UNL     1     -29.639 -24.612 103.957  1.00  0.00     0.214 C 
ATOM      5  C   UNL     1     -29.514 -23.926 105.329  1.00  0.00     0.339 C 
ATOM      6  O   UNL     1     -30.068 -24.748 106.340  1.00  0.00    -0.332 OA
ENDROOT
BRANCH   1   7
ATOM      7  C   UNL     1     -28.417 -25.738 107.818  1.00  0.00     0.198 C 
BRANCH   7   8
ATOM      8  O   UNL     1     -27.401 -26.724 107.880  1.00  0.00    -0.347 OA
BRANCH   8   9
ATOM      9  C   UNL     1     -27.779 -27.856 108.646  1.00  0.00     0.281 C 
ATOM     10  C   UNL     1     -26.163 -25.802 110.462  1.00  0.00     0.041 C 
ATOM     11  C   UNL     1     -26.729 -27.226 110.717  1.00  0.00     0.150 C 
ATOM     12  C   UNL     1     -25.678 -28.360 110.584  1.00  0.00     0.174 C 
ATOM     13  O   UNL     1     -27.936 -27.495 110.011  1.00  0.00    -0.344 OA
ATOM     14  C   UNL     1     -25.438 -28.704 109.116  1.00  0.00     0.179 C 
ATOM     15  C   UNL     1     -26.779 -29.009 108.433  1.00  0.00     0.202 C 
BRANCH  12  16
ATOM     16  O   UNL     1     -26.121 -29.514 111.255  1.00  0.00    -0.388 OA
ATOM     17  H   UNL     1     -26.251 -30.215 110.564  1.00  0.00     0.211 HD
ENDBRANCH  12  16
BRANCH  14  18
ATOM     18  O   UNL     1     -24.590 -29.820 109.023  1.00  0.00    -0.387 OA
ATOM     19  H   UNL     1     -23.797 -29.553 108.482  1.00  0.00     0.211 HD
ENDBRANCH  14  18
BRANCH  15  20
ATOM     20  O   UNL     1     -26.580 -29.209 107.059  1.00  0.00    -0.385 OA
ATOM     21  H   UNL     1     -26.171 -30.102 106.948  1.00  0.00     0.211 HD
ENDBRANCH  15  20
ENDBRANCH   8   9
ENDBRANCH   7   8
ENDBRANCH   1   7
BRANCH   2  22
ATOM     22  O   UNL     1     -28.367 -27.880 105.422  1.00  0.00    -0.387 OA
ATOM     23  H   UNL     1     -27.513 -28.055 105.912  1.00  0.00     0.211 HD
ENDBRANCH   2  22
BRANCH   3  24
ATOM     24  O   UNL     1     -28.549 -26.523 102.907  1.00  0.00    -0.387 OA
ATOM     25  H   UNL     1     -27.599 -26.273 103.060  1.00  0.00     0.211 HD
ENDBRANCH   3  24
BRANCH   5  26
ATOM     26  O   UNL     1     -28.152 -23.588 105.628  1.00  0.00    -0.454 OA
BRANCH  26  27
ATOM     27  C   UNL     1     -27.278 -23.085 104.657  1.00  0.00     0.214 A 
ATOM     28  C   UNL     1     -27.475 -21.803 104.115  1.00  0.00     0.180 A 
ATOM     29  C   UNL     1     -26.186 -23.844 104.210  1.00  0.00     0.239 A 
ATOM     30  O   UNL     1     -26.663 -21.341 103.169  1.00  0.00    -0.452 OA
ATOM     31  C   UNL     1     -25.353 -23.334 103.190  1.00  0.00     0.111 A 
ATOM     32  O   UNL     1     -25.950 -24.966 104.734  1.00  0.00    -0.285 OA
ATOM     33  C   UNL     1     -25.639 -22.042 102.689  1.00  0.00     0.146 A 
ATOM     34  C   UNL     1     -24.253 -24.050 102.661  1.00  0.00     0.134 A 
ATOM     35  C   UNL     1     -24.845 -21.486 101.684  1.00  0.00     0.094 A 
ATOM     36  C   UNL     1     -23.466 -23.475 101.650  1.00  0.00     0.093 A 
ATOM     37  C   UNL     1     -23.758 -22.198 101.163  1.00  0.00     0.123 A 
BRANCH  28  38
ATOM     38  C   UNL     1     -28.563 -20.933 104.590  1.00  0.00     0.025 A 
ATOM     39  C   UNL     1     -28.519 -20.397 105.883  1.00  0.00     0.062 A 
ATOM     40  C   UNL     1     -29.622 -20.597 103.733  1.00  0.00     0.016 A 
ATOM     41  C   UNL     1     -29.522 -19.527 106.325  1.00  0.00     0.158 A 
ATOM     42  C   UNL     1     -30.618 -19.718 104.167  1.00  0.00     0.051 A 
ATOM     43  C   UNL     1     -30.585 -19.196 105.467  1.00  0.00     0.157 A 
BRANCH  41  44
ATOM     44  O   UNL     1     -29.447 -19.012 107.614  1.00  0.00    -0.504 OA
ATOM     45  H   UNL     1     -29.277 -19.602 108.423  1.00  0.00     0.293 HD
ENDBRANCH  41  44
BRANCH  43  46
ATOM     46  O   UNL     1     -31.603 -18.346 105.905  1.00  0.00    -0.504 OA
ATOM     47  H   UNL     1     -31.453 -17.705 106.669  1.00  0.00     0.293 HD
ENDBRANCH  43  46
ENDBRANCH  28  38
BRANCH  34  48
ATOM     48  O   UNL     1     -23.932 -25.326 103.130  1.00  0.00    -0.507 OA
ATOM     49  H   UNL     1     -24.461 -26.142 102.841  1.00  0.00     0.293 HD
ENDBRANCH  34  48
BRANCH  37  50
ATOM     50  O   UNL     1     -22.970 -21.643 100.157  1.00  0.00    -0.508 OA
ATOM     51  H   UNL     1     -23.029 -20.657  99.928  1.00  0.00     0.293 HD
ENDBRANCH  37  50
ENDBRANCH  26  27
ENDBRANCH   5  26
BRANCH   4  52
ATOM     52  O   UNL     1     -30.957 -24.455 103.494  1.00  0.00    -0.384 OA
ATOM     53  H   UNL     1     -30.949 -23.698 102.848  1.00  0.00     0.211 HD
ENDBRANCH   4  52
TORSDOF 16
ENDMDL
MODEL 6
REMARK VINA RESULT:    -7.676      2.489      6.383
REMARK INTER + INTRA:         -15.595
REMARK INTER:                 -13.663
REMARK INTRA:                  -1.932
REMARK UNBOUND:                -2.984
REMARK SMILES C[C@H]1O[C@@H](OC[C@H]2O[C@@H](Oc3c(-c4ccc(O)c(O)c4)oc4cc(O)cc(O)c4c3=O)[C@H](O)[C@@H](O)[C@@H]2O)[C@@H](O)[C@H](O)[C@@H]1O
REMARK SMILES IDX 7 1 36 2 34 3 32 4 9 5 8 6 6 7 5 8 4 9 1 10 2 11 42 12 3 13
REMARK SMILES IDX 40 14 38 15 43 16 41 18 39 20 37 22 35 24 10 26 11 27 12 28
REMARK SMILES IDX 30 29 21 30 29 31 31 32 22 33 27 34 23 35 26 36 24 37 13 38
REMARK SMILES IDX 20 39 14 40 18 41 15 42 16 43 19 44 17 46 28 48 25 50 33 52
REMARK H PARENT 43 17 41 19 39 21 37 23 35 25 19 45 17 47 28 49 25 51 33 53
REMARK Flexibility Score: inf
ROOT
ATOM      1  C   UNL     1     -25.500 -26.833 110.439  1.00  0.00     0.180 C 
ATOM      2  C   UNL     1     -25.586 -28.324 109.973  1.00  0.00     0.177 C 
ATOM      3  C   UNL     1     -24.715 -29.225 110.880  1.00  0.00     0.180 C 
ATOM      4  C   UNL     1     -25.000 -29.007 112.389  1.00  0.00     0.214 C 
ATOM      5  C   UNL     1     -25.786 -27.707 112.636  1.00  0.00     0.339 C 
ATOM      6  O   UNL     1     -25.266 -26.661 111.836  1.00  0.00    -0.332 OA
ENDROOT
BRANCH   1   7
ATOM      7  C   UNL     1     -26.725 -25.999 110.013  1.00  0.00     0.198 C 
BRANCH   7   8
ATOM      8  O   UNL     1     -26.978 -26.124 108.624  1.00  0.00    -0.347 OA
BRANCH   8   9
ATOM      9  C   UNL     1     -28.206 -26.779 108.345  1.00  0.00     0.281 C 
ATOM     10  C   UNL     1     -26.273 -26.965 105.824  1.00  0.00     0.041 C 
ATOM     11  C   UNL     1     -27.745 -27.398 106.067  1.00  0.00     0.150 C 
ATOM     12  C   UNL     1     -28.799 -26.392 105.531  1.00  0.00     0.174 C 
ATOM     13  O   UNL     1     -28.002 -27.821 107.402  1.00  0.00    -0.344 OA
ATOM     14  C   UNL     1     -28.969 -25.223 106.497  1.00  0.00     0.179 C 
ATOM     15  C   UNL     1     -29.272 -25.757 107.904  1.00  0.00     0.202 C 
BRANCH  12  16
ATOM     16  O   UNL     1     -30.041 -27.032 105.366  1.00  0.00    -0.388 OA
ATOM     17  H   UNL     1     -30.498 -27.000 106.248  1.00  0.00     0.211 HD
ENDBRANCH  12  16
BRANCH  14  18
ATOM     18  O   UNL     1     -30.020 -24.398 106.062  1.00  0.00    -0.387 OA
ATOM     19  H   UNL     1     -30.867 -24.766 106.434  1.00  0.00     0.211 HD
ENDBRANCH  14  18
BRANCH  15  20
ATOM     20  O   UNL     1     -29.312 -24.695 108.820  1.00  0.00    -0.385 OA
ATOM     21  H   UNL     1     -29.698 -25.046 109.659  1.00  0.00     0.211 HD
ENDBRANCH  15  20
ENDBRANCH   8   9
ENDBRANCH   7   8
ENDBRANCH   1   7
BRANCH   2  22
ATOM     22  O   UNL     1     -25.201 -28.469 108.632  1.00  0.00    -0.387 OA
ATOM     23  H   UNL     1     -24.780 -27.613 108.335  1.00  0.00     0.211 HD
ENDBRANCH   2  22
BRANCH   3  24
ATOM     24  O   UNL     1     -24.862 -30.583 110.533  1.00  0.00    -0.387 OA
ATOM     25  H   UNL     1     -24.586 -31.128 111.318  1.00  0.00     0.211 HD
ENDBRANCH   3  24
BRANCH   5  26
ATOM     26  O   UNL     1     -27.190 -27.886 112.402  1.00  0.00    -0.454 OA
BRANCH  26  27
ATOM     27  C   UNL     1     -27.903 -28.966 112.936  1.00  0.00     0.214 A 
ATOM     28  C   UNL     1     -28.016 -29.129 114.328  1.00  0.00     0.180 A 
ATOM     29  C   UNL     1     -28.524 -29.903 112.097  1.00  0.00     0.239 A 
ATOM     30  O   UNL     1     -28.665 -30.174 114.832  1.00  0.00    -0.452 OA
ATOM     31  C   UNL     1     -29.190 -31.013 112.662  1.00  0.00     0.111 A 
ATOM     32  O   UNL     1     -28.496 -29.738 110.847  1.00  0.00    -0.285 OA
ATOM     33  C   UNL     1     -29.236 -31.106 114.073  1.00  0.00     0.146 A 
ATOM     34  C   UNL     1     -29.812 -32.019 111.885  1.00  0.00     0.134 A 
ATOM     35  C   UNL     1     -29.886 -32.179 114.687  1.00  0.00     0.094 A 
ATOM     36  C   UNL     1     -30.460 -33.091 112.519  1.00  0.00     0.093 A 
ATOM     37  C   UNL     1     -30.499 -33.173 113.914  1.00  0.00     0.123 A 
BRANCH  28  38
ATOM     38  C   UNL     1     -27.443 -28.144 115.260  1.00  0.00     0.025 A 
ATOM     39  C   UNL     1     -28.057 -26.897 115.426  1.00  0.00     0.062 A 
ATOM     40  C   UNL     1     -26.311 -28.470 116.021  1.00  0.00     0.016 A 
ATOM     41  C   UNL     1     -27.549 -25.974 116.348  1.00  0.00     0.158 A 
ATOM     42  C   UNL     1     -25.810 -27.556 116.952  1.00  0.00     0.051 A 
ATOM     43  C   UNL     1     -26.411 -26.300 117.106  1.00  0.00     0.157 A 
BRANCH  41  44
ATOM     44  O   UNL     1     -28.183 -24.745 116.489  1.00  0.00    -0.504 OA
ATOM     45  H   UNL     1     -27.722 -23.944 116.909  1.00  0.00     0.293 HD
ENDBRANCH  41  44
BRANCH  43  46
ATOM     46  O   UNL     1     -25.884 -25.379 118.014  1.00  0.00    -0.504 OA
ATOM     47  H   UNL     1     -24.999 -24.926 117.842  1.00  0.00     0.293 HD
ENDBRANCH  43  46
ENDBRANCH  28  38
BRANCH  34  48
ATOM     48  O   UNL     1     -29.794 -31.964 110.490  1.00  0.00    -0.507 OA
ATOM     49  H   UNL     1     -29.250 -31.265 109.996  1.00  0.00     0.293 HD
ENDBRANCH  34  48
BRANCH  37  50
ATOM     50  O   UNL     1     -31.143 -34.244 114.528  1.00  0.00    -0.508 OA
ATOM     51  H   UNL     1     -30.623 -34.938 115.055  1.00  0.00     0.293 HD
ENDBRANCH  37  50
ENDBRANCH  26  27
ENDBRANCH   5  26
BRANCH   4  52
ATOM     52  O   UNL     1     -23.787 -28.941 113.097  1.00  0.00    -0.384 OA
ATOM     53  H   UNL     1     -23.944 -29.370 113.981  1.00  0.00     0.211 HD
ENDBRANCH   4  52
TORSDOF 16
ENDMDL
MODEL 7
REMARK VINA RESULT:    -7.595      8.575     12.571
REMARK INTER + INTRA:         -15.462
REMARK INTER:                 -12.374
REMARK INTRA:                  -3.088
REMARK UNBOUND:                -2.984
REMARK SMILES C[C@H]1O[C@@H](OC[C@H]2O[C@@H](Oc3c(-c4ccc(O)c(O)c4)oc4cc(O)cc(O)c4c3=O)[C@H](O)[C@@H](O)[C@@H]2O)[C@@H](O)[C@H](O)[C@@H]1O
REMARK SMILES IDX 7 1 36 2 34 3 32 4 9 5 8 6 6 7 5 8 4 9 1 10 2 11 42 12 3 13
REMARK SMILES IDX 40 14 38 15 43 16 41 18 39 20 37 22 35 24 10 26 11 27 12 28
REMARK SMILES IDX 30 29 21 30 29 31 31 32 22 33 27 34 23 35 26 36 24 37 13 38
REMARK SMILES IDX 20 39 14 40 18 41 15 42 16 43 19 44 17 46 28 48 25 50 33 52
REMARK H PARENT 43 17 41 19 39 21 37 23 35 25 19 45 17 47 28 49 25 51 33 53
REMARK Flexibility Score: inf
ROOT
ATOM      1  C   UNL     1     -29.693 -19.097 104.444  1.00  0.00     0.180 C 
ATOM      2  C   UNL     1     -29.549 -17.839 105.364  1.00  0.00     0.177 C 
ATOM      3  C   UNL     1     -30.812 -17.662 106.240  1.00  0.00     0.180 C 
ATOM      4  C   UNL     1     -31.207 -18.962 106.988  1.00  0.00     0.214 C 
ATOM      5  C   UNL     1     -30.494 -20.194 106.401  1.00  0.00     0.339 C 
ATOM      6  O   UNL     1     -30.505 -20.138 104.986  1.00  0.00    -0.332 OA
ENDROOT
BRANCH   1   7
ATOM      7  C   UNL     1     -28.335 -19.678 104.004  1.00  0.00     0.198 C 
BRANCH   7   8
ATOM      8  O   UNL     1     -28.502 -20.790 103.142  1.00  0.00    -0.347 OA
BRANCH   8   9
ATOM      9  C   UNL     1     -28.475 -22.030 103.832  1.00  0.00     0.281 C 
ATOM     10  C   UNL     1     -26.118 -21.919 101.697  1.00  0.00     0.041 C 
ATOM     11  C   UNL     1     -26.635 -23.032 102.650  1.00  0.00     0.150 C 
ATOM     12  C   UNL     1     -27.573 -24.064 101.970  1.00  0.00     0.174 C 
ATOM     13  O   UNL     1     -27.148 -22.535 103.881  1.00  0.00    -0.344 OA
ATOM     14  C   UNL     1     -28.987 -23.503 101.836  1.00  0.00     0.179 C 
ATOM     15  C   UNL     1     -29.479 -23.017 103.206  1.00  0.00     0.202 C 
BRANCH  12  16
ATOM     16  O   UNL     1     -27.623 -25.248 102.727  1.00  0.00    -0.388 OA
ATOM     17  H   UNL     1     -28.404 -25.766 102.398  1.00  0.00     0.211 HD
ENDBRANCH  12  16
BRANCH  14  18
ATOM     18  O   UNL     1     -29.847 -24.499 101.344  1.00  0.00    -0.387 OA
ATOM     19  H   UNL     1     -29.369 -25.370 101.408  1.00  0.00     0.211 HD
ENDBRANCH  14  18
BRANCH  15  20
ATOM     20  O   UNL     1     -30.728 -22.392 103.070  1.00  0.00    -0.385 OA
ATOM     21  H   UNL     1     -30.987 -22.057 103.963  1.00  0.00     0.211 HD
ENDBRANCH  15  20
ENDBRANCH   8   9
ENDBRANCH   7   8
ENDBRANCH   1   7
BRANCH   2  22
ATOM     22  O   UNL     1     -29.311 -16.677 104.616  1.00  0.00    -0.387 OA
ATOM     23  H   UNL     1     -28.809 -16.033 105.193  1.00  0.00     0.211 HD
ENDBRANCH   2  22
BRANCH   3  24
ATOM     24  O   UNL     1     -30.654 -16.592 107.143  1.00  0.00    -0.387 OA
ATOM     25  H   UNL     1     -29.863 -16.791 107.713  1.00  0.00     0.211 HD
ENDBRANCH   3  24
BRANCH   5  26
ATOM     26  O   UNL     1     -29.156 -20.318 106.902  1.00  0.00    -0.454 OA
BRANCH  26  27
ATOM     27  C   UNL     1     -28.886 -20.632 108.239  1.00  0.00     0.214 A 
ATOM     28  C   UNL     1     -28.783 -21.971 108.651  1.00  0.00     0.180 A 
ATOM     29  C   UNL     1     -28.707 -19.619 109.194  1.00  0.00     0.239 A 
ATOM     30  O   UNL     1     -28.560 -22.267 109.929  1.00  0.00    -0.452 OA
ATOM     31  C   UNL     1     -28.491 -19.964 110.546  1.00  0.00     0.111 A 
ATOM     32  O   UNL     1     -28.725 -18.410 108.833  1.00  0.00    -0.285 OA
ATOM     33  C   UNL     1     -28.422 -21.339 110.873  1.00  0.00     0.146 A 
ATOM     34  C   UNL     1     -28.335 -19.003 111.573  1.00  0.00     0.134 A 
ATOM     35  C   UNL     1     -28.205 -21.739 112.193  1.00  0.00     0.094 A 
ATOM     36  C   UNL     1     -28.118 -19.423 112.896  1.00  0.00     0.093 A 
ATOM     37  C   UNL     1     -28.052 -20.784 113.207  1.00  0.00     0.123 A 
BRANCH  28  38
ATOM     38  C   UNL     1     -28.894 -23.077 107.687  1.00  0.00     0.025 A 
ATOM     39  C   UNL     1     -27.746 -23.589 107.070  1.00  0.00     0.062 A 
ATOM     40  C   UNL     1     -30.144 -23.655 107.419  1.00  0.00     0.016 A 
ATOM     41  C   UNL     1     -27.837 -24.673 106.190  1.00  0.00     0.158 A 
ATOM     42  C   UNL     1     -30.236 -24.748 106.552  1.00  0.00     0.051 A 
ATOM     43  C   UNL     1     -29.091 -25.248 105.919  1.00  0.00     0.157 A 
BRANCH  41  44
ATOM     44  O   UNL     1     -26.677 -25.157 105.596  1.00  0.00    -0.504 OA
ATOM     45  H   UNL     1     -26.402 -24.895 104.655  1.00  0.00     0.293 HD
ENDBRANCH  41  44
BRANCH  43  46
ATOM     46  O   UNL     1     -29.195 -26.318 105.028  1.00  0.00    -0.504 OA
ATOM     47  H   UNL     1     -29.601 -26.195 104.112  1.00  0.00     0.293 HD
ENDBRANCH  43  46
ENDBRANCH  28  38
BRANCH  34  48
ATOM     48  O   UNL     1     -28.392 -17.636 111.295  1.00  0.00    -0.507 OA
ATOM     49  H   UNL     1     -28.161 -17.275 110.376  1.00  0.00     0.293 HD
ENDBRANCH  34  48
BRANCH  37  50
ATOM     50  O   UNL     1     -27.840 -21.185 114.524  1.00  0.00    -0.508 OA
ATOM     51  H   UNL     1     -28.263 -20.686 115.299  1.00  0.00     0.293 HD
ENDBRANCH  37  50
ENDBRANCH  26  27
ENDBRANCH   5  26
BRANCH   4  52
ATOM     52  O   UNL     1     -32.596 -19.160 106.897  1.00  0.00    -0.384 OA
ATOM     53  H   UNL     1     -33.010 -18.261 106.789  1.00  0.00     0.211 HD
ENDBRANCH   4  52
TORSDOF 16
ENDMDL
MODEL 8
REMARK VINA RESULT:    -7.492      6.865     10.908
REMARK INTER + INTRA:         -15.294
REMARK INTER:                 -13.580
REMARK INTRA:                  -1.713
REMARK UNBOUND:                -2.984
REMARK SMILES C[C@H]1O[C@@H](OC[C@H]2O[C@@H](Oc3c(-c4ccc(O)c(O)c4)oc4cc(O)cc(O)c4c3=O)[C@H](O)[C@@H](O)[C@@H]2O)[C@@H](O)[C@H](O)[C@@H]1O
REMARK SMILES IDX 7 1 36 2 34 3 32 4 9 5 8 6 6 7 5 8 4 9 1 10 2 11 42 12 3 13
REMARK SMILES IDX 40 14 38 15 43 16 41 18 39 20 37 22 35 24 10 26 11 27 12 28
REMARK SMILES IDX 30 29 21 30 29 31 31 32 22 33 27 34 23 35 26 36 24 37 13 38
REMARK SMILES IDX 20 39 14 40 18 41 15 42 16 43 19 44 17 46 28 48 25 50 33 52
REMARK H PARENT 43 17 41 19 39 21 37 23 35 25 19 45 17 47 28 49 25 51 33 53
REMARK Flexibility Score: inf
ROOT
ATOM      1  C   UNL     1     -28.889 -20.447 106.835  1.00  0.00     0.180 C 
ATOM      2  C   UNL     1     -30.087 -20.657 105.851  1.00  0.00     0.177 C 
ATOM      3  C   UNL     1     -29.582 -20.732 104.391  1.00  0.00     0.180 C 
ATOM      4  C   UNL     1     -28.421 -21.744 104.212  1.00  0.00     0.214 C 
ATOM      5  C   UNL     1     -27.804 -22.145 105.564  1.00  0.00     0.339 C 
ATOM      6  O   UNL     1     -27.653 -21.005 106.391  1.00  0.00    -0.332 OA
ENDROOT
BRANCH   1   7
ATOM      7  C   UNL     1     -29.193 -20.938 108.264  1.00  0.00     0.198 C 
BRANCH   7   8
ATOM      8  O   UNL     1     -28.314 -20.353 109.210  1.00  0.00    -0.347 OA
BRANCH   8   9
ATOM      9  C   UNL     1     -28.671 -19.021 109.543  1.00  0.00     0.281 C 
ATOM     10  C   UNL     1     -25.515 -19.254 109.215  1.00  0.00     0.041 C 
ATOM     11  C   UNL     1     -26.453 -18.098 109.660  1.00  0.00     0.150 C 
ATOM     12  C   UNL     1     -26.557 -17.921 111.198  1.00  0.00     0.174 C 
ATOM     13  O   UNL     1     -27.720 -18.110 109.010  1.00  0.00    -0.344 OA
ATOM     14  C   UNL     1     -27.515 -18.948 111.796  1.00  0.00     0.179 C 
ATOM     15  C   UNL     1     -28.864 -18.880 111.065  1.00  0.00     0.202 C 
BRANCH  12  16
ATOM     16  O   UNL     1     -27.020 -16.630 111.509  1.00  0.00    -0.388 OA
ATOM     17  H   UNL     1     -26.594 -16.372 112.368  1.00  0.00     0.211 HD
ENDBRANCH  12  16
BRANCH  14  18
ATOM     18  O   UNL     1     -27.699 -18.684 113.164  1.00  0.00    -0.387 OA
ATOM     19  H   UNL     1     -27.234 -19.402 113.675  1.00  0.00     0.211 HD
ENDBRANCH  14  18
BRANCH  15  20
ATOM     20  O   UNL     1     -29.709 -19.899 111.528  1.00  0.00    -0.385 OA
ATOM     21  H   UNL     1     -29.616 -19.934 112.512  1.00  0.00     0.211 HD
ENDBRANCH  15  20
ENDBRANCH   8   9
ENDBRANCH   7   8
ENDBRANCH   1   7
BRANCH   2  22
ATOM     22  O   UNL     1     -31.046 -19.641 105.981  1.00  0.00    -0.387 OA
ATOM     23  H   UNL     1     -31.620 -19.854 106.771  1.00  0.00     0.211 HD
ENDBRANCH   2  22
BRANCH   3  24
ATOM     24  O   UNL     1     -30.639 -21.020 103.505  1.00  0.00    -0.387 OA
ATOM     25  H   UNL     1     -30.834 -21.993 103.571  1.00  0.00     0.211 HD
ENDBRANCH   3  24
BRANCH   5  26
ATOM     26  O   UNL     1     -28.580 -23.157 106.220  1.00  0.00    -0.454 OA
BRANCH  26  27
ATOM     27  C   UNL     1     -28.016 -24.361 106.661  1.00  0.00     0.214 A 
ATOM     28  C   UNL     1     -27.747 -25.399 105.753  1.00  0.00     0.180 A 
ATOM     29  C   UNL     1     -27.702 -24.553 108.015  1.00  0.00     0.239 A 
ATOM     30  O   UNL     1     -27.243 -26.552 106.181  1.00  0.00    -0.452 OA
ATOM     31  C   UNL     1     -27.186 -25.796 108.441  1.00  0.00     0.111 A 
ATOM     32  O   UNL     1     -27.870 -23.610 108.835  1.00  0.00    -0.285 OA
ATOM     33  C   UNL     1     -26.966 -26.791 107.460  1.00  0.00     0.146 A 
ATOM     34  C   UNL     1     -26.876 -26.082 109.793  1.00  0.00     0.134 A 
ATOM     35  C   UNL     1     -26.452 -28.038 107.824  1.00  0.00     0.094 A 
ATOM     36  C   UNL     1     -26.360 -27.341 110.141  1.00  0.00     0.093 A 
ATOM     37  C   UNL     1     -26.147 -28.316 109.162  1.00  0.00     0.123 A 
BRANCH  28  38
ATOM     38  C   UNL     1     -27.992 -25.234 104.311  1.00  0.00     0.025 A 
ATOM     39  C   UNL     1     -29.293 -25.339 103.804  1.00  0.00     0.062 A 
ATOM     40  C   UNL     1     -26.931 -24.921 103.448  1.00  0.00     0.016 A 
ATOM     41  C   UNL     1     -29.542 -25.133 102.442  1.00  0.00     0.158 A 
ATOM     42  C   UNL     1     -27.180 -24.701 102.090  1.00  0.00     0.051 A 
ATOM     43  C   UNL     1     -28.477 -24.826 101.577  1.00  0.00     0.157 A 
BRANCH  41  44
ATOM     44  O   UNL     1     -30.845 -25.245 101.972  1.00  0.00    -0.504 OA
ATOM     45  H   UNL     1     -31.094 -25.868 101.210  1.00  0.00     0.293 HD
ENDBRANCH  41  44
BRANCH  43  46
ATOM     46  O   UNL     1     -28.711 -24.638 100.214  1.00  0.00    -0.504 OA
ATOM     47  H   UNL     1     -29.608 -24.855  99.804  1.00  0.00     0.293 HD
ENDBRANCH  43  46
ENDBRANCH  28  38
BRANCH  34  48
ATOM     48  O   UNL     1     -27.074 -25.128 110.793  1.00  0.00    -0.507 OA
ATOM     49  H   UNL     1     -27.254 -24.156 110.567  1.00  0.00     0.293 HD
ENDBRANCH  34  48
BRANCH  37  50
ATOM     50  O   UNL     1     -25.638 -29.561 109.524  1.00  0.00    -0.508 OA
ATOM     51  H   UNL     1     -26.235 -30.275 109.928  1.00  0.00     0.293 HD
ENDBRANCH  37  50
ENDBRANCH  26  27
ENDBRANCH   5  26
BRANCH   4  52
ATOM     52  O   UNL     1     -27.416 -21.178 103.409  1.00  0.00    -0.384 OA
ATOM     53  H   UNL     1     -27.806 -20.366 102.986  1.00  0.00     0.211 HD
ENDBRANCH   4  52
TORSDOF 16
ENDMDL
MODEL 9
REMARK VINA RESULT:    -7.490      6.809     10.970
REMARK INTER + INTRA:         -15.290
REMARK INTER:                 -13.397
REMARK INTRA:                  -1.893
REMARK UNBOUND:                -2.984
REMARK SMILES C[C@H]1O[C@@H](OC[C@H]2O[C@@H](Oc3c(-c4ccc(O)c(O)c4)oc4cc(O)cc(O)c4c3=O)[C@H](O)[C@@H](O)[C@@H]2O)[C@@H](O)[C@H](O)[C@@H]1O
REMARK SMILES IDX 7 1 36 2 34 3 32 4 9 5 8 6 6 7 5 8 4 9 1 10 2 11 42 12 3 13
REMARK SMILES IDX 40 14 38 15 43 16 41 18 39 20 37 22 35 24 10 26 11 27 12 28
REMARK SMILES IDX 30 29 21 30 29 31 31 32 22 33 27 34 23 35 26 36 24 37 13 38
REMARK SMILES IDX 20 39 14 40 18 41 15 42 16 43 19 44 17 46 28 48 25 50 33 52
REMARK H PARENT 43 17 41 19 39 21 37 23 35 25 19 45 17 47 28 49 25 51 33 53
REMARK Flexibility Score: inf
ROOT
ATOM      1  C   UNL     1     -29.312 -22.377 108.784  1.00  0.00     0.180 C 
ATOM      2  C   UNL     1     -28.574 -23.381 109.730  1.00  0.00     0.177 C 
ATOM      3  C   UNL     1     -29.498 -24.569 110.084  1.00  0.00     0.180 C 
ATOM      4  C   UNL     1     -30.139 -25.222 108.831  1.00  0.00     0.214 C 
ATOM      5  C   UNL     1     -30.011 -24.318 107.592  1.00  0.00     0.339 C 
ATOM      6  O   UNL     1     -30.293 -22.973 107.936  1.00  0.00    -0.332 OA
ENDROOT
BRANCH   1   7
ATOM      7  C   UNL     1     -28.344 -21.528 107.936  1.00  0.00     0.198 C 
BRANCH   7   8
ATOM      8  O   UNL     1     -29.018 -20.885 106.868  1.00  0.00    -0.347 OA
BRANCH   8   9
ATOM      9  C   UNL     1     -28.325 -19.746 106.385  1.00  0.00     0.281 C 
ATOM     10  C   UNL     1     -30.985 -18.849 107.885  1.00  0.00     0.041 C 
ATOM     11  C   UNL     1     -29.904 -18.071 107.084  1.00  0.00     0.150 C 
ATOM     12  C   UNL     1     -30.300 -17.764 105.616  1.00  0.00     0.174 C 
ATOM     13  O   UNL     1     -28.597 -18.621 107.209  1.00  0.00    -0.344 OA
ATOM     14  C   UNL     1     -30.090 -18.991 104.732  1.00  0.00     0.179 C 
ATOM     15  C   UNL     1     -28.653 -19.506 104.899  1.00  0.00     0.202 C 
BRANCH  12  16
ATOM     16  O   UNL     1     -29.523 -16.703 105.114  1.00  0.00    -0.388 OA
ATOM     17  H   UNL     1     -28.753 -16.596 105.732  1.00  0.00     0.211 HD
ENDBRANCH  12  16
BRANCH  14  18
ATOM     18  O   UNL     1     -30.324 -18.653 103.388  1.00  0.00    -0.387 OA
ATOM     19  H   UNL     1     -31.188 -19.067 103.118  1.00  0.00     0.211 HD
ENDBRANCH  14  18
BRANCH  15  20
ATOM     20  O   UNL     1     -28.489 -20.701 104.183  1.00  0.00    -0.385 OA
ATOM     21  H   UNL     1     -29.332 -20.870 103.696  1.00  0.00     0.211 HD
ENDBRANCH  15  20
ENDBRANCH   8   9
ENDBRANCH   7   8
ENDBRANCH   1   7
BRANCH   2  22
ATOM     22  O   UNL     1     -28.123 -22.751 110.900  1.00  0.00    -0.387 OA
ATOM     23  H   UNL     1     -27.998 -23.452 111.602  1.00  0.00     0.211 HD
ENDBRANCH   2  22
BRANCH   3  24
ATOM     24  O   UNL     1     -28.812 -25.530 110.854  1.00  0.00    -0.387 OA
ATOM     25  H   UNL     1     -28.217 -25.044 111.486  1.00  0.00     0.211 HD
ENDBRANCH   3  24
BRANCH   5  26
ATOM     26  O   UNL     1     -28.717 -24.433 106.986  1.00  0.00    -0.454 OA
BRANCH  26  27
ATOM     27  C   UNL     1     -28.553 -24.790 105.641  1.00  0.00     0.214 A 
ATOM     28  C   UNL     1     -27.800 -25.924 105.290  1.00  0.00     0.180 A 
ATOM     29  C   UNL     1     -29.140 -24.029 104.619  1.00  0.00     0.239 A 
ATOM     30  O   UNL     1     -27.618 -26.240 104.012  1.00  0.00    -0.452 OA
ATOM     31  C   UNL     1     -28.912 -24.379 103.270  1.00  0.00     0.111 A 
ATOM     32  O   UNL     1     -29.877 -23.049 104.915  1.00  0.00    -0.285 OA
ATOM     33  C   UNL     1     -28.125 -25.525 103.010  1.00  0.00     0.146 A 
ATOM     34  C   UNL     1     -29.440 -23.644 102.181  1.00  0.00     0.134 A 
ATOM     35  C   UNL     1     -27.871 -25.922 101.695  1.00  0.00     0.094 A 
ATOM     36  C   UNL     1     -29.175 -24.057 100.866  1.00  0.00     0.093 A 
ATOM     37  C   UNL     1     -28.395 -25.191 100.621  1.00  0.00     0.123 A 
BRANCH  28  38
ATOM     38  C   UNL     1     -27.215 -26.799 106.318  1.00  0.00     0.025 A 
ATOM     39  C   UNL     1     -27.951 -27.127 107.462  1.00  0.00     0.062 A 
ATOM     40  C   UNL     1     -25.937 -27.348 106.132  1.00  0.00     0.016 A 
ATOM     41  C   UNL     1     -27.423 -28.000 108.420  1.00  0.00     0.158 A 
ATOM     42  C   UNL     1     -25.413 -28.231 107.080  1.00  0.00     0.051 A 
ATOM     43  C   UNL     1     -26.141 -28.545 108.235  1.00  0.00     0.157 A 
BRANCH  41  44
ATOM     44  O   UNL     1     -28.182 -28.306 109.544  1.00  0.00    -0.504 OA
ATOM     45  H   UNL     1     -27.894 -28.038 110.480  1.00  0.00     0.293 HD
ENDBRANCH  41  44
BRANCH  43  46
ATOM     46  O   UNL     1     -25.595 -29.401 109.194  1.00  0.00    -0.504 OA
ATOM     47  H   UNL     1     -25.581 -29.148 110.170  1.00  0.00     0.293 HD
ENDBRANCH  43  46
ENDBRANCH  28  38
BRANCH  34  48
ATOM     48  O   UNL     1     -30.226 -22.510 102.393  1.00  0.00    -0.507 OA
ATOM     49  H   UNL     1     -31.123 -22.569 102.861  1.00  0.00     0.293 HD
ENDBRANCH  34  48
BRANCH  37  50
ATOM     50  O   UNL     1     -28.138 -25.585  99.310  1.00  0.00    -0.508 OA
ATOM     51  H   UNL     1     -28.887 -25.894  98.698  1.00  0.00     0.293 HD
ENDBRANCH  37  50
ENDBRANCH  26  27
ENDBRANCH   5  26
BRANCH   4  52
ATOM     52  O   UNL     1     -31.502 -25.470 109.069  1.00  0.00    -0.384 OA
ATOM     53  H   UNL     1     -31.760 -26.243 108.499  1.00  0.00     0.211 HD
ENDBRANCH   4  52
TORSDOF 16
ENDMDL
