MODEL 1
REMARK VINA RESULT:    -3.688      0.000      0.000
REMARK INTER + INTRA:         -11.577
REMARK INTER:                  -8.430
REMARK INTRA:                  -3.147
REMARK UNBOUND:                -3.147
REMARK SMILES CCCCCCCCCCCCCCCCCCCCCCCC(=O)[O-]
REMARK SMILES IDX 13 1 14 2 15 3 16 4 17 5 18 6 19 7 20 8 21 9 22 10 23 11
REMARK SMILES IDX 24 12 25 13 26 14 12 15 11 16 10 17 9 18 8 19 7 20 6 21 5 22
REMARK SMILES IDX 4 23 3 24 2 25 1 26
REMARK H PARENT
REMARK Flexibility Score: inf
ROOT
ATOM      1  C   UNL     1      58.900  25.788  52.482  1.00  0.00     0.000 C 
ENDROOT
BRANCH   1   2
ATOM      2  C   UNL     1      59.315  24.632  53.408  1.00  0.00     0.000 C 
BRANCH   2   3
ATOM      3  C   UNL     1      60.077  23.525  52.660  1.00  0.00     0.000 C 
BRANCH   3   4
ATOM      4  C   UNL     1      61.503  23.946  52.272  1.00  0.00     0.000 C 
BRANCH   4   5
ATOM      5  C   UNL     1      61.795  23.602  50.808  1.00  0.00     0.000 C 
BRANCH   5   6
ATOM      6  C   UNL     1      62.172  22.120  50.651  1.00  0.00     0.000 C 
BRANCH   6   7
ATOM      7  C   UNL     1      61.422  21.438  49.495  1.00  0.00     0.000 C 
BRANCH   7   8
ATOM      8  C   UNL     1      60.103  20.787  49.946  1.00  0.00     0.000 C 
BRANCH   8   9
ATOM      9  C   UNL     1      60.261  19.293  50.269  1.00  0.00     0.000 C 
BRANCH   9  10
ATOM     10  C   UNL     1      59.028  18.467  49.864  1.00  0.00     0.006 C 
BRANCH  10  11
ATOM     11  C   UNL     1      58.324  17.841  51.075  1.00  0.00     0.053 C 
BRANCH  11  12
ATOM     12  C   UNL     1      57.193  18.692  51.564  1.00  0.00     0.041 C 
ATOM     13  O   UNL     1      57.425  19.704  52.276  1.00  0.00    -0.550 OA
ATOM     14  O   UNL     1      55.884  18.385  51.210  1.00  0.00    -0.550 OA
ENDBRANCH  11  12
ENDBRANCH  10  11
ENDBRANCH   9  10
ENDBRANCH   8   9
ENDBRANCH   7   8
ENDBRANCH   6   7
ENDBRANCH   5   6
ENDBRANCH   4   5
ENDBRANCH   3   4
ENDBRANCH   2   3
ENDBRANCH   1   2
BRANCH   1  15
ATOM     15  C   UNL     1      58.202  25.305  51.201  1.00  0.00     0.000 C 
BRANCH  15  16
ATOM     16  C   UNL     1      58.434  26.247  50.007  1.00  0.00     0.000 C 
BRANCH  16  17
ATOM     17  C   UNL     1      59.872  26.796  49.947  1.00  0.00     0.000 C 
BRANCH  17  18
ATOM     18  C   UNL     1      59.990  28.331  49.942  1.00  0.00    -0.000 C 
BRANCH  18  19
ATOM     19  C   UNL     1      58.632  29.037  50.102  1.00  0.00    -0.000 C 
BRANCH  19  20
ATOM     20  C   UNL     1      58.349  29.450  51.556  1.00  0.00    -0.000 C 
BRANCH  20  21
ATOM     21  C   UNL     1      56.973  28.965  52.047  1.00  0.00    -0.000 C 
BRANCH  21  22
ATOM     22  C   UNL     1      55.850  29.235  51.031  1.00  0.00    -0.000 C 
BRANCH  22  23
ATOM     23  C   UNL     1      55.055  27.988  50.593  1.00  0.00    -0.000 C 
BRANCH  23  24
ATOM     24  C   UNL     1      54.997  26.878  51.664  1.00  0.00    -0.000 C 
BRANCH  24  25
ATOM     25  C   UNL     1      54.340  25.593  51.138  1.00  0.00    -0.003 C 
ATOM     26  C   UNL     1      54.291  25.583  49.613  1.00  0.00     0.004 C 
ENDBRANCH  24  25
ENDBRANCH  23  24
ENDBRANCH  22  23
ENDBRANCH  21  22
ENDBRANCH  20  21
ENDBRANCH  19  20
ENDBRANCH  18  19
ENDBRANCH  17  18
ENDBRANCH  16  17
ENDBRANCH  15  16
ENDBRANCH   1  15
TORSDOF 22
ENDMDL
MODEL 2
REMARK VINA RESULT:    -3.519      1.888      3.938
REMARK INTER + INTRA:         -11.191
REMARK INTER:                  -7.635
REMARK INTRA:                  -3.557
REMARK UNBOUND:                -3.147
REMARK SMILES CCCCCCCCCCCCCCCCCCCCCCCC(=O)[O-]
REMARK SMILES IDX 13 1 14 2 15 3 16 4 17 5 18 6 19 7 20 8 21 9 22 10 23 11
REMARK SMILES IDX 24 12 25 13 26 14 12 15 11 16 10 17 9 18 8 19 7 20 6 21 5 22
REMARK SMILES IDX 4 23 3 24 2 25 1 26
REMARK H PARENT
REMARK Flexibility Score: inf
ROOT
ATOM      1  C   UNL     1      61.444  22.944  52.679  1.00  0.00     0.000 C 
ENDROOT
BRANCH   1   2
ATOM      2  C   UNL     1      62.207  22.672  51.371  1.00  0.00     0.000 C 
BRANCH   2   3
ATOM      3  C   UNL     1      61.315  22.828  50.128  1.00  0.00     0.000 C 
BRANCH   3   4
ATOM      4  C   UNL     1      61.182  21.523  49.328  1.00  0.00     0.000 C 
BRANCH   4   5
ATOM      5  C   UNL     1      60.177  20.575  49.993  1.00  0.00     0.000 C 
BRANCH   5   6
ATOM      6  C   UNL     1      60.835  19.233  50.351  1.00  0.00     0.000 C 
BRANCH   6   7
ATOM      7  C   UNL     1      61.363  19.200  51.794  1.00  0.00     0.000 C 
BRANCH   7   8
ATOM      8  C   UNL     1      60.243  19.346  52.840  1.00  0.00     0.000 C 
BRANCH   8   9
ATOM      9  C   UNL     1      59.440  18.049  53.030  1.00  0.00     0.000 C 
BRANCH   9  10
ATOM     10  C   UNL     1      57.931  18.307  53.183  1.00  0.00     0.006 C 
BRANCH  10  11
ATOM     11  C   UNL     1      57.390  19.251  52.102  1.00  0.00     0.053 C 
BRANCH  11  12
ATOM     12  C   UNL     1      56.709  18.502  50.998  1.00  0.00     0.041 C 
ATOM     13  O   UNL     1      57.345  17.648  50.327  1.00  0.00    -0.550 OA
ATOM     14  O   UNL     1      55.363  18.724  50.730  1.00  0.00    -0.550 OA
ENDBRANCH  11  12
ENDBRANCH  10  11
ENDBRANCH   9  10
ENDBRANCH   8   9
ENDBRANCH   7   8
ENDBRANCH   6   7
ENDBRANCH   5   6
ENDBRANCH   4   5
ENDBRANCH   3   4
ENDBRANCH   2   3
ENDBRANCH   1   2
BRANCH   1  15
ATOM     15  C   UNL     1      59.995  23.399  52.441  1.00  0.00     0.000 C 
BRANCH  15  16
ATOM     16  C   UNL     1      59.610  24.626  53.286  1.00  0.00     0.000 C 
BRANCH  16  17
ATOM     17  C   UNL     1      60.825  25.303  53.945  1.00  0.00     0.000 C 
BRANCH  17  18
ATOM     18  C   UNL     1      60.674  26.814  54.206  1.00  0.00    -0.000 C 
BRANCH  18  19
ATOM     19  C   UNL     1      61.147  27.676  53.022  1.00  0.00    -0.000 C 
BRANCH  19  20
ATOM     20  C   UNL     1      62.258  26.999  52.203  1.00  0.00    -0.000 C 
BRANCH  20  21
ATOM     21  C   UNL     1      62.029  27.122  50.687  1.00  0.00    -0.000 C 
BRANCH  21  22
ATOM     22  C   UNL     1      60.893  26.216  50.180  1.00  0.00    -0.000 C 
BRANCH  22  23
ATOM     23  C   UNL     1      59.556  26.935  49.912  1.00  0.00    -0.000 C 
BRANCH  23  24
ATOM     24  C   UNL     1      59.711  28.438  49.594  1.00  0.00    -0.000 C 
BRANCH  24  25
ATOM     25  C   UNL     1      58.493  29.258  50.046  1.00  0.00    -0.003 C 
ATOM     26  C   UNL     1      57.537  28.412  50.880  1.00  0.00     0.004 C 
ENDBRANCH  24  25
ENDBRANCH  23  24
ENDBRANCH  22  23
ENDBRANCH  21  22
ENDBRANCH  20  21
ENDBRANCH  19  20
ENDBRANCH  18  19
ENDBRANCH  17  18
ENDBRANCH  16  17
ENDBRANCH  15  16
ENDBRANCH   1  15
TORSDOF 22
ENDMDL
MODEL 3
REMARK VINA RESULT:    -3.483     11.753     14.613
REMARK INTER + INTRA:         -11.109
REMARK INTER:                  -6.487
REMARK INTRA:                  -4.622
REMARK UNBOUND:                -3.147
REMARK SMILES CCCCCCCCCCCCCCCCCCCCCCCC(=O)[O-]
REMARK SMILES IDX 13 1 14 2 15 3 16 4 17 5 18 6 19 7 20 8 21 9 22 10 23 11
REMARK SMILES IDX 24 12 25 13 26 14 12 15 11 16 10 17 9 18 8 19 7 20 6 21 5 22
REMARK SMILES IDX 4 23 3 24 2 25 1 26
REMARK H PARENT
REMARK Flexibility Score: inf
ROOT
ATOM      1  C   UNL     1      64.052  36.113  57.742  1.00  0.00     0.000 C 
ENDROOT
BRANCH   1   2
ATOM      2  C   UNL     1      64.921  35.068  58.463  1.00  0.00     0.000 C 
BRANCH   2   3
ATOM      3  C   UNL     1      65.581  35.630  59.734  1.00  0.00     0.000 C 
BRANCH   3   4
ATOM      4  C   UNL     1      64.776  35.322  61.005  1.00  0.00     0.000 C 
BRANCH   4   5
ATOM      5  C   UNL     1      63.825  34.141  60.776  1.00  0.00     0.000 C 
BRANCH   5   6
ATOM      6  C   UNL     1      62.357  34.591  60.842  1.00  0.00     0.000 C 
BRANCH   6   7
ATOM      7  C   UNL     1      62.211  36.098  61.103  1.00  0.00     0.000 C 
BRANCH   7   8
ATOM      8  C   UNL     1      61.131  36.752  60.223  1.00  0.00     0.000 C 
BRANCH   8   9
ATOM      9  C   UNL     1      60.133  35.731  59.656  1.00  0.00     0.000 C 
BRANCH   9  10
ATOM     10  C   UNL     1      59.228  36.332  58.566  1.00  0.00     0.006 C 
BRANCH  10  11
ATOM     11  C   UNL     1      59.060  35.392  57.366  1.00  0.00     0.053 C 
BRANCH  11  12
ATOM     12  C   UNL     1      57.619  35.089  57.092  1.00  0.00     0.041 C 
ATOM     13  O   UNL     1      56.771  35.154  58.020  1.00  0.00    -0.550 OA
ATOM     14  O   UNL     1      57.205  34.766  55.805  1.00  0.00    -0.550 OA
ENDBRANCH  11  12
ENDBRANCH  10  11
ENDBRANCH   9  10
ENDBRANCH   8   9
ENDBRANCH   7   8
ENDBRANCH   6   7
ENDBRANCH   5   6
ENDBRANCH   4   5
ENDBRANCH   3   4
ENDBRANCH   2   3
ENDBRANCH   1   2
BRANCH   1  15
ATOM     15  C   UNL     1      62.776  35.510  57.135  1.00  0.00     0.000 C 
BRANCH  15  16
ATOM     16  C   UNL     1      63.042  34.203  56.368  1.00  0.00     0.000 C 
BRANCH  16  17
ATOM     17  C   UNL     1      61.974  33.126  56.631  1.00  0.00     0.000 C 
BRANCH  17  18
ATOM     18  C   UNL     1      62.005  32.498  58.037  1.00  0.00    -0.000 C 
BRANCH  18  19
ATOM     19  C   UNL     1      60.600  32.245  58.612  1.00  0.00    -0.000 C 
BRANCH  19  20
ATOM     20  C   UNL     1      60.533  30.969  59.467  1.00  0.00    -0.000 C 
BRANCH  20  21
ATOM     21  C   UNL     1      60.721  31.256  60.967  1.00  0.00    -0.000 C 
BRANCH  21  22
ATOM     22  C   UNL     1      61.657  30.246  61.653  1.00  0.00    -0.000 C 
BRANCH  22  23
ATOM     23  C   UNL     1      62.699  29.590  60.726  1.00  0.00    -0.000 C 
BRANCH  23  24
ATOM     24  C   UNL     1      63.981  30.430  60.535  1.00  0.00    -0.000 C 
BRANCH  24  25
ATOM     25  C   UNL     1      64.634  30.194  59.165  1.00  0.00    -0.003 C 
ATOM     26  C   UNL     1      65.409  31.425  58.704  1.00  0.00     0.004 C 
ENDBRANCH  24  25
ENDBRANCH  23  24
ENDBRANCH  22  23
ENDBRANCH  21  22
ENDBRANCH  20  21
ENDBRANCH  19  20
ENDBRANCH  18  19
ENDBRANCH  17  18
ENDBRANCH  16  17
ENDBRANCH  15  16
ENDBRANCH   1  15
TORSDOF 22
ENDMDL
MODEL 4
REMARK VINA RESULT:    -3.478     12.147     13.735
REMARK INTER + INTRA:         -11.099
REMARK INTER:                  -7.578
REMARK INTRA:                  -3.521
REMARK UNBOUND:                -3.147
REMARK SMILES CCCCCCCCCCCCCCCCCCCCCCCC(=O)[O-]
REMARK SMILES IDX 13 1 14 2 15 3 16 4 17 5 18 6 19 7 20 8 21 9 22 10 23 11
REMARK SMILES IDX 24 12 25 13 26 14 12 15 11 16 10 17 9 18 8 19 7 20 6 21 5 22
REMARK SMILES IDX 4 23 3 24 2 25 1 26
REMARK H PARENT
REMARK Flexibility Score: inf
ROOT
ATOM      1  C   UNL     1      61.193  31.670  59.223  1.00  0.00     0.000 C 
ENDROOT
BRANCH   1   2
ATOM      2  C   UNL     1      61.008  31.999  60.715  1.00  0.00     0.000 C 
BRANCH   2   3
ATOM      3  C   UNL     1      60.726  30.746  61.561  1.00  0.00     0.000 C 
BRANCH   3   4
ATOM      4  C   UNL     1      60.822  29.447  60.746  1.00  0.00     0.000 C 
BRANCH   4   5
ATOM      5  C   UNL     1      61.973  28.570  61.250  1.00  0.00     0.000 C 
BRANCH   5   6
ATOM      6  C   UNL     1      63.309  29.329  61.209  1.00  0.00     0.000 C 
BRANCH   6   7
ATOM      7  C   UNL     1      64.317  28.699  60.235  1.00  0.00     0.000 C 
BRANCH   7   8
ATOM      8  C   UNL     1      65.730  29.295  60.376  1.00  0.00     0.000 C 
BRANCH   8   9
ATOM      9  C   UNL     1      66.748  28.627  59.439  1.00  0.00     0.000 C 
BRANCH   9  10
ATOM     10  C   UNL     1      67.444  27.418  60.089  1.00  0.00     0.006 C 
BRANCH  10  11
ATOM     11  C   UNL     1      68.232  27.807  61.346  1.00  0.00     0.053 C 
BRANCH  11  12
ATOM     12  C   UNL     1      69.640  28.202  61.021  1.00  0.00     0.041 C 
ATOM     13  O   UNL     1      70.488  27.324  60.712  1.00  0.00    -0.550 OA
ATOM     14  O   UNL     1      70.009  29.542  61.030  1.00  0.00    -0.550 OA
ENDBRANCH  11  12
ENDBRANCH  10  11
ENDBRANCH   9  10
ENDBRANCH   8   9
ENDBRANCH   7   8
ENDBRANCH   6   7
ENDBRANCH   5   6
ENDBRANCH   4   5
ENDBRANCH   3   4
ENDBRANCH   2   3
ENDBRANCH   1   2
BRANCH   1  15
ATOM     15  C   UNL     1      62.590  32.041  58.700  1.00  0.00     0.000 C 
BRANCH  15  16
ATOM     16  C   UNL     1      63.495  32.636  59.793  1.00  0.00     0.000 C 
BRANCH  16  17
ATOM     17  C   UNL     1      64.543  33.616  59.235  1.00  0.00     0.000 C 
BRANCH  17  18
ATOM     18  C   UNL     1      64.675  34.945  60.003  1.00  0.00    -0.000 C 
BRANCH  18  19
ATOM     19  C   UNL     1      63.744  35.026  61.225  1.00  0.00    -0.000 C 
BRANCH  19  20
ATOM     20  C   UNL     1      63.251  36.456  61.499  1.00  0.00    -0.000 C 
BRANCH  20  21
ATOM     21  C   UNL     1      61.861  36.725  60.898  1.00  0.00    -0.000 C 
BRANCH  21  22
ATOM     22  C   UNL     1      61.111  35.432  60.531  1.00  0.00    -0.000 C 
BRANCH  22  23
ATOM     23  C   UNL     1      60.617  35.358  59.072  1.00  0.00    -0.000 C 
BRANCH  23  24
ATOM     24  C   UNL     1      61.660  35.832  58.037  1.00  0.00    -0.000 C 
BRANCH  24  25
ATOM     25  C   UNL     1      61.296  35.409  56.606  1.00  0.00    -0.003 C 
ATOM     26  C   UNL     1      62.255  34.344  56.085  1.00  0.00     0.004 C 
ENDBRANCH  24  25
ENDBRANCH  23  24
ENDBRANCH  22  23
ENDBRANCH  21  22
ENDBRANCH  20  21
ENDBRANCH  19  20
ENDBRANCH  18  19
ENDBRANCH  17  18
ENDBRANCH  16  17
ENDBRANCH  15  16
ENDBRANCH   1  15
TORSDOF 22
ENDMDL
MODEL 5
REMARK VINA RESULT:    -3.436      5.065      8.710
REMARK INTER + INTRA:         -11.003
REMARK INTER:                  -6.738
REMARK INTRA:                  -4.265
REMARK UNBOUND:                -3.147
REMARK SMILES CCCCCCCCCCCCCCCCCCCCCCCC(=O)[O-]
REMARK SMILES IDX 13 1 14 2 15 3 16 4 17 5 18 6 19 7 20 8 21 9 22 10 23 11
REMARK SMILES IDX 24 12 25 13 26 14 12 15 11 16 10 17 9 18 8 19 7 20 6 21 5 22
REMARK SMILES IDX 4 23 3 24 2 25 1 26
REMARK H PARENT
REMARK Flexibility Score: inf
ROOT
ATOM      1  C   UNL     1      57.141  25.813  50.797  1.00  0.00     0.000 C 
ENDROOT
BRANCH   1   2
ATOM      2  C   UNL     1      56.249  25.793  52.051  1.00  0.00     0.000 C 
BRANCH   2   3
ATOM      3  C   UNL     1      54.919  26.535  51.837  1.00  0.00     0.000 C 
BRANCH   3   4
ATOM      4  C   UNL     1      54.864  27.275  50.492  1.00  0.00     0.000 C 
BRANCH   4   5
ATOM      5  C   UNL     1      53.419  27.632  50.124  1.00  0.00     0.000 C 
BRANCH   5   6
ATOM      6  C   UNL     1      53.121  29.111  50.419  1.00  0.00     0.000 C 
BRANCH   6   7
ATOM      7  C   UNL     1      54.336  29.855  50.996  1.00  0.00     0.000 C 
BRANCH   7   8
ATOM      8  C   UNL     1      54.001  30.630  52.283  1.00  0.00     0.000 C 
BRANCH   8   9
ATOM      9  C   UNL     1      54.729  30.071  53.516  1.00  0.00     0.000 C 
BRANCH   9  10
ATOM     10  C   UNL     1      54.555  30.963  54.759  1.00  0.00     0.006 C 
BRANCH  10  11
ATOM     11  C   UNL     1      55.900  31.372  55.372  1.00  0.00     0.053 C 
BRANCH  11  12
ATOM     12  C   UNL     1      56.478  32.577  54.696  1.00  0.00     0.041 C 
ATOM     13  O   UNL     1      57.464  32.457  53.923  1.00  0.00    -0.550 OA
ATOM     14  O   UNL     1      55.909  33.830  54.895  1.00  0.00    -0.550 OA
ENDBRANCH  11  12
ENDBRANCH  10  11
ENDBRANCH   9  10
ENDBRANCH   8   9
ENDBRANCH   7   8
ENDBRANCH   6   7
ENDBRANCH   5   6
ENDBRANCH   4   5
ENDBRANCH   3   4
ENDBRANCH   2   3
ENDBRANCH   1   2
BRANCH   1  15
ATOM     15  C   UNL     1      58.559  25.284  51.065  1.00  0.00     0.000 C 
BRANCH  15  16
ATOM     16  C   UNL     1      59.003  25.488  52.524  1.00  0.00     0.000 C 
BRANCH  16  17
ATOM     17  C   UNL     1      60.455  25.985  52.644  1.00  0.00     0.000 C 
BRANCH  17  18
ATOM     18  C   UNL     1      61.154  26.302  51.308  1.00  0.00    -0.000 C 
BRANCH  18  19
ATOM     19  C   UNL     1      61.976  27.601  51.355  1.00  0.00    -0.000 C 
BRANCH  19  20
ATOM     20  C   UNL     1      61.398  28.701  50.450  1.00  0.00    -0.000 C 
BRANCH  20  21
ATOM     21  C   UNL     1      60.173  28.220  49.651  1.00  0.00    -0.000 C 
BRANCH  21  22
ATOM     22  C   UNL     1      59.053  29.273  49.588  1.00  0.00    -0.000 C 
BRANCH  22  23
ATOM     23  C   UNL     1      57.999  29.171  50.708  1.00  0.00    -0.000 C 
BRANCH  23  24
ATOM     24  C   UNL     1      58.491  29.694  52.075  1.00  0.00    -0.000 C 
BRANCH  24  25
ATOM     25  C   UNL     1      57.986  28.835  53.244  1.00  0.00    -0.003 C 
ATOM     26  C   UNL     1      58.777  29.115  54.518  1.00  0.00     0.004 C 
ENDBRANCH  24  25
ENDBRANCH  23  24
ENDBRANCH  22  23
ENDBRANCH  21  22
ENDBRANCH  20  21
ENDBRANCH  19  20
ENDBRANCH  18  19
ENDBRANCH  17  18
ENDBRANCH  16  17
ENDBRANCH  15  16
ENDBRANCH   1  15
TORSDOF 22
ENDMDL
MODEL 6
REMARK VINA RESULT:    -3.412     11.038     13.207
REMARK INTER + INTRA:         -10.946
REMARK INTER:                  -6.383
REMARK INTRA:                  -4.563
REMARK UNBOUND:                -3.147
REMARK SMILES CCCCCCCCCCCCCCCCCCCCCCCC(=O)[O-]
REMARK SMILES IDX 13 1 14 2 15 3 16 4 17 5 18 6 19 7 20 8 21 9 22 10 23 11
REMARK SMILES IDX 24 12 25 13 26 14 12 15 11 16 10 17 9 18 8 19 7 20 6 21 5 22
REMARK SMILES IDX 4 23 3 24 2 25 1 26
REMARK H PARENT
REMARK Flexibility Score: inf
ROOT
ATOM      1  C   UNL     1      64.026  29.822  59.749  1.00  0.00     0.000 C 
ENDROOT
BRANCH   1   2
ATOM      2  C   UNL     1      63.465  29.579  61.162  1.00  0.00     0.000 C 
BRANCH   2   3
ATOM      3  C   UNL     1      62.210  28.690  61.148  1.00  0.00     0.000 C 
BRANCH   3   4
ATOM      4  C   UNL     1      60.934  29.472  60.799  1.00  0.00     0.000 C 
BRANCH   4   5
ATOM      5  C   UNL     1      60.867  30.786  61.585  1.00  0.00     0.000 C 
BRANCH   5   6
ATOM      6  C   UNL     1      60.764  31.993  60.639  1.00  0.00     0.000 C 
BRANCH   6   7
ATOM      7  C   UNL     1      60.549  31.579  59.175  1.00  0.00     0.000 C 
BRANCH   7   8
ATOM      8  C   UNL     1      61.432  32.376  58.197  1.00  0.00     0.000 C 
BRANCH   8   9
ATOM      9  C   UNL     1      61.795  31.571  56.939  1.00  0.00     0.000 C 
BRANCH   9  10
ATOM     10  C   UNL     1      61.920  32.458  55.687  1.00  0.00     0.006 C 
BRANCH  10  11
ATOM     11  C   UNL     1      62.269  33.910  56.037  1.00  0.00     0.053 C 
BRANCH  11  12
ATOM     12  C   UNL     1      62.264  34.791  54.825  1.00  0.00     0.041 C 
ATOM     13  O   UNL     1      63.220  34.748  54.007  1.00  0.00    -0.550 OA
ATOM     14  O   UNL     1      61.189  35.639  54.583  1.00  0.00    -0.550 OA
ENDBRANCH  11  12
ENDBRANCH  10  11
ENDBRANCH   9  10
ENDBRANCH   8   9
ENDBRANCH   7   8
ENDBRANCH   6   7
ENDBRANCH   5   6
ENDBRANCH   4   5
ENDBRANCH   3   4
ENDBRANCH   2   3
ENDBRANCH   1   2
BRANCH   1  15
ATOM     15  C   UNL     1      64.648  31.218  59.588  1.00  0.00     0.000 C 
BRANCH  15  16
ATOM     16  C   UNL     1      64.235  32.186  60.711  1.00  0.00     0.000 C 
BRANCH  16  17
ATOM     17  C   UNL     1      64.125  33.646  60.232  1.00  0.00     0.000 C 
BRANCH  17  18
ATOM     18  C   UNL     1      64.156  34.707  61.348  1.00  0.00    -0.000 C 
BRANCH  18  19
ATOM     19  C   UNL     1      63.017  35.734  61.230  1.00  0.00    -0.000 C 
BRANCH  19  20
ATOM     20  C   UNL     1      62.248  35.614  59.904  1.00  0.00    -0.000 C 
BRANCH  20  21
ATOM     21  C   UNL     1      60.826  36.196  59.994  1.00  0.00    -0.000 C 
BRANCH  21  22
ATOM     22  C   UNL     1      59.798  35.384  59.187  1.00  0.00    -0.000 C 
BRANCH  22  23
ATOM     23  C   UNL     1      59.586  35.862  57.736  1.00  0.00    -0.000 C 
BRANCH  23  24
ATOM     24  C   UNL     1      58.299  35.315  57.082  1.00  0.00    -0.000 C 
BRANCH  24  25
ATOM     25  C   UNL     1      58.516  33.943  56.425  1.00  0.00    -0.003 C 
ATOM     26  C   UNL     1      57.727  32.855  57.145  1.00  0.00     0.004 C 
ENDBRANCH  24  25
ENDBRANCH  23  24
ENDBRANCH  22  23
ENDBRANCH  21  22
ENDBRANCH  20  21
ENDBRANCH  19  20
ENDBRANCH  18  19
ENDBRANCH  17  18
ENDBRANCH  16  17
ENDBRANCH  15  16
ENDBRANCH   1  15
TORSDOF 22
ENDMDL
MODEL 7
REMARK VINA RESULT:    -3.382      9.821     12.844
REMARK INTER + INTRA:         -10.878
REMARK INTER:                  -6.258
REMARK INTRA:                  -4.620
REMARK UNBOUND:                -3.147
REMARK SMILES CCCCCCCCCCCCCCCCCCCCCCCC(=O)[O-]
REMARK SMILES IDX 13 1 14 2 15 3 16 4 17 5 18 6 19 7 20 8 21 9 22 10 23 11
REMARK SMILES IDX 24 12 25 13 26 14 12 15 11 16 10 17 9 18 8 19 7 20 6 21 5 22
REMARK SMILES IDX 4 23 3 24 2 25 1 26
REMARK H PARENT
REMARK Flexibility Score: inf
ROOT
ATOM      1  C   UNL     1      64.868  30.808  60.105  1.00  0.00     0.000 C 
ENDROOT
BRANCH   1   2
ATOM      2  C   UNL     1      63.958  29.577  59.940  1.00  0.00     0.000 C 
BRANCH   2   3
ATOM      3  C   UNL     1      63.234  29.205  61.245  1.00  0.00     0.000 C 
BRANCH   3   4
ATOM      4  C   UNL     1      61.706  29.199  61.093  1.00  0.00     0.000 C 
BRANCH   4   5
ATOM      5  C   UNL     1      61.100  30.507  61.615  1.00  0.00     0.000 C 
BRANCH   5   6
ATOM      6  C   UNL     1      60.745  31.454  60.458  1.00  0.00     0.000 C 
BRANCH   6   7
ATOM      7  C   UNL     1      60.029  30.735  59.303  1.00  0.00     0.000 C 
BRANCH   7   8
ATOM      8  C   UNL     1      59.792  31.650  58.089  1.00  0.00     0.000 C 
BRANCH   8   9
ATOM      9  C   UNL     1      61.100  32.062  57.395  1.00  0.00     0.000 C 
BRANCH   9  10
ATOM     10  C   UNL     1      61.956  30.852  56.982  1.00  0.00     0.006 C 
BRANCH  10  11
ATOM     11  C   UNL     1      61.384  30.127  55.758  1.00  0.00     0.053 C 
BRANCH  11  12
ATOM     12  C   UNL     1      61.012  28.710  56.071  1.00  0.00     0.041 C 
ATOM     13  O   UNL     1      61.849  27.785  55.906  1.00  0.00    -0.550 OA
ATOM     14  O   UNL     1      59.751  28.415  56.576  1.00  0.00    -0.550 OA
ENDBRANCH  11  12
ENDBRANCH  10  11
ENDBRANCH   9  10
ENDBRANCH   8   9
ENDBRANCH   7   8
ENDBRANCH   6   7
ENDBRANCH   5   6
ENDBRANCH   4   5
ENDBRANCH   3   4
ENDBRANCH   2   3
ENDBRANCH   1   2
BRANCH   1  15
ATOM     15  C   UNL     1      64.180  32.118  59.690  1.00  0.00     0.000 C 
BRANCH  15  16
ATOM     16  C   UNL     1      64.959  32.879  58.602  1.00  0.00     0.000 C 
BRANCH  16  17
ATOM     17  C   UNL     1      64.093  33.913  57.859  1.00  0.00     0.000 C 
BRANCH  17  18
ATOM     18  C   UNL     1      64.610  35.363  57.915  1.00  0.00    -0.000 C 
BRANCH  18  19
ATOM     19  C   UNL     1      63.506  36.403  57.656  1.00  0.00    -0.000 C 
BRANCH  19  20
ATOM     20  C   UNL     1      62.120  35.762  57.472  1.00  0.00    -0.000 C 
BRANCH  20  21
ATOM     21  C   UNL     1      61.154  36.110  58.618  1.00  0.00    -0.000 C 
BRANCH  21  22
ATOM     22  C   UNL     1      61.019  34.976  59.649  1.00  0.00    -0.000 C 
BRANCH  22  23
ATOM     23  C   UNL     1      62.049  35.012  60.795  1.00  0.00    -0.000 C 
BRANCH  23  24
ATOM     24  C   UNL     1      62.460  36.439  61.219  1.00  0.00    -0.000 C 
BRANCH  24  25
ATOM     25  C   UNL     1      63.969  36.556  61.485  1.00  0.00    -0.003 C 
ATOM     26  C   UNL     1      64.609  35.181  61.648  1.00  0.00     0.004 C 
ENDBRANCH  24  25
ENDBRANCH  23  24
ENDBRANCH  22  23
ENDBRANCH  21  22
ENDBRANCH  20  21
ENDBRANCH  19  20
ENDBRANCH  18  19
ENDBRANCH  17  18
ENDBRANCH  16  17
ENDBRANCH  15  16
ENDBRANCH   1  15
TORSDOF 22
ENDMDL
MODEL 8
REMARK VINA RESULT:    -3.378     10.376     13.002
REMARK INTER + INTRA:         -10.871
REMARK INTER:                  -6.553
REMARK INTRA:                  -4.318
REMARK UNBOUND:                -3.147
REMARK SMILES CCCCCCCCCCCCCCCCCCCCCCCC(=O)[O-]
REMARK SMILES IDX 13 1 14 2 15 3 16 4 17 5 18 6 19 7 20 8 21 9 22 10 23 11
REMARK SMILES IDX 24 12 25 13 26 14 12 15 11 16 10 17 9 18 8 19 7 20 6 21 5 22
REMARK SMILES IDX 4 23 3 24 2 25 1 26
REMARK H PARENT
REMARK Flexibility Score: inf
ROOT
ATOM      1  C   UNL     1      65.180  31.114  58.815  1.00  0.00     0.000 C 
ENDROOT
BRANCH   1   2
ATOM      2  C   UNL     1      63.939  30.204  58.861  1.00  0.00     0.000 C 
BRANCH   2   3
ATOM      3  C   UNL     1      63.905  29.323  60.121  1.00  0.00     0.000 C 
BRANCH   3   4
ATOM      4  C   UNL     1      63.355  30.066  61.348  1.00  0.00     0.000 C 
BRANCH   4   5
ATOM      5  C   UNL     1      61.912  29.641  61.642  1.00  0.00     0.000 C 
BRANCH   5   6
ATOM      6  C   UNL     1      60.919  30.752  61.264  1.00  0.00     0.000 C 
BRANCH   6   7
ATOM      7  C   UNL     1      60.398  30.614  59.825  1.00  0.00     0.000 C 
BRANCH   7   8
ATOM      8  C   UNL     1      59.753  29.243  59.556  1.00  0.00     0.000 C 
BRANCH   8   9
ATOM      9  C   UNL     1      60.600  28.365  58.621  1.00  0.00     0.000 C 
BRANCH   9  10
ATOM     10  C   UNL     1      60.991  27.023  59.264  1.00  0.00     0.006 C 
BRANCH  10  11
ATOM     11  C   UNL     1      60.155  26.711  60.511  1.00  0.00     0.053 C 
BRANCH  11  12
ATOM     12  C   UNL     1      60.965  26.027  61.570  1.00  0.00     0.041 C 
ATOM     13  O   UNL     1      62.220  26.118  61.562  1.00  0.00    -0.550 OA
ATOM     14  O   UNL     1      60.332  25.316  62.583  1.00  0.00    -0.550 OA
ENDBRANCH  11  12
ENDBRANCH  10  11
ENDBRANCH   9  10
ENDBRANCH   8   9
ENDBRANCH   7   8
ENDBRANCH   6   7
ENDBRANCH   5   6
ENDBRANCH   4   5
ENDBRANCH   3   4
ENDBRANCH   2   3
ENDBRANCH   1   2
BRANCH   1  15
ATOM     15  C   UNL     1      64.822  32.609  58.786  1.00  0.00     0.000 C 
BRANCH  15  16
ATOM     16  C   UNL     1      63.324  32.866  59.030  1.00  0.00     0.000 C 
BRANCH  16  17
ATOM     17  C   UNL     1      63.046  33.547  60.383  1.00  0.00     0.000 C 
BRANCH  17  18
ATOM     18  C   UNL     1      64.289  33.808  61.255  1.00  0.00    -0.000 C 
BRANCH  18  19
ATOM     19  C   UNL     1      64.510  35.302  61.551  1.00  0.00    -0.000 C 
BRANCH  19  20
ATOM     20  C   UNL     1      65.505  35.957  60.580  1.00  0.00    -0.000 C 
BRANCH  20  21
ATOM     21  C   UNL     1      64.811  36.874  59.557  1.00  0.00    -0.000 C 
BRANCH  21  22
ATOM     22  C   UNL     1      64.624  36.202  58.186  1.00  0.00    -0.000 C 
BRANCH  22  23
ATOM     23  C   UNL     1      63.235  36.403  57.546  1.00  0.00    -0.000 C 
BRANCH  23  24
ATOM     24  C   UNL     1      62.225  37.124  58.465  1.00  0.00    -0.000 C 
BRANCH  24  25
ATOM     25  C   UNL     1      61.198  36.158  59.074  1.00  0.00    -0.003 C 
ATOM     26  C   UNL     1      61.032  36.401  60.571  1.00  0.00     0.004 C 
ENDBRANCH  24  25
ENDBRANCH  23  24
ENDBRANCH  22  23
ENDBRANCH  21  22
ENDBRANCH  20  21
ENDBRANCH  19  20
ENDBRANCH  18  19
ENDBRANCH  17  18
ENDBRANCH  16  17
ENDBRANCH  15  16
ENDBRANCH   1  15
TORSDOF 22
ENDMDL
MODEL 9
REMARK VINA RESULT:    -0.853      1.438      2.817
REMARK INTER + INTRA:          -5.097
REMARK INTER:                  -1.876
REMARK INTRA:                  -3.220
REMARK UNBOUND:                -3.147
REMARK SMILES CCCCCCCCCCCCCCCCCCCCCCCC(=O)[O-]
REMARK SMILES IDX 13 1 14 2 15 3 16 4 17 5 18 6 19 7 20 8 21 9 22 10 23 11
REMARK SMILES IDX 24 12 25 13 26 14 12 15 11 16 10 17 9 18 8 19 7 20 6 21 5 22
REMARK SMILES IDX 4 23 3 24 2 25 1 26
REMARK H PARENT
REMARK Flexibility Score: inf
ROOT
ATOM      1  C   UNL     1      59.984  27.536  49.697  1.00  0.00     0.000 C 
ENDROOT
BRANCH   1   2
ATOM      2  C   UNL     1      61.450  27.376  50.136  1.00  0.00     0.000 C 
BRANCH   2   3
ATOM      3  C   UNL     1      61.625  26.289  51.210  1.00  0.00     0.000 C 
BRANCH   3   4
ATOM      4  C   UNL     1      61.730  24.878  50.613  1.00  0.00     0.000 C 
BRANCH   4   5
ATOM      5  C   UNL     1      61.215  23.826  51.603  1.00  0.00     0.000 C 
BRANCH   5   6
ATOM      6  C   UNL     1      60.417  22.729  50.880  1.00  0.00     0.000 C 
BRANCH   6   7
ATOM      7  C   UNL     1      60.818  21.315  51.330  1.00  0.00     0.000 C 
BRANCH   7   8
ATOM      8  C   UNL     1      61.087  20.369  50.145  1.00  0.00     0.000 C 
BRANCH   8   9
ATOM      9  C   UNL     1      60.345  19.030  50.277  1.00  0.00     0.000 C 
BRANCH   9  10
ATOM     10  C   UNL     1      59.869  18.758  51.716  1.00  0.00     0.006 C 
BRANCH  10  11
ATOM     11  C   UNL     1      58.847  17.617  51.783  1.00  0.00     0.053 C 
BRANCH  11  12
ATOM     12  C   UNL     1      57.848  17.696  50.670  1.00  0.00     0.041 C 
ATOM     13  O   UNL     1      57.897  16.875  49.717  1.00  0.00    -0.550 OA
ATOM     14  O   UNL     1      56.844  18.656  50.700  1.00  0.00    -0.550 OA
ENDBRANCH  11  12
ENDBRANCH  10  11
ENDBRANCH   9  10
ENDBRANCH   8   9
ENDBRANCH   7   8
ENDBRANCH   6   7
ENDBRANCH   5   6
ENDBRANCH   4   5
ENDBRANCH   3   4
ENDBRANCH   2   3
ENDBRANCH   1   2
BRANCH   1  15
ATOM     15  C   UNL     1      59.508  28.998  49.730  1.00  0.00     0.000 C 
BRANCH  15  16
ATOM     16  C   UNL     1      58.060  29.140  50.230  1.00  0.00     0.000 C 
BRANCH  16  17
ATOM     17  C   UNL     1      57.971  29.354  51.752  1.00  0.00     0.000 C 
BRANCH  17  18
ATOM     18  C   UNL     1      59.318  29.337  52.498  1.00  0.00    -0.000 C 
BRANCH  18  19
ATOM     19  C   UNL     1      59.396  28.236  53.570  1.00  0.00    -0.000 C 
BRANCH  19  20
ATOM     20  C   UNL     1      58.179  27.295  53.541  1.00  0.00    -0.000 C 
BRANCH  20  21
ATOM     21  C   UNL     1      58.550  25.868  53.100  1.00  0.00    -0.000 C 
BRANCH  21  22
ATOM     22  C   UNL     1      57.796  25.420  51.837  1.00  0.00    -0.000 C 
BRANCH  22  23
ATOM     23  C   UNL     1      56.391  26.032  51.665  1.00  0.00    -0.000 C 
BRANCH  23  24
ATOM     24  C   UNL     1      55.946  26.167  50.193  1.00  0.00    -0.000 C 
BRANCH  24  25
ATOM     25  C   UNL     1      54.577  26.852  50.058  1.00  0.00    -0.003 C 
ATOM     26  C   UNL     1      54.560  28.198  50.776  1.00  0.00     0.004 C 
ENDBRANCH  24  25
ENDBRANCH  23  24
ENDBRANCH  22  23
ENDBRANCH  21  22
ENDBRANCH  20  21
ENDBRANCH  19  20
ENDBRANCH  18  19
ENDBRANCH  17  18
ENDBRANCH  16  17
ENDBRANCH  15  16
ENDBRANCH   1  15
TORSDOF 22
ENDMDL
