MODEL 1
REMARK VINA RESULT:     7.719      0.000      0.000
REMARK INTER + INTRA:          13.739
REMARK INTER:                  14.037
REMARK INTRA:                  -0.297
REMARK UNBOUND:                -0.297
REMARK SMILES CCCCCCCCCCCCCCCC(=O)[O-]
REMARK SMILES IDX 9 1 10 2 11 3 12 4 13 5 14 6 15 7 16 8 17 9 18 10 8 11 7 12
REMARK SMILES IDX 6 13 5 14 4 15 3 16 2 17 1 18
REMARK H PARENT
REMARK Flexibility Score: inf
ROOT
ATOM      1  C   UNL     1     -34.734  23.740   5.342  1.00  0.00     0.000 C 
ENDROOT
BRANCH   1   2
ATOM      2  C   UNL     1     -35.246  23.200   6.690  1.00  0.00     0.000 C 
BRANCH   2   3
ATOM      3  C   UNL     1     -36.709  23.583   6.972  1.00  0.00     0.000 C 
BRANCH   3   4
ATOM      4  C   UNL     1     -37.466  22.493   7.749  1.00  0.00     0.000 C 
BRANCH   4   5
ATOM      5  C   UNL     1     -37.962  21.356   6.843  1.00  0.00     0.000 C 
BRANCH   5   6
ATOM      6  C   UNL     1     -39.114  21.833   5.946  1.00  0.00     0.006 C 
BRANCH   6   7
ATOM      7  C   UNL     1     -38.613  22.424   4.621  1.00  0.00     0.053 C 
BRANCH   7   8
ATOM      8  C   UNL     1     -38.978  23.870   4.482  1.00  0.00     0.041 C 
ATOM      9  O   UNL     1     -39.122  24.380   3.340  1.00  0.00    -0.550 OA
ATOM     10  O   UNL     1     -39.125  24.663   5.613  1.00  0.00    -0.550 OA
ENDBRANCH   7   8
ENDBRANCH   6   7
ENDBRANCH   5   6
ENDBRANCH   4   5
ENDBRANCH   3   4
ENDBRANCH   2   3
ENDBRANCH   1   2
BRANCH   1  11
ATOM     11  C   UNL     1     -33.388  24.484   5.401  1.00  0.00     0.000 C 
BRANCH  11  12
ATOM     12  C   UNL     1     -33.172  25.229   6.731  1.00  0.00    -0.000 C 
BRANCH  12  13
ATOM     13  C   UNL     1     -31.717  25.145   7.222  1.00  0.00    -0.000 C 
BRANCH  13  14
ATOM     14  C   UNL     1     -31.004  23.872   6.733  1.00  0.00    -0.000 C 
BRANCH  14  15
ATOM     15  C   UNL     1     -29.775  23.519   7.587  1.00  0.00    -0.000 C 
BRANCH  15  16
ATOM     16  C   UNL     1     -28.466  24.072   7.001  1.00  0.00    -0.000 C 
BRANCH  16  17
ATOM     17  C   UNL     1     -28.245  25.526   7.433  1.00  0.00    -0.003 C 
ATOM     18  C   UNL     1     -27.669  26.358   6.290  1.00  0.00     0.004 C 
ENDBRANCH  16  17
ENDBRANCH  15  16
ENDBRANCH  14  15
ENDBRANCH  13  14
ENDBRANCH  12  13
ENDBRANCH  11  12
ENDBRANCH   1  11
TORSDOF 14
ENDMDL
MODEL 2
REMARK VINA RESULT:     8.917     12.504     14.645
REMARK INTER + INTRA:          15.919
REMARK INTER:                  16.572
REMARK INTRA:                  -0.654
REMARK UNBOUND:                -0.297
REMARK SMILES CCCCCCCCCCCCCCCC(=O)[O-]
REMARK SMILES IDX 9 1 10 2 11 3 12 4 13 5 14 6 15 7 16 8 17 9 18 10 8 11 7 12
REMARK SMILES IDX 6 13 5 14 4 15 3 16 2 17 1 18
REMARK H PARENT
REMARK Flexibility Score: inf
ROOT
ATOM      1  C   UNL     1     -27.765  31.340  -3.099  1.00  0.00     0.000 C 
ENDROOT
BRANCH   1   2
ATOM      2  C   UNL     1     -28.861  32.421  -3.143  1.00  0.00     0.000 C 
BRANCH   2   3
ATOM      3  C   UNL     1     -29.981  32.182  -2.115  1.00  0.00     0.000 C 
BRANCH   3   4
ATOM      4  C   UNL     1     -31.206  31.483  -2.728  1.00  0.00     0.000 C 
BRANCH   4   5
ATOM      5  C   UNL     1     -31.882  30.509  -1.751  1.00  0.00     0.000 C 
BRANCH   5   6
ATOM      6  C   UNL     1     -32.790  29.523  -2.502  1.00  0.00     0.006 C 
BRANCH   6   7
ATOM      7  C   UNL     1     -34.257  29.635  -2.066  1.00  0.00     0.053 C 
BRANCH   7   8
ATOM      8  C   UNL     1     -35.103  30.282  -3.120  1.00  0.00     0.041 C 
ATOM      9  O   UNL     1     -36.278  30.648  -2.851  1.00  0.00    -0.550 OA
ATOM     10  O   UNL     1     -34.607  30.449  -4.406  1.00  0.00    -0.550 OA
ENDBRANCH   7   8
ENDBRANCH   6   7
ENDBRANCH   5   6
ENDBRANCH   4   5
ENDBRANCH   3   4
ENDBRANCH   2   3
ENDBRANCH   1   2
BRANCH   1  11
ATOM     11  C   UNL     1     -26.496  31.658  -3.909  1.00  0.00     0.000 C 
BRANCH  11  12
ATOM     12  C   UNL     1     -26.402  30.853  -5.218  1.00  0.00    -0.000 C 
BRANCH  12  13
ATOM     13  C   UNL     1     -27.278  31.442  -6.336  1.00  0.00    -0.000 C 
BRANCH  13  14
ATOM     14  C   UNL     1     -27.110  30.694  -7.670  1.00  0.00    -0.000 C 
BRANCH  14  15
ATOM     15  C   UNL     1     -25.645  30.627  -8.130  1.00  0.00    -0.000 C 
BRANCH  15  16
ATOM     16  C   UNL     1     -25.373  31.488  -9.373  1.00  0.00    -0.000 C 
BRANCH  16  17
ATOM     17  C   UNL     1     -24.270  32.517  -9.095  1.00  0.00    -0.003 C 
ATOM     18  C   UNL     1     -22.889  31.867  -9.130  1.00  0.00     0.004 C 
ENDBRANCH  16  17
ENDBRANCH  15  16
ENDBRANCH  14  15
ENDBRANCH  13  14
ENDBRANCH  12  13
ENDBRANCH  11  12
ENDBRANCH   1  11
TORSDOF 14
ENDMDL
MODEL 3
REMARK VINA RESULT:     9.343     17.024     19.429
REMARK INTER + INTRA:          16.692
REMARK INTER:                  17.348
REMARK INTRA:                  -0.656
REMARK UNBOUND:                -0.297
REMARK SMILES CCCCCCCCCCCCCCCC(=O)[O-]
REMARK SMILES IDX 9 1 10 2 11 3 12 4 13 5 14 6 15 7 16 8 17 9 18 10 8 11 7 12
REMARK SMILES IDX 6 13 5 14 4 15 3 16 2 17 1 18
REMARK H PARENT
REMARK Flexibility Score: inf
ROOT
ATOM      1  C   UNL     1     -24.785  26.749  -7.244  1.00  0.00     0.000 C 
ENDROOT
BRANCH   1   2
ATOM      2  C   UNL     1     -23.346  27.293  -7.303  1.00  0.00     0.000 C 
BRANCH   2   3
ATOM      3  C   UNL     1     -22.538  26.991  -6.029  1.00  0.00     0.000 C 
BRANCH   3   4
ATOM      4  C   UNL     1     -21.158  26.385  -6.335  1.00  0.00     0.000 C 
BRANCH   4   5
ATOM      5  C   UNL     1     -20.279  26.253  -5.082  1.00  0.00     0.000 C 
BRANCH   5   6
ATOM      6  C   UNL     1     -19.005  25.450  -5.389  1.00  0.00     0.006 C 
BRANCH   6   7
ATOM      7  C   UNL     1     -19.009  24.875  -6.812  1.00  0.00     0.053 C 
BRANCH   7   8
ATOM      8  C   UNL     1     -19.427  23.436  -6.830  1.00  0.00     0.041 C 
ATOM      9  O   UNL     1     -19.213  22.727  -7.849  1.00  0.00    -0.550 OA
ATOM     10  O   UNL     1     -20.083  22.887  -5.736  1.00  0.00    -0.550 OA
ENDBRANCH   7   8
ENDBRANCH   6   7
ENDBRANCH   5   6
ENDBRANCH   4   5
ENDBRANCH   3   4
ENDBRANCH   2   3
ENDBRANCH   1   2
BRANCH   1  11
ATOM     11  C   UNL     1     -25.830  27.573  -8.018  1.00  0.00     0.000 C 
BRANCH  11  12
ATOM     12  C   UNL     1     -26.989  28.058  -7.129  1.00  0.00    -0.000 C 
BRANCH  12  13
ATOM     13  C   UNL     1     -27.625  29.358  -7.649  1.00  0.00    -0.000 C 
BRANCH  13  14
ATOM     14  C   UNL     1     -27.046  30.610  -6.967  1.00  0.00    -0.000 C 
BRANCH  14  15
ATOM     15  C   UNL     1     -25.671  31.006  -7.529  1.00  0.00    -0.000 C 
BRANCH  15  16
ATOM     16  C   UNL     1     -25.667  31.124  -9.061  1.00  0.00    -0.000 C 
BRANCH  16  17
ATOM     17  C   UNL     1     -24.741  32.258  -9.519  1.00  0.00    -0.003 C 
ATOM     18  C   UNL     1     -23.304  32.013  -9.066  1.00  0.00     0.004 C 
ENDBRANCH  16  17
ENDBRANCH  15  16
ENDBRANCH  14  15
ENDBRANCH  13  14
ENDBRANCH  12  13
ENDBRANCH  11  12
ENDBRANCH   1  11
TORSDOF 14
ENDMDL
MODEL 4
REMARK VINA RESULT:     9.380     16.936     18.498
REMARK INTER + INTRA:          16.760
REMARK INTER:                  17.420
REMARK INTRA:                  -0.660
REMARK UNBOUND:                -0.297
REMARK SMILES CCCCCCCCCCCCCCCC(=O)[O-]
REMARK SMILES IDX 9 1 10 2 11 3 12 4 13 5 14 6 15 7 16 8 17 9 18 10 8 11 7 12
REMARK SMILES IDX 6 13 5 14 4 15 3 16 2 17 1 18
REMARK H PARENT
REMARK Flexibility Score: inf
ROOT
ATOM      1  C   UNL     1     -24.001  26.817  -7.142  1.00  0.00     0.000 C 
ENDROOT
BRANCH   1   2
ATOM      2  C   UNL     1     -25.161  27.596  -7.787  1.00  0.00     0.000 C 
BRANCH   2   3
ATOM      3  C   UNL     1     -26.543  27.039  -7.404  1.00  0.00     0.000 C 
BRANCH   3   4
ATOM      4  C   UNL     1     -27.634  28.123  -7.392  1.00  0.00     0.000 C 
BRANCH   4   5
ATOM      5  C   UNL     1     -27.114  29.482  -6.901  1.00  0.00     0.000 C 
BRANCH   5   6
ATOM      6  C   UNL     1     -26.852  30.428  -8.083  1.00  0.00     0.006 C 
BRANCH   6   7
ATOM      7  C   UNL     1     -25.632  31.328  -7.849  1.00  0.00     0.053 C 
BRANCH   7   8
ATOM      8  C   UNL     1     -24.920  31.646  -9.129  1.00  0.00     0.041 C 
ATOM      9  O   UNL     1     -25.512  31.512 -10.232  1.00  0.00    -0.550 OA
ATOM     10  O   UNL     1     -23.593  32.056  -9.105  1.00  0.00    -0.550 OA
ENDBRANCH   7   8
ENDBRANCH   6   7
ENDBRANCH   5   6
ENDBRANCH   4   5
ENDBRANCH   3   4
ENDBRANCH   2   3
ENDBRANCH   1   2
BRANCH   1  11
ATOM     11  C   UNL     1     -22.690  27.607  -6.977  1.00  0.00     0.000 C 
BRANCH  11  12
ATOM     12  C   UNL     1     -21.595  26.809  -6.248  1.00  0.00    -0.000 C 
BRANCH  12  13
ATOM     13  C   UNL     1     -20.276  26.763  -7.037  1.00  0.00    -0.000 C 
BRANCH  13  14
ATOM     14  C   UNL     1     -19.205  25.902  -6.343  1.00  0.00    -0.000 C 
BRANCH  14  15
ATOM     15  C   UNL     1     -19.781  25.054  -5.198  1.00  0.00    -0.000 C 
BRANCH  15  16
ATOM     16  C   UNL     1     -19.600  23.545  -5.427  1.00  0.00    -0.000 C 
BRANCH  16  17
ATOM     17  C   UNL     1     -20.052  23.147  -6.837  1.00  0.00    -0.003 C 
ATOM     18  C   UNL     1     -18.876  22.646  -7.671  1.00  0.00     0.004 C 
ENDBRANCH  16  17
ENDBRANCH  15  16
ENDBRANCH  14  15
ENDBRANCH  13  14
ENDBRANCH  12  13
ENDBRANCH  11  12
ENDBRANCH   1  11
TORSDOF 14
ENDMDL
MODEL 5
REMARK VINA RESULT:     9.485     13.562     16.732
REMARK INTER + INTRA:          16.951
REMARK INTER:                  17.664
REMARK INTRA:                  -0.713
REMARK UNBOUND:                -0.297
REMARK SMILES CCCCCCCCCCCCCCCC(=O)[O-]
REMARK SMILES IDX 9 1 10 2 11 3 12 4 13 5 14 6 15 7 16 8 17 9 18 10 8 11 7 12
REMARK SMILES IDX 6 13 5 14 4 15 3 16 2 17 1 18
REMARK H PARENT
REMARK Flexibility Score: inf
ROOT
ATOM      1  C   UNL     1     -28.048  31.309  -3.209  1.00  0.00     0.000 C 
ENDROOT
BRANCH   1   2
ATOM      2  C   UNL     1     -26.698  31.665  -3.857  1.00  0.00     0.000 C 
BRANCH   2   3
ATOM      3  C   UNL     1     -26.390  30.818  -5.105  1.00  0.00     0.000 C 
BRANCH   3   4
ATOM      4  C   UNL     1     -26.981  31.423  -6.389  1.00  0.00     0.000 C 
BRANCH   4   5
ATOM      5  C   UNL     1     -27.282  30.362  -7.459  1.00  0.00     0.000 C 
BRANCH   5   6
ATOM      6  C   UNL     1     -26.401  30.569  -8.700  1.00  0.00     0.006 C 
BRANCH   6   7
ATOM      7  C   UNL     1     -24.914  30.701  -8.342  1.00  0.00     0.053 C 
BRANCH   7   8
ATOM      8  C   UNL     1     -24.293  31.907  -8.978  1.00  0.00     0.041 C 
ATOM      9  O   UNL     1     -25.021  32.821  -9.448  1.00  0.00    -0.550 OA
ATOM     10  O   UNL     1     -22.912  32.006  -9.081  1.00  0.00    -0.550 OA
ENDBRANCH   7   8
ENDBRANCH   6   7
ENDBRANCH   5   6
ENDBRANCH   4   5
ENDBRANCH   3   4
ENDBRANCH   2   3
ENDBRANCH   1   2
BRANCH   1  11
ATOM     11  C   UNL     1     -28.989  32.501  -2.956  1.00  0.00     0.000 C 
BRANCH  11  12
ATOM     12  C   UNL     1     -30.136  32.165  -1.986  1.00  0.00    -0.000 C 
BRANCH  12  13
ATOM     13  C   UNL     1     -31.153  31.185  -2.594  1.00  0.00    -0.000 C 
BRANCH  13  14
ATOM     14  C   UNL     1     -31.953  30.427  -1.520  1.00  0.00    -0.000 C 
BRANCH  14  15
ATOM     15  C   UNL     1     -33.317  29.939  -2.034  1.00  0.00    -0.000 C 
BRANCH  15  16
ATOM     16  C   UNL     1     -33.560  30.300  -3.508  1.00  0.00    -0.000 C 
BRANCH  16  17
ATOM     17  C   UNL     1     -35.060  30.351  -3.819  1.00  0.00    -0.003 C 
ATOM     18  C   UNL     1     -35.891  30.184  -2.549  1.00  0.00     0.004 C 
ENDBRANCH  16  17
ENDBRANCH  15  16
ENDBRANCH  14  15
ENDBRANCH  13  14
ENDBRANCH  12  13
ENDBRANCH  11  12
ENDBRANCH   1  11
TORSDOF 14
ENDMDL
MODEL 6
REMARK VINA RESULT:     9.659     16.561     19.738
REMARK INTER + INTRA:          17.267
REMARK INTER:                  17.329
REMARK INTRA:                  -0.062
REMARK UNBOUND:                -0.297
REMARK SMILES CCCCCCCCCCCCCCCC(=O)[O-]
REMARK SMILES IDX 9 1 10 2 11 3 12 4 13 5 14 6 15 7 16 8 17 9 18 10 8 11 7 12
REMARK SMILES IDX 6 13 5 14 4 15 3 16 2 17 1 18
REMARK H PARENT
REMARK Flexibility Score: inf
ROOT
ATOM      1  C   UNL     1     -22.241  29.232  -7.840  1.00  0.00     0.000 C 
ENDROOT
BRANCH   1   2
ATOM      2  C   UNL     1     -22.398  27.762  -7.410  1.00  0.00     0.000 C 
BRANCH   2   3
ATOM      3  C   UNL     1     -21.884  27.496  -5.985  1.00  0.00     0.000 C 
BRANCH   3   4
ATOM      4  C   UNL     1     -21.348  26.066  -5.807  1.00  0.00     0.000 C 
BRANCH   4   5
ATOM      5  C   UNL     1     -20.150  25.997  -4.847  1.00  0.00     0.000 C 
BRANCH   5   6
ATOM      6  C   UNL     1     -18.875  25.571  -5.591  1.00  0.00     0.006 C 
BRANCH   6   7
ATOM      7  C   UNL     1     -19.183  24.908  -6.940  1.00  0.00     0.053 C 
BRANCH   7   8
ATOM      8  C   UNL     1     -19.352  23.425  -6.806  1.00  0.00     0.041 C 
ATOM      9  O   UNL     1     -19.660  22.921  -5.694  1.00  0.00    -0.550 OA
ATOM     10  O   UNL     1     -19.134  22.598  -7.900  1.00  0.00    -0.550 OA
ENDBRANCH   7   8
ENDBRANCH   6   7
ENDBRANCH   5   6
ENDBRANCH   4   5
ENDBRANCH   3   4
ENDBRANCH   2   3
ENDBRANCH   1   2
BRANCH   1  11
ATOM     11  C   UNL     1     -23.557  30.018  -7.981  1.00  0.00     0.000 C 
BRANCH  11  12
ATOM     12  C   UNL     1     -23.413  31.278  -8.854  1.00  0.00    -0.000 C 
BRANCH  12  13
ATOM     13  C   UNL     1     -24.772  31.836  -9.310  1.00  0.00    -0.000 C 
BRANCH  13  14
ATOM     14  C   UNL     1     -25.957  31.050  -8.723  1.00  0.00    -0.000 C 
BRANCH  14  15
ATOM     15  C   UNL     1     -26.111  31.257  -7.208  1.00  0.00    -0.000 C 
BRANCH  15  16
ATOM     16  C   UNL     1     -27.316  30.503  -6.624  1.00  0.00    -0.000 C 
BRANCH  16  17
ATOM     17  C   UNL     1     -27.751  29.364  -7.554  1.00  0.00    -0.003 C 
ATOM     18  C   UNL     1     -27.854  28.043  -6.796  1.00  0.00     0.004 C 
ENDBRANCH  16  17
ENDBRANCH  15  16
ENDBRANCH  14  15
ENDBRANCH  13  14
ENDBRANCH  12  13
ENDBRANCH  11  12
ENDBRANCH   1  11
TORSDOF 14
ENDMDL
MODEL 7
REMARK VINA RESULT:     9.869     17.057     18.862
REMARK INTER + INTRA:          17.649
REMARK INTER:                  18.101
REMARK INTRA:                  -0.453
REMARK UNBOUND:                -0.297
REMARK SMILES CCCCCCCCCCCCCCCC(=O)[O-]
REMARK SMILES IDX 9 1 10 2 11 3 12 4 13 5 14 6 15 7 16 8 17 9 18 10 8 11 7 12
REMARK SMILES IDX 6 13 5 14 4 15 3 16 2 17 1 18
REMARK H PARENT
REMARK Flexibility Score: inf
ROOT
ATOM      1  C   UNL     1     -22.527  27.553  -6.522  1.00  0.00     0.000 C 
ENDROOT
BRANCH   1   2
ATOM      2  C   UNL     1     -22.183  28.755  -7.420  1.00  0.00     0.000 C 
BRANCH   2   3
ATOM      3  C   UNL     1     -23.430  29.475  -7.963  1.00  0.00     0.000 C 
BRANCH   3   4
ATOM      4  C   UNL     1     -23.095  30.827  -8.614  1.00  0.00     0.000 C 
BRANCH   4   5
ATOM      5  C   UNL     1     -24.303  31.459  -9.321  1.00  0.00     0.000 C 
BRANCH   5   6
ATOM      6  C   UNL     1     -25.411  31.802  -8.313  1.00  0.00     0.006 C 
BRANCH   6   7
ATOM      7  C   UNL     1     -26.646  30.908  -8.481  1.00  0.00     0.053 C 
BRANCH   7   8
ATOM      8  C   UNL     1     -27.017  30.224  -7.200  1.00  0.00     0.041 C 
ATOM      9  O   UNL     1     -27.561  29.089  -7.224  1.00  0.00    -0.550 OA
ATOM     10  O   UNL     1     -26.793  30.855  -5.983  1.00  0.00    -0.550 OA
ENDBRANCH   7   8
ENDBRANCH   6   7
ENDBRANCH   5   6
ENDBRANCH   4   5
ENDBRANCH   3   4
ENDBRANCH   2   3
ENDBRANCH   1   2
BRANCH   1  11
ATOM     11  C   UNL     1     -21.329  26.683  -6.101  1.00  0.00     0.000 C 
BRANCH  11  12
ATOM     12  C   UNL     1     -20.249  26.580  -7.193  1.00  0.00    -0.000 C 
BRANCH  12  13
ATOM     13  C   UNL     1     -18.942  25.960  -6.671  1.00  0.00    -0.000 C 
BRANCH  13  14
ATOM     14  C   UNL     1     -18.981  25.696  -5.155  1.00  0.00    -0.000 C 
BRANCH  14  15
ATOM     15  C   UNL     1     -19.197  24.211  -4.820  1.00  0.00    -0.000 C 
BRANCH  15  16
ATOM     16  C   UNL     1     -20.012  23.473  -5.893  1.00  0.00    -0.000 C 
BRANCH  16  17
ATOM     17  C   UNL     1     -19.140  22.455  -6.638  1.00  0.00    -0.003 C 
ATOM     18  C   UNL     1     -18.875  22.904  -8.073  1.00  0.00     0.004 C 
ENDBRANCH  16  17
ENDBRANCH  15  16
ENDBRANCH  14  15
ENDBRANCH  13  14
ENDBRANCH  12  13
ENDBRANCH  11  12
ENDBRANCH   1  11
TORSDOF 14
ENDMDL
MODEL 8
REMARK VINA RESULT:     9.972      1.238      2.430
REMARK INTER + INTRA:          17.836
REMARK INTER:                  15.859
REMARK INTRA:                   1.977
REMARK UNBOUND:                -0.297
REMARK SMILES CCCCCCCCCCCCCCCC(=O)[O-]
REMARK SMILES IDX 9 1 10 2 11 3 12 4 13 5 14 6 15 7 16 8 17 9 18 10 8 11 7 12
REMARK SMILES IDX 6 13 5 14 4 15 3 16 2 17 1 18
REMARK H PARENT
REMARK Flexibility Score: inf
ROOT
ATOM      1  C   UNL     1     -36.683  23.210   7.201  1.00  0.00     0.000 C 
ENDROOT
BRANCH   1   2
ATOM      2  C   UNL     1     -36.666  21.887   7.988  1.00  0.00     0.000 C 
BRANCH   2   3
ATOM      3  C   UNL     1     -38.018  21.153   7.957  1.00  0.00     0.000 C 
BRANCH   3   4
ATOM      4  C   UNL     1     -39.114  21.964   7.246  1.00  0.00     0.000 C 
BRANCH   4   5
ATOM      5  C   UNL     1     -38.914  23.481   7.386  1.00  0.00     0.000 C 
BRANCH   5   6
ATOM      6  C   UNL     1     -39.083  24.183   6.030  1.00  0.00     0.006 C 
BRANCH   6   7
ATOM      7  C   UNL     1     -39.095  23.191   4.859  1.00  0.00     0.053 C 
BRANCH   7   8
ATOM      8  C   UNL     1     -38.114  23.575   3.794  1.00  0.00     0.041 C 
ATOM      9  O   UNL     1     -36.933  23.138   3.834  1.00  0.00    -0.550 OA
ATOM     10  O   UNL     1     -38.492  24.442   2.777  1.00  0.00    -0.550 OA
ENDBRANCH   7   8
ENDBRANCH   6   7
ENDBRANCH   5   6
ENDBRANCH   4   5
ENDBRANCH   3   4
ENDBRANCH   2   3
ENDBRANCH   1   2
BRANCH   1  11
ATOM     11  C   UNL     1     -35.444  24.104   7.390  1.00  0.00     0.000 C 
BRANCH  11  12
ATOM     12  C   UNL     1     -34.201  23.570   6.657  1.00  0.00    -0.000 C 
BRANCH  12  13
ATOM     13  C   UNL     1     -33.915  24.332   5.352  1.00  0.00    -0.000 C 
BRANCH  13  14
ATOM     14  C   UNL     1     -32.828  25.408   5.526  1.00  0.00    -0.000 C 
BRANCH  14  15
ATOM     15  C   UNL     1     -32.027  25.233   6.826  1.00  0.00    -0.000 C 
BRANCH  15  16
ATOM     16  C   UNL     1     -30.953  24.140   6.720  1.00  0.00    -0.000 C 
BRANCH  16  17
ATOM     17  C   UNL     1     -29.844  24.360   7.756  1.00  0.00    -0.003 C 
ATOM     18  C   UNL     1     -28.463  24.233   7.119  1.00  0.00     0.004 C 
ENDBRANCH  16  17
ENDBRANCH  15  16
ENDBRANCH  14  15
ENDBRANCH  13  14
ENDBRANCH  12  13
ENDBRANCH  11  12
ENDBRANCH   1  11
TORSDOF 14
ENDMDL
