MODEL 1
REMARK VINA RESULT:    -3.807      0.000      0.000
REMARK INTER + INTRA:         -14.804
REMARK INTER:                  -9.594
REMARK INTRA:                  -5.209
REMARK UNBOUND:                -5.209
REMARK SMILES CCCCCCCCCCCCCCCCCCCCCCCCCCCC(=O)[O-]
REMARK SMILES IDX 15 1 16 2 17 3 18 4 19 5 20 6 21 7 22 8 23 9 24 10 25 11
REMARK SMILES IDX 26 12 27 13 28 14 29 15 30 16 14 17 13 18 12 19 11 20 10 21
REMARK SMILES IDX 9 22 8 23 7 24 6 25 5 26 4 27 3 28 2 29 1 30
REMARK H PARENT
REMARK Flexibility Score: inf
ROOT
ATOM      1  C   UNL     1      29.898  19.814  54.794  1.00  0.00     0.000 C 
ENDROOT
BRANCH   1   2
ATOM      2  C   UNL     1      29.518  20.995  55.696  1.00  0.00     0.000 C 
BRANCH   2   3
ATOM      3  C   UNL     1      29.182  20.519  57.114  1.00  0.00     0.000 C 
BRANCH   3   4
ATOM      4  C   UNL     1      27.998  19.540  57.103  1.00  0.00     0.000 C 
BRANCH   4   5
ATOM      5  C   UNL     1      28.234  18.308  57.992  1.00  0.00     0.000 C 
BRANCH   5   6
ATOM      6  C   UNL     1      29.092  17.233  57.303  1.00  0.00     0.000 C 
BRANCH   6   7
ATOM      7  C   UNL     1      28.290  15.959  56.975  1.00  0.00     0.000 C 
BRANCH   7   8
ATOM      8  C   UNL     1      26.765  16.104  57.136  1.00  0.00     0.000 C 
BRANCH   8   9
ATOM      9  C   UNL     1      26.025  16.104  55.787  1.00  0.00     0.000 C 
BRANCH   9  10
ATOM     10  C   UNL     1      25.466  17.488  55.407  1.00  0.00     0.000 C 
BRANCH  10  11
ATOM     11  C   UNL     1      26.429  18.390  54.611  1.00  0.00     0.000 C 
BRANCH  11  12
ATOM     12  C   UNL     1      25.903  18.744  53.210  1.00  0.00     0.006 C 
BRANCH  12  13
ATOM     13  C   UNL     1      26.816  19.739  52.481  1.00  0.00     0.053 C 
BRANCH  13  14
ATOM     14  C   UNL     1      26.032  20.700  51.641  1.00  0.00     0.041 C 
ATOM     15  O   UNL     1      25.864  21.887  52.025  1.00  0.00    -0.550 OA
ATOM     16  O   UNL     1      25.464  20.278  50.446  1.00  0.00    -0.550 OA
ENDBRANCH  13  14
ENDBRANCH  12  13
ENDBRANCH  11  12
ENDBRANCH  10  11
ENDBRANCH   9  10
ENDBRANCH   8   9
ENDBRANCH   7   8
ENDBRANCH   6   7
ENDBRANCH   5   6
ENDBRANCH   4   5
ENDBRANCH   3   4
ENDBRANCH   2   3
ENDBRANCH   1   2
BRANCH   1  17
ATOM     17  C   UNL     1      31.285  19.270  55.155  1.00  0.00     0.000 C 
BRANCH  17  18
ATOM     18  C   UNL     1      32.161  19.119  53.900  1.00  0.00     0.000 C 
BRANCH  18  19
ATOM     19  C   UNL     1      33.653  18.940  54.248  1.00  0.00     0.000 C 
BRANCH  19  20
ATOM     20  C   UNL     1      34.144  17.481  54.161  1.00  0.00     0.000 C 
BRANCH  20  21
ATOM     21  C   UNL     1      34.397  16.796  55.514  1.00  0.00     0.000 C 
BRANCH  21  22
ATOM     22  C   UNL     1      33.560  15.518  55.702  1.00  0.00    -0.000 C 
BRANCH  22  23
ATOM     23  C   UNL     1      32.049  15.801  55.769  1.00  0.00    -0.000 C 
BRANCH  23  24
ATOM     24  C   UNL     1      31.193  15.028  54.746  1.00  0.00    -0.000 C 
BRANCH  24  25
ATOM     25  C   UNL     1      30.835  15.814  53.468  1.00  0.00    -0.000 C 
BRANCH  25  26
ATOM     26  C   UNL     1      29.420  16.430  53.455  1.00  0.00    -0.000 C 
BRANCH  26  27
ATOM     27  C   UNL     1      28.270  15.422  53.277  1.00  0.00    -0.000 C 
BRANCH  27  28
ATOM     28  C   UNL     1      27.757  15.355  51.829  1.00  0.00    -0.000 C 
BRANCH  28  29
ATOM     29  C   UNL     1      28.197  16.568  50.992  1.00  0.00    -0.003 C 
ATOM     30  C   UNL     1      27.121  17.033  50.011  1.00  0.00     0.004 C 
ENDBRANCH  28  29
ENDBRANCH  27  28
ENDBRANCH  26  27
ENDBRANCH  25  26
ENDBRANCH  24  25
ENDBRANCH  23  24
ENDBRANCH  22  23
ENDBRANCH  21  22
ENDBRANCH  20  21
ENDBRANCH  19  20
ENDBRANCH  18  19
ENDBRANCH  17  18
ENDBRANCH   1  17
TORSDOF 26
ENDMDL
MODEL 2
REMARK VINA RESULT:    -3.676      1.586      3.937
REMARK INTER + INTRA:         -14.472
REMARK INTER:                  -9.278
REMARK INTRA:                  -5.194
REMARK UNBOUND:                -5.209
REMARK SMILES CCCCCCCCCCCCCCCCCCCCCCCCCCCC(=O)[O-]
REMARK SMILES IDX 15 1 16 2 17 3 18 4 19 5 20 6 21 7 22 8 23 9 24 10 25 11
REMARK SMILES IDX 26 12 27 13 28 14 29 15 30 16 14 17 13 18 12 19 11 20 10 21
REMARK SMILES IDX 9 22 8 23 7 24 6 25 5 26 4 27 3 28 2 29 1 30
REMARK H PARENT
REMARK Flexibility Score: inf
ROOT
ATOM      1  C   UNL     1      26.767  19.198  56.530  1.00  0.00     0.000 C 
ENDROOT
BRANCH   1   2
ATOM      2  C   UNL     1      26.861  18.031  57.519  1.00  0.00     0.000 C 
BRANCH   2   3
ATOM      3  C   UNL     1      28.312  17.794  57.955  1.00  0.00     0.000 C 
BRANCH   3   4
ATOM      4  C   UNL     1      29.006  16.775  57.038  1.00  0.00     0.000 C 
BRANCH   4   5
ATOM      5  C   UNL     1      28.028  15.756  56.432  1.00  0.00     0.000 C 
BRANCH   5   6
ATOM      6  C   UNL     1      28.016  15.785  54.894  1.00  0.00     0.000 C 
BRANCH   6   7
ATOM      7  C   UNL     1      29.070  16.748  54.313  1.00  0.00     0.000 C 
BRANCH   7   8
ATOM      8  C   UNL     1      28.545  17.678  53.203  1.00  0.00     0.000 C 
BRANCH   8   9
ATOM      9  C   UNL     1      27.009  17.664  53.098  1.00  0.00     0.000 C 
BRANCH   9  10
ATOM     10  C   UNL     1      26.390  19.074  53.146  1.00  0.00     0.000 C 
BRANCH  10  11
ATOM     11  C   UNL     1      26.896  20.050  52.067  1.00  0.00     0.000 C 
BRANCH  11  12
ATOM     12  C   UNL     1      25.922  21.210  51.801  1.00  0.00     0.006 C 
BRANCH  12  13
ATOM     13  C   UNL     1      25.077  20.981  50.541  1.00  0.00     0.053 C 
BRANCH  13  14
ATOM     14  C   UNL     1      23.679  20.559  50.878  1.00  0.00     0.041 C 
ATOM     15  O   UNL     1      22.734  21.388  50.811  1.00  0.00    -0.550 OA
ATOM     16  O   UNL     1      23.424  19.259  51.290  1.00  0.00    -0.550 OA
ENDBRANCH  13  14
ENDBRANCH  12  13
ENDBRANCH  11  12
ENDBRANCH  10  11
ENDBRANCH   9  10
ENDBRANCH   8   9
ENDBRANCH   7   8
ENDBRANCH   6   7
ENDBRANCH   5   6
ENDBRANCH   4   5
ENDBRANCH   3   4
ENDBRANCH   2   3
ENDBRANCH   1   2
BRANCH   1  17
ATOM     17  C   UNL     1      27.860  20.240  56.802  1.00  0.00     0.000 C 
BRANCH  17  18
ATOM     18  C   UNL     1      28.128  21.096  55.554  1.00  0.00     0.000 C 
BRANCH  18  19
ATOM     19  C   UNL     1      29.502  20.792  54.922  1.00  0.00     0.000 C 
BRANCH  19  20
ATOM     20  C   UNL     1      30.586  20.395  55.944  1.00  0.00     0.000 C 
BRANCH  20  21
ATOM     21  C   UNL     1      31.378  19.124  55.596  1.00  0.00     0.000 C 
BRANCH  21  22
ATOM     22  C   UNL     1      31.831  19.087  54.126  1.00  0.00    -0.000 C 
BRANCH  22  23
ATOM     23  C   UNL     1      33.346  18.863  53.975  1.00  0.00    -0.000 C 
BRANCH  23  24
ATOM     24  C   UNL     1      33.921  17.700  54.808  1.00  0.00    -0.000 C 
BRANCH  24  25
ATOM     25  C   UNL     1      33.198  16.349  54.629  1.00  0.00    -0.000 C 
BRANCH  25  26
ATOM     26  C   UNL     1      32.778  15.655  55.942  1.00  0.00    -0.000 C 
BRANCH  26  27
ATOM     27  C   UNL     1      31.965  14.360  55.765  1.00  0.00    -0.000 C 
BRANCH  27  28
ATOM     28  C   UNL     1      31.543  14.117  54.305  1.00  0.00    -0.000 C 
BRANCH  28  29
ATOM     29  C   UNL     1      30.470  13.023  54.178  1.00  0.00    -0.003 C 
ATOM     30  C   UNL     1      29.884  12.608  55.528  1.00  0.00     0.004 C 
ENDBRANCH  28  29
ENDBRANCH  27  28
ENDBRANCH  26  27
ENDBRANCH  25  26
ENDBRANCH  24  25
ENDBRANCH  23  24
ENDBRANCH  22  23
ENDBRANCH  21  22
ENDBRANCH  20  21
ENDBRANCH  19  20
ENDBRANCH  18  19
ENDBRANCH  17  18
ENDBRANCH   1  17
TORSDOF 26
ENDMDL
MODEL 3
REMARK VINA RESULT:    -3.661      3.738      6.613
REMARK INTER + INTRA:         -14.434
REMARK INTER:                  -9.002
REMARK INTRA:                  -5.432
REMARK UNBOUND:                -5.209
REMARK SMILES CCCCCCCCCCCCCCCCCCCCCCCCCCCC(=O)[O-]
REMARK SMILES IDX 15 1 16 2 17 3 18 4 19 5 20 6 21 7 22 8 23 9 24 10 25 11
REMARK SMILES IDX 26 12 27 13 28 14 29 15 30 16 14 17 13 18 12 19 11 20 10 21
REMARK SMILES IDX 9 22 8 23 7 24 6 25 5 26 4 27 3 28 2 29 1 30
REMARK H PARENT
REMARK Flexibility Score: inf
ROOT
ATOM      1  C   UNL     1      31.020  19.133  54.479  1.00  0.00     0.000 C 
ENDROOT
BRANCH   1   2
ATOM      2  C   UNL     1      31.611  18.546  55.767  1.00  0.00     0.000 C 
BRANCH   2   3
ATOM      3  C   UNL     1      33.143  18.583  55.736  1.00  0.00     0.000 C 
BRANCH   3   4
ATOM      4  C   UNL     1      33.656  19.094  54.380  1.00  0.00     0.000 C 
BRANCH   4   5
ATOM      5  C   UNL     1      34.498  18.050  53.630  1.00  0.00     0.000 C 
BRANCH   5   6
ATOM      6  C   UNL     1      34.473  16.668  54.306  1.00  0.00     0.000 C 
BRANCH   6   7
ATOM      7  C   UNL     1      33.750  15.608  53.454  1.00  0.00     0.000 C 
BRANCH   7   8
ATOM      8  C   UNL     1      32.215  15.733  53.444  1.00  0.00     0.000 C 
BRANCH   8   9
ATOM      9  C   UNL     1      31.529  14.662  54.310  1.00  0.00     0.000 C 
BRANCH   9  10
ATOM     10  C   UNL     1      31.665  14.931  55.821  1.00  0.00     0.000 C 
BRANCH  10  11
ATOM     11  C   UNL     1      31.537  13.690  56.724  1.00  0.00     0.000 C 
BRANCH  11  12
ATOM     12  C   UNL     1      30.232  12.909  56.491  1.00  0.00     0.006 C 
BRANCH  12  13
ATOM     13  C   UNL     1      30.452  11.391  56.509  1.00  0.00     0.053 C 
BRANCH  13  14
ATOM     14  C   UNL     1      29.517  10.703  57.457  1.00  0.00     0.041 C 
ATOM     15  O   UNL     1      29.959   9.868  58.289  1.00  0.00    -0.550 OA
ATOM     16  O   UNL     1      28.155  10.966  57.404  1.00  0.00    -0.550 OA
ENDBRANCH  13  14
ENDBRANCH  12  13
ENDBRANCH  11  12
ENDBRANCH  10  11
ENDBRANCH   9  10
ENDBRANCH   8   9
ENDBRANCH   7   8
ENDBRANCH   6   7
ENDBRANCH   5   6
ENDBRANCH   4   5
ENDBRANCH   3   4
ENDBRANCH   2   3
ENDBRANCH   1   2
BRANCH   1  17
ATOM     17  C   UNL     1      29.863  20.091  54.791  1.00  0.00     0.000 C 
BRANCH  17  18
ATOM     18  C   UNL     1      30.063  20.770  56.155  1.00  0.00     0.000 C 
BRANCH  18  19
ATOM     19  C   UNL     1      28.791  20.714  57.027  1.00  0.00     0.000 C 
BRANCH  19  20
ATOM     20  C   UNL     1      27.625  19.939  56.382  1.00  0.00     0.000 C 
BRANCH  20  21
ATOM     21  C   UNL     1      27.127  18.723  57.181  1.00  0.00     0.000 C 
BRANCH  21  22
ATOM     22  C   UNL     1      28.229  18.085  58.046  1.00  0.00    -0.000 C 
BRANCH  22  23
ATOM     23  C   UNL     1      28.869  16.854  57.381  1.00  0.00    -0.000 C 
BRANCH  23  24
ATOM     24  C   UNL     1      27.872  15.815  56.831  1.00  0.00    -0.000 C 
BRANCH  24  25
ATOM     25  C   UNL     1      27.985  15.538  55.318  1.00  0.00    -0.000 C 
BRANCH  25  26
ATOM     26  C   UNL     1      28.198  16.789  54.440  1.00  0.00    -0.000 C 
BRANCH  26  27
ATOM     27  C   UNL     1      28.560  16.502  52.972  1.00  0.00    -0.000 C 
BRANCH  27  28
ATOM     28  C   UNL     1      27.861  17.457  51.989  1.00  0.00    -0.000 C 
BRANCH  28  29
ATOM     29  C   UNL     1      27.390  18.755  52.665  1.00  0.00    -0.003 C 
ATOM     30  C   UNL     1      25.883  18.976  52.538  1.00  0.00     0.004 C 
ENDBRANCH  28  29
ENDBRANCH  27  28
ENDBRANCH  26  27
ENDBRANCH  25  26
ENDBRANCH  24  25
ENDBRANCH  23  24
ENDBRANCH  22  23
ENDBRANCH  21  22
ENDBRANCH  20  21
ENDBRANCH  19  20
ENDBRANCH  18  19
ENDBRANCH  17  18
ENDBRANCH   1  17
TORSDOF 26
ENDMDL
MODEL 4
REMARK VINA RESULT:    -3.648      3.027      6.231
REMARK INTER + INTRA:         -14.403
REMARK INTER:                  -8.913
REMARK INTRA:                  -5.491
REMARK UNBOUND:                -5.209
REMARK SMILES CCCCCCCCCCCCCCCCCCCCCCCCCCCC(=O)[O-]
REMARK SMILES IDX 15 1 16 2 17 3 18 4 19 5 20 6 21 7 22 8 23 9 24 10 25 11
REMARK SMILES IDX 26 12 27 13 28 14 29 15 30 16 14 17 13 18 12 19 11 20 10 21
REMARK SMILES IDX 9 22 8 23 7 24 6 25 5 26 4 27 3 28 2 29 1 30
REMARK H PARENT
REMARK Flexibility Score: inf
ROOT
ATOM      1  C   UNL     1      29.629  20.324  54.726  1.00  0.00     0.000 C 
ENDROOT
BRANCH   1   2
ATOM      2  C   UNL     1      30.462  20.202  56.007  1.00  0.00     0.000 C 
BRANCH   2   3
ATOM      3  C   UNL     1      31.758  19.424  55.750  1.00  0.00     0.000 C 
BRANCH   3   4
ATOM      4  C   UNL     1      31.908  19.078  54.260  1.00  0.00     0.000 C 
BRANCH   4   5
ATOM      5  C   UNL     1      33.376  19.023  53.806  1.00  0.00     0.000 C 
BRANCH   5   6
ATOM      6  C   UNL     1      34.359  18.912  54.984  1.00  0.00     0.000 C 
BRANCH   6   7
ATOM      7  C   UNL     1      34.670  17.450  55.357  1.00  0.00     0.000 C 
BRANCH   7   8
ATOM      8  C   UNL     1      34.593  16.459  54.180  1.00  0.00     0.000 C 
BRANCH   8   9
ATOM      9  C   UNL     1      33.642  15.282  54.460  1.00  0.00     0.000 C 
BRANCH   9  10
ATOM     10  C   UNL     1      32.614  15.590  55.567  1.00  0.00     0.000 C 
BRANCH  10  11
ATOM     11  C   UNL     1      32.162  14.375  56.399  1.00  0.00     0.000 C 
BRANCH  11  12
ATOM     12  C   UNL     1      31.018  13.586  55.741  1.00  0.00     0.006 C 
BRANCH  12  13
ATOM     13  C   UNL     1      29.976  13.111  56.763  1.00  0.00     0.053 C 
BRANCH  13  14
ATOM     14  C   UNL     1      28.867  12.345  56.111  1.00  0.00     0.041 C 
ATOM     15  O   UNL     1      27.992  12.947  55.435  1.00  0.00    -0.550 OA
ATOM     16  O   UNL     1      28.784  10.968  56.271  1.00  0.00    -0.550 OA
ENDBRANCH  13  14
ENDBRANCH  12  13
ENDBRANCH  11  12
ENDBRANCH  10  11
ENDBRANCH   9  10
ENDBRANCH   8   9
ENDBRANCH   7   8
ENDBRANCH   6   7
ENDBRANCH   5   6
ENDBRANCH   4   5
ENDBRANCH   3   4
ENDBRANCH   2   3
ENDBRANCH   1   2
BRANCH   1  17
ATOM     17  C   UNL     1      28.201  20.785  55.039  1.00  0.00     0.000 C 
BRANCH  17  18
ATOM     18  C   UNL     1      27.763  20.314  56.435  1.00  0.00     0.000 C 
BRANCH  18  19
ATOM     19  C   UNL     1      26.680  19.217  56.368  1.00  0.00     0.000 C 
BRANCH  19  20
ATOM     20  C   UNL     1      26.857  18.101  57.417  1.00  0.00     0.000 C 
BRANCH  20  21
ATOM     21  C   UNL     1      28.226  18.073  58.117  1.00  0.00     0.000 C 
BRANCH  21  22
ATOM     22  C   UNL     1      29.194  17.053  57.494  1.00  0.00    -0.000 C 
BRANCH  22  23
ATOM     23  C   UNL     1      28.594  16.330  56.275  1.00  0.00    -0.000 C 
BRANCH  23  24
ATOM     24  C   UNL     1      29.202  16.727  54.915  1.00  0.00    -0.000 C 
BRANCH  24  25
ATOM     25  C   UNL     1      28.203  16.765  53.741  1.00  0.00    -0.000 C 
BRANCH  25  26
ATOM     26  C   UNL     1      26.851  16.073  54.011  1.00  0.00    -0.000 C 
BRANCH  26  27
ATOM     27  C   UNL     1      25.610  16.962  53.813  1.00  0.00    -0.000 C 
BRANCH  27  28
ATOM     28  C   UNL     1      25.613  17.697  52.461  1.00  0.00    -0.000 C 
BRANCH  28  29
ATOM     29  C   UNL     1      25.690  19.224  52.622  1.00  0.00    -0.003 C 
ATOM     30  C   UNL     1      26.824  19.849  51.809  1.00  0.00     0.004 C 
ENDBRANCH  28  29
ENDBRANCH  27  28
ENDBRANCH  26  27
ENDBRANCH  25  26
ENDBRANCH  24  25
ENDBRANCH  23  24
ENDBRANCH  22  23
ENDBRANCH  21  22
ENDBRANCH  20  21
ENDBRANCH  19  20
ENDBRANCH  18  19
ENDBRANCH  17  18
ENDBRANCH   1  17
TORSDOF 26
ENDMDL
MODEL 5
REMARK VINA RESULT:    -3.642      1.912      5.078
REMARK INTER + INTRA:         -14.388
REMARK INTER:                  -8.649
REMARK INTRA:                  -5.739
REMARK UNBOUND:                -5.209
REMARK SMILES CCCCCCCCCCCCCCCCCCCCCCCCCCCC(=O)[O-]
REMARK SMILES IDX 15 1 16 2 17 3 18 4 19 5 20 6 21 7 22 8 23 9 24 10 25 11
REMARK SMILES IDX 26 12 27 13 28 14 29 15 30 16 14 17 13 18 12 19 11 20 10 21
REMARK SMILES IDX 9 22 8 23 7 24 6 25 5 26 4 27 3 28 2 29 1 30
REMARK H PARENT
REMARK Flexibility Score: inf
ROOT
ATOM      1  C   UNL     1      26.238  17.795  56.759  1.00  0.00     0.000 C 
ENDROOT
BRANCH   1   2
ATOM      2  C   UNL     1      27.080  17.727  58.039  1.00  0.00     0.000 C 
BRANCH   2   3
ATOM      3  C   UNL     1      28.377  18.531  57.887  1.00  0.00     0.000 C 
BRANCH   3   4
ATOM      4  C   UNL     1      28.147  19.799  57.050  1.00  0.00     0.000 C 
BRANCH   4   5
ATOM      5  C   UNL     1      29.368  20.732  57.034  1.00  0.00     0.000 C 
BRANCH   5   6
ATOM      6  C   UNL     1      29.505  21.511  55.714  1.00  0.00     0.000 C 
BRANCH   6   7
ATOM      7  C   UNL     1      28.161  21.659  54.975  1.00  0.00     0.000 C 
BRANCH   7   8
ATOM      8  C   UNL     1      28.096  20.936  53.616  1.00  0.00     0.000 C 
BRANCH   8   9
ATOM      9  C   UNL     1      26.921  19.945  53.530  1.00  0.00     0.000 C 
BRANCH   9  10
ATOM     10  C   UNL     1      25.991  20.217  52.332  1.00  0.00     0.000 C 
BRANCH  10  11
ATOM     11  C   UNL     1      25.181  19.002  51.841  1.00  0.00     0.000 C 
BRANCH  11  12
ATOM     12  C   UNL     1      25.660  17.673  52.449  1.00  0.00     0.006 C 
BRANCH  12  13
ATOM     13  C   UNL     1      25.621  16.522  51.435  1.00  0.00     0.053 C 
BRANCH  13  14
ATOM     14  C   UNL     1      26.175  16.933  50.105  1.00  0.00     0.041 C 
ATOM     15  O   UNL     1      25.427  16.978  49.094  1.00  0.00    -0.550 OA
ATOM     16  O   UNL     1      27.522  17.243  49.978  1.00  0.00    -0.550 OA
ENDBRANCH  13  14
ENDBRANCH  12  13
ENDBRANCH  11  12
ENDBRANCH  10  11
ENDBRANCH   9  10
ENDBRANCH   8   9
ENDBRANCH   7   8
ENDBRANCH   6   7
ENDBRANCH   5   6
ENDBRANCH   4   5
ENDBRANCH   3   4
ENDBRANCH   2   3
ENDBRANCH   1   2
BRANCH   1  17
ATOM     17  C   UNL     1      26.215  16.439  56.043  1.00  0.00     0.000 C 
BRANCH  17  18
ATOM     18  C   UNL     1      26.665  15.311  56.984  1.00  0.00     0.000 C 
BRANCH  18  19
ATOM     19  C   UNL     1      27.926  14.588  56.468  1.00  0.00     0.000 C 
BRANCH  19  20
ATOM     20  C   UNL     1      27.659  13.164  55.940  1.00  0.00     0.000 C 
BRANCH  20  21
ATOM     21  C   UNL     1      28.098  12.912  54.489  1.00  0.00     0.000 C 
BRANCH  21  22
ATOM     22  C   UNL     1      27.707  14.058  53.539  1.00  0.00    -0.000 C 
BRANCH  22  23
ATOM     23  C   UNL     1      28.806  14.382  52.512  1.00  0.00    -0.000 C 
BRANCH  23  24
ATOM     24  C   UNL     1      29.787  15.495  52.933  1.00  0.00    -0.000 C 
BRANCH  24  25
ATOM     25  C   UNL     1      29.145  16.879  53.158  1.00  0.00    -0.000 C 
BRANCH  25  26
ATOM     26  C   UNL     1      29.436  17.518  54.532  1.00  0.00    -0.000 C 
BRANCH  26  27
ATOM     27  C   UNL     1      30.788  18.244  54.642  1.00  0.00    -0.000 C 
BRANCH  27  28
ATOM     28  C   UNL     1      31.602  17.805  55.872  1.00  0.00    -0.000 C 
BRANCH  28  29
ATOM     29  C   UNL     1      31.054  16.519  56.511  1.00  0.00    -0.003 C 
ATOM     30  C   UNL     1      31.883  15.283  56.160  1.00  0.00     0.004 C 
ENDBRANCH  28  29
ENDBRANCH  27  28
ENDBRANCH  26  27
ENDBRANCH  25  26
ENDBRANCH  24  25
ENDBRANCH  23  24
ENDBRANCH  22  23
ENDBRANCH  21  22
ENDBRANCH  20  21
ENDBRANCH  19  20
ENDBRANCH  18  19
ENDBRANCH  17  18
ENDBRANCH   1  17
TORSDOF 26
ENDMDL
MODEL 6
REMARK VINA RESULT:    -3.636      3.574      5.154
REMARK INTER + INTRA:         -14.372
REMARK INTER:                  -8.922
REMARK INTRA:                  -5.450
REMARK UNBOUND:                -5.209
REMARK SMILES CCCCCCCCCCCCCCCCCCCCCCCCCCCC(=O)[O-]
REMARK SMILES IDX 15 1 16 2 17 3 18 4 19 5 20 6 21 7 22 8 23 9 24 10 25 11
REMARK SMILES IDX 26 12 27 13 28 14 29 15 30 16 14 17 13 18 12 19 11 20 10 21
REMARK SMILES IDX 9 22 8 23 7 24 6 25 5 26 4 27 3 28 2 29 1 30
REMARK H PARENT
REMARK Flexibility Score: inf
ROOT
ATOM      1  C   UNL     1      30.634  18.965  54.577  1.00  0.00     0.000 C 
ENDROOT
BRANCH   1   2
ATOM      2  C   UNL     1      29.547  20.046  54.591  1.00  0.00     0.000 C 
BRANCH   2   3
ATOM      3  C   UNL     1      29.702  20.968  55.806  1.00  0.00     0.000 C 
BRANCH   3   4
ATOM      4  C   UNL     1      28.508  20.828  56.763  1.00  0.00     0.000 C 
BRANCH   4   5
ATOM      5  C   UNL     1      27.405  19.912  56.209  1.00  0.00     0.000 C 
BRANCH   5   6
ATOM      6  C   UNL     1      27.090  18.729  57.141  1.00  0.00     0.000 C 
BRANCH   6   7
ATOM      7  C   UNL     1      28.309  18.298  57.979  1.00  0.00     0.000 C 
BRANCH   7   8
ATOM      8  C   UNL     1      29.073  17.083  57.420  1.00  0.00     0.000 C 
BRANCH   8   9
ATOM      9  C   UNL     1      28.225  16.252  56.440  1.00  0.00     0.000 C 
BRANCH   9  10
ATOM     10  C   UNL     1      28.428  14.734  56.608  1.00  0.00     0.000 C 
BRANCH  10  11
ATOM     11  C   UNL     1      29.883  14.288  56.849  1.00  0.00     0.000 C 
BRANCH  11  12
ATOM     12  C   UNL     1      30.257  13.011  56.077  1.00  0.00     0.006 C 
BRANCH  12  13
ATOM     13  C   UNL     1      29.046  12.097  55.845  1.00  0.00     0.053 C 
BRANCH  13  14
ATOM     14  C   UNL     1      28.869  11.114  56.962  1.00  0.00     0.041 C 
ATOM     15  O   UNL     1      29.867  10.708  57.613  1.00  0.00    -0.550 OA
ATOM     16  O   UNL     1      27.605  10.628  57.267  1.00  0.00    -0.550 OA
ENDBRANCH  13  14
ENDBRANCH  12  13
ENDBRANCH  11  12
ENDBRANCH  10  11
ENDBRANCH   9  10
ENDBRANCH   8   9
ENDBRANCH   7   8
ENDBRANCH   6   7
ENDBRANCH   5   6
ENDBRANCH   4   5
ENDBRANCH   3   4
ENDBRANCH   2   3
ENDBRANCH   1   2
BRANCH   1  17
ATOM     17  C   UNL     1      31.700  19.242  55.644  1.00  0.00     0.000 C 
BRANCH  17  18
ATOM     18  C   UNL     1      32.871  18.255  55.522  1.00  0.00     0.000 C 
BRANCH  18  19
ATOM     19  C   UNL     1      32.573  16.907  56.210  1.00  0.00     0.000 C 
BRANCH  19  20
ATOM     20  C   UNL     1      32.892  15.676  55.337  1.00  0.00     0.000 C 
BRANCH  20  21
ATOM     21  C   UNL     1      32.751  15.896  53.822  1.00  0.00     0.000 C 
BRANCH  21  22
ATOM     22  C   UNL     1      31.609  15.073  53.202  1.00  0.00    -0.000 C 
BRANCH  22  23
ATOM     23  C   UNL     1      30.238  15.758  53.341  1.00  0.00    -0.000 C 
BRANCH  23  24
ATOM     24  C   UNL     1      29.084  15.072  52.583  1.00  0.00    -0.000 C 
BRANCH  24  25
ATOM     25  C   UNL     1      27.984  16.023  52.070  1.00  0.00    -0.000 C 
BRANCH  25  26
ATOM     26  C   UNL     1      26.843  16.302  53.070  1.00  0.00    -0.000 C 
BRANCH  26  27
ATOM     27  C   UNL     1      26.658  17.780  53.456  1.00  0.00    -0.000 C 
BRANCH  27  28
ATOM     28  C   UNL     1      25.852  18.572  52.412  1.00  0.00    -0.000 C 
BRANCH  28  29
ATOM     29  C   UNL     1      26.704  19.629  51.690  1.00  0.00    -0.003 C 
ATOM     30  C   UNL     1      26.792  20.946  52.461  1.00  0.00     0.004 C 
ENDBRANCH  28  29
ENDBRANCH  27  28
ENDBRANCH  26  27
ENDBRANCH  25  26
ENDBRANCH  24  25
ENDBRANCH  23  24
ENDBRANCH  22  23
ENDBRANCH  21  22
ENDBRANCH  20  21
ENDBRANCH  19  20
ENDBRANCH  18  19
ENDBRANCH  17  18
ENDBRANCH   1  17
TORSDOF 26
ENDMDL
MODEL 7
REMARK VINA RESULT:    -3.593      1.617      2.918
REMARK INTER + INTRA:         -14.262
REMARK INTER:                  -8.654
REMARK INTRA:                  -5.609
REMARK UNBOUND:                -5.209
REMARK SMILES CCCCCCCCCCCCCCCCCCCCCCCCCCCC(=O)[O-]
REMARK SMILES IDX 15 1 16 2 17 3 18 4 19 5 20 6 21 7 22 8 23 9 24 10 25 11
REMARK SMILES IDX 26 12 27 13 28 14 29 15 30 16 14 17 13 18 12 19 11 20 10 21
REMARK SMILES IDX 9 22 8 23 7 24 6 25 5 26 4 27 3 28 2 29 1 30
REMARK H PARENT
REMARK Flexibility Score: inf
ROOT
ATOM      1  C   UNL     1      30.531  19.974  55.103  1.00  0.00     0.000 C 
ENDROOT
BRANCH   1   2
ATOM      2  C   UNL     1      29.545  20.501  56.152  1.00  0.00     0.000 C 
BRANCH   2   3
ATOM      3  C   UNL     1      28.095  20.282  55.703  1.00  0.00     0.000 C 
BRANCH   3   4
ATOM      4  C   UNL     1      27.285  19.553  56.787  1.00  0.00     0.000 C 
BRANCH   4   5
ATOM      5  C   UNL     1      28.155  18.644  57.670  1.00  0.00     0.000 C 
BRANCH   5   6
ATOM      6  C   UNL     1      27.380  17.435  58.223  1.00  0.00     0.000 C 
BRANCH   6   7
ATOM      7  C   UNL     1      27.430  16.220  57.276  1.00  0.00     0.000 C 
BRANCH   7   8
ATOM      8  C   UNL     1      26.381  16.246  56.147  1.00  0.00     0.000 C 
BRANCH   8   9
ATOM      9  C   UNL     1      27.019  16.232  54.747  1.00  0.00     0.000 C 
BRANCH   9  10
ATOM     10  C   UNL     1      26.588  17.430  53.878  1.00  0.00     0.000 C 
BRANCH  10  11
ATOM     11  C   UNL     1      26.979  17.336  52.391  1.00  0.00     0.000 C 
BRANCH  11  12
ATOM     12  C   UNL     1      27.352  18.698  51.780  1.00  0.00     0.006 C 
BRANCH  12  13
ATOM     13  C   UNL     1      26.126  19.453  51.252  1.00  0.00     0.053 C 
BRANCH  13  14
ATOM     14  C   UNL     1      25.950  20.775  51.935  1.00  0.00     0.041 C 
ATOM     15  O   UNL     1      26.887  21.265  52.617  1.00  0.00    -0.550 OA
ATOM     16  O   UNL     1      24.743  21.453  51.839  1.00  0.00    -0.550 OA
ENDBRANCH  13  14
ENDBRANCH  12  13
ENDBRANCH  11  12
ENDBRANCH  10  11
ENDBRANCH   9  10
ENDBRANCH   8   9
ENDBRANCH   7   8
ENDBRANCH   6   7
ENDBRANCH   5   6
ENDBRANCH   4   5
ENDBRANCH   3   4
ENDBRANCH   2   3
ENDBRANCH   1   2
BRANCH   1  17
ATOM     17  C   UNL     1      29.882  18.893  54.230  1.00  0.00     0.000 C 
BRANCH  17  18
ATOM     18  C   UNL     1      30.639  17.561  54.349  1.00  0.00     0.000 C 
BRANCH  18  19
ATOM     19  C   UNL     1      30.615  17.002  55.788  1.00  0.00     0.000 C 
BRANCH  19  20
ATOM     20  C   UNL     1      32.011  16.865  56.427  1.00  0.00     0.000 C 
BRANCH  20  21
ATOM     21  C   UNL     1      33.141  16.490  55.454  1.00  0.00     0.000 C 
BRANCH  21  22
ATOM     22  C   UNL     1      33.575  15.019  55.581  1.00  0.00    -0.000 C 
BRANCH  22  23
ATOM     23  C   UNL     1      33.590  14.283  54.230  1.00  0.00    -0.000 C 
BRANCH  23  24
ATOM     24  C   UNL     1      32.945  15.053  53.060  1.00  0.00    -0.000 C 
BRANCH  24  25
ATOM     25  C   UNL     1      31.713  14.371  52.431  1.00  0.00    -0.000 C 
BRANCH  25  26
ATOM     26  C   UNL     1      30.971  13.382  53.354  1.00  0.00    -0.000 C 
BRANCH  26  27
ATOM     27  C   UNL     1      29.818  13.991  54.172  1.00  0.00    -0.000 C 
BRANCH  27  28
ATOM     28  C   UNL     1      29.417  13.119  55.375  1.00  0.00    -0.000 C 
BRANCH  28  29
ATOM     29  C   UNL     1      30.067  13.591  56.685  1.00  0.00    -0.003 C 
ATOM     30  C   UNL     1      31.219  12.691  57.132  1.00  0.00     0.004 C 
ENDBRANCH  28  29
ENDBRANCH  27  28
ENDBRANCH  26  27
ENDBRANCH  25  26
ENDBRANCH  24  25
ENDBRANCH  23  24
ENDBRANCH  22  23
ENDBRANCH  21  22
ENDBRANCH  20  21
ENDBRANCH  19  20
ENDBRANCH  18  19
ENDBRANCH  17  18
ENDBRANCH   1  17
TORSDOF 26
ENDMDL
MODEL 8
REMARK VINA RESULT:    -3.583      1.944      4.866
REMARK INTER + INTRA:         -14.239
REMARK INTER:                  -8.452
REMARK INTRA:                  -5.787
REMARK UNBOUND:                -5.209
REMARK SMILES CCCCCCCCCCCCCCCCCCCCCCCCCCCC(=O)[O-]
REMARK SMILES IDX 15 1 16 2 17 3 18 4 19 5 20 6 21 7 22 8 23 9 24 10 25 11
REMARK SMILES IDX 26 12 27 13 28 14 29 15 30 16 14 17 13 18 12 19 11 20 10 21
REMARK SMILES IDX 9 22 8 23 7 24 6 25 5 26 4 27 3 28 2 29 1 30
REMARK H PARENT
REMARK Flexibility Score: inf
ROOT
ATOM      1  C   UNL     1      26.250  18.753  56.747  1.00  0.00     0.000 C 
ENDROOT
BRANCH   1   2
ATOM      2  C   UNL     1      27.655  18.366  57.223  1.00  0.00     0.000 C 
BRANCH   2   3
ATOM      3  C   UNL     1      28.615  19.559  57.136  1.00  0.00     0.000 C 
BRANCH   3   4
ATOM      4  C   UNL     1      29.659  19.349  56.028  1.00  0.00     0.000 C 
BRANCH   4   5
ATOM      5  C   UNL     1      29.745  20.538  55.058  1.00  0.00     0.000 C 
BRANCH   5   6
ATOM      6  C   UNL     1      28.406  21.280  54.906  1.00  0.00     0.000 C 
BRANCH   6   7
ATOM      7  C   UNL     1      27.784  21.094  53.509  1.00  0.00     0.000 C 
BRANCH   7   8
ATOM      8  C   UNL     1      27.214  19.687  53.245  1.00  0.00     0.000 C 
BRANCH   8   9
ATOM      9  C   UNL     1      26.838  19.469  51.769  1.00  0.00     0.000 C 
BRANCH   9  10
ATOM     10  C   UNL     1      27.559  18.263  51.136  1.00  0.00     0.000 C 
BRANCH  10  11
ATOM     11  C   UNL     1      26.642  17.246  50.430  1.00  0.00     0.000 C 
BRANCH  11  12
ATOM     12  C   UNL     1      25.524  16.709  51.341  1.00  0.00     0.006 C 
BRANCH  12  13
ATOM     13  C   UNL     1      24.128  16.954  50.753  1.00  0.00     0.053 C 
BRANCH  13  14
ATOM     14  C   UNL     1      23.306  17.850  51.629  1.00  0.00     0.041 C 
ATOM     15  O   UNL     1      23.352  19.099  51.478  1.00  0.00    -0.550 OA
ATOM     16  O   UNL     1      22.509  17.307  52.627  1.00  0.00    -0.550 OA
ENDBRANCH  13  14
ENDBRANCH  12  13
ENDBRANCH  11  12
ENDBRANCH  10  11
ENDBRANCH   9  10
ENDBRANCH   8   9
ENDBRANCH   7   8
ENDBRANCH   6   7
ENDBRANCH   5   6
ENDBRANCH   4   5
ENDBRANCH   3   4
ENDBRANCH   2   3
ENDBRANCH   1   2
BRANCH   1  17
ATOM     17  C   UNL     1      25.605  17.613  55.950  1.00  0.00     0.000 C 
BRANCH  17  18
ATOM     18  C   UNL     1      26.316  16.278  56.224  1.00  0.00     0.000 C 
BRANCH  18  19
ATOM     19  C   UNL     1      26.634  15.508  54.925  1.00  0.00     0.000 C 
BRANCH  19  20
ATOM     20  C   UNL     1      27.765  16.138  54.087  1.00  0.00     0.000 C 
BRANCH  20  21
ATOM     21  C   UNL     1      28.455  15.183  53.099  1.00  0.00     0.000 C 
BRANCH  21  22
ATOM     22  C   UNL     1      29.937  15.527  52.873  1.00  0.00    -0.000 C 
BRANCH  22  23
ATOM     23  C   UNL     1      30.440  16.638  53.812  1.00  0.00    -0.000 C 
BRANCH  23  24
ATOM     24  C   UNL     1      31.815  16.376  54.458  1.00  0.00    -0.000 C 
BRANCH  24  25
ATOM     25  C   UNL     1      31.777  16.058  55.967  1.00  0.00    -0.000 C 
BRANCH  25  26
ATOM     26  C   UNL     1      30.367  16.039  56.594  1.00  0.00    -0.000 C 
BRANCH  26  27
ATOM     27  C   UNL     1      29.754  14.641  56.784  1.00  0.00    -0.000 C 
BRANCH  27  28
ATOM     28  C   UNL     1      30.737  13.508  56.439  1.00  0.00    -0.000 C 
BRANCH  28  29
ATOM     29  C   UNL     1      30.204  12.585  55.331  1.00  0.00    -0.003 C 
ATOM     30  C   UNL     1      28.695  12.360  55.422  1.00  0.00     0.004 C 
ENDBRANCH  28  29
ENDBRANCH  27  28
ENDBRANCH  26  27
ENDBRANCH  25  26
ENDBRANCH  24  25
ENDBRANCH  23  24
ENDBRANCH  22  23
ENDBRANCH  21  22
ENDBRANCH  20  21
ENDBRANCH  19  20
ENDBRANCH  18  19
ENDBRANCH  17  18
ENDBRANCH   1  17
TORSDOF 26
ENDMDL
MODEL 9
REMARK VINA RESULT:    -3.554      1.959      3.278
REMARK INTER + INTRA:         -14.165
REMARK INTER:                  -8.342
REMARK INTRA:                  -5.823
REMARK UNBOUND:                -5.209
REMARK SMILES CCCCCCCCCCCCCCCCCCCCCCCCCCCC(=O)[O-]
REMARK SMILES IDX 15 1 16 2 17 3 18 4 19 5 20 6 21 7 22 8 23 9 24 10 25 11
REMARK SMILES IDX 26 12 27 13 28 14 29 15 30 16 14 17 13 18 12 19 11 20 10 21
REMARK SMILES IDX 9 22 8 23 7 24 6 25 5 26 4 27 3 28 2 29 1 30
REMARK H PARENT
REMARK Flexibility Score: inf
ROOT
ATOM      1  C   UNL     1      30.497  19.870  55.966  1.00  0.00     0.000 C 
ENDROOT
BRANCH   1   2
ATOM      2  C   UNL     1      29.733  20.258  54.695  1.00  0.00     0.000 C 
BRANCH   2   3
ATOM      3  C   UNL     1      28.233  20.405  54.978  1.00  0.00     0.000 C 
BRANCH   3   4
ATOM      4  C   UNL     1      27.932  20.215  56.473  1.00  0.00     0.000 C 
BRANCH   4   5
ATOM      5  C   UNL     1      26.984  19.036  56.745  1.00  0.00     0.000 C 
BRANCH   5   6
ATOM      6  C   UNL     1      27.518  18.081  57.827  1.00  0.00     0.000 C 
BRANCH   6   7
ATOM      7  C   UNL     1      27.272  16.600  57.479  1.00  0.00     0.000 C 
BRANCH   7   8
ATOM      8  C   UNL     1      28.552  15.782  57.222  1.00  0.00     0.000 C 
BRANCH   8   9
ATOM      9  C   UNL     1      29.590  16.557  56.392  1.00  0.00     0.000 C 
BRANCH   9  10
ATOM     10  C   UNL     1      29.698  16.051  54.940  1.00  0.00     0.000 C 
BRANCH  10  11
ATOM     11  C   UNL     1      28.890  16.854  53.903  1.00  0.00     0.000 C 
BRANCH  11  12
ATOM     12  C   UNL     1      27.567  16.173  53.512  1.00  0.00     0.006 C 
BRANCH  12  13
ATOM     13  C   UNL     1      26.356  17.092  53.720  1.00  0.00     0.053 C 
BRANCH  13  14
ATOM     14  C   UNL     1      26.193  18.062  52.590  1.00  0.00     0.041 C 
ATOM     15  O   UNL     1      26.491  17.721  51.415  1.00  0.00    -0.550 OA
ATOM     16  O   UNL     1      25.736  19.349  52.838  1.00  0.00    -0.550 OA
ENDBRANCH  13  14
ENDBRANCH  12  13
ENDBRANCH  11  12
ENDBRANCH  10  11
ENDBRANCH   9  10
ENDBRANCH   8   9
ENDBRANCH   7   8
ENDBRANCH   6   7
ENDBRANCH   5   6
ENDBRANCH   4   5
ENDBRANCH   3   4
ENDBRANCH   2   3
ENDBRANCH   1   2
BRANCH   1  17
ATOM     17  C   UNL     1      31.945  19.483  55.641  1.00  0.00     0.000 C 
BRANCH  17  18
ATOM     18  C   UNL     1      32.100  19.129  54.153  1.00  0.00     0.000 C 
BRANCH  18  19
ATOM     19  C   UNL     1      33.377  18.307  53.878  1.00  0.00     0.000 C 
BRANCH  19  20
ATOM     20  C   UNL     1      33.329  16.872  54.439  1.00  0.00     0.000 C 
BRANCH  20  21
ATOM     21  C   UNL     1      32.917  15.789  53.428  1.00  0.00     0.000 C 
BRANCH  21  22
ATOM     22  C   UNL     1      33.420  14.388  53.816  1.00  0.00    -0.000 C 
BRANCH  22  23
ATOM     23  C   UNL     1      32.377  13.580  54.608  1.00  0.00    -0.000 C 
BRANCH  23  24
ATOM     24  C   UNL     1      32.461  13.729  56.141  1.00  0.00    -0.000 C 
BRANCH  24  25
ATOM     25  C   UNL     1      31.255  13.164  56.918  1.00  0.00    -0.000 C 
BRANCH  25  26
ATOM     26  C   UNL     1      30.347  12.211  56.112  1.00  0.00    -0.000 C 
BRANCH  26  27
ATOM     27  C   UNL     1      28.840  12.357  56.387  1.00  0.00    -0.000 C 
BRANCH  27  28
ATOM     28  C   UNL     1      28.036  12.709  55.123  1.00  0.00    -0.000 C 
BRANCH  28  29
ATOM     29  C   UNL     1      26.632  13.244  55.449  1.00  0.00    -0.003 C 
ATOM     30  C   UNL     1      26.153  12.839  56.843  1.00  0.00     0.004 C 
ENDBRANCH  28  29
ENDBRANCH  27  28
ENDBRANCH  26  27
ENDBRANCH  25  26
ENDBRANCH  24  25
ENDBRANCH  23  24
ENDBRANCH  22  23
ENDBRANCH  21  22
ENDBRANCH  20  21
ENDBRANCH  19  20
ENDBRANCH  18  19
ENDBRANCH  17  18
ENDBRANCH   1  17
TORSDOF 26
ENDMDL
