MODEL 1
REMARK VINA RESULT:    -1.918      0.000      0.000
REMARK INTER + INTRA:          -4.168
REMARK INTER:                  -3.488
REMARK INTRA:                  -0.680
REMARK UNBOUND:                -0.680
REMARK SMILES CCCCCCCCCCCCCCCC(=O)[O-]
REMARK SMILES IDX 9 1 10 2 11 3 12 4 13 5 14 6 15 7 16 8 17 9 18 10 8 11 7 12
REMARK SMILES IDX 6 13 5 14 4 15 3 16 2 17 1 18
REMARK H PARENT
REMARK Flexibility Score: inf
ROOT
ATOM      1  C   UNL     1       3.548  43.870  11.871  1.00  0.00     0.000 C 
ENDROOT
BRANCH   1   2
ATOM      2  C   UNL     1       2.844  43.708  10.516  1.00  0.00     0.000 C 
BRANCH   2   3
ATOM      3  C   UNL     1       1.779  42.600  10.532  1.00  0.00     0.000 C 
BRANCH   3   4
ATOM      4  C   UNL     1       0.511  43.009  11.303  1.00  0.00     0.000 C 
BRANCH   4   5
ATOM      5  C   UNL     1       0.826  43.595  12.688  1.00  0.00     0.000 C 
BRANCH   5   6
ATOM      6  C   UNL     1      -0.209  44.642  13.135  1.00  0.00     0.006 C 
BRANCH   6   7
ATOM      7  C   UNL     1      -0.586  44.488  14.614  1.00  0.00     0.053 C 
BRANCH   7   8
ATOM      8  C   UNL     1      -2.029  44.122  14.786  1.00  0.00     0.041 C 
ATOM      9  O   UNL     1      -2.431  42.968  14.480  1.00  0.00    -0.550 OA
ATOM     10  O   UNL     1      -2.923  45.046  15.309  1.00  0.00    -0.550 OA
ENDBRANCH   7   8
ENDBRANCH   6   7
ENDBRANCH   5   6
ENDBRANCH   4   5
ENDBRANCH   3   4
ENDBRANCH   2   3
ENDBRANCH   1   2
BRANCH   1  11
ATOM     11  C   UNL     1       4.747  44.818  11.758  1.00  0.00     0.000 C 
BRANCH  11  12
ATOM     12  C   UNL     1       5.170  44.995  10.291  1.00  0.00    -0.000 C 
BRANCH  12  13
ATOM     13  C   UNL     1       6.505  44.301   9.970  1.00  0.00    -0.000 C 
BRANCH  13  14
ATOM     14  C   UNL     1       6.429  42.766   9.875  1.00  0.00    -0.000 C 
BRANCH  14  15
ATOM     15  C   UNL     1       7.530  42.038  10.677  1.00  0.00    -0.000 C 
BRANCH  15  16
ATOM     16  C   UNL     1       7.933  42.810  11.945  1.00  0.00    -0.000 C 
BRANCH  16  17
ATOM     17  C   UNL     1       7.580  42.055  13.235  1.00  0.00    -0.003 C 
ATOM     18  C   UNL     1       6.372  42.650  13.958  1.00  0.00     0.004 C 
ENDBRANCH  16  17
ENDBRANCH  15  16
ENDBRANCH  14  15
ENDBRANCH  13  14
ENDBRANCH  12  13
ENDBRANCH  11  12
ENDBRANCH   1  11
TORSDOF 14
ENDMDL
MODEL 2
REMARK VINA RESULT:    -1.576      0.974      1.341
REMARK INTER + INTRA:          -3.546
REMARK INTER:                  -2.779
REMARK INTRA:                  -0.767
REMARK UNBOUND:                -0.680
REMARK SMILES CCCCCCCCCCCCCCCC(=O)[O-]
REMARK SMILES IDX 9 1 10 2 11 3 12 4 13 5 14 6 15 7 16 8 17 9 18 10 8 11 7 12
REMARK SMILES IDX 6 13 5 14 4 15 3 16 2 17 1 18
REMARK H PARENT
REMARK Flexibility Score: inf
ROOT
ATOM      1  C   UNL     1       3.347  42.807  10.114  1.00  0.00     0.000 C 
ENDROOT
BRANCH   1   2
ATOM      2  C   UNL     1       2.149  43.682  10.511  1.00  0.00     0.000 C 
BRANCH   2   3
ATOM      3  C   UNL     1       0.859  42.867  10.697  1.00  0.00     0.000 C 
BRANCH   3   4
ATOM      4  C   UNL     1       0.252  43.035  12.102  1.00  0.00     0.000 C 
BRANCH   4   5
ATOM      5  C   UNL     1       0.901  44.181  12.893  1.00  0.00     0.000 C 
BRANCH   5   6
ATOM      6  C   UNL     1       0.125  44.527  14.176  1.00  0.00     0.006 C 
BRANCH   6   7
ATOM      7  C   UNL     1      -1.294  45.025  13.877  1.00  0.00     0.053 C 
BRANCH   7   8
ATOM      8  C   UNL     1      -2.316  44.343  14.735  1.00  0.00     0.041 C 
ATOM      9  O   UNL     1      -2.428  43.088  14.711  1.00  0.00    -0.550 OA
ATOM     10  O   UNL     1      -3.123  45.090  15.583  1.00  0.00    -0.550 OA
ENDBRANCH   7   8
ENDBRANCH   6   7
ENDBRANCH   5   6
ENDBRANCH   4   5
ENDBRANCH   3   4
ENDBRANCH   2   3
ENDBRANCH   1   2
BRANCH   1  11
ATOM     11  C   UNL     1       4.597  43.662   9.875  1.00  0.00     0.000 C 
BRANCH  11  12
ATOM     12  C   UNL     1       4.631  44.863  10.834  1.00  0.00    -0.000 C 
BRANCH  12  13
ATOM     13  C   UNL     1       5.808  44.801  11.822  1.00  0.00    -0.000 C 
BRANCH  13  14
ATOM     14  C   UNL     1       7.185  45.116  11.208  1.00  0.00    -0.000 C 
BRANCH  14  15
ATOM     15  C   UNL     1       8.133  43.899  11.149  1.00  0.00    -0.000 C 
BRANCH  15  16
ATOM     16  C   UNL     1       7.391  42.571  11.382  1.00  0.00    -0.000 C 
BRANCH  16  17
ATOM     17  C   UNL     1       7.697  41.954  12.755  1.00  0.00    -0.003 C 
ATOM     18  C   UNL     1       6.778  42.477  13.858  1.00  0.00     0.004 C 
ENDBRANCH  16  17
ENDBRANCH  15  16
ENDBRANCH  14  15
ENDBRANCH  13  14
ENDBRANCH  12  13
ENDBRANCH  11  12
ENDBRANCH   1  11
TORSDOF 14
ENDMDL
MODEL 3
REMARK VINA RESULT:    -0.623      3.998      7.937
REMARK INTER + INTRA:          -1.814
REMARK INTER:                  -0.900
REMARK INTRA:                  -0.913
REMARK UNBOUND:                -0.680
REMARK SMILES CCCCCCCCCCCCCCCC(=O)[O-]
REMARK SMILES IDX 9 1 10 2 11 3 12 4 13 5 14 6 15 7 16 8 17 9 18 10 8 11 7 12
REMARK SMILES IDX 6 13 5 14 4 15 3 16 2 17 1 18
REMARK H PARENT
REMARK Flexibility Score: inf
ROOT
ATOM      1  C   UNL     1       1.848  43.601  10.220  1.00  0.00     0.000 C 
ENDROOT
BRANCH   1   2
ATOM      2  C   UNL     1       3.044  42.692   9.898  1.00  0.00     0.000 C 
BRANCH   2   3
ATOM      3  C   UNL     1       4.390  43.427  10.001  1.00  0.00     0.000 C 
BRANCH   3   4
ATOM      4  C   UNL     1       4.235  44.876  10.497  1.00  0.00     0.000 C 
BRANCH   4   5
ATOM      5  C   UNL     1       4.880  45.101  11.874  1.00  0.00     0.000 C 
BRANCH   5   6
ATOM      6  C   UNL     1       6.403  44.881  11.855  1.00  0.00     0.006 C 
BRANCH   6   7
ATOM      7  C   UNL     1       6.793  43.493  12.381  1.00  0.00     0.053 C 
BRANCH   7   8
ATOM      8  C   UNL     1       7.786  42.818  11.486  1.00  0.00     0.041 C 
ATOM      9  O   UNL     1       7.959  41.572  11.555  1.00  0.00    -0.550 OA
ATOM     10  O   UNL     1       8.500  43.561  10.554  1.00  0.00    -0.550 OA
ENDBRANCH   7   8
ENDBRANCH   6   7
ENDBRANCH   5   6
ENDBRANCH   4   5
ENDBRANCH   3   4
ENDBRANCH   2   3
ENDBRANCH   1   2
BRANCH   1  11
ATOM     11  C   UNL     1       1.041  43.049  11.400  1.00  0.00     0.000 C 
BRANCH  11  12
ATOM     12  C   UNL     1       1.277  43.886  12.667  1.00  0.00    -0.000 C 
BRANCH  12  13
ATOM     13  C   UNL     1       0.074  44.773  13.027  1.00  0.00    -0.000 C 
BRANCH  13  14
ATOM     14  C   UNL     1      -0.400  44.659  14.488  1.00  0.00    -0.000 C 
BRANCH  14  15
ATOM     15  C   UNL     1      -1.855  45.125  14.708  1.00  0.00    -0.000 C 
BRANCH  15  16
ATOM     16  C   UNL     1      -2.795  43.957  15.056  1.00  0.00    -0.000 C 
BRANCH  16  17
ATOM     17  C   UNL     1      -2.185  42.587  14.722  1.00  0.00    -0.003 C 
ATOM     18  C   UNL     1      -3.240  41.538  14.371  1.00  0.00     0.004 C 
ENDBRANCH  16  17
ENDBRANCH  15  16
ENDBRANCH  14  15
ENDBRANCH  13  14
ENDBRANCH  12  13
ENDBRANCH  11  12
ENDBRANCH   1  11
TORSDOF 14
ENDMDL
MODEL 4
REMARK VINA RESULT:    -0.595      1.248      1.703
REMARK INTER + INTRA:          -1.763
REMARK INTER:                  -1.103
REMARK INTRA:                  -0.660
REMARK UNBOUND:                -0.680
REMARK SMILES CCCCCCCCCCCCCCCC(=O)[O-]
REMARK SMILES IDX 9 1 10 2 11 3 12 4 13 5 14 6 15 7 16 8 17 9 18 10 8 11 7 12
REMARK SMILES IDX 6 13 5 14 4 15 3 16 2 17 1 18
REMARK H PARENT
REMARK Flexibility Score: inf
ROOT
ATOM      1  C   UNL     1       2.398  43.262   9.875  1.00  0.00     0.000 C 
ENDROOT
BRANCH   1   2
ATOM      2  C   UNL     1       1.353  43.136  10.995  1.00  0.00     0.000 C 
BRANCH   2   3
ATOM      3  C   UNL     1       1.883  43.621  12.354  1.00  0.00     0.000 C 
BRANCH   3   4
ATOM      4  C   UNL     1       0.929  44.617  13.039  1.00  0.00     0.000 C 
BRANCH   4   5
ATOM      5  C   UNL     1      -0.384  43.959  13.493  1.00  0.00     0.000 C 
BRANCH   5   6
ATOM      6  C   UNL     1      -1.290  44.927  14.273  1.00  0.00     0.006 C 
BRANCH   6   7
ATOM      7  C   UNL     1      -2.453  44.202  14.963  1.00  0.00     0.053 C 
BRANCH   7   8
ATOM      8  C   UNL     1      -2.324  42.713  14.853  1.00  0.00     0.041 C 
ATOM      9  O   UNL     1      -3.118  42.060  14.124  1.00  0.00    -0.550 OA
ATOM     10  O   UNL     1      -1.310  42.051  15.532  1.00  0.00    -0.550 OA
ENDBRANCH   7   8
ENDBRANCH   6   7
ENDBRANCH   5   6
ENDBRANCH   4   5
ENDBRANCH   3   4
ENDBRANCH   2   3
ENDBRANCH   1   2
BRANCH   1  11
ATOM     11  C   UNL     1       3.591  44.109  10.330  1.00  0.00     0.000 C 
BRANCH  11  12
ATOM     12  C   UNL     1       4.919  43.430   9.959  1.00  0.00    -0.000 C 
BRANCH  12  13
ATOM     13  C   UNL     1       6.137  44.339  10.190  1.00  0.00    -0.000 C 
BRANCH  13  14
ATOM     14  C   UNL     1       7.500  43.625  10.120  1.00  0.00    -0.000 C 
BRANCH  14  15
ATOM     15  C   UNL     1       7.602  42.387  11.038  1.00  0.00    -0.000 C 
BRANCH  15  16
ATOM     16  C   UNL     1       8.105  42.747  12.447  1.00  0.00    -0.000 C 
BRANCH  16  17
ATOM     17  C   UNL     1       7.170  42.241  13.556  1.00  0.00    -0.003 C 
ATOM     18  C   UNL     1       5.867  43.036  13.641  1.00  0.00     0.004 C 
ENDBRANCH  16  17
ENDBRANCH  15  16
ENDBRANCH  14  15
ENDBRANCH  13  14
ENDBRANCH  12  13
ENDBRANCH  11  12
ENDBRANCH   1  11
TORSDOF 14
ENDMDL
MODEL 5
REMARK VINA RESULT:    -0.298      2.553      4.280
REMARK INTER + INTRA:          -1.223
REMARK INTER:                  -1.407
REMARK INTRA:                   0.184
REMARK UNBOUND:                -0.680
REMARK SMILES CCCCCCCCCCCCCCCC(=O)[O-]
REMARK SMILES IDX 9 1 10 2 11 3 12 4 13 5 14 6 15 7 16 8 17 9 18 10 8 11 7 12
REMARK SMILES IDX 6 13 5 14 4 15 3 16 2 17 1 18
REMARK H PARENT
REMARK Flexibility Score: inf
ROOT
ATOM      1  C   UNL     1       5.816  42.118  14.411  1.00  0.00     0.000 C 
ENDROOT
BRANCH   1   2
ATOM      2  C   UNL     1       5.505  43.542  13.929  1.00  0.00     0.000 C 
BRANCH   2   3
ATOM      3  C   UNL     1       4.998  43.578  12.478  1.00  0.00     0.000 C 
BRANCH   3   4
ATOM      4  C   UNL     1       4.894  45.010  11.923  1.00  0.00     0.000 C 
BRANCH   4   5
ATOM      5  C   UNL     1       4.096  45.079  10.611  1.00  0.00     0.000 C 
BRANCH   5   6
ATOM      6  C   UNL     1       3.571  43.702  10.167  1.00  0.00     0.006 C 
BRANCH   6   7
ATOM      7  C   UNL     1       2.064  43.722   9.882  1.00  0.00     0.053 C 
BRANCH   7   8
ATOM      8  C   UNL     1       1.273  43.186  11.037  1.00  0.00     0.041 C 
ATOM      9  O   UNL     1       0.447  42.251  10.860  1.00  0.00    -0.550 OA
ATOM     10  O   UNL     1       1.469  43.699  12.312  1.00  0.00    -0.550 OA
ENDBRANCH   7   8
ENDBRANCH   6   7
ENDBRANCH   5   6
ENDBRANCH   4   5
ENDBRANCH   3   4
ENDBRANCH   2   3
ENDBRANCH   1   2
BRANCH   1  11
ATOM     11  C   UNL     1       7.315  41.817  14.305  1.00  0.00     0.000 C 
BRANCH  11  12
ATOM     12  C   UNL     1       7.768  41.792  12.837  1.00  0.00    -0.000 C 
BRANCH  12  13
ATOM     13  C   UNL     1       8.202  43.175  12.325  1.00  0.00    -0.000 C 
BRANCH  13  14
ATOM     14  C   UNL     1       8.523  43.236  10.819  1.00  0.00    -0.000 C 
BRANCH  14  15
ATOM     15  C   UNL     1       7.275  43.391   9.923  1.00  0.00    -0.000 C 
BRANCH  15  16
ATOM     16  C   UNL     1       6.365  42.151   9.973  1.00  0.00    -0.000 C 
BRANCH  16  17
ATOM     17  C   UNL     1       7.155  40.834   9.933  1.00  0.00    -0.003 C 
ATOM     18  C   UNL     1       6.252  39.603   9.878  1.00  0.00     0.004 C 
ENDBRANCH  16  17
ENDBRANCH  15  16
ENDBRANCH  14  15
ENDBRANCH  13  14
ENDBRANCH  12  13
ENDBRANCH  11  12
ENDBRANCH   1  11
TORSDOF 14
ENDMDL
MODEL 6
REMARK VINA RESULT:     0.700      3.074      6.855
REMARK INTER + INTRA:           0.593
REMARK INTER:                  -0.708
REMARK INTRA:                   1.301
REMARK UNBOUND:                -0.680
REMARK SMILES CCCCCCCCCCCCCCCC(=O)[O-]
REMARK SMILES IDX 9 1 10 2 11 3 12 4 13 5 14 6 15 7 16 8 17 9 18 10 8 11 7 12
REMARK SMILES IDX 6 13 5 14 4 15 3 16 2 17 1 18
REMARK H PARENT
REMARK Flexibility Score: inf
ROOT
ATOM      1  C   UNL     1       4.548  42.022   9.971  1.00  0.00     0.000 C 
ENDROOT
BRANCH   1   2
ATOM      2  C   UNL     1       5.956  41.418   9.875  1.00  0.00     0.000 C 
BRANCH   2   3
ATOM      3  C   UNL     1       6.846  41.801  11.069  1.00  0.00     0.000 C 
BRANCH   3   4
ATOM      4  C   UNL     1       8.027  42.700  10.661  1.00  0.00     0.000 C 
BRANCH   4   5
ATOM      5  C   UNL     1       8.030  44.045  11.405  1.00  0.00     0.000 C 
BRANCH   5   6
ATOM      6  C   UNL     1       6.631  44.681  11.480  1.00  0.00     0.006 C 
BRANCH   6   7
ATOM      7  C   UNL     1       6.104  44.752  12.919  1.00  0.00     0.053 C 
BRANCH   7   8
ATOM      8  C   UNL     1       5.998  43.393  13.540  1.00  0.00     0.041 C 
ATOM      9  O   UNL     1       4.881  42.959  13.931  1.00  0.00    -0.550 OA
ATOM     10  O   UNL     1       7.127  42.594  13.662  1.00  0.00    -0.550 OA
ENDBRANCH   7   8
ENDBRANCH   6   7
ENDBRANCH   5   6
ENDBRANCH   4   5
ENDBRANCH   3   4
ENDBRANCH   2   3
ENDBRANCH   1   2
BRANCH   1  11
ATOM     11  C   UNL     1       4.601  43.552   9.895  1.00  0.00     0.000 C 
BRANCH  11  12
ATOM     12  C   UNL     1       3.209  44.162  10.129  1.00  0.00    -0.000 C 
BRANCH  12  13
ATOM     13  C   UNL     1       2.852  44.275  11.620  1.00  0.00    -0.000 C 
BRANCH  13  14
ATOM     14  C   UNL     1       1.539  43.578  12.025  1.00  0.00    -0.000 C 
BRANCH  14  15
ATOM     15  C   UNL     1       0.764  44.313  13.140  1.00  0.00    -0.000 C 
BRANCH  15  16
ATOM     16  C   UNL     1      -0.458  43.513  13.624  1.00  0.00    -0.000 C 
BRANCH  16  17
ATOM     17  C   UNL     1      -1.449  44.372  14.424  1.00  0.00    -0.003 C 
ATOM     18  C   UNL     1      -2.690  43.594  14.862  1.00  0.00     0.004 C 
ENDBRANCH  16  17
ENDBRANCH  15  16
ENDBRANCH  14  15
ENDBRANCH  13  14
ENDBRANCH  12  13
ENDBRANCH  11  12
ENDBRANCH   1  11
TORSDOF 14
ENDMDL
