MODEL 1
REMARK VINA RESULT:    -6.293      0.000      0.000
REMARK INTER + INTRA:          -6.875
REMARK INTER:                  -6.844
REMARK INTRA:                  -0.031
REMARK UNBOUND:                -0.031
REMARK SMILES COc1cc2ccc(=O)oc2cc1O
REMARK SMILES IDX 3 1 13 2 12 3 11 4 5 5 4 6 6 7 7 8 8 9 9 10 10 11 2 12 1 13
REMARK SMILES IDX 14 14
REMARK H PARENT 14 15
REMARK Flexibility Score: inf
ROOT
ATOM      1  C   UNL     1      11.483   7.152  20.624  1.00  0.00     0.161 A 
ATOM      2  C   UNL     1      10.262   6.996  21.308  1.00  0.00     0.161 A 
ATOM      3  C   UNL     1       9.447   5.888  21.053  1.00  0.00     0.098 A 
ATOM      4  C   UNL     1       9.834   4.926  20.117  1.00  0.00     0.142 A 
ATOM      5  C   UNL     1      11.055   5.073  19.427  1.00  0.00     0.022 A 
ATOM      6  C   UNL     1      11.874   6.182  19.679  1.00  0.00     0.062 A 
ATOM      7  C   UNL     1      11.416   4.094  18.495  1.00  0.00     0.019 A 
ATOM      8  C   UNL     1      10.567   3.009  18.278  1.00  0.00     0.094 A 
ATOM      9  C   UNL     1       9.371   2.930  19.001  1.00  0.00     0.336 A 
ATOM     10  O   UNL     1       8.591   1.958  18.819  1.00  0.00    -0.246 OA
ATOM     11  O   UNL     1       9.053   3.875  19.880  1.00  0.00    -0.423 OA
ENDROOT
BRANCH   1  12
ATOM     12  O   UNL     1      12.277   8.276  20.905  1.00  0.00    -0.493 OA
ATOM     13  C   UNL     1      13.213   8.357  21.973  1.00  0.00     0.278 C 
ENDBRANCH   1  12
BRANCH   2  14
ATOM     14  O   UNL     1       9.840   7.935  22.250  1.00  0.00    -0.504 OA
ATOM     15  H   UNL     1       9.648   8.898  22.004  1.00  0.00     0.293 HD
ENDBRANCH   2  14
TORSDOF 2
ENDMDL
MODEL 2
REMARK VINA RESULT:    -6.106     18.433     18.748
REMARK INTER + INTRA:          -6.672
REMARK INTER:                  -6.682
REMARK INTRA:                   0.010
REMARK UNBOUND:                -0.031
REMARK SMILES COc1cc2ccc(=O)oc2cc1O
REMARK SMILES IDX 3 1 13 2 12 3 11 4 5 5 4 6 6 7 7 8 8 9 9 10 10 11 2 12 1 13
REMARK SMILES IDX 14 14
REMARK H PARENT 14 15
REMARK Flexibility Score: inf
ROOT
ATOM      1  C   UNL     1      17.839  -3.208  35.285  1.00  0.00     0.161 A 
ATOM      2  C   UNL     1      18.754  -3.593  34.285  1.00  0.00     0.161 A 
ATOM      3  C   UNL     1      18.481  -4.693  33.465  1.00  0.00     0.098 A 
ATOM      4  C   UNL     1      17.300  -5.421  33.628  1.00  0.00     0.142 A 
ATOM      5  C   UNL     1      16.378  -5.044  34.626  1.00  0.00     0.022 A 
ATOM      6  C   UNL     1      16.647  -3.943  35.451  1.00  0.00     0.062 A 
ATOM      7  C   UNL     1      15.204  -5.792  34.766  1.00  0.00     0.019 A 
ATOM      8  C   UNL     1      14.981  -6.879  33.923  1.00  0.00     0.094 A 
ATOM      9  C   UNL     1      15.941  -7.195  32.955  1.00  0.00     0.336 A 
ATOM     10  O   UNL     1      15.758  -8.173  32.184  1.00  0.00    -0.246 OA
ATOM     11  O   UNL     1      17.048  -6.466  32.844  1.00  0.00    -0.423 OA
ENDROOT
BRANCH   1  12
ATOM     12  O   UNL     1      18.145  -2.099  36.090  1.00  0.00    -0.493 OA
ATOM     13  C   UNL     1      17.985  -0.742  35.692  1.00  0.00     0.278 C 
ENDBRANCH   1  12
BRANCH   2  14
ATOM     14  O   UNL     1      19.944  -2.892  34.092  1.00  0.00    -0.504 OA
ATOM     15  H   UNL     1      20.013  -2.110  33.452  1.00  0.00     0.293 HD
ENDBRANCH   2  14
TORSDOF 2
ENDMDL
MODEL 3
REMARK VINA RESULT:    -6.092     18.726     19.447
REMARK INTER + INTRA:          -6.657
REMARK INTER:                  -6.612
REMARK INTRA:                  -0.044
REMARK UNBOUND:                -0.031
REMARK SMILES COc1cc2ccc(=O)oc2cc1O
REMARK SMILES IDX 3 1 13 2 12 3 11 4 5 5 4 6 6 7 7 8 8 9 9 10 10 11 2 12 1 13
REMARK SMILES IDX 14 14
REMARK H PARENT 14 15
REMARK Flexibility Score: inf
ROOT
ATOM      1  C   UNL     1      16.700  -7.202  32.986  1.00  0.00     0.161 A 
ATOM      2  C   UNL     1      15.581  -6.700  33.679  1.00  0.00     0.161 A 
ATOM      3  C   UNL     1      15.675  -5.502  34.396  1.00  0.00     0.098 A 
ATOM      4  C   UNL     1      16.878  -4.792  34.434  1.00  0.00     0.142 A 
ATOM      5  C   UNL     1      18.004  -5.287  33.743  1.00  0.00     0.022 A 
ATOM      6  C   UNL     1      17.915  -6.486  33.024  1.00  0.00     0.062 A 
ATOM      7  C   UNL     1      19.195  -4.555  33.799  1.00  0.00     0.019 A 
ATOM      8  C   UNL     1      19.235  -3.367  34.529  1.00  0.00     0.094 A 
ATOM      9  C   UNL     1      18.077  -2.938  35.189  1.00  0.00     0.336 A 
ATOM     10  O   UNL     1      18.093  -1.869  35.853  1.00  0.00    -0.246 OA
ATOM     11  O   UNL     1      16.959  -3.654  35.119  1.00  0.00    -0.423 OA
ENDROOT
BRANCH   1  12
ATOM     12  O   UNL     1      16.571  -8.407  32.276  1.00  0.00    -0.493 OA
ATOM     13  C   UNL     1      17.657  -9.252  31.914  1.00  0.00     0.278 C 
ENDBRANCH   1  12
BRANCH   2  14
ATOM     14  O   UNL     1      14.363  -7.379  33.666  1.00  0.00    -0.504 OA
ATOM     15  H   UNL     1      14.246  -8.288  34.097  1.00  0.00     0.293 HD
ENDBRANCH   2  14
TORSDOF 2
ENDMDL
MODEL 4
REMARK VINA RESULT:    -5.988      8.202      8.531
REMARK INTER + INTRA:          -6.543
REMARK INTER:                  -6.499
REMARK INTRA:                  -0.045
REMARK UNBOUND:                -0.031
REMARK SMILES COc1cc2ccc(=O)oc2cc1O
REMARK SMILES IDX 3 1 13 2 12 3 11 4 5 5 4 6 6 7 7 8 8 9 9 10 10 11 2 12 1 13
REMARK SMILES IDX 14 14
REMARK H PARENT 14 15
REMARK Flexibility Score: inf
ROOT
ATOM      1  C   UNL     1      13.767   0.513  27.721  1.00  0.00     0.161 A 
ATOM      2  C   UNL     1      14.539   1.180  26.749  1.00  0.00     0.161 A 
ATOM      3  C   UNL     1      13.995   1.469  25.493  1.00  0.00     0.098 A 
ATOM      4  C   UNL     1      12.682   1.099  25.188  1.00  0.00     0.142 A 
ATOM      5  C   UNL     1      11.902   0.431  26.154  1.00  0.00     0.022 A 
ATOM      6  C   UNL     1      12.443   0.139  27.414  1.00  0.00     0.062 A 
ATOM      7  C   UNL     1      10.591   0.073  25.821  1.00  0.00     0.019 A 
ATOM      8  C   UNL     1      10.098   0.384  24.554  1.00  0.00     0.094 A 
ATOM      9  C   UNL     1      10.931   1.049  23.647  1.00  0.00     0.336 A 
ATOM     10  O   UNL     1      10.504   1.339  22.499  1.00  0.00    -0.246 OA
ATOM     11  O   UNL     1      12.173   1.378  23.991  1.00  0.00    -0.423 OA
ENDROOT
BRANCH   1  12
ATOM     12  O   UNL     1      14.345   0.238  28.971  1.00  0.00    -0.493 OA
ATOM     13  C   UNL     1      13.610   0.040  30.174  1.00  0.00     0.278 C 
ENDBRANCH   1  12
BRANCH   2  14
ATOM     14  O   UNL     1      15.853   1.565  27.015  1.00  0.00    -0.504 OA
ATOM     15  H   UNL     1      16.108   2.076  27.851  1.00  0.00     0.293 HD
ENDBRANCH   2  14
TORSDOF 2
ENDMDL
MODEL 5
REMARK VINA RESULT:    -5.979      1.516      5.178
REMARK INTER + INTRA:          -6.534
REMARK INTER:                  -6.469
REMARK INTRA:                  -0.065
REMARK UNBOUND:                -0.031
REMARK SMILES COc1cc2ccc(=O)oc2cc1O
REMARK SMILES IDX 3 1 13 2 12 3 11 4 5 5 4 6 6 7 7 8 8 9 9 10 10 11 2 12 1 13
REMARK SMILES IDX 14 14
REMARK H PARENT 14 15
REMARK Flexibility Score: inf
ROOT
ATOM      1  C   UNL     1       9.920   5.955  19.287  1.00  0.00     0.161 A 
ATOM      2  C   UNL     1       9.078   6.396  20.327  1.00  0.00     0.161 A 
ATOM      3  C   UNL     1       9.535   7.340  21.252  1.00  0.00     0.098 A 
ATOM      4  C   UNL     1      10.831   7.855  21.156  1.00  0.00     0.142 A 
ATOM      5  C   UNL     1      11.681   7.420  20.118  1.00  0.00     0.022 A 
ATOM      6  C   UNL     1      11.227   6.474  19.189  1.00  0.00     0.062 A 
ATOM      7  C   UNL     1      12.972   7.953  20.047  1.00  0.00     0.019 A 
ATOM      8  C   UNL     1      13.379   8.892  20.995  1.00  0.00     0.094 A 
ATOM      9  C   UNL     1      12.480   9.276  21.997  1.00  0.00     0.336 A 
ATOM     10  O   UNL     1      12.828  10.121  22.862  1.00  0.00    -0.246 OA
ATOM     11  O   UNL     1      11.258   8.753  22.041  1.00  0.00    -0.423 OA
ENDROOT
BRANCH   1  12
ATOM     12  O   UNL     1       9.428   5.007  18.375  1.00  0.00    -0.493 OA
ATOM     13  C   UNL     1       9.682   3.608  18.448  1.00  0.00     0.278 C 
ENDBRANCH   1  12
BRANCH   2  14
ATOM     14  O   UNL     1       7.778   5.905  20.457  1.00  0.00    -0.504 OA
ATOM     15  H   UNL     1       7.393   5.221  19.818  1.00  0.00     0.293 HD
ENDBRANCH   2  14
TORSDOF 2
ENDMDL
MODEL 6
REMARK VINA RESULT:    -5.963      1.251      5.461
REMARK INTER + INTRA:          -6.517
REMARK INTER:                  -6.563
REMARK INTRA:                   0.046
REMARK UNBOUND:                -0.031
REMARK SMILES COc1cc2ccc(=O)oc2cc1O
REMARK SMILES IDX 3 1 13 2 12 3 11 4 5 5 4 6 6 7 7 8 8 9 9 10 10 11 2 12 1 13
REMARK SMILES IDX 14 14
REMARK H PARENT 14 15
REMARK Flexibility Score: inf
ROOT
ATOM      1  C   UNL     1       9.180   3.232  18.924  1.00  0.00     0.161 A 
ATOM      2  C   UNL     1      10.529   3.265  18.521  1.00  0.00     0.161 A 
ATOM      3  C   UNL     1      11.379   4.276  18.984  1.00  0.00     0.098 A 
ATOM      4  C   UNL     1      10.899   5.263  19.849  1.00  0.00     0.142 A 
ATOM      5  C   UNL     1       9.550   5.238  20.257  1.00  0.00     0.022 A 
ATOM      6  C   UNL     1       8.695   4.228  19.797  1.00  0.00     0.062 A 
ATOM      7  C   UNL     1       9.098   6.239  21.124  1.00  0.00     0.019 A 
ATOM      8  C   UNL     1       9.986   7.224  21.555  1.00  0.00     0.094 A 
ATOM      9  C   UNL     1      11.311   7.184  21.107  1.00  0.00     0.336 A 
ATOM     10  O   UNL     1      12.129   8.064  21.485  1.00  0.00    -0.246 OA
ATOM     11  O   UNL     1      11.714   6.221  20.283  1.00  0.00    -0.423 OA
ENDROOT
BRANCH   1  12
ATOM     12  O   UNL     1       8.355   2.203  18.441  1.00  0.00    -0.493 OA
ATOM     13  C   UNL     1       8.401   0.853  18.889  1.00  0.00     0.278 C 
ENDBRANCH   1  12
BRANCH   2  14
ATOM     14  O   UNL     1      11.046   2.298  17.659  1.00  0.00    -0.504 OA
ATOM     15  H   UNL     1      10.451   1.674  17.128  1.00  0.00     0.293 HD
ENDBRANCH   2  14
TORSDOF 2
ENDMDL
MODEL 7
REMARK VINA RESULT:    -5.878      1.708      2.728
REMARK INTER + INTRA:          -6.424
REMARK INTER:                  -6.425
REMARK INTRA:                   0.001
REMARK UNBOUND:                -0.031
REMARK SMILES COc1cc2ccc(=O)oc2cc1O
REMARK SMILES IDX 3 1 13 2 12 3 11 4 5 5 4 6 6 7 7 8 8 9 9 10 10 11 2 12 1 13
REMARK SMILES IDX 14 14
REMARK H PARENT 14 15
REMARK Flexibility Score: inf
ROOT
ATOM      1  C   UNL     1      12.574   7.895  21.488  1.00  0.00     0.161 A 
ATOM      2  C   UNL     1      13.050   8.072  20.173  1.00  0.00     0.161 A 
ATOM      3  C   UNL     1      12.635   7.211  19.152  1.00  0.00     0.098 A 
ATOM      4  C   UNL     1      11.746   6.168  19.423  1.00  0.00     0.142 A 
ATOM      5  C   UNL     1      11.265   5.983  20.736  1.00  0.00     0.022 A 
ATOM      6  C   UNL     1      11.678   6.842  21.762  1.00  0.00     0.062 A 
ATOM      7  C   UNL     1      10.376   4.929  20.977  1.00  0.00     0.019 A 
ATOM      8  C   UNL     1       9.995   4.100  19.923  1.00  0.00     0.094 A 
ATOM      9  C   UNL     1      10.514   4.345  18.646  1.00  0.00     0.336 A 
ATOM     10  O   UNL     1      10.181   3.607  17.681  1.00  0.00    -0.246 OA
ATOM     11  O   UNL     1      11.357   5.353  18.445  1.00  0.00    -0.423 OA
ENDROOT
BRANCH   1  12
ATOM     12  O   UNL     1      13.012   8.777  22.489  1.00  0.00    -0.493 OA
ATOM     13  C   UNL     1      12.484  10.082  22.703  1.00  0.00     0.278 C 
ENDBRANCH   1  12
BRANCH   2  14
ATOM     14  O   UNL     1      13.938   9.101  19.863  1.00  0.00    -0.504 OA
ATOM     15  H   UNL     1      14.284   9.746  20.562  1.00  0.00     0.293 HD
ENDBRANCH   2  14
TORSDOF 2
ENDMDL
MODEL 8
REMARK VINA RESULT:    -5.849     18.946     19.770
REMARK INTER + INTRA:          -6.392
REMARK INTER:                  -6.346
REMARK INTRA:                  -0.046
REMARK UNBOUND:                -0.031
REMARK SMILES COc1cc2ccc(=O)oc2cc1O
REMARK SMILES IDX 3 1 13 2 12 3 11 4 5 5 4 6 6 7 7 8 8 9 9 10 10 11 2 12 1 13
REMARK SMILES IDX 14 14
REMARK H PARENT 14 15
REMARK Flexibility Score: inf
ROOT
ATOM      1  C   UNL     1      17.571  -6.945  33.519  1.00  0.00     0.161 A 
ATOM      2  C   UNL     1      18.362  -7.029  34.682  1.00  0.00     0.161 A 
ATOM      3  C   UNL     1      18.718  -5.868  35.377  1.00  0.00     0.098 A 
ATOM      4  C   UNL     1      18.295  -4.615  34.926  1.00  0.00     0.142 A 
ATOM      5  C   UNL     1      17.503  -4.522  33.763  1.00  0.00     0.022 A 
ATOM      6  C   UNL     1      17.143  -5.681  33.064  1.00  0.00     0.062 A 
ATOM      7  C   UNL     1      17.094  -3.254  33.336  1.00  0.00     0.019 A 
ATOM      8  C   UNL     1      17.477  -2.129  34.065  1.00  0.00     0.094 A 
ATOM      9  C   UNL     1      18.264  -2.299  35.209  1.00  0.00     0.336 A 
ATOM     10  O   UNL     1      18.621  -1.296  35.881  1.00  0.00    -0.246 OA
ATOM     11  O   UNL     1      18.639  -3.516  35.593  1.00  0.00    -0.423 OA
ENDROOT
BRANCH   1  12
ATOM     12  O   UNL     1      17.231  -8.131  32.847  1.00  0.00    -0.493 OA
ATOM     13  C   UNL     1      16.008  -8.342  32.150  1.00  0.00     0.278 C 
ENDBRANCH   1  12
BRANCH   2  14
ATOM     14  O   UNL     1      18.804  -8.261  35.164  1.00  0.00    -0.504 OA
ATOM     15  H   UNL     1      18.452  -8.663  36.024  1.00  0.00     0.293 HD
ENDBRANCH   2  14
TORSDOF 2
ENDMDL
MODEL 9
REMARK VINA RESULT:    -5.835      1.596      2.184
REMARK INTER + INTRA:          -6.377
REMARK INTER:                  -6.332
REMARK INTRA:                  -0.045
REMARK UNBOUND:                -0.031
REMARK SMILES COc1cc2ccc(=O)oc2cc1O
REMARK SMILES IDX 3 1 13 2 12 3 11 4 5 5 4 6 6 7 7 8 8 9 9 10 10 11 2 12 1 13
REMARK SMILES IDX 14 14
REMARK H PARENT 14 15
REMARK Flexibility Score: inf
ROOT
ATOM      1  C   UNL     1      11.584   6.718  19.546  1.00  0.00     0.161 A 
ATOM      2  C   UNL     1      10.941   6.754  18.293  1.00  0.00     0.161 A 
ATOM      3  C   UNL     1      10.203   5.652  17.847  1.00  0.00     0.098 A 
ATOM      4  C   UNL     1      10.097   4.505  18.638  1.00  0.00     0.142 A 
ATOM      5  C   UNL     1      10.736   4.460  19.894  1.00  0.00     0.022 A 
ATOM      6  C   UNL     1      11.477   5.561  20.345  1.00  0.00     0.062 A 
ATOM      7  C   UNL     1      10.612   3.298  20.663  1.00  0.00     0.019 A 
ATOM      8  C   UNL     1       9.865   2.228  20.172  1.00  0.00     0.094 A 
ATOM      9  C   UNL     1       9.258   2.345  18.916  1.00  0.00     0.336 A 
ATOM     10  O   UNL     1       8.580   1.390  18.455  1.00  0.00    -0.246 OA
ATOM     11  O   UNL     1       9.393   3.461  18.206  1.00  0.00    -0.423 OA
ENDROOT
BRANCH   1  12
ATOM     12  O   UNL     1      12.316   7.842  19.963  1.00  0.00    -0.493 OA
ATOM     13  C   UNL     1      12.548   8.196  21.321  1.00  0.00     0.278 C 
ENDBRANCH   1  12
BRANCH   2  14
ATOM     14  O   UNL     1      11.024   7.880  17.474  1.00  0.00    -0.504 OA
ATOM     15  H   UNL     1      10.267   8.547  17.394  1.00  0.00     0.293 HD
ENDBRANCH   2  14
TORSDOF 2
ENDMDL
