MODEL 1
REMARK VINA RESULT:    -6.291      0.000      0.000
REMARK INTER + INTRA:          -7.901
REMARK INTER:                  -7.578
REMARK INTRA:                  -0.324
REMARK UNBOUND:                -0.324
REMARK SMILES O=c1c(O)c(-c2ccc(O)c(O)c2)oc2cc(O)cc(O)c12
REMARK SMILES IDX 5 1 3 2 2 3 1 4 22 5 20 6 19 7 17 8 16 9 15 10 14 11 6 12
REMARK SMILES IDX 7 13 8 14 9 15 13 16 11 17 10 18 12 20 4 22 21 24 18 26
REMARK H PARENT 10 19 12 21 4 23 21 25 18 27
REMARK Flexibility Score: inf
ROOT
ATOM      1  C   UNL     1      17.051  24.765  33.103  1.00  0.00     0.180 A 
ATOM      2  C   UNL     1      15.920  25.042  33.891  1.00  0.00     0.208 A 
ATOM      3  C   UNL     1      15.658  26.371  34.262  1.00  0.00     0.238 A 
ATOM      4  O   UNL     1      14.615  26.619  34.920  1.00  0.00    -0.285 OA
ATOM      5  C   UNL     1      16.537  27.403  33.853  1.00  0.00     0.111 A 
ATOM      6  C   UNL     1      16.391  28.778  34.204  1.00  0.00     0.134 A 
ATOM      7  C   UNL     1      17.246  29.731  33.637  1.00  0.00     0.093 A 
ATOM      8  C   UNL     1      18.282  29.352  32.785  1.00  0.00     0.123 A 
ATOM      9  C   UNL     1      18.472  28.003  32.481  1.00  0.00     0.094 A 
ATOM     10  C   UNL     1      17.612  27.033  33.003  1.00  0.00     0.146 A 
ATOM     11  O   UNL     1      17.820  25.761  32.682  1.00  0.00    -0.452 OA
ENDROOT
BRANCH   1  12
ATOM     12  C   UNL     1      17.407  23.387  32.694  1.00  0.00     0.025 A 
ATOM     13  C   UNL     1      18.123  22.532  33.550  1.00  0.00     0.016 A 
ATOM     14  C   UNL     1      18.470  21.243  33.132  1.00  0.00     0.051 A 
ATOM     15  C   UNL     1      18.119  20.796  31.853  1.00  0.00     0.157 A 
ATOM     16  C   UNL     1      17.075  22.940  31.405  1.00  0.00     0.062 A 
ATOM     17  C   UNL     1      17.421  21.651  30.984  1.00  0.00     0.158 A 
BRANCH  15  18
ATOM     18  O   UNL     1      18.464  19.509  31.440  1.00  0.00    -0.504 OA
ATOM     19  H   UNL     1      18.462  19.248  30.461  1.00  0.00     0.293 HD
ENDBRANCH  15  18
BRANCH  17  20
ATOM     20  O   UNL     1      17.062  21.238  29.701  1.00  0.00    -0.504 OA
ATOM     21  H   UNL     1      16.128  21.374  29.333  1.00  0.00     0.293 HD
ENDBRANCH  17  20
ENDBRANCH   1  12
BRANCH   2  22
ATOM     22  O   UNL     1      15.053  24.011  34.264  1.00  0.00    -0.502 OA
ATOM     23  H   UNL     1      15.003  23.659  35.213  1.00  0.00     0.293 HD
ENDBRANCH   2  22
BRANCH   6  24
ATOM     24  O   UNL     1      15.446  29.254  35.119  1.00  0.00    -0.507 OA
ATOM     25  H   UNL     1      15.320  30.224  35.364  1.00  0.00     0.293 HD
ENDBRANCH   6  24
BRANCH   8  26
ATOM     26  O   UNL     1      19.125  30.325  32.251  1.00  0.00    -0.508 OA
ATOM     27  H   UNL     1      19.915  30.079  31.667  1.00  0.00     0.293 HD
ENDBRANCH   8  26
TORSDOF 6
ENDMDL
MODEL 2
REMARK VINA RESULT:    -6.178      3.186      4.364
REMARK INTER + INTRA:          -7.765
REMARK INTER:                  -7.480
REMARK INTRA:                  -0.286
REMARK UNBOUND:                -0.324
REMARK SMILES O=c1c(O)c(-c2ccc(O)c(O)c2)oc2cc(O)cc(O)c12
REMARK SMILES IDX 5 1 3 2 2 3 1 4 22 5 20 6 19 7 17 8 16 9 15 10 14 11 6 12
REMARK SMILES IDX 7 13 8 14 9 15 13 16 11 17 10 18 12 20 4 22 21 24 18 26
REMARK H PARENT 10 19 12 21 4 23 21 25 18 27
REMARK Flexibility Score: inf
ROOT
ATOM      1  C   UNL     1      16.065  24.632  31.568  1.00  0.00     0.180 A 
ATOM      2  C   UNL     1      16.639  25.638  30.772  1.00  0.00     0.208 A 
ATOM      3  C   UNL     1      15.833  26.699  30.328  1.00  0.00     0.238 A 
ATOM      4  O   UNL     1      16.365  27.624  29.663  1.00  0.00    -0.285 OA
ATOM      5  C   UNL     1      14.460  26.732  30.673  1.00  0.00     0.111 A 
ATOM      6  C   UNL     1      13.541  27.737  30.245  1.00  0.00     0.134 A 
ATOM      7  C   UNL     1      12.236  27.741  30.753  1.00  0.00     0.093 A 
ATOM      8  C   UNL     1      11.798  26.741  31.620  1.00  0.00     0.123 A 
ATOM      9  C   UNL     1      12.670  25.719  31.998  1.00  0.00     0.094 A 
ATOM     10  C   UNL     1      13.989  25.709  31.536  1.00  0.00     0.146 A 
ATOM     11  O   UNL     1      14.791  24.725  31.928  1.00  0.00    -0.452 OA
ENDROOT
BRANCH   1  12
ATOM     12  C   UNL     1      16.844  23.469  32.052  1.00  0.00     0.025 A 
ATOM     13  C   UNL     1      17.354  23.425  33.361  1.00  0.00     0.016 A 
ATOM     14  C   UNL     1      18.108  22.328  33.788  1.00  0.00     0.051 A 
ATOM     15  C   UNL     1      18.374  21.268  32.912  1.00  0.00     0.157 A 
ATOM     16  C   UNL     1      17.131  22.413  31.171  1.00  0.00     0.062 A 
ATOM     17  C   UNL     1      17.886  21.314  31.596  1.00  0.00     0.158 A 
BRANCH  15  18
ATOM     18  O   UNL     1      19.124  20.174  33.342  1.00  0.00    -0.504 OA
ATOM     19  H   UNL     1      20.137  20.206  33.374  1.00  0.00     0.293 HD
ENDBRANCH  15  18
BRANCH  17  20
ATOM     20  O   UNL     1      18.138  20.278  30.697  1.00  0.00    -0.504 OA
ATOM     21  H   UNL     1      17.439  19.952  30.040  1.00  0.00     0.293 HD
ENDBRANCH  17  20
ENDBRANCH   1  12
BRANCH   2  22
ATOM     22  O   UNL     1      18.001  25.598  30.462  1.00  0.00    -0.502 OA
ATOM     23  H   UNL     1      18.509  24.728  30.351  1.00  0.00     0.293 HD
ENDBRANCH   2  22
BRANCH   6  24
ATOM     24  O   UNL     1      13.850  28.729  29.310  1.00  0.00    -0.507 OA
ATOM     25  H   UNL     1      14.110  29.676  29.542  1.00  0.00     0.293 HD
ENDBRANCH   6  24
BRANCH   8  26
ATOM     26  O   UNL     1      10.487  26.767  32.093  1.00  0.00    -0.508 OA
ATOM     27  H   UNL     1       9.778  26.144  31.725  1.00  0.00     0.293 HD
ENDBRANCH   8  26
TORSDOF 6
ENDMDL
MODEL 3
REMARK VINA RESULT:    -6.135      2.212      2.979
REMARK INTER + INTRA:          -7.714
REMARK INTER:                  -7.763
REMARK INTRA:                   0.049
REMARK UNBOUND:                -0.324
REMARK SMILES O=c1c(O)c(-c2ccc(O)c(O)c2)oc2cc(O)cc(O)c12
REMARK SMILES IDX 5 1 3 2 2 3 1 4 22 5 20 6 19 7 17 8 16 9 15 10 14 11 6 12
REMARK SMILES IDX 7 13 8 14 9 15 13 16 11 17 10 18 12 20 4 22 21 24 18 26
REMARK H PARENT 10 19 12 21 4 23 21 25 18 27
REMARK Flexibility Score: inf
ROOT
ATOM      1  C   UNL     1      17.696  22.720  32.594  1.00  0.00     0.180 A 
ATOM      2  C   UNL     1      18.022  23.334  33.816  1.00  0.00     0.208 A 
ATOM      3  C   UNL     1      17.914  24.730  33.926  1.00  0.00     0.238 A 
ATOM      4  O   UNL     1      18.155  25.268  35.038  1.00  0.00    -0.285 OA
ATOM      5  C   UNL     1      17.498  25.495  32.811  1.00  0.00     0.111 A 
ATOM      6  C   UNL     1      17.392  26.918  32.798  1.00  0.00     0.134 A 
ATOM      7  C   UNL     1      16.845  27.561  31.680  1.00  0.00     0.093 A 
ATOM      8  C   UNL     1      16.461  26.838  30.551  1.00  0.00     0.123 A 
ATOM      9  C   UNL     1      16.615  25.452  30.529  1.00  0.00     0.094 A 
ATOM     10  C   UNL     1      17.124  24.780  31.644  1.00  0.00     0.146 A 
ATOM     11  O   UNL     1      17.246  23.458  31.587  1.00  0.00    -0.452 OA
ENDROOT
BRANCH   1  12
ATOM     12  C   UNL     1      17.808  21.258  32.393  1.00  0.00     0.025 A 
ATOM     13  C   UNL     1      18.934  20.543  32.835  1.00  0.00     0.016 A 
ATOM     14  C   UNL     1      19.029  19.166  32.612  1.00  0.00     0.051 A 
ATOM     15  C   UNL     1      18.009  18.487  31.935  1.00  0.00     0.157 A 
ATOM     16  C   UNL     1      16.797  20.575  31.696  1.00  0.00     0.062 A 
ATOM     17  C   UNL     1      16.889  19.197  31.472  1.00  0.00     0.158 A 
BRANCH  15  18
ATOM     18  O   UNL     1      18.106  17.113  31.716  1.00  0.00    -0.504 OA
ATOM     19  H   UNL     1      18.805  16.549  32.186  1.00  0.00     0.293 HD
ENDBRANCH  15  18
BRANCH  17  20
ATOM     20  O   UNL     1      15.859  18.552  30.788  1.00  0.00    -0.504 OA
ATOM     21  H   UNL     1      16.021  18.035  29.932  1.00  0.00     0.293 HD
ENDBRANCH  17  20
ENDBRANCH   1  12
BRANCH   2  22
ATOM     22  O   UNL     1      18.410  22.558  34.912  1.00  0.00    -0.502 OA
ATOM     23  H   UNL     1      18.767  22.965  35.768  1.00  0.00     0.293 HD
ENDBRANCH   2  22
BRANCH   6  24
ATOM     24  O   UNL     1      17.831  27.743  33.838  1.00  0.00    -0.507 OA
ATOM     25  H   UNL     1      18.008  28.732  33.752  1.00  0.00     0.293 HD
ENDBRANCH   6  24
BRANCH   8  26
ATOM     26  O   UNL     1      15.935  27.512  29.450  1.00  0.00    -0.508 OA
ATOM     27  H   UNL     1      14.971  27.822  29.429  1.00  0.00     0.293 HD
ENDBRANCH   8  26
TORSDOF 6
ENDMDL
MODEL 4
REMARK VINA RESULT:    -6.039      3.308      4.614
REMARK INTER + INTRA:          -7.598
REMARK INTER:                  -7.270
REMARK INTRA:                  -0.328
REMARK UNBOUND:                -0.324
REMARK SMILES O=c1c(O)c(-c2ccc(O)c(O)c2)oc2cc(O)cc(O)c12
REMARK SMILES IDX 5 1 3 2 2 3 1 4 22 5 20 6 19 7 17 8 16 9 15 10 14 11 6 12
REMARK SMILES IDX 7 13 8 14 9 15 13 16 11 17 10 18 12 20 4 22 21 24 18 26
REMARK H PARENT 10 19 12 21 4 23 21 25 18 27
REMARK Flexibility Score: inf
ROOT
ATOM      1  C   UNL     1      16.096  24.631  31.445  1.00  0.00     0.180 A 
ATOM      2  C   UNL     1      16.642  25.668  30.670  1.00  0.00     0.208 A 
ATOM      3  C   UNL     1      15.813  26.730  30.273  1.00  0.00     0.238 A 
ATOM      4  O   UNL     1      16.321  27.683  29.625  1.00  0.00    -0.285 OA
ATOM      5  C   UNL     1      14.447  26.734  30.642  1.00  0.00     0.111 A 
ATOM      6  C   UNL     1      13.507  27.739  30.262  1.00  0.00     0.134 A 
ATOM      7  C   UNL     1      12.212  27.710  30.792  1.00  0.00     0.093 A 
ATOM      8  C   UNL     1      11.803  26.679  31.637  1.00  0.00     0.123 A 
ATOM      9  C   UNL     1      12.695  25.659  31.969  1.00  0.00     0.094 A 
ATOM     10  C   UNL     1      14.005  25.680  31.483  1.00  0.00     0.146 A 
ATOM     11  O   UNL     1      14.827  24.696  31.831  1.00  0.00    -0.452 OA
ENDROOT
BRANCH   1  12
ATOM     12  C   UNL     1      16.899  23.466  31.881  1.00  0.00     0.025 A 
ATOM     13  C   UNL     1      17.081  22.350  31.046  1.00  0.00     0.016 A 
ATOM     14  C   UNL     1      17.824  21.251  31.488  1.00  0.00     0.051 A 
ATOM     15  C   UNL     1      18.382  21.245  32.772  1.00  0.00     0.157 A 
ATOM     16  C   UNL     1      17.445  23.446  33.175  1.00  0.00     0.062 A 
ATOM     17  C   UNL     1      18.188  22.348  33.621  1.00  0.00     0.158 A 
BRANCH  15  18
ATOM     18  O   UNL     1      19.124  20.148  33.209  1.00  0.00    -0.504 OA
ATOM     19  H   UNL     1      19.646  20.173  34.078  1.00  0.00     0.293 HD
ENDBRANCH  15  18
BRANCH  17  20
ATOM     20  O   UNL     1      18.726  22.370  34.908  1.00  0.00    -0.504 OA
ATOM     21  H   UNL     1      19.475  23.000  35.167  1.00  0.00     0.293 HD
ENDBRANCH  17  20
ENDBRANCH   1  12
BRANCH   2  22
ATOM     22  O   UNL     1      17.999  25.656  30.335  1.00  0.00    -0.502 OA
ATOM     23  H   UNL     1      18.448  26.427  29.854  1.00  0.00     0.293 HD
ENDBRANCH   2  22
BRANCH   6  24
ATOM     24  O   UNL     1      13.786  28.763  29.351  1.00  0.00    -0.507 OA
ATOM     25  H   UNL     1      13.512  28.759  28.380  1.00  0.00     0.293 HD
ENDBRANCH   6  24
BRANCH   8  26
ATOM     26  O   UNL     1      10.501  26.673  32.134  1.00  0.00    -0.508 OA
ATOM     27  H   UNL     1       9.737  26.258  31.614  1.00  0.00     0.293 HD
ENDBRANCH   8  26
TORSDOF 6
ENDMDL
MODEL 5
REMARK VINA RESULT:    -6.038      1.851      3.428
REMARK INTER + INTRA:          -7.598
REMARK INTER:                  -7.518
REMARK INTRA:                  -0.080
REMARK UNBOUND:                -0.324
REMARK SMILES O=c1c(O)c(-c2ccc(O)c(O)c2)oc2cc(O)cc(O)c12
REMARK SMILES IDX 5 1 3 2 2 3 1 4 22 5 20 6 19 7 17 8 16 9 15 10 14 11 6 12
REMARK SMILES IDX 7 13 8 14 9 15 13 16 11 17 10 18 12 20 4 22 21 24 18 26
REMARK H PARENT 10 19 12 21 4 23 21 25 18 27
REMARK Flexibility Score: inf
ROOT
ATOM      1  C   UNL     1      16.414  24.358  33.505  1.00  0.00     0.180 A 
ATOM      2  C   UNL     1      17.157  25.448  33.991  1.00  0.00     0.208 A 
ATOM      3  C   UNL     1      16.474  26.590  34.442  1.00  0.00     0.238 A 
ATOM      4  O   UNL     1      17.141  27.540  34.927  1.00  0.00    -0.285 OA
ATOM      5  C   UNL     1      15.060  26.633  34.386  1.00  0.00     0.111 A 
ATOM      6  C   UNL     1      14.268  27.754  34.779  1.00  0.00     0.134 A 
ATOM      7  C   UNL     1      12.872  27.638  34.804  1.00  0.00     0.093 A 
ATOM      8  C   UNL     1      12.239  26.467  34.389  1.00  0.00     0.123 A 
ATOM      9  C   UNL     1      13.002  25.386  33.947  1.00  0.00     0.094 A 
ATOM     10  C   UNL     1      14.398  25.459  33.945  1.00  0.00     0.146 A 
ATOM     11  O   UNL     1      15.088  24.404  33.527  1.00  0.00    -0.452 OA
ENDROOT
BRANCH   1  12
ATOM     12  C   UNL     1      17.063  23.131  32.990  1.00  0.00     0.025 A 
ATOM     13  C   UNL     1      17.938  22.375  33.789  1.00  0.00     0.016 A 
ATOM     14  C   UNL     1      18.557  21.233  33.273  1.00  0.00     0.051 A 
ATOM     15  C   UNL     1      18.323  20.838  31.950  1.00  0.00     0.157 A 
ATOM     16  C   UNL     1      16.847  22.742  31.658  1.00  0.00     0.062 A 
ATOM     17  C   UNL     1      17.466  21.599  31.138  1.00  0.00     0.158 A 
BRANCH  15  18
ATOM     18  O   UNL     1      18.941  19.697  31.439  1.00  0.00    -0.504 OA
ATOM     19  H   UNL     1      19.720  19.761  30.793  1.00  0.00     0.293 HD
ENDBRANCH  15  18
BRANCH  17  20
ATOM     20  O   UNL     1      17.217  21.237  29.814  1.00  0.00    -0.504 OA
ATOM     21  H   UNL     1      16.299  21.321  29.397  1.00  0.00     0.293 HD
ENDBRANCH  17  20
ENDBRANCH   1  12
BRANCH   2  22
ATOM     22  O   UNL     1      18.551  25.376  34.059  1.00  0.00    -0.502 OA
ATOM     23  H   UNL     1      19.140  26.200  34.044  1.00  0.00     0.293 HD
ENDBRANCH   2  22
BRANCH   6  24
ATOM     24  O   UNL     1      14.797  29.001  35.124  1.00  0.00    -0.507 OA
ATOM     25  H   UNL     1      14.755  29.408  36.046  1.00  0.00     0.293 HD
ENDBRANCH   6  24
BRANCH   8  26
ATOM     26  O   UNL     1      10.848  26.392  34.412  1.00  0.00    -0.508 OA
ATOM     27  H   UNL     1      10.279  27.182  34.694  1.00  0.00     0.293 HD
ENDBRANCH   8  26
TORSDOF 6
ENDMDL
MODEL 6
REMARK VINA RESULT:    -5.764      3.009      6.580
REMARK INTER + INTRA:          -7.267
REMARK INTER:                  -6.944
REMARK INTRA:                  -0.322
REMARK UNBOUND:                -0.324
REMARK SMILES O=c1c(O)c(-c2ccc(O)c(O)c2)oc2cc(O)cc(O)c12
REMARK SMILES IDX 5 1 3 2 2 3 1 4 22 5 20 6 19 7 17 8 16 9 15 10 14 11 6 12
REMARK SMILES IDX 7 13 8 14 9 15 13 16 11 17 10 18 12 20 4 22 21 24 18 26
REMARK H PARENT 10 19 12 21 4 23 21 25 18 27
REMARK Flexibility Score: inf
ROOT
ATOM      1  C   UNL     1      15.600  24.739  32.281  1.00  0.00     0.180 A 
ATOM      2  C   UNL     1      16.204  25.071  33.506  1.00  0.00     0.208 A 
ATOM      3  C   UNL     1      17.161  24.200  34.051  1.00  0.00     0.238 A 
ATOM      4  O   UNL     1      17.738  24.530  35.120  1.00  0.00    -0.285 OA
ATOM      5  C   UNL     1      17.491  23.001  33.374  1.00  0.00     0.111 A 
ATOM      6  C   UNL     1      18.416  22.027  33.854  1.00  0.00     0.134 A 
ATOM      7  C   UNL     1      18.763  20.943  33.039  1.00  0.00     0.093 A 
ATOM      8  C   UNL     1      18.170  20.762  31.790  1.00  0.00     0.123 A 
ATOM      9  C   UNL     1      17.219  21.676  31.335  1.00  0.00     0.094 A 
ATOM     10  C   UNL     1      16.880  22.788  32.111  1.00  0.00     0.146 A 
ATOM     11  O   UNL     1      15.978  23.641  31.637  1.00  0.00    -0.452 OA
ENDROOT
BRANCH   1  12
ATOM     12  C   UNL     1      14.565  25.593  31.655  1.00  0.00     0.025 A 
ATOM     13  C   UNL     1      14.911  26.653  30.800  1.00  0.00     0.016 A 
ATOM     14  C   UNL     1      13.918  27.462  30.240  1.00  0.00     0.051 A 
ATOM     15  C   UNL     1      12.568  27.233  30.537  1.00  0.00     0.157 A 
ATOM     16  C   UNL     1      13.212  25.380  31.966  1.00  0.00     0.062 A 
ATOM     17  C   UNL     1      12.215  26.188  31.407  1.00  0.00     0.158 A 
BRANCH  15  18
ATOM     18  O   UNL     1      11.580  28.040  29.975  1.00  0.00    -0.504 OA
ATOM     19  H   UNL     1      11.599  28.298  28.995  1.00  0.00     0.293 HD
ENDBRANCH  15  18
BRANCH  17  20
ATOM     20  O   UNL     1      10.881  25.937  31.728  1.00  0.00    -0.504 OA
ATOM     21  H   UNL     1      10.378  25.142  31.355  1.00  0.00     0.293 HD
ENDBRANCH  17  20
ENDBRANCH   1  12
BRANCH   2  22
ATOM     22  O   UNL     1      15.881  26.270  34.147  1.00  0.00    -0.502 OA
ATOM     23  H   UNL     1      15.005  26.406  34.638  1.00  0.00     0.293 HD
ENDBRANCH   2  22
BRANCH   6  24
ATOM     24  O   UNL     1      18.998  22.064  35.125  1.00  0.00    -0.507 OA
ATOM     25  H   UNL     1      19.225  22.907  35.630  1.00  0.00     0.293 HD
ENDBRANCH   6  24
BRANCH   8  26
ATOM     26  O   UNL     1      18.526  19.662  31.012  1.00  0.00    -0.508 OA
ATOM     27  H   UNL     1      18.019  19.423  30.169  1.00  0.00     0.293 HD
ENDBRANCH   8  26
TORSDOF 6
ENDMDL
MODEL 7
REMARK VINA RESULT:    -5.714      4.566      6.325
REMARK INTER + INTRA:          -7.207
REMARK INTER:                  -6.921
REMARK INTRA:                  -0.286
REMARK UNBOUND:                -0.324
REMARK SMILES O=c1c(O)c(-c2ccc(O)c(O)c2)oc2cc(O)cc(O)c12
REMARK SMILES IDX 5 1 3 2 2 3 1 4 22 5 20 6 19 7 17 8 16 9 15 10 14 11 6 12
REMARK SMILES IDX 7 13 8 14 9 15 13 16 11 17 10 18 12 20 4 22 21 24 18 26
REMARK H PARENT 10 19 12 21 4 23 21 25 18 27
REMARK Flexibility Score: inf
ROOT
ATOM      1  C   UNL     1      15.052  25.894  29.697  1.00  0.00     0.180 A 
ATOM      2  C   UNL     1      15.719  25.128  30.669  1.00  0.00     0.208 A 
ATOM      3  C   UNL     1      15.117  24.951  31.926  1.00  0.00     0.238 A 
ATOM      4  O   UNL     1      15.693  24.219  32.773  1.00  0.00    -0.285 OA
ATOM      5  C   UNL     1      13.865  25.552  32.200  1.00  0.00     0.111 A 
ATOM      6  C   UNL     1      13.184  25.472  33.451  1.00  0.00     0.134 A 
ATOM      7  C   UNL     1      11.890  25.996  33.568  1.00  0.00     0.093 A 
ATOM      8  C   UNL     1      11.281  26.655  32.501  1.00  0.00     0.123 A 
ATOM      9  C   UNL     1      11.962  26.792  31.291  1.00  0.00     0.094 A 
ATOM     10  C   UNL     1      13.239  26.247  31.133  1.00  0.00     0.146 A 
ATOM     11  O   UNL     1      13.850  26.391  29.962  1.00  0.00    -0.452 OA
ENDROOT
BRANCH   1  12
ATOM     12  C   UNL     1      15.633  26.147  28.359  1.00  0.00     0.025 A 
ATOM     13  C   UNL     1      15.231  25.406  27.235  1.00  0.00     0.016 A 
ATOM     14  C   UNL     1      15.812  25.646  25.986  1.00  0.00     0.051 A 
ATOM     15  C   UNL     1      16.810  26.618  25.845  1.00  0.00     0.157 A 
ATOM     16  C   UNL     1      16.649  27.107  28.217  1.00  0.00     0.062 A 
ATOM     17  C   UNL     1      17.233  27.349  26.968  1.00  0.00     0.158 A 
BRANCH  15  18
ATOM     18  O   UNL     1      17.385  26.857  24.598  1.00  0.00    -0.504 OA
ATOM     19  H   UNL     1      16.833  26.844  23.748  1.00  0.00     0.293 HD
ENDBRANCH  15  18
BRANCH  17  20
ATOM     20  O   UNL     1      18.229  28.320  26.863  1.00  0.00    -0.504 OA
ATOM     21  H   UNL     1      18.202  29.179  27.397  1.00  0.00     0.293 HD
ENDBRANCH  17  20
ENDBRANCH   1  12
BRANCH   2  22
ATOM     22  O   UNL     1      16.943  24.525  30.371  1.00  0.00    -0.502 OA
ATOM     23  H   UNL     1      17.517  24.079  31.078  1.00  0.00     0.293 HD
ENDBRANCH   2  22
BRANCH   6  24
ATOM     24  O   UNL     1      13.738  24.915  34.607  1.00  0.00    -0.507 OA
ATOM     25  H   UNL     1      14.633  25.172  34.997  1.00  0.00     0.293 HD
ENDBRANCH   6  24
BRANCH   8  26
ATOM     26  O   UNL     1       9.999  27.179  32.658  1.00  0.00    -0.508 OA
ATOM     27  H   UNL     1       9.765  28.110  32.336  1.00  0.00     0.293 HD
ENDBRANCH   8  26
TORSDOF 6
ENDMDL
MODEL 8
REMARK VINA RESULT:    -5.644      3.434      6.619
REMARK INTER + INTRA:          -7.123
REMARK INTER:                  -6.803
REMARK INTRA:                  -0.320
REMARK UNBOUND:                -0.324
REMARK SMILES O=c1c(O)c(-c2ccc(O)c(O)c2)oc2cc(O)cc(O)c12
REMARK SMILES IDX 5 1 3 2 2 3 1 4 22 5 20 6 19 7 17 8 16 9 15 10 14 11 6 12
REMARK SMILES IDX 7 13 8 14 9 15 13 16 11 17 10 18 12 20 4 22 21 24 18 26
REMARK H PARENT 10 19 12 21 4 23 21 25 18 27
REMARK Flexibility Score: inf
ROOT
ATOM      1  C   UNL     1      16.273  24.789  31.061  1.00  0.00     0.180 A 
ATOM      2  C   UNL     1      16.769  25.293  32.275  1.00  0.00     0.208 A 
ATOM      3  C   UNL     1      17.472  24.430  33.133  1.00  0.00     0.238 A 
ATOM      4  O   UNL     1      17.961  24.900  34.193  1.00  0.00    -0.285 OA
ATOM      5  C   UNL     1      17.655  23.074  32.773  1.00  0.00     0.111 A 
ATOM      6  C   UNL     1      18.315  22.102  33.584  1.00  0.00     0.134 A 
ATOM      7  C   UNL     1      18.554  20.821  33.071  1.00  0.00     0.093 A 
ATOM      8  C   UNL     1      18.098  20.457  31.805  1.00  0.00     0.123 A 
ATOM      9  C   UNL     1      17.399  21.380  31.027  1.00  0.00     0.094 A 
ATOM     10  C   UNL     1      17.178  22.677  31.497  1.00  0.00     0.146 A 
ATOM     11  O   UNL     1      16.517  23.530  30.721  1.00  0.00    -0.452 OA
ENDROOT
BRANCH   1  12
ATOM     12  C   UNL     1      15.501  25.630  30.116  1.00  0.00     0.025 A 
ATOM     13  C   UNL     1      16.133  26.324  29.070  1.00  0.00     0.016 A 
ATOM     14  C   UNL     1      15.388  27.131  28.206  1.00  0.00     0.051 A 
ATOM     15  C   UNL     1      14.005  27.266  28.381  1.00  0.00     0.157 A 
ATOM     16  C   UNL     1      14.117  25.785  30.301  1.00  0.00     0.062 A 
ATOM     17  C   UNL     1      13.368  26.593  29.437  1.00  0.00     0.158 A 
BRANCH  15  18
ATOM     18  O   UNL     1      13.264  28.070  27.516  1.00  0.00    -0.504 OA
ATOM     19  H   UNL     1      13.714  28.690  26.852  1.00  0.00     0.293 HD
ENDBRANCH  15  18
BRANCH  17  20
ATOM     20  O   UNL     1      11.994  26.712  29.643  1.00  0.00    -0.504 OA
ATOM     21  H   UNL     1      11.513  26.205  30.376  1.00  0.00     0.293 HD
ENDBRANCH  17  20
ENDBRANCH   1  12
BRANCH   2  22
ATOM     22  O   UNL     1      16.596  26.641  32.601  1.00  0.00    -0.502 OA
ATOM     23  H   UNL     1      15.854  26.963  33.210  1.00  0.00     0.293 HD
ENDBRANCH   2  22
BRANCH   6  24
ATOM     24  O   UNL     1      18.729  22.335  34.899  1.00  0.00    -0.507 OA
ATOM     25  H   UNL     1      18.401  21.824  35.704  1.00  0.00     0.293 HD
ENDBRANCH   6  24
BRANCH   8  26
ATOM     26  O   UNL     1      18.339  19.168  31.332  1.00  0.00    -0.508 OA
ATOM     27  H   UNL     1      18.887  18.503  31.863  1.00  0.00     0.293 HD
ENDBRANCH   8  26
TORSDOF 6
ENDMDL
MODEL 9
REMARK VINA RESULT:    -5.559      4.598      6.888
REMARK INTER + INTRA:          -7.020
REMARK INTER:                  -6.686
REMARK INTRA:                  -0.334
REMARK UNBOUND:                -0.324
REMARK SMILES O=c1c(O)c(-c2ccc(O)c(O)c2)oc2cc(O)cc(O)c12
REMARK SMILES IDX 5 1 3 2 2 3 1 4 22 5 20 6 19 7 17 8 16 9 15 10 14 11 6 12
REMARK SMILES IDX 7 13 8 14 9 15 13 16 11 17 10 18 12 20 4 22 21 24 18 26
REMARK H PARENT 10 19 12 21 4 23 21 25 18 27
REMARK Flexibility Score: inf
ROOT
ATOM      1  C   UNL     1      16.231  26.757  29.371  1.00  0.00     0.180 A 
ATOM      2  C   UNL     1      17.078  26.031  30.225  1.00  0.00     0.208 A 
ATOM      3  C   UNL     1      16.516  25.324  31.301  1.00  0.00     0.238 A 
ATOM      4  O   UNL     1      17.273  24.632  32.030  1.00  0.00    -0.285 OA
ATOM      5  C   UNL     1      15.117  25.366  31.518  1.00  0.00     0.111 A 
ATOM      6  C   UNL     1      14.445  24.721  32.599  1.00  0.00     0.134 A 
ATOM      7  C   UNL     1      13.046  24.720  32.641  1.00  0.00     0.093 A 
ATOM      8  C   UNL     1      12.297  25.397  31.679  1.00  0.00     0.123 A 
ATOM      9  C   UNL     1      12.945  26.081  30.651  1.00  0.00     0.094 A 
ATOM     10  C   UNL     1      14.339  26.068  30.562  1.00  0.00     0.146 A 
ATOM     11  O   UNL     1      14.917  26.723  29.561  1.00  0.00    -0.452 OA
ENDROOT
BRANCH   1  12
ATOM     12  C   UNL     1      16.751  27.547  28.231  1.00  0.00     0.025 A 
ATOM     13  C   UNL     1      17.146  28.886  28.389  1.00  0.00     0.016 A 
ATOM     14  C   UNL     1      17.611  29.620  27.294  1.00  0.00     0.051 A 
ATOM     15  C   UNL     1      17.675  29.031  26.024  1.00  0.00     0.157 A 
ATOM     16  C   UNL     1      16.798  26.968  26.952  1.00  0.00     0.062 A 
ATOM     17  C   UNL     1      17.262  27.699  25.853  1.00  0.00     0.158 A 
BRANCH  15  18
ATOM     18  O   UNL     1      18.142  29.764  24.934  1.00  0.00    -0.504 OA
ATOM     19  H   UNL     1      17.506  30.242  24.305  1.00  0.00     0.293 HD
ENDBRANCH  15  18
BRANCH  17  20
ATOM     20  O   UNL     1      17.307  27.086  24.601  1.00  0.00    -0.504 OA
ATOM     21  H   UNL     1      17.235  27.614  23.740  1.00  0.00     0.293 HD
ENDBRANCH  17  20
ENDBRANCH   1  12
BRANCH   2  22
ATOM     22  O   UNL     1      18.453  25.986  29.981  1.00  0.00    -0.502 OA
ATOM     23  H   UNL     1      18.923  26.660  29.388  1.00  0.00     0.293 HD
ENDBRANCH   2  22
BRANCH   6  24
ATOM     24  O   UNL     1      15.102  24.094  33.663  1.00  0.00    -0.507 OA
ATOM     25  H   UNL     1      15.958  24.422  34.083  1.00  0.00     0.293 HD
ENDBRANCH   6  24
BRANCH   8  26
ATOM     26  O   UNL     1      10.905  25.389  31.761  1.00  0.00    -0.508 OA
ATOM     27  H   UNL     1      10.401  24.596  32.138  1.00  0.00     0.293 HD
ENDBRANCH   8  26
TORSDOF 6
ENDMDL
