MODEL 1
REMARK VINA RESULT:    -7.671      0.000      0.000
REMARK INTER + INTRA:          -9.837
REMARK INTER:                  -9.464
REMARK INTRA:                  -0.373
REMARK UNBOUND:                -0.373
REMARK SMILES Oc1cc(O)c2cc(O)c(-c3cc(O)c(O)c(O)c3)[o+]c2c1
REMARK SMILES IDX 10 1 20 2 21 3 22 4 2 5 3 6 4 7 6 8 7 9 8 10 11 11 12 12
REMARK SMILES IDX 13 13 19 14 15 15 17 16 14 17 16 19 18 21 9 23 1 25 5 27
REMARK H PARENT 14 18 16 20 18 22 9 24 1 26 5 28
REMARK Flexibility Score: inf
ROOT
ATOM      1  C   UNL     1      22.270  58.618  36.368  1.00  0.00     0.402 A 
ATOM      2  O   UNL     1      22.056  57.592  35.548  1.00  0.00    -0.202 OA
ATOM      3  C   UNL     1      22.674  57.451  34.379  1.00  0.00     0.368 A 
ATOM      4  C   UNL     1      22.379  56.340  33.584  1.00  0.00     0.162 A 
ATOM      5  C   UNL     1      23.012  56.168  32.350  1.00  0.00     0.128 A 
ATOM      6  C   UNL     1      23.941  57.112  31.907  1.00  0.00     0.093 A 
ATOM      7  C   UNL     1      24.254  58.235  32.685  1.00  0.00     0.136 A 
ATOM      8  C   UNL     1      23.616  58.412  33.940  1.00  0.00     0.125 A 
ATOM      9  C   UNL     1      23.876  59.498  34.792  1.00  0.00     0.078 A 
ATOM     10  C   UNL     1      23.212  59.602  36.018  1.00  0.00     0.223 A 
ENDROOT
BRANCH   1  11
ATOM     11  C   UNL     1      21.513  58.667  37.639  1.00  0.00     0.091 A 
ATOM     12  C   UNL     1      20.256  59.291  37.671  1.00  0.00     0.068 A 
ATOM     13  C   UNL     1      19.528  59.370  38.861  1.00  0.00     0.162 A 
ATOM     14  C   UNL     1      22.051  58.153  38.831  1.00  0.00     0.068 A 
ATOM     15  C   UNL     1      20.059  58.835  40.047  1.00  0.00     0.200 A 
ATOM     16  C   UNL     1      21.328  58.229  40.030  1.00  0.00     0.162 A 
BRANCH  13  17
ATOM     17  O   UNL     1      18.276  59.985  38.847  1.00  0.00    -0.504 OA
ATOM     18  H   UNL     1      18.148  60.940  38.537  1.00  0.00     0.293 HD
ENDBRANCH  13  17
BRANCH  15  19
ATOM     19  O   UNL     1      19.325  58.916  41.231  1.00  0.00    -0.502 OA
ATOM     20  H   UNL     1      19.086  58.096  41.774  1.00  0.00     0.293 HD
ENDBRANCH  15  19
BRANCH  16  21
ATOM     21  O   UNL     1      21.868  57.709  41.206  1.00  0.00    -0.504 OA
ATOM     22  H   UNL     1      22.810  57.933  41.501  1.00  0.00     0.293 HD
ENDBRANCH  16  21
ENDBRANCH   1  11
BRANCH  10  23
ATOM     23  O   UNL     1      23.506  60.654  36.886  1.00  0.00    -0.500 OA
ATOM     24  H   UNL     1      22.822  61.008  37.546  1.00  0.00     0.294 HD
ENDBRANCH  10  23
BRANCH   5  25
ATOM     25  O   UNL     1      22.723  55.063  31.552  1.00  0.00    -0.507 OA
ATOM     26  H   UNL     1      23.372  54.737  30.845  1.00  0.00     0.293 HD
ENDBRANCH   5  25
BRANCH   7  27
ATOM     27  O   UNL     1      25.191  59.134  32.170  1.00  0.00    -0.507 OA
ATOM     28  H   UNL     1      25.000  59.797  31.433  1.00  0.00     0.293 HD
ENDBRANCH   7  27
TORSDOF 7
ENDMDL
MODEL 2
REMARK VINA RESULT:    -7.462     12.528     13.454
REMARK INTER + INTRA:          -9.580
REMARK INTER:                  -9.558
REMARK INTRA:                  -0.022
REMARK UNBOUND:                -0.373
REMARK SMILES Oc1cc(O)c2cc(O)c(-c3cc(O)c(O)c(O)c3)[o+]c2c1
REMARK SMILES IDX 10 1 20 2 21 3 22 4 2 5 3 6 4 7 6 8 7 9 8 10 11 11 12 12
REMARK SMILES IDX 13 13 19 14 15 15 17 16 14 17 16 19 18 21 9 23 1 25 5 27
REMARK H PARENT 14 18 16 20 18 22 9 24 1 26 5 28
REMARK Flexibility Score: inf
ROOT
ATOM      1  C   UNL     1      34.347  56.358  31.066  1.00  0.00     0.402 A 
ATOM      2  O   UNL     1      33.569  55.441  30.498  1.00  0.00    -0.202 OA
ATOM      3  C   UNL     1      33.467  55.283  29.181  1.00  0.00     0.368 A 
ATOM      4  C   UNL     1      32.619  54.293  28.679  1.00  0.00     0.162 A 
ATOM      5  C   UNL     1      32.492  54.108  27.300  1.00  0.00     0.128 A 
ATOM      6  C   UNL     1      33.213  54.917  26.419  1.00  0.00     0.093 A 
ATOM      7  C   UNL     1      34.070  55.917  26.898  1.00  0.00     0.136 A 
ATOM      8  C   UNL     1      34.205  56.107  28.298  1.00  0.00     0.125 A 
ATOM      9  C   UNL     1      35.048  57.075  28.867  1.00  0.00     0.078 A 
ATOM     10  C   UNL     1      35.134  57.199  30.258  1.00  0.00     0.223 A 
ENDROOT
BRANCH   1  11
ATOM     11  C   UNL     1      34.367  56.441  32.544  1.00  0.00     0.091 A 
ATOM     12  C   UNL     1      34.387  55.260  33.302  1.00  0.00     0.068 A 
ATOM     13  C   UNL     1      34.386  55.308  34.699  1.00  0.00     0.162 A 
ATOM     14  C   UNL     1      34.309  57.678  33.208  1.00  0.00     0.068 A 
ATOM     15  C   UNL     1      34.350  56.548  35.360  1.00  0.00     0.200 A 
ATOM     16  C   UNL     1      34.307  57.735  34.609  1.00  0.00     0.162 A 
BRANCH  13  17
ATOM     17  O   UNL     1      34.421  54.111  35.416  1.00  0.00    -0.504 OA
ATOM     18  H   UNL     1      35.073  53.368  35.193  1.00  0.00     0.293 HD
ENDBRANCH  13  17
BRANCH  15  19
ATOM     19  O   UNL     1      34.352  56.587  36.754  1.00  0.00    -0.502 OA
ATOM     20  H   UNL     1      34.769  57.350  37.272  1.00  0.00     0.293 HD
ENDBRANCH  15  19
BRANCH  16  21
ATOM     21  O   UNL     1      34.256  58.969  35.257  1.00  0.00    -0.504 OA
ATOM     22  H   UNL     1      34.821  59.163  36.074  1.00  0.00     0.293 HD
ENDBRANCH  16  21
ENDBRANCH   1  11
BRANCH  10  23
ATOM     23  O   UNL     1      36.008  58.126  30.825  1.00  0.00    -0.500 OA
ATOM     24  H   UNL     1      35.860  58.497  31.757  1.00  0.00     0.294 HD
ENDBRANCH  10  23
BRANCH   5  25
ATOM     25  O   UNL     1      31.648  53.122  26.791  1.00  0.00    -0.507 OA
ATOM     26  H   UNL     1      31.968  52.459  26.096  1.00  0.00     0.293 HD
ENDBRANCH   5  25
BRANCH   7  27
ATOM     27  O   UNL     1      34.753  56.686  25.952  1.00  0.00    -0.507 OA
ATOM     28  H   UNL     1      35.014  56.359  25.033  1.00  0.00     0.293 HD
ENDBRANCH   7  27
TORSDOF 7
ENDMDL
MODEL 3
REMARK VINA RESULT:    -7.421      2.084      6.694
REMARK INTER + INTRA:          -9.529
REMARK INTER:                  -9.151
REMARK INTRA:                  -0.378
REMARK UNBOUND:                -0.373
REMARK SMILES Oc1cc(O)c2cc(O)c(-c3cc(O)c(O)c(O)c3)[o+]c2c1
REMARK SMILES IDX 10 1 20 2 21 3 22 4 2 5 3 6 4 7 6 8 7 9 8 10 11 11 12 12
REMARK SMILES IDX 13 13 19 14 15 15 17 16 14 17 16 19 18 21 9 23 1 25 5 27
REMARK H PARENT 14 18 16 20 18 22 9 24 1 26 5 28
REMARK Flexibility Score: inf
ROOT
ATOM      1  C   UNL     1      22.360  58.395  36.421  1.00  0.00     0.402 A 
ATOM      2  O   UNL     1      21.953  57.555  37.370  1.00  0.00    -0.202 OA
ATOM      3  C   UNL     1      22.017  57.835  38.668  1.00  0.00     0.368 A 
ATOM      4  C   UNL     1      21.568  56.886  39.591  1.00  0.00     0.162 A 
ATOM      5  C   UNL     1      21.627  57.152  40.961  1.00  0.00     0.128 A 
ATOM      6  C   UNL     1      22.138  58.371  41.412  1.00  0.00     0.093 A 
ATOM      7  C   UNL     1      22.594  59.339  40.508  1.00  0.00     0.136 A 
ATOM      8  C   UNL     1      22.535  59.075  39.115  1.00  0.00     0.125 A 
ATOM      9  C   UNL     1      22.957  59.989  38.136  1.00  0.00     0.078 A 
ATOM     10  C   UNL     1      22.862  59.659  36.780  1.00  0.00     0.223 A 
ENDROOT
BRANCH   1  11
ATOM     11  C   UNL     1      22.245  57.964  35.009  1.00  0.00     0.091 A 
ATOM     12  C   UNL     1      21.077  58.259  34.290  1.00  0.00     0.068 A 
ATOM     13  C   UNL     1      20.933  57.847  32.962  1.00  0.00     0.162 A 
ATOM     14  C   UNL     1      23.259  57.216  34.389  1.00  0.00     0.068 A 
ATOM     15  C   UNL     1      21.959  57.117  32.337  1.00  0.00     0.200 A 
ATOM     16  C   UNL     1      23.123  56.798  33.057  1.00  0.00     0.162 A 
BRANCH  13  17
ATOM     17  O   UNL     1      19.762  58.173  32.277  1.00  0.00    -0.504 OA
ATOM     18  H   UNL     1      19.432  59.127  32.197  1.00  0.00     0.293 HD
ENDBRANCH  13  17
BRANCH  15  19
ATOM     19  O   UNL     1      21.809  56.712  31.010  1.00  0.00    -0.502 OA
ATOM     20  H   UNL     1      21.674  57.374  30.257  1.00  0.00     0.293 HD
ENDBRANCH  15  19
BRANCH  16  21
ATOM     21  O   UNL     1      24.139  56.061  32.449  1.00  0.00    -0.504 OA
ATOM     22  H   UNL     1      23.987  55.115  32.123  1.00  0.00     0.293 HD
ENDBRANCH  16  21
ENDBRANCH   1  11
BRANCH  10  23
ATOM     23  O   UNL     1      23.235  60.586  35.807  1.00  0.00    -0.500 OA
ATOM     24  H   UNL     1      22.754  60.646  34.916  1.00  0.00     0.294 HD
ENDBRANCH  10  23
BRANCH   5  25
ATOM     25  O   UNL     1      21.181  56.211  41.887  1.00  0.00    -0.507 OA
ATOM     26  H   UNL     1      20.714  56.489  42.742  1.00  0.00     0.293 HD
ENDBRANCH   5  25
BRANCH   7  27
ATOM     27  O   UNL     1      23.094  60.531  41.039  1.00  0.00    -0.507 OA
ATOM     28  H   UNL     1      22.870  61.450  40.686  1.00  0.00     0.293 HD
ENDBRANCH   7  27
TORSDOF 7
ENDMDL
MODEL 4
REMARK VINA RESULT:    -7.148      1.597      6.875
REMARK INTER + INTRA:          -9.192
REMARK INTER:                  -9.353
REMARK INTRA:                   0.160
REMARK UNBOUND:                -0.373
REMARK SMILES Oc1cc(O)c2cc(O)c(-c3cc(O)c(O)c(O)c3)[o+]c2c1
REMARK SMILES IDX 10 1 20 2 21 3 22 4 2 5 3 6 4 7 6 8 7 9 8 10 11 11 12 12
REMARK SMILES IDX 13 13 19 14 15 15 17 16 14 17 16 19 18 21 9 23 1 25 5 27
REMARK H PARENT 14 18 16 20 18 22 9 24 1 26 5 28
REMARK Flexibility Score: inf
ROOT
ATOM      1  C   UNL     1      22.469  58.482  36.680  1.00  0.00     0.402 A 
ATOM      2  O   UNL     1      21.853  57.439  37.232  1.00  0.00    -0.202 OA
ATOM      3  C   UNL     1      21.421  57.429  38.489  1.00  0.00     0.368 A 
ATOM      4  C   UNL     1      20.788  56.284  38.981  1.00  0.00     0.162 A 
ATOM      5  C   UNL     1      20.326  56.245  40.299  1.00  0.00     0.128 A 
ATOM      6  C   UNL     1      20.500  57.353  41.130  1.00  0.00     0.093 A 
ATOM      7  C   UNL     1      21.131  58.513  40.662  1.00  0.00     0.136 A 
ATOM      8  C   UNL     1      21.599  58.559  39.323  1.00  0.00     0.125 A 
ATOM      9  C   UNL     1      22.232  59.681  38.764  1.00  0.00     0.078 A 
ATOM     10  C   UNL     1      22.661  59.654  37.434  1.00  0.00     0.223 A 
ENDROOT
BRANCH   1  11
ATOM     11  C   UNL     1      22.912  58.368  35.272  1.00  0.00     0.091 A 
ATOM     12  C   UNL     1      22.225  57.512  34.398  1.00  0.00     0.068 A 
ATOM     13  C   UNL     1      22.634  57.369  33.069  1.00  0.00     0.162 A 
ATOM     14  C   UNL     1      24.044  59.057  34.804  1.00  0.00     0.068 A 
ATOM     15  C   UNL     1      23.754  58.077  32.599  1.00  0.00     0.200 A 
ATOM     16  C   UNL     1      24.462  58.919  33.473  1.00  0.00     0.162 A 
BRANCH  13  17
ATOM     17  O   UNL     1      21.914  56.519  32.229  1.00  0.00    -0.504 OA
ATOM     18  H   UNL     1      20.911  56.408  32.306  1.00  0.00     0.293 HD
ENDBRANCH  13  17
BRANCH  15  19
ATOM     19  O   UNL     1      24.153  57.931  31.270  1.00  0.00    -0.502 OA
ATOM     20  H   UNL     1      23.992  57.079  30.748  1.00  0.00     0.293 HD
ENDBRANCH  15  19
BRANCH  16  21
ATOM     21  O   UNL     1      25.583  59.613  33.017  1.00  0.00    -0.504 OA
ATOM     22  H   UNL     1      25.514  60.312  32.288  1.00  0.00     0.293 HD
ENDBRANCH  16  21
ENDBRANCH   1  11
BRANCH  10  23
ATOM     23  O   UNL     1      23.245  60.786  36.864  1.00  0.00    -0.500 OA
ATOM     24  H   UNL     1      23.426  60.847  35.867  1.00  0.00     0.294 HD
ENDBRANCH  10  23
BRANCH   5  25
ATOM     25  O   UNL     1      19.694  55.107  40.796  1.00  0.00    -0.507 OA
ATOM     26  H   UNL     1      19.341  55.069  41.745  1.00  0.00     0.293 HD
ENDBRANCH   5  25
BRANCH   7  27
ATOM     27  O   UNL     1      21.269  59.577  41.557  1.00  0.00    -0.507 OA
ATOM     28  H   UNL     1      22.151  59.999  41.810  1.00  0.00     0.293 HD
ENDBRANCH   7  27
TORSDOF 7
ENDMDL
MODEL 5
REMARK VINA RESULT:    -6.494     12.562     13.525
REMARK INTER + INTRA:          -8.385
REMARK INTER:                  -8.433
REMARK INTRA:                   0.048
REMARK UNBOUND:                -0.373
REMARK SMILES Oc1cc(O)c2cc(O)c(-c3cc(O)c(O)c(O)c3)[o+]c2c1
REMARK SMILES IDX 10 1 20 2 21 3 22 4 2 5 3 6 4 7 6 8 7 9 8 10 11 11 12 12
REMARK SMILES IDX 13 13 19 14 15 15 17 16 14 17 16 19 18 21 9 23 1 25 5 27
REMARK H PARENT 14 18 16 20 18 22 9 24 1 26 5 28
REMARK Flexibility Score: inf
ROOT
ATOM      1  C   UNL     1      33.738  55.110  31.334  1.00  0.00     0.402 A 
ATOM      2  O   UNL     1      34.098  55.972  30.386  1.00  0.00    -0.202 OA
ATOM      3  C   UNL     1      33.879  55.765  29.091  1.00  0.00     0.368 A 
ATOM      4  C   UNL     1      34.297  56.729  28.169  1.00  0.00     0.162 A 
ATOM      5  C   UNL     1      34.083  56.536  26.802  1.00  0.00     0.128 A 
ATOM      6  C   UNL     1      33.450  55.374  26.354  1.00  0.00     0.093 A 
ATOM      7  C   UNL     1      33.022  54.393  27.257  1.00  0.00     0.136 A 
ATOM      8  C   UNL     1      33.235  54.585  28.647  1.00  0.00     0.125 A 
ATOM      9  C   UNL     1      32.829  53.663  29.625  1.00  0.00     0.078 A 
ATOM     10  C   UNL     1      33.068  53.925  30.978  1.00  0.00     0.223 A 
ENDROOT
BRANCH   1  11
ATOM     11  C   UNL     1      34.045  55.450  32.741  1.00  0.00     0.091 A 
ATOM     12  C   UNL     1      33.966  56.786  33.163  1.00  0.00     0.068 A 
ATOM     13  C   UNL     1      34.269  57.139  34.481  1.00  0.00     0.162 A 
ATOM     14  C   UNL     1      34.471  54.470  33.654  1.00  0.00     0.068 A 
ATOM     15  C   UNL     1      34.674  56.152  35.397  1.00  0.00     0.200 A 
ATOM     16  C   UNL     1      34.778  54.814  34.978  1.00  0.00     0.162 A 
BRANCH  13  17
ATOM     17  O   UNL     1      34.164  58.476  34.864  1.00  0.00    -0.504 OA
ATOM     18  H   UNL     1      34.977  59.045  35.064  1.00  0.00     0.293 HD
ENDBRANCH  13  17
BRANCH  15  19
ATOM     19  O   UNL     1      34.972  56.512  36.712  1.00  0.00    -0.502 OA
ATOM     20  H   UNL     1      35.839  56.244  37.161  1.00  0.00     0.293 HD
ENDBRANCH  15  19
BRANCH  16  21
ATOM     21  O   UNL     1      35.193  53.832  35.877  1.00  0.00    -0.504 OA
ATOM     22  H   UNL     1      35.251  54.014  36.872  1.00  0.00     0.293 HD
ENDBRANCH  16  21
ENDBRANCH   1  11
BRANCH  10  23
ATOM     23  O   UNL     1      32.621  53.034  31.953  1.00  0.00    -0.500 OA
ATOM     24  H   UNL     1      31.917  52.332  31.751  1.00  0.00     0.294 HD
ENDBRANCH  10  23
BRANCH   5  25
ATOM     25  O   UNL     1      34.497  57.492  25.876  1.00  0.00    -0.507 OA
ATOM     26  H   UNL     1      35.446  57.510  25.522  1.00  0.00     0.293 HD
ENDBRANCH   5  25
BRANCH   7  27
ATOM     27  O   UNL     1      32.401  53.259  26.728  1.00  0.00    -0.507 OA
ATOM     28  H   UNL     1      31.895  52.578  27.277  1.00  0.00     0.293 HD
ENDBRANCH   7  27
TORSDOF 7
ENDMDL
MODEL 6
REMARK VINA RESULT:    -6.411     11.976     14.223
REMARK INTER + INTRA:          -8.283
REMARK INTER:                  -7.913
REMARK INTRA:                  -0.370
REMARK UNBOUND:                -0.373
REMARK SMILES Oc1cc(O)c2cc(O)c(-c3cc(O)c(O)c(O)c3)[o+]c2c1
REMARK SMILES IDX 10 1 20 2 21 3 22 4 2 5 3 6 4 7 6 8 7 9 8 10 11 11 12 12
REMARK SMILES IDX 13 13 19 14 15 15 17 16 14 17 16 19 18 21 9 23 1 25 5 27
REMARK H PARENT 14 18 16 20 18 22 9 24 1 26 5 28
REMARK Flexibility Score: inf
ROOT
ATOM      1  C   UNL     1      32.994  53.292  29.922  1.00  0.00     0.402 A 
ATOM      2  O   UNL     1      33.675  54.362  30.324  1.00  0.00    -0.202 OA
ATOM      3  C   UNL     1      34.086  55.318  29.497  1.00  0.00     0.368 A 
ATOM      4  C   UNL     1      34.799  56.403  30.014  1.00  0.00     0.162 A 
ATOM      5  C   UNL     1      35.246  57.421  29.167  1.00  0.00     0.128 A 
ATOM      6  C   UNL     1      34.980  57.353  27.798  1.00  0.00     0.093 A 
ATOM      7  C   UNL     1      34.268  56.276  27.255  1.00  0.00     0.136 A 
ATOM      8  C   UNL     1      33.810  55.241  28.111  1.00  0.00     0.125 A 
ATOM      9  C   UNL     1      33.078  54.132  27.658  1.00  0.00     0.078 A 
ATOM     10  C   UNL     1      32.654  53.154  28.563  1.00  0.00     0.223 A 
ENDROOT
BRANCH   1  11
ATOM     11  C   UNL     1      32.599  52.290  30.938  1.00  0.00     0.091 A 
ATOM     12  C   UNL     1      33.382  51.139  31.114  1.00  0.00     0.068 A 
ATOM     13  C   UNL     1      33.022  50.167  32.053  1.00  0.00     0.162 A 
ATOM     14  C   UNL     1      31.424  52.439  31.694  1.00  0.00     0.068 A 
ATOM     15  C   UNL     1      31.857  50.330  32.822  1.00  0.00     0.200 A 
ATOM     16  C   UNL     1      31.055  51.469  32.637  1.00  0.00     0.162 A 
BRANCH  13  17
ATOM     17  O   UNL     1      33.836  49.044  32.207  1.00  0.00    -0.504 OA
ATOM     18  H   UNL     1      33.849  48.502  33.062  1.00  0.00     0.293 HD
ENDBRANCH  13  17
BRANCH  15  19
ATOM     19  O   UNL     1      31.507  49.357  33.759  1.00  0.00    -0.502 OA
ATOM     20  H   UNL     1      31.106  49.593  34.657  1.00  0.00     0.293 HD
ENDBRANCH  15  19
BRANCH  16  21
ATOM     21  O   UNL     1      29.890  51.631  33.386  1.00  0.00    -0.504 OA
ATOM     22  H   UNL     1      29.790  52.383  34.056  1.00  0.00     0.293 HD
ENDBRANCH  16  21
ENDBRANCH   1  11
BRANCH  10  23
ATOM     23  O   UNL     1      31.886  52.077  28.122  1.00  0.00    -0.500 OA
ATOM     24  H   UNL     1      31.792  51.858  27.136  1.00  0.00     0.294 HD
ENDBRANCH  10  23
BRANCH   5  25
ATOM     25  O   UNL     1      35.958  58.506  29.675  1.00  0.00    -0.507 OA
ATOM     26  H   UNL     1      36.634  58.392  30.421  1.00  0.00     0.293 HD
ENDBRANCH   5  25
BRANCH   7  27
ATOM     27  O   UNL     1      34.047  56.281  25.875  1.00  0.00    -0.507 OA
ATOM     28  H   UNL     1      34.011  55.452  25.300  1.00  0.00     0.293 HD
ENDBRANCH   7  27
TORSDOF 7
ENDMDL
MODEL 7
REMARK VINA RESULT:    -6.398     11.883     14.123
REMARK INTER + INTRA:          -8.267
REMARK INTER:                  -7.891
REMARK INTRA:                  -0.376
REMARK UNBOUND:                -0.373
REMARK SMILES Oc1cc(O)c2cc(O)c(-c3cc(O)c(O)c(O)c3)[o+]c2c1
REMARK SMILES IDX 10 1 20 2 21 3 22 4 2 5 3 6 4 7 6 8 7 9 8 10 11 11 12 12
REMARK SMILES IDX 13 13 19 14 15 15 17 16 14 17 16 19 18 21 9 23 1 25 5 27
REMARK H PARENT 14 18 16 20 18 22 9 24 1 26 5 28
REMARK Flexibility Score: inf
ROOT
ATOM      1  C   UNL     1      33.033  53.370  29.883  1.00  0.00     0.402 A 
ATOM      2  O   UNL     1      33.707  54.430  30.322  1.00  0.00    -0.202 OA
ATOM      3  C   UNL     1      34.144  55.400  29.525  1.00  0.00     0.368 A 
ATOM      4  C   UNL     1      34.847  56.472  30.081  1.00  0.00     0.162 A 
ATOM      5  C   UNL     1      35.321  57.503  29.265  1.00  0.00     0.128 A 
ATOM      6  C   UNL     1      35.093  57.461  27.888  1.00  0.00     0.093 A 
ATOM      7  C   UNL     1      34.392  56.397  27.306  1.00  0.00     0.136 A 
ATOM      8  C   UNL     1      33.907  55.348  28.130  1.00  0.00     0.125 A 
ATOM      9  C   UNL     1      33.184  54.250  27.637  1.00  0.00     0.078 A 
ATOM     10  C   UNL     1      32.732  53.258  28.513  1.00  0.00     0.223 A 
ENDROOT
BRANCH   1  11
ATOM     11  C   UNL     1      32.607  52.353  30.870  1.00  0.00     0.091 A 
ATOM     12  C   UNL     1      31.473  52.591  31.661  1.00  0.00     0.068 A 
ATOM     13  C   UNL     1      31.059  51.656  32.615  1.00  0.00     0.162 A 
ATOM     14  C   UNL     1      33.347  51.176  31.073  1.00  0.00     0.068 A 
ATOM     15  C   UNL     1      31.790  50.470  32.800  1.00  0.00     0.200 A 
ATOM     16  C   UNL     1      32.940  50.234  32.028  1.00  0.00     0.162 A 
BRANCH  13  17
ATOM     17  O   UNL     1      29.918  51.924  33.371  1.00  0.00    -0.504 OA
ATOM     18  H   UNL     1      29.873  52.697  34.025  1.00  0.00     0.293 HD
ENDBRANCH  13  17
BRANCH  15  19
ATOM     19  O   UNL     1      31.368  49.541  33.752  1.00  0.00    -0.502 OA
ATOM     20  H   UNL     1      31.820  49.450  34.654  1.00  0.00     0.293 HD
ENDBRANCH  15  19
BRANCH  16  21
ATOM     21  O   UNL     1      33.679  49.066  32.216  1.00  0.00    -0.504 OA
ATOM     22  H   UNL     1      33.625  48.293  31.563  1.00  0.00     0.293 HD
ENDBRANCH  16  21
ENDBRANCH   1  11
BRANCH  10  23
ATOM     23  O   UNL     1      31.972  52.192  28.031  1.00  0.00    -0.500 OA
ATOM     24  H   UNL     1      32.401  51.397  27.570  1.00  0.00     0.294 HD
ENDBRANCH  10  23
BRANCH   5  25
ATOM     25  O   UNL     1      36.022  58.576  29.812  1.00  0.00    -0.507 OA
ATOM     26  H   UNL     1      36.407  59.309  29.228  1.00  0.00     0.293 HD
ENDBRANCH   5  25
BRANCH   7  27
ATOM     27  O   UNL     1      34.210  56.427  25.921  1.00  0.00    -0.507 OA
ATOM     28  H   UNL     1      33.657  55.759  25.403  1.00  0.00     0.293 HD
ENDBRANCH   7  27
TORSDOF 7
ENDMDL
MODEL 8
REMARK VINA RESULT:    -6.275     12.319     14.617
REMARK INTER + INTRA:          -8.116
REMARK INTER:                  -8.093
REMARK INTRA:                  -0.022
REMARK UNBOUND:                -0.373
REMARK SMILES Oc1cc(O)c2cc(O)c(-c3cc(O)c(O)c(O)c3)[o+]c2c1
REMARK SMILES IDX 10 1 20 2 21 3 22 4 2 5 3 6 4 7 6 8 7 9 8 10 11 11 12 12
REMARK SMILES IDX 13 13 19 14 15 15 17 16 14 17 16 19 18 21 9 23 1 25 5 27
REMARK H PARENT 14 18 16 20 18 22 9 24 1 26 5 28
REMARK Flexibility Score: inf
ROOT
ATOM      1  C   UNL     1      33.872  55.733  30.115  1.00  0.00     0.402 A 
ATOM      2  O   UNL     1      33.507  55.607  31.388  1.00  0.00    -0.202 OA
ATOM      3  C   UNL     1      34.058  56.304  32.378  1.00  0.00     0.368 A 
ATOM      4  C   UNL     1      33.609  56.098  33.685  1.00  0.00     0.162 A 
ATOM      5  C   UNL     1      34.172  56.815  34.744  1.00  0.00     0.128 A 
ATOM      6  C   UNL     1      35.190  57.738  34.496  1.00  0.00     0.093 A 
ATOM      7  C   UNL     1      35.658  57.962  33.195  1.00  0.00     0.136 A 
ATOM      8  C   UNL     1      35.087  57.239  32.115  1.00  0.00     0.125 A 
ATOM      9  C   UNL     1      35.484  57.407  30.778  1.00  0.00     0.078 A 
ATOM     10  C   UNL     1      34.870  56.662  29.766  1.00  0.00     0.223 A 
ENDROOT
BRANCH   1  11
ATOM     11  C   UNL     1      33.189  54.893  29.104  1.00  0.00     0.091 A 
ATOM     12  C   UNL     1      32.639  55.497  27.963  1.00  0.00     0.068 A 
ATOM     13  C   UNL     1      31.971  54.732  27.002  1.00  0.00     0.162 A 
ATOM     14  C   UNL     1      33.029  53.510  29.290  1.00  0.00     0.068 A 
ATOM     15  C   UNL     1      31.832  53.344  27.181  1.00  0.00     0.200 A 
ATOM     16  C   UNL     1      32.360  52.735  28.332  1.00  0.00     0.162 A 
BRANCH  13  17
ATOM     17  O   UNL     1      31.451  55.368  25.875  1.00  0.00    -0.504 OA
ATOM     18  H   UNL     1      31.166  56.340  25.888  1.00  0.00     0.293 HD
ENDBRANCH  13  17
BRANCH  15  19
ATOM     19  O   UNL     1      31.166  52.588  26.216  1.00  0.00    -0.502 OA
ATOM     20  H   UNL     1      30.290  52.886  25.807  1.00  0.00     0.293 HD
ENDBRANCH  15  19
BRANCH  16  21
ATOM     21  O   UNL     1      32.213  51.361  28.524  1.00  0.00    -0.504 OA
ATOM     22  H   UNL     1      31.401  50.862  28.184  1.00  0.00     0.293 HD
ENDBRANCH  16  21
ENDBRANCH   1  11
BRANCH  10  23
ATOM     23  O   UNL     1      35.229  56.863  28.434  1.00  0.00    -0.500 OA
ATOM     24  H   UNL     1      35.757  57.678  28.141  1.00  0.00     0.294 HD
ENDBRANCH  10  23
BRANCH   5  25
ATOM     25  O   UNL     1      33.730  56.616  36.050  1.00  0.00    -0.507 OA
ATOM     26  H   UNL     1      34.302  56.869  36.847  1.00  0.00     0.293 HD
ENDBRANCH   5  25
BRANCH   7  27
ATOM     27  O   UNL     1      36.681  58.900  33.031  1.00  0.00    -0.507 OA
ATOM     28  H   UNL     1      37.652  58.665  32.885  1.00  0.00     0.293 HD
ENDBRANCH   7  27
TORSDOF 7
ENDMDL
MODEL 9
REMARK VINA RESULT:    -5.977     12.277     13.921
REMARK INTER + INTRA:          -7.747
REMARK INTER:                  -7.480
REMARK INTRA:                  -0.268
REMARK UNBOUND:                -0.373
REMARK SMILES Oc1cc(O)c2cc(O)c(-c3cc(O)c(O)c(O)c3)[o+]c2c1
REMARK SMILES IDX 10 1 20 2 21 3 22 4 2 5 3 6 4 7 6 8 7 9 8 10 11 11 12 12
REMARK SMILES IDX 13 13 19 14 15 15 17 16 14 17 16 19 18 21 9 23 1 25 5 27
REMARK H PARENT 14 18 16 20 18 22 9 24 1 26 5 28
REMARK Flexibility Score: inf
ROOT
ATOM      1  C   UNL     1      33.359  53.693  30.746  1.00  0.00     0.402 A 
ATOM      2  O   UNL     1      33.676  54.732  29.978  1.00  0.00    -0.202 OA
ATOM      3  C   UNL     1      33.363  54.809  28.688  1.00  0.00     0.368 A 
ATOM      4  C   UNL     1      33.744  55.941  27.963  1.00  0.00     0.162 A 
ATOM      5  C   UNL     1      33.431  56.046  26.605  1.00  0.00     0.128 A 
ATOM      6  C   UNL     1      32.737  55.014  25.969  1.00  0.00     0.093 A 
ATOM      7  C   UNL     1      32.345  53.869  26.673  1.00  0.00     0.136 A 
ATOM      8  C   UNL     1      32.658  53.758  28.053  1.00  0.00     0.125 A 
ATOM      9  C   UNL     1      32.295  52.654  28.841  1.00  0.00     0.078 A 
ATOM     10  C   UNL     1      32.633  52.619  30.198  1.00  0.00     0.223 A 
ENDROOT
BRANCH   1  11
ATOM     11  C   UNL     1      33.771  53.721  32.167  1.00  0.00     0.091 A 
ATOM     12  C   UNL     1      34.733  52.808  32.626  1.00  0.00     0.068 A 
ATOM     13  C   UNL     1      35.127  52.799  33.968  1.00  0.00     0.162 A 
ATOM     14  C   UNL     1      33.177  54.606  33.084  1.00  0.00     0.068 A 
ATOM     15  C   UNL     1      34.546  53.701  34.877  1.00  0.00     0.200 A 
ATOM     16  C   UNL     1      33.565  54.603  34.431  1.00  0.00     0.162 A 
BRANCH  13  17
ATOM     17  O   UNL     1      36.097  51.886  34.380  1.00  0.00    -0.504 OA
ATOM     18  H   UNL     1      37.005  52.180  34.718  1.00  0.00     0.293 HD
ENDBRANCH  13  17
BRANCH  15  19
ATOM     19  O   UNL     1      34.946  53.687  36.213  1.00  0.00    -0.502 OA
ATOM     20  H   UNL     1      35.164  52.828  36.702  1.00  0.00     0.293 HD
ENDBRANCH  15  19
BRANCH  16  21
ATOM     21  O   UNL     1      32.974  55.490  35.330  1.00  0.00    -0.504 OA
ATOM     22  H   UNL     1      33.518  56.184  35.827  1.00  0.00     0.293 HD
ENDBRANCH  16  21
ENDBRANCH   1  11
BRANCH  10  23
ATOM     23  O   UNL     1      32.230  51.546  30.992  1.00  0.00    -0.500 OA
ATOM     24  H   UNL     1      32.554  51.439  31.947  1.00  0.00     0.294 HD
ENDBRANCH  10  23
BRANCH   5  25
ATOM     25  O   UNL     1      33.807  57.172  25.875  1.00  0.00    -0.507 OA
ATOM     26  H   UNL     1      34.407  57.100  25.062  1.00  0.00     0.293 HD
ENDBRANCH   5  25
BRANCH   7  27
ATOM     27  O   UNL     1      31.658  52.881  25.963  1.00  0.00    -0.507 OA
ATOM     28  H   UNL     1      32.068  52.309  25.239  1.00  0.00     0.293 HD
ENDBRANCH   7  27
TORSDOF 7
ENDMDL
