MODEL 1
REMARK VINA RESULT:    -7.816      0.000      0.000
REMARK INTER + INTRA:          -9.738
REMARK INTER:                  -9.416
REMARK INTRA:                  -0.322
REMARK UNBOUND:                -0.322
REMARK SMILES O=c1c(O)c(-c2ccc(O)c(O)c2)oc2cc(O)cc(O)c12
REMARK SMILES IDX 5 1 3 2 2 3 1 4 22 5 20 6 19 7 17 8 16 9 15 10 14 11 6 12
REMARK SMILES IDX 7 13 8 14 9 15 13 16 11 17 10 18 12 20 4 22 21 24 18 26
REMARK H PARENT 10 19 12 21 4 23 21 25 18 27
REMARK Flexibility Score: inf
ROOT
ATOM      1  C   UNL     1     -13.902 -29.795 -13.206  1.00  0.00     0.180 A 
ATOM      2  C   UNL     1     -12.956 -30.158 -12.232  1.00  0.00     0.208 A 
ATOM      3  C   UNL     1     -12.687 -31.519 -12.019  1.00  0.00     0.238 A 
ATOM      4  O   UNL     1     -11.800 -31.837 -11.185  1.00  0.00    -0.285 OA
ATOM      5  C   UNL     1     -13.381 -32.500 -12.768  1.00  0.00     0.111 A 
ATOM      6  C   UNL     1     -13.217 -33.909 -12.605  1.00  0.00     0.134 A 
ATOM      7  C   UNL     1     -13.858 -34.785 -13.491  1.00  0.00     0.093 A 
ATOM      8  C   UNL     1     -14.705 -34.307 -14.489  1.00  0.00     0.123 A 
ATOM      9  C   UNL     1     -14.919 -32.934 -14.619  1.00  0.00     0.094 A 
ATOM     10  C   UNL     1     -14.265 -32.033 -13.774  1.00  0.00     0.146 A 
ATOM     11  O   UNL     1     -14.487 -30.736 -13.938  1.00  0.00    -0.452 OA
ENDROOT
BRANCH   1  12
ATOM     12  C   UNL     1     -14.258 -28.381 -13.472  1.00  0.00     0.025 A 
ATOM     13  C   UNL     1     -15.359 -27.773 -12.844  1.00  0.00     0.016 A 
ATOM     14  C   UNL     1     -15.690 -26.446 -13.128  1.00  0.00     0.051 A 
ATOM     15  C   UNL     1     -14.934 -25.712 -14.052  1.00  0.00     0.157 A 
ATOM     16  C   UNL     1     -13.517 -27.647 -14.412  1.00  0.00     0.062 A 
ATOM     17  C   UNL     1     -13.844 -26.317 -14.698  1.00  0.00     0.158 A 
BRANCH  15  18
ATOM     18  O   UNL     1     -15.266 -24.386 -14.332  1.00  0.00    -0.504 OA
ATOM     19  H   UNL     1     -15.738 -23.802 -13.651  1.00  0.00     0.293 HD
ENDBRANCH  15  18
BRANCH  17  20
ATOM     20  O   UNL     1     -13.078 -25.615 -15.629  1.00  0.00    -0.504 OA
ATOM     21  H   UNL     1     -12.164 -25.936 -15.924  1.00  0.00     0.293 HD
ENDBRANCH  17  20
ENDBRANCH   1  12
BRANCH   2  22
ATOM     22  O   UNL     1     -12.268 -29.172 -11.520  1.00  0.00    -0.502 OA
ATOM     23  H   UNL     1     -11.415 -28.748 -11.865  1.00  0.00     0.293 HD
ENDBRANCH   2  22
BRANCH   6  24
ATOM     24  O   UNL     1     -12.466 -34.495 -11.582  1.00  0.00    -0.507 OA
ATOM     25  H   UNL     1     -11.481 -34.339 -11.432  1.00  0.00     0.293 HD
ENDBRANCH   6  24
BRANCH   8  26
ATOM     26  O   UNL     1     -15.338 -35.208 -15.342  1.00  0.00    -0.508 OA
ATOM     27  H   UNL     1     -14.821 -35.728 -16.044  1.00  0.00     0.293 HD
ENDBRANCH   8  26
TORSDOF 6
ENDMDL
MODEL 2
REMARK VINA RESULT:    -7.727      1.392      2.739
REMARK INTER + INTRA:          -9.630
REMARK INTER:                  -9.678
REMARK INTRA:                   0.047
REMARK UNBOUND:                -0.322
REMARK SMILES O=c1c(O)c(-c2ccc(O)c(O)c2)oc2cc(O)cc(O)c12
REMARK SMILES IDX 5 1 3 2 2 3 1 4 22 5 20 6 19 7 17 8 16 9 15 10 14 11 6 12
REMARK SMILES IDX 7 13 8 14 9 15 13 16 11 17 10 18 12 20 4 22 21 24 18 26
REMARK H PARENT 10 19 12 21 4 23 21 25 18 27
REMARK Flexibility Score: inf
ROOT
ATOM      1  C   UNL     1     -14.447 -30.379 -13.517  1.00  0.00     0.180 A 
ATOM      2  C   UNL     1     -15.525 -31.271 -13.655  1.00  0.00     0.208 A 
ATOM      3  C   UNL     1     -15.283 -32.651 -13.568  1.00  0.00     0.238 A 
ATOM      4  O   UNL     1     -16.259 -33.442 -13.638  1.00  0.00    -0.285 OA
ATOM      5  C   UNL     1     -13.964 -33.123 -13.362  1.00  0.00     0.111 A 
ATOM      6  C   UNL     1     -13.598 -34.501 -13.299  1.00  0.00     0.134 A 
ATOM      7  C   UNL     1     -12.284 -34.852 -12.959  1.00  0.00     0.093 A 
ATOM      8  C   UNL     1     -11.311 -33.877 -12.747  1.00  0.00     0.123 A 
ATOM      9  C   UNL     1     -11.645 -32.527 -12.865  1.00  0.00     0.094 A 
ATOM     10  C   UNL     1     -12.955 -32.145 -13.166  1.00  0.00     0.146 A 
ATOM     11  O   UNL     1     -13.233 -30.851 -13.259  1.00  0.00    -0.452 OA
ENDROOT
BRANCH   1  12
ATOM     12  C   UNL     1     -14.618 -28.912 -13.621  1.00  0.00     0.025 A 
ATOM     13  C   UNL     1     -15.638 -28.243 -12.921  1.00  0.00     0.016 A 
ATOM     14  C   UNL     1     -15.796 -26.861 -13.053  1.00  0.00     0.051 A 
ATOM     15  C   UNL     1     -14.948 -26.130 -13.895  1.00  0.00     0.157 A 
ATOM     16  C   UNL     1     -13.784 -28.177 -14.480  1.00  0.00     0.062 A 
ATOM     17  C   UNL     1     -13.939 -26.793 -14.614  1.00  0.00     0.158 A 
BRANCH  15  18
ATOM     18  O   UNL     1     -15.107 -24.750 -14.023  1.00  0.00    -0.504 OA
ATOM     19  H   UNL     1     -15.881 -24.351 -14.541  1.00  0.00     0.293 HD
ENDBRANCH  15  18
BRANCH  17  20
ATOM     20  O   UNL     1     -13.084 -26.094 -15.466  1.00  0.00    -0.504 OA
ATOM     21  H   UNL     1     -12.322 -26.549 -15.954  1.00  0.00     0.293 HD
ENDBRANCH  17  20
ENDBRANCH   1  12
BRANCH   2  22
ATOM     22  O   UNL     1     -16.821 -30.782 -13.837  1.00  0.00    -0.502 OA
ATOM     23  H   UNL     1     -17.143 -30.411 -14.723  1.00  0.00     0.293 HD
ENDBRANCH   2  22
BRANCH   6  24
ATOM     24  O   UNL     1     -14.471 -35.555 -13.584  1.00  0.00    -0.507 OA
ATOM     25  H   UNL     1     -14.763 -36.254 -12.919  1.00  0.00     0.293 HD
ENDBRANCH   6  24
BRANCH   8  26
ATOM     26  O   UNL     1     -10.012 -34.262 -12.426  1.00  0.00    -0.508 OA
ATOM     27  H   UNL     1      -9.337 -34.504 -13.144  1.00  0.00     0.293 HD
ENDBRANCH   8  26
TORSDOF 6
ENDMDL
MODEL 3
REMARK VINA RESULT:    -7.677      1.564      6.687
REMARK INTER + INTRA:          -9.569
REMARK INTER:                  -9.237
REMARK INTRA:                  -0.332
REMARK UNBOUND:                -0.322
REMARK SMILES O=c1c(O)c(-c2ccc(O)c(O)c2)oc2cc(O)cc(O)c12
REMARK SMILES IDX 5 1 3 2 2 3 1 4 22 5 20 6 19 7 17 8 16 9 15 10 14 11 6 12
REMARK SMILES IDX 7 13 8 14 9 15 13 16 11 17 10 18 12 20 4 22 21 24 18 26
REMARK H PARENT 10 19 12 21 4 23 21 25 18 27
REMARK Flexibility Score: inf
ROOT
ATOM      1  C   UNL     1     -13.493 -31.945 -13.355  1.00  0.00     0.180 A 
ATOM      2  C   UNL     1     -13.209 -31.971 -11.978  1.00  0.00     0.208 A 
ATOM      3  C   UNL     1     -13.204 -30.764 -11.262  1.00  0.00     0.238 A 
ATOM      4  O   UNL     1     -13.002 -30.799 -10.020  1.00  0.00    -0.285 OA
ATOM      5  C   UNL     1     -13.465 -29.545 -11.933  1.00  0.00     0.111 A 
ATOM      6  C   UNL     1     -13.445 -28.259 -11.314  1.00  0.00     0.134 A 
ATOM      7  C   UNL     1     -13.848 -27.134 -12.045  1.00  0.00     0.093 A 
ATOM      8  C   UNL     1     -14.205 -27.239 -13.388  1.00  0.00     0.123 A 
ATOM      9  C   UNL     1     -14.171 -28.483 -14.020  1.00  0.00     0.094 A 
ATOM     10  C   UNL     1     -13.809 -29.629 -13.307  1.00  0.00     0.146 A 
ATOM     11  O   UNL     1     -13.799 -30.794 -13.942  1.00  0.00    -0.452 OA
ENDROOT
BRANCH   1  12
ATOM     12  C   UNL     1     -13.494 -33.174 -14.183  1.00  0.00     0.025 A 
ATOM     13  C   UNL     1     -12.313 -33.660 -14.771  1.00  0.00     0.016 A 
ATOM     14  C   UNL     1     -12.341 -34.807 -15.568  1.00  0.00     0.051 A 
ATOM     15  C   UNL     1     -13.550 -35.476 -15.800  1.00  0.00     0.157 A 
ATOM     16  C   UNL     1     -14.705 -33.837 -14.436  1.00  0.00     0.062 A 
ATOM     17  C   UNL     1     -14.738 -34.987 -15.233  1.00  0.00     0.158 A 
BRANCH  15  18
ATOM     18  O   UNL     1     -13.574 -36.623 -16.595  1.00  0.00    -0.504 OA
ATOM     19  H   UNL     1     -14.439 -36.982 -16.982  1.00  0.00     0.293 HD
ENDBRANCH  15  18
BRANCH  17  20
ATOM     20  O   UNL     1     -15.958 -35.626 -15.451  1.00  0.00    -0.504 OA
ATOM     21  H   UNL     1     -16.125 -36.580 -15.157  1.00  0.00     0.293 HD
ENDBRANCH  17  20
ENDBRANCH   1  12
BRANCH   2  22
ATOM     22  O   UNL     1     -12.975 -33.188 -11.333  1.00  0.00    -0.502 OA
ATOM     23  H   UNL     1     -12.893 -33.261 -10.325  1.00  0.00     0.293 HD
ENDBRANCH   2  22
BRANCH   6  24
ATOM     24  O   UNL     1     -13.016 -28.030 -10.003  1.00  0.00    -0.507 OA
ATOM     25  H   UNL     1     -12.354 -27.319  -9.732  1.00  0.00     0.293 HD
ENDBRANCH   6  24
BRANCH   8  26
ATOM     26  O   UNL     1     -14.586 -26.097 -14.089  1.00  0.00    -0.508 OA
ATOM     27  H   UNL     1     -14.181 -25.868 -14.991  1.00  0.00     0.293 HD
ENDBRANCH   8  26
TORSDOF 6
ENDMDL
MODEL 4
REMARK VINA RESULT:    -7.518      2.326      7.008
REMARK INTER + INTRA:          -9.378
REMARK INTER:                  -9.169
REMARK INTRA:                  -0.209
REMARK UNBOUND:                -0.322
REMARK SMILES O=c1c(O)c(-c2ccc(O)c(O)c2)oc2cc(O)cc(O)c12
REMARK SMILES IDX 5 1 3 2 2 3 1 4 22 5 20 6 19 7 17 8 16 9 15 10 14 11 6 12
REMARK SMILES IDX 7 13 8 14 9 15 13 16 11 17 10 18 12 20 4 22 21 24 18 26
REMARK H PARENT 10 19 12 21 4 23 21 25 18 27
REMARK Flexibility Score: inf
ROOT
ATOM      1  C   UNL     1     -13.267 -31.178 -11.787  1.00  0.00     0.180 A 
ATOM      2  C   UNL     1     -14.375 -31.838 -12.345  1.00  0.00     0.208 A 
ATOM      3  C   UNL     1     -15.421 -31.073 -12.887  1.00  0.00     0.238 A 
ATOM      4  O   UNL     1     -16.385 -31.669 -13.435  1.00  0.00    -0.285 OA
ATOM      5  C   UNL     1     -15.353 -29.659 -12.848  1.00  0.00     0.111 A 
ATOM      6  C   UNL     1     -16.374 -28.786 -13.331  1.00  0.00     0.134 A 
ATOM      7  C   UNL     1     -16.143 -27.404 -13.361  1.00  0.00     0.093 A 
ATOM      8  C   UNL     1     -14.958 -26.862 -12.867  1.00  0.00     0.123 A 
ATOM      9  C   UNL     1     -13.978 -27.702 -12.338  1.00  0.00     0.094 A 
ATOM     10  C   UNL     1     -14.164 -29.087 -12.327  1.00  0.00     0.146 A 
ATOM     11  O   UNL     1     -13.203 -29.852 -11.825  1.00  0.00    -0.452 OA
ENDROOT
BRANCH   1  12
ATOM     12  C   UNL     1     -12.137 -31.914 -11.174  1.00  0.00     0.025 A 
ATOM     13  C   UNL     1     -11.252 -32.677 -11.956  1.00  0.00     0.016 A 
ATOM     14  C   UNL     1     -10.207 -33.384 -11.354  1.00  0.00     0.051 A 
ATOM     15  C   UNL     1     -10.039 -33.348  -9.963  1.00  0.00     0.157 A 
ATOM     16  C   UNL     1     -11.976 -31.899  -9.779  1.00  0.00     0.062 A 
ATOM     17  C   UNL     1     -10.930 -32.604  -9.173  1.00  0.00     0.158 A 
BRANCH  15  18
ATOM     18  O   UNL     1      -8.994 -34.052  -9.366  1.00  0.00    -0.504 OA
ATOM     19  H   UNL     1      -8.705 -33.865  -8.413  1.00  0.00     0.293 HD
ENDBRANCH  15  18
BRANCH  17  20
ATOM     20  O   UNL     1     -10.795 -32.555  -7.786  1.00  0.00    -0.504 OA
ATOM     21  H   UNL     1     -10.659 -31.683  -7.289  1.00  0.00     0.293 HD
ENDBRANCH  17  20
ENDBRANCH   1  12
BRANCH   2  22
ATOM     22  O   UNL     1     -14.411 -33.234 -12.392  1.00  0.00    -0.502 OA
ATOM     23  H   UNL     1     -13.570 -33.799 -12.377  1.00  0.00     0.293 HD
ENDBRANCH   2  22
BRANCH   6  24
ATOM     24  O   UNL     1     -17.632 -29.218 -13.763  1.00  0.00    -0.507 OA
ATOM     25  H   UNL     1     -18.510 -28.853 -13.427  1.00  0.00     0.293 HD
ENDBRANCH   6  24
BRANCH   8  26
ATOM     26  O   UNL     1     -14.769 -25.482 -12.899  1.00  0.00    -0.508 OA
ATOM     27  H   UNL     1     -13.855 -25.075 -13.065  1.00  0.00     0.293 HD
ENDBRANCH   8  26
TORSDOF 6
ENDMDL
MODEL 5
REMARK VINA RESULT:    -7.412      1.970      3.137
REMARK INTER + INTRA:          -9.250
REMARK INTER:                  -9.518
REMARK INTRA:                   0.267
REMARK UNBOUND:                -0.322
REMARK SMILES O=c1c(O)c(-c2ccc(O)c(O)c2)oc2cc(O)cc(O)c12
REMARK SMILES IDX 5 1 3 2 2 3 1 4 22 5 20 6 19 7 17 8 16 9 15 10 14 11 6 12
REMARK SMILES IDX 7 13 8 14 9 15 13 16 11 17 10 18 12 20 4 22 21 24 18 26
REMARK H PARENT 10 19 12 21 4 23 21 25 18 27
REMARK Flexibility Score: inf
ROOT
ATOM      1  C   UNL     1     -14.631 -31.034 -13.560  1.00  0.00     0.180 A 
ATOM      2  C   UNL     1     -15.766 -31.864 -13.579  1.00  0.00     0.208 A 
ATOM      3  C   UNL     1     -15.614 -33.218 -13.914  1.00  0.00     0.238 A 
ATOM      4  O   UNL     1     -16.624 -33.968 -13.876  1.00  0.00    -0.285 OA
ATOM      5  C   UNL     1     -14.333 -33.723 -14.245  1.00  0.00     0.111 A 
ATOM      6  C   UNL     1     -14.070 -35.069 -14.640  1.00  0.00     0.134 A 
ATOM      7  C   UNL     1     -12.745 -35.490 -14.816  1.00  0.00     0.093 A 
ATOM      8  C   UNL     1     -11.682 -34.600 -14.676  1.00  0.00     0.123 A 
ATOM      9  C   UNL     1     -11.933 -33.267 -14.348  1.00  0.00     0.094 A 
ATOM     10  C   UNL     1     -13.240 -32.825 -14.130  1.00  0.00     0.146 A 
ATOM     11  O   UNL     1     -13.435 -31.552 -13.810  1.00  0.00    -0.452 OA
ENDROOT
BRANCH   1  12
ATOM     12  C   UNL     1     -14.715 -29.590 -13.240  1.00  0.00     0.025 A 
ATOM     13  C   UNL     1     -15.883 -28.851 -13.496  1.00  0.00     0.016 A 
ATOM     14  C   UNL     1     -15.930 -27.484 -13.208  1.00  0.00     0.051 A 
ATOM     15  C   UNL     1     -14.810 -26.835 -12.672  1.00  0.00     0.157 A 
ATOM     16  C   UNL     1     -13.589 -28.931 -12.721  1.00  0.00     0.062 A 
ATOM     17  C   UNL     1     -13.633 -27.563 -12.430  1.00  0.00     0.158 A 
BRANCH  15  18
ATOM     18  O   UNL     1     -14.862 -25.472 -12.383  1.00  0.00    -0.504 OA
ATOM     19  H   UNL     1     -14.172 -25.029 -11.789  1.00  0.00     0.293 HD
ENDBRANCH  15  18
BRANCH  17  20
ATOM     20  O   UNL     1     -12.499 -26.944 -11.905  1.00  0.00    -0.504 OA
ATOM     21  H   UNL     1     -11.829 -26.461 -12.491  1.00  0.00     0.293 HD
ENDBRANCH  17  20
ENDBRANCH   1  12
BRANCH   2  22
ATOM     22  O   UNL     1     -17.017 -31.349 -13.228  1.00  0.00    -0.502 OA
ATOM     23  H   UNL     1     -17.881 -31.707 -13.619  1.00  0.00     0.293 HD
ENDBRANCH   2  22
BRANCH   6  24
ATOM     24  O   UNL     1     -15.065 -36.016 -14.897  1.00  0.00    -0.507 OA
ATOM     25  H   UNL     1     -15.706 -36.377 -14.207  1.00  0.00     0.293 HD
ENDBRANCH   6  24
BRANCH   8  26
ATOM     26  O   UNL     1     -10.379 -35.050 -14.874  1.00  0.00    -0.508 OA
ATOM     27  H   UNL     1      -9.790 -34.666 -15.605  1.00  0.00     0.293 HD
ENDBRANCH   8  26
TORSDOF 6
ENDMDL
MODEL 6
REMARK VINA RESULT:    -7.374      1.538      3.256
REMARK INTER + INTRA:          -9.205
REMARK INTER:                  -8.902
REMARK INTRA:                  -0.303
REMARK UNBOUND:                -0.322
REMARK SMILES O=c1c(O)c(-c2ccc(O)c(O)c2)oc2cc(O)cc(O)c12
REMARK SMILES IDX 5 1 3 2 2 3 1 4 22 5 20 6 19 7 17 8 16 9 15 10 14 11 6 12
REMARK SMILES IDX 7 13 8 14 9 15 13 16 11 17 10 18 12 20 4 22 21 24 18 26
REMARK H PARENT 10 19 12 21 4 23 21 25 18 27
REMARK Flexibility Score: inf
ROOT
ATOM      1  C   UNL     1     -13.514 -29.999 -12.818  1.00  0.00     0.180 A 
ATOM      2  C   UNL     1     -13.773 -31.117 -13.630  1.00  0.00     0.208 A 
ATOM      3  C   UNL     1     -13.285 -32.372 -13.235  1.00  0.00     0.238 A 
ATOM      4  O   UNL     1     -13.567 -33.379 -13.937  1.00  0.00    -0.285 OA
ATOM      5  C   UNL     1     -12.529 -32.492 -12.044  1.00  0.00     0.111 A 
ATOM      6  C   UNL     1     -11.951 -33.708 -11.570  1.00  0.00     0.134 A 
ATOM      7  C   UNL     1     -11.334 -33.736 -10.313  1.00  0.00     0.093 A 
ATOM      8  C   UNL     1     -11.217 -32.579  -9.544  1.00  0.00     0.123 A 
ATOM      9  C   UNL     1     -11.727 -31.372 -10.024  1.00  0.00     0.094 A 
ATOM     10  C   UNL     1     -12.379 -31.320 -11.258  1.00  0.00     0.146 A 
ATOM     11  O   UNL     1     -12.858 -30.155 -11.674  1.00  0.00    -0.452 OA
ENDROOT
BRANCH   1  12
ATOM     12  C   UNL     1     -13.974 -28.638 -13.180  1.00  0.00     0.025 A 
ATOM     13  C   UNL     1     -15.163 -28.104 -12.652  1.00  0.00     0.016 A 
ATOM     14  C   UNL     1     -15.591 -26.827 -13.026  1.00  0.00     0.051 A 
ATOM     15  C   UNL     1     -14.844 -26.072 -13.940  1.00  0.00     0.157 A 
ATOM     16  C   UNL     1     -13.241 -27.884 -14.110  1.00  0.00     0.062 A 
ATOM     17  C   UNL     1     -13.665 -26.605 -14.486  1.00  0.00     0.158 A 
BRANCH  15  18
ATOM     18  O   UNL     1     -15.272 -24.796 -14.308  1.00  0.00    -0.504 OA
ATOM     19  H   UNL     1     -15.599 -24.127 -13.621  1.00  0.00     0.293 HD
ENDBRANCH  15  18
BRANCH  17  20
ATOM     20  O   UNL     1     -12.904 -25.881 -15.404  1.00  0.00    -0.504 OA
ATOM     21  H   UNL     1     -13.164 -25.809 -16.380  1.00  0.00     0.293 HD
ENDBRANCH  17  20
ENDBRANCH   1  12
BRANCH   2  22
ATOM     22  O   UNL     1     -14.540 -30.979 -14.790  1.00  0.00    -0.502 OA
ATOM     23  H   UNL     1     -14.658 -31.734 -15.456  1.00  0.00     0.293 HD
ENDBRANCH   2  22
BRANCH   6  24
ATOM     24  O   UNL     1     -11.931 -34.900 -12.301  1.00  0.00    -0.507 OA
ATOM     25  H   UNL     1     -11.747 -35.811 -11.908  1.00  0.00     0.293 HD
ENDBRANCH   6  24
BRANCH   8  26
ATOM     26  O   UNL     1     -10.585 -32.640  -8.304  1.00  0.00    -0.508 OA
ATOM     27  H   UNL     1     -10.246 -31.805  -7.839  1.00  0.00     0.293 HD
ENDBRANCH   8  26
TORSDOF 6
ENDMDL
MODEL 7
REMARK VINA RESULT:    -7.200      2.691      6.648
REMARK INTER + INTRA:          -8.996
REMARK INTER:                  -8.673
REMARK INTRA:                  -0.323
REMARK UNBOUND:                -0.322
REMARK SMILES O=c1c(O)c(-c2ccc(O)c(O)c2)oc2cc(O)cc(O)c12
REMARK SMILES IDX 5 1 3 2 2 3 1 4 22 5 20 6 19 7 17 8 16 9 15 10 14 11 6 12
REMARK SMILES IDX 7 13 8 14 9 15 13 16 11 17 10 18 12 20 4 22 21 24 18 26
REMARK H PARENT 10 19 12 21 4 23 21 25 18 27
REMARK Flexibility Score: inf
ROOT
ATOM      1  C   UNL     1     -12.412 -30.901 -11.720  1.00  0.00     0.180 A 
ATOM      2  C   UNL     1     -11.888 -29.644 -11.371  1.00  0.00     0.208 A 
ATOM      3  C   UNL     1     -12.647 -28.493 -11.635  1.00  0.00     0.238 A 
ATOM      4  O   UNL     1     -12.197 -27.375 -11.271  1.00  0.00    -0.285 OA
ATOM      5  C   UNL     1     -13.912 -28.611 -12.261  1.00  0.00     0.111 A 
ATOM      6  C   UNL     1     -14.748 -27.509 -12.613  1.00  0.00     0.134 A 
ATOM      7  C   UNL     1     -16.036 -27.749 -13.108  1.00  0.00     0.093 A 
ATOM      8  C   UNL     1     -16.492 -29.048 -13.326  1.00  0.00     0.123 A 
ATOM      9  C   UNL     1     -15.660 -30.132 -13.042  1.00  0.00     0.094 A 
ATOM     10  C   UNL     1     -14.384 -29.925 -12.512  1.00  0.00     0.146 A 
ATOM     11  O   UNL     1     -13.629 -30.983 -12.245  1.00  0.00    -0.452 OA
ENDROOT
BRANCH   1  12
ATOM     12  C   UNL     1     -11.661 -32.158 -11.496  1.00  0.00     0.025 A 
ATOM     13  C   UNL     1     -11.771 -32.870 -10.288  1.00  0.00     0.016 A 
ATOM     14  C   UNL     1     -11.034 -34.041 -10.090  1.00  0.00     0.051 A 
ATOM     15  C   UNL     1     -10.170 -34.510 -11.088  1.00  0.00     0.157 A 
ATOM     16  C   UNL     1     -10.778 -32.622 -12.485  1.00  0.00     0.062 A 
ATOM     17  C   UNL     1     -10.041 -33.795 -12.290  1.00  0.00     0.158 A 
BRANCH  15  18
ATOM     18  O   UNL     1      -9.439 -35.681 -10.887  1.00  0.00    -0.504 OA
ATOM     19  H   UNL     1      -9.844 -36.594 -11.053  1.00  0.00     0.293 HD
ENDBRANCH  15  18
BRANCH  17  20
ATOM     20  O   UNL     1      -9.183 -34.232 -13.299  1.00  0.00    -0.504 OA
ATOM     21  H   UNL     1      -8.542 -33.605 -13.769  1.00  0.00     0.293 HD
ENDBRANCH  17  20
ENDBRANCH   1  12
BRANCH   2  22
ATOM     22  O   UNL     1     -10.647 -29.553 -10.735  1.00  0.00    -0.502 OA
ATOM     23  H   UNL     1     -10.018 -30.343 -10.655  1.00  0.00     0.293 HD
ENDBRANCH   2  22
BRANCH   6  24
ATOM     24  O   UNL     1     -14.355 -26.170 -12.521  1.00  0.00    -0.507 OA
ATOM     25  H   UNL     1     -14.473 -25.486 -13.253  1.00  0.00     0.293 HD
ENDBRANCH   6  24
BRANCH   8  26
ATOM     26  O   UNL     1     -17.773 -29.250 -13.835  1.00  0.00    -0.508 OA
ATOM     27  H   UNL     1     -18.599 -28.974 -13.317  1.00  0.00     0.293 HD
ENDBRANCH   8  26
TORSDOF 6
ENDMDL
MODEL 8
REMARK VINA RESULT:    -7.172      3.156      7.034
REMARK INTER + INTRA:          -8.962
REMARK INTER:                  -9.138
REMARK INTRA:                   0.177
REMARK UNBOUND:                -0.322
REMARK SMILES O=c1c(O)c(-c2ccc(O)c(O)c2)oc2cc(O)cc(O)c12
REMARK SMILES IDX 5 1 3 2 2 3 1 4 22 5 20 6 19 7 17 8 16 9 15 10 14 11 6 12
REMARK SMILES IDX 7 13 8 14 9 15 13 16 11 17 10 18 12 20 4 22 21 24 18 26
REMARK H PARENT 10 19 12 21 4 23 21 25 18 27
REMARK Flexibility Score: inf
ROOT
ATOM      1  C   UNL     1     -12.621 -30.218 -10.159  1.00  0.00     0.180 A 
ATOM      2  C   UNL     1     -13.241 -31.233 -10.907  1.00  0.00     0.208 A 
ATOM      3  C   UNL     1     -14.146 -30.876 -11.919  1.00  0.00     0.238 A 
ATOM      4  O   UNL     1     -14.657 -31.786 -12.622  1.00  0.00    -0.285 OA
ATOM      5  C   UNL     1     -14.433 -29.510 -12.158  1.00  0.00     0.111 A 
ATOM      6  C   UNL     1     -15.365 -29.037 -13.131  1.00  0.00     0.134 A 
ATOM      7  C   UNL     1     -15.472 -27.660 -13.371  1.00  0.00     0.093 A 
ATOM      8  C   UNL     1     -14.731 -26.741 -12.631  1.00  0.00     0.123 A 
ATOM      9  C   UNL     1     -13.861 -27.190 -11.637  1.00  0.00     0.094 A 
ATOM     10  C   UNL     1     -13.706 -28.558 -11.398  1.00  0.00     0.146 A 
ATOM     11  O   UNL     1     -12.861 -28.945 -10.451  1.00  0.00    -0.452 OA
ENDROOT
BRANCH   1  12
ATOM     12  C   UNL     1     -11.673 -30.515  -9.059  1.00  0.00     0.025 A 
ATOM     13  C   UNL     1     -11.670 -29.761  -7.873  1.00  0.00     0.016 A 
ATOM     14  C   UNL     1     -10.751 -30.044  -6.859  1.00  0.00     0.051 A 
ATOM     15  C   UNL     1      -9.816 -31.075  -7.020  1.00  0.00     0.157 A 
ATOM     16  C   UNL     1     -10.720 -31.533  -9.224  1.00  0.00     0.062 A 
ATOM     17  C   UNL     1      -9.799 -31.820  -8.210  1.00  0.00     0.158 A 
BRANCH  15  18
ATOM     18  O   UNL     1      -8.902 -31.356  -6.005  1.00  0.00    -0.504 OA
ATOM     19  H   UNL     1      -9.103 -32.039  -5.284  1.00  0.00     0.293 HD
ENDBRANCH  15  18
BRANCH  17  20
ATOM     20  O   UNL     1      -8.875 -32.847  -8.405  1.00  0.00    -0.504 OA
ATOM     21  H   UNL     1      -8.903 -33.449  -9.219  1.00  0.00     0.293 HD
ENDBRANCH  17  20
ENDBRANCH   1  12
BRANCH   2  22
ATOM     22  O   UNL     1     -12.927 -32.573 -10.668  1.00  0.00    -0.502 OA
ATOM     23  H   UNL     1     -13.516 -33.178 -10.108  1.00  0.00     0.293 HD
ENDBRANCH   2  22
BRANCH   6  24
ATOM     24  O   UNL     1     -16.221 -29.866 -13.861  1.00  0.00    -0.507 OA
ATOM     25  H   UNL     1     -17.045 -30.311 -13.488  1.00  0.00     0.293 HD
ENDBRANCH   6  24
BRANCH   8  26
ATOM     26  O   UNL     1     -14.874 -25.379 -12.886  1.00  0.00    -0.508 OA
ATOM     27  H   UNL     1     -14.343 -24.684 -12.375  1.00  0.00     0.293 HD
ENDBRANCH   8  26
TORSDOF 6
ENDMDL
MODEL 9
REMARK VINA RESULT:    -7.079      2.127      6.923
REMARK INTER + INTRA:          -8.849
REMARK INTER:                  -8.542
REMARK INTRA:                  -0.308
REMARK UNBOUND:                -0.322
REMARK SMILES O=c1c(O)c(-c2ccc(O)c(O)c2)oc2cc(O)cc(O)c12
REMARK SMILES IDX 5 1 3 2 2 3 1 4 22 5 20 6 19 7 17 8 16 9 15 10 14 11 6 12
REMARK SMILES IDX 7 13 8 14 9 15 13 16 11 17 10 18 12 20 4 22 21 24 18 26
REMARK H PARENT 10 19 12 21 4 23 21 25 18 27
REMARK Flexibility Score: inf
ROOT
ATOM      1  C   UNL     1     -13.381 -31.492 -13.421  1.00  0.00     0.180 A 
ATOM      2  C   UNL     1     -13.670 -30.316 -14.134  1.00  0.00     0.208 A 
ATOM      3  C   UNL     1     -13.681 -29.090 -13.449  1.00  0.00     0.238 A 
ATOM      4  O   UNL     1     -13.887 -28.035 -14.103  1.00  0.00    -0.285 OA
ATOM      5  C   UNL     1     -13.420 -29.058 -12.058  1.00  0.00     0.111 A 
ATOM      6  C   UNL     1     -13.445 -27.877 -11.256  1.00  0.00     0.134 A 
ATOM      7  C   UNL     1     -13.042 -27.943  -9.916  1.00  0.00     0.093 A 
ATOM      8  C   UNL     1     -12.679 -29.156  -9.333  1.00  0.00     0.123 A 
ATOM      9  C   UNL     1     -12.708 -30.327 -10.092  1.00  0.00     0.094 A 
ATOM     10  C   UNL     1     -13.071 -30.287 -11.441  1.00  0.00     0.146 A 
ATOM     11  O   UNL     1     -13.075 -31.421 -12.130  1.00  0.00    -0.452 OA
ENDROOT
BRANCH   1  12
ATOM     12  C   UNL     1     -13.375 -32.825 -14.067  1.00  0.00     0.025 A 
ATOM     13  C   UNL     1     -12.183 -33.404 -14.537  1.00  0.00     0.016 A 
ATOM     14  C   UNL     1     -12.204 -34.652 -15.166  1.00  0.00     0.051 A 
ATOM     15  C   UNL     1     -13.416 -35.333 -15.345  1.00  0.00     0.157 A 
ATOM     16  C   UNL     1     -14.588 -33.502 -14.267  1.00  0.00     0.062 A 
ATOM     17  C   UNL     1     -14.614 -34.753 -14.895  1.00  0.00     0.158 A 
BRANCH  15  18
ATOM     18  O   UNL     1     -13.433 -36.579 -15.970  1.00  0.00    -0.504 OA
ATOM     19  H   UNL     1     -13.768 -36.692 -16.919  1.00  0.00     0.293 HD
ENDBRANCH  15  18
BRANCH  17  20
ATOM     20  O   UNL     1     -15.836 -35.402 -15.065  1.00  0.00    -0.504 OA
ATOM     21  H   UNL     1     -16.237 -35.563 -15.981  1.00  0.00     0.293 HD
ENDBRANCH  17  20
ENDBRANCH   1  12
BRANCH   2  22
ATOM     22  O   UNL     1     -13.904 -30.369 -15.510  1.00  0.00    -0.502 OA
ATOM     23  H   UNL     1     -13.793 -31.221 -16.048  1.00  0.00     0.293 HD
ENDBRANCH   2  22
BRANCH   6  24
ATOM     24  O   UNL     1     -13.880 -26.630 -11.716  1.00  0.00    -0.507 OA
ATOM     25  H   UNL     1     -14.122 -25.852 -11.122  1.00  0.00     0.293 HD
ENDBRANCH   6  24
BRANCH   8  26
ATOM     26  O   UNL     1     -12.299 -29.188  -7.994  1.00  0.00    -0.508 OA
ATOM     27  H   UNL     1     -11.740 -28.448  -7.583  1.00  0.00     0.293 HD
ENDBRANCH   8  26
TORSDOF 6
ENDMDL
