MODEL 1
REMARK VINA RESULT:    -3.450      0.000      0.000
REMARK INTER + INTRA:         -11.946
REMARK INTER:                  -7.483
REMARK INTRA:                  -4.464
REMARK UNBOUND:                -4.464
REMARK SMILES CCCCCCCCCCCCCCCCCCCCCC(=O)[O-]
REMARK SMILES IDX 12 1 11 2 10 3 9 4 8 5 7 6 6 7 5 8 4 9 3 10 2 11 1 12 13 13
REMARK SMILES IDX 14 14 15 15 16 16 17 17 18 18 19 19 20 20 21 21 22 22 23 23
REMARK SMILES IDX 24 24
REMARK H PARENT
REMARK Flexibility Score: inf
ROOT
ATOM      1  C   UNL     1      10.185 -26.115  41.379  1.00  0.00     0.000 C 
ENDROOT
BRANCH   1   2
ATOM      2  C   UNL     1       8.739 -26.250  40.876  1.00  0.00     0.000 C 
BRANCH   2   3
ATOM      3  C   UNL     1       8.101 -27.552  41.381  1.00  0.00     0.000 C 
BRANCH   3   4
ATOM      4  C   UNL     1       8.412 -28.760  40.478  1.00  0.00    -0.000 C 
BRANCH   4   5
ATOM      5  C   UNL     1       9.158 -29.916  41.173  1.00  0.00    -0.000 C 
BRANCH   5   6
ATOM      6  C   UNL     1       9.969 -29.517  42.423  1.00  0.00    -0.000 C 
BRANCH   6   7
ATOM      7  C   UNL     1      11.482 -29.781  42.333  1.00  0.00    -0.000 C 
BRANCH   7   8
ATOM      8  C   UNL     1      11.814 -31.257  42.052  1.00  0.00    -0.000 C 
BRANCH   8   9
ATOM      9  C   UNL     1      13.082 -31.424  41.199  1.00  0.00    -0.000 C 
BRANCH   9  10
ATOM     10  C   UNL     1      12.865 -32.348  39.990  1.00  0.00    -0.000 C 
BRANCH  10  11
ATOM     11  C   UNL     1      11.379 -32.698  39.829  1.00  0.00    -0.003 C 
ATOM     12  C   UNL     1      10.853 -32.256  38.466  1.00  0.00     0.004 C 
ENDBRANCH  10  11
ENDBRANCH   9  10
ENDBRANCH   8   9
ENDBRANCH   7   8
ENDBRANCH   6   7
ENDBRANCH   5   6
ENDBRANCH   4   5
ENDBRANCH   3   4
ENDBRANCH   2   3
ENDBRANCH   1   2
BRANCH   1  13
ATOM     13  C   UNL     1      11.230 -26.399  40.284  1.00  0.00     0.000 C 
BRANCH  13  14
ATOM     14  C   UNL     1      10.687 -26.372  38.843  1.00  0.00     0.000 C 
BRANCH  14  15
ATOM     15  C   UNL     1      11.120 -27.596  38.019  1.00  0.00     0.000 C 
BRANCH  15  16
ATOM     16  C   UNL     1      11.960 -28.597  38.832  1.00  0.00     0.000 C 
BRANCH  16  17
ATOM     17  C   UNL     1      13.062 -29.327  38.039  1.00  0.00     0.000 C 
BRANCH  17  18
ATOM     18  C   UNL     1      14.481 -29.195  38.624  1.00  0.00     0.000 C 
BRANCH  18  19
ATOM     19  C   UNL     1      14.625 -28.158  39.757  1.00  0.00     0.000 C 
BRANCH  19  20
ATOM     20  C   UNL     1      15.512 -26.946  39.420  1.00  0.00     0.006 C 
BRANCH  20  21
ATOM     21  C   UNL     1      15.438 -26.544  37.941  1.00  0.00     0.053 C 
BRANCH  21  22
ATOM     22  C   UNL     1      14.274 -25.636  37.703  1.00  0.00     0.041 C 
ATOM     23  O   UNL     1      13.682 -25.643  36.592  1.00  0.00    -0.550 OA
ATOM     24  O   UNL     1      13.870 -24.748  38.694  1.00  0.00    -0.550 OA
ENDBRANCH  21  22
ENDBRANCH  20  21
ENDBRANCH  19  20
ENDBRANCH  18  19
ENDBRANCH  17  18
ENDBRANCH  16  17
ENDBRANCH  15  16
ENDBRANCH  14  15
ENDBRANCH  13  14
ENDBRANCH   1  13
TORSDOF 20
ENDMDL
MODEL 2
REMARK VINA RESULT:    -3.422      2.060      4.973
REMARK INTER + INTRA:         -11.886
REMARK INTER:                  -8.064
REMARK INTRA:                  -3.822
REMARK UNBOUND:                -4.464
REMARK SMILES CCCCCCCCCCCCCCCCCCCCCC(=O)[O-]
REMARK SMILES IDX 12 1 11 2 10 3 9 4 8 5 7 6 6 7 5 8 4 9 3 10 2 11 1 12 13 13
REMARK SMILES IDX 14 14 15 15 16 16 17 17 18 18 19 19 20 20 21 21 22 22 23 23
REMARK SMILES IDX 24 24
REMARK H PARENT
REMARK Flexibility Score: inf
ROOT
ATOM      1  C   UNL     1      10.212 -27.686  38.230  1.00  0.00     0.000 C 
ENDROOT
BRANCH   1   2
ATOM      2  C   UNL     1       8.843 -28.363  38.398  1.00  0.00     0.000 C 
BRANCH   2   3
ATOM      3  C   UNL     1       8.930 -29.544  39.375  1.00  0.00     0.000 C 
BRANCH   3   4
ATOM      4  C   UNL     1       9.845 -29.258  40.580  1.00  0.00    -0.000 C 
BRANCH   4   5
ATOM      5  C   UNL     1       9.177 -28.482  41.734  1.00  0.00    -0.000 C 
BRANCH   5   6
ATOM      6  C   UNL     1       9.566 -26.993  41.835  1.00  0.00    -0.000 C 
BRANCH   6   7
ATOM      7  C   UNL     1       8.557 -26.010  41.213  1.00  0.00    -0.000 C 
BRANCH   7   8
ATOM      8  C   UNL     1       9.237 -24.805  40.539  1.00  0.00    -0.000 C 
BRANCH   8   9
ATOM      9  C   UNL     1      10.449 -24.294  41.332  1.00  0.00    -0.000 C 
BRANCH   9  10
ATOM     10  C   UNL     1      10.516 -22.759  41.389  1.00  0.00    -0.000 C 
BRANCH  10  11
ATOM     11  C   UNL     1      11.632 -22.227  40.479  1.00  0.00    -0.003 C 
ATOM     12  C   UNL     1      12.694 -21.485  41.285  1.00  0.00     0.004 C 
ENDBRANCH  10  11
ENDBRANCH   9  10
ENDBRANCH   8   9
ENDBRANCH   7   8
ENDBRANCH   6   7
ENDBRANCH   5   6
ENDBRANCH   4   5
ENDBRANCH   3   4
ENDBRANCH   2   3
ENDBRANCH   1   2
BRANCH   1  13
ATOM     13  C   UNL     1      10.962 -28.154  36.968  1.00  0.00     0.000 C 
BRANCH  13  14
ATOM     14  C   UNL     1      11.966 -29.300  37.196  1.00  0.00     0.000 C 
BRANCH  14  15
ATOM     15  C   UNL     1      13.232 -28.844  37.941  1.00  0.00     0.000 C 
BRANCH  15  16
ATOM     16  C   UNL     1      13.589 -29.759  39.127  1.00  0.00     0.000 C 
BRANCH  16  17
ATOM     17  C   UNL     1      13.544 -29.084  40.513  1.00  0.00     0.000 C 
BRANCH  17  18
ATOM     18  C   UNL     1      13.034 -27.631  40.513  1.00  0.00     0.000 C 
BRANCH  18  19
ATOM     19  C   UNL     1      14.104 -26.564  40.827  1.00  0.00     0.000 C 
BRANCH  19  20
ATOM     20  C   UNL     1      13.868 -25.194  40.166  1.00  0.00     0.006 C 
BRANCH  20  21
ATOM     21  C   UNL     1      13.006 -25.282  38.900  1.00  0.00     0.053 C 
BRANCH  21  22
ATOM     22  C   UNL     1      13.854 -25.126  37.678  1.00  0.00     0.041 C 
ATOM     23  O   UNL     1      14.946 -24.501  37.739  1.00  0.00    -0.550 OA
ATOM     24  O   UNL     1      13.417 -25.630  36.458  1.00  0.00    -0.550 OA
ENDBRANCH  21  22
ENDBRANCH  20  21
ENDBRANCH  19  20
ENDBRANCH  18  19
ENDBRANCH  17  18
ENDBRANCH  16  17
ENDBRANCH  15  16
ENDBRANCH  14  15
ENDBRANCH  13  14
ENDBRANCH   1  13
TORSDOF 20
ENDMDL
MODEL 3
REMARK VINA RESULT:    -3.396      2.161      3.938
REMARK INTER + INTRA:         -11.831
REMARK INTER:                  -8.256
REMARK INTRA:                  -3.576
REMARK UNBOUND:                -4.464
REMARK SMILES CCCCCCCCCCCCCCCCCCCCCC(=O)[O-]
REMARK SMILES IDX 12 1 11 2 10 3 9 4 8 5 7 6 6 7 5 8 4 9 3 10 2 11 1 12 13 13
REMARK SMILES IDX 14 14 15 15 16 16 17 17 18 18 19 19 20 20 21 21 22 22 23 23
REMARK SMILES IDX 24 24
REMARK H PARENT
REMARK Flexibility Score: inf
ROOT
ATOM      1  C   UNL     1      10.007 -26.134  41.563  1.00  0.00     0.000 C 
ENDROOT
BRANCH   1   2
ATOM      2  C   UNL     1      10.565 -27.501  41.137  1.00  0.00     0.000 C 
BRANCH   2   3
ATOM      3  C   UNL     1       9.453 -28.393  40.563  1.00  0.00     0.000 C 
BRANCH   3   4
ATOM      4  C   UNL     1       9.869 -29.106  39.263  1.00  0.00    -0.000 C 
BRANCH   4   5
ATOM      5  C   UNL     1      11.350 -28.930  38.870  1.00  0.00    -0.000 C 
BRANCH   5   6
ATOM      6  C   UNL     1      12.152 -30.241  38.730  1.00  0.00    -0.000 C 
BRANCH   6   7
ATOM      7  C   UNL     1      13.646 -30.135  39.084  1.00  0.00    -0.000 C 
BRANCH   7   8
ATOM      8  C   UNL     1      13.896 -29.348  40.383  1.00  0.00    -0.000 C 
BRANCH   8   9
ATOM      9  C   UNL     1      13.765 -30.225  41.638  1.00  0.00    -0.000 C 
BRANCH   9  10
ATOM     10  C   UNL     1      13.957 -29.430  42.939  1.00  0.00    -0.000 C 
BRANCH  10  11
ATOM     11  C   UNL     1      12.819 -29.717  43.928  1.00  0.00    -0.003 C 
ATOM     12  C   UNL     1      11.630 -30.367  43.228  1.00  0.00     0.004 C 
ENDBRANCH  10  11
ENDBRANCH   9  10
ENDBRANCH   8   9
ENDBRANCH   7   8
ENDBRANCH   6   7
ENDBRANCH   5   6
ENDBRANCH   4   5
ENDBRANCH   3   4
ENDBRANCH   2   3
ENDBRANCH   1   2
BRANCH   1  13
ATOM     13  C   UNL     1       9.094 -25.499  40.498  1.00  0.00     0.000 C 
BRANCH  13  14
ATOM     14  C   UNL     1       9.631 -24.197  39.874  1.00  0.00     0.000 C 
BRANCH  14  15
ATOM     15  C   UNL     1       9.602 -23.010  40.852  1.00  0.00     0.000 C 
BRANCH  15  16
ATOM     16  C   UNL     1      11.010 -22.539  41.261  1.00  0.00     0.000 C 
BRANCH  16  17
ATOM     17  C   UNL     1      11.934 -22.140  40.093  1.00  0.00     0.000 C 
BRANCH  17  18
ATOM     18  C   UNL     1      13.192 -23.015  39.931  1.00  0.00     0.000 C 
BRANCH  18  19
ATOM     19  C   UNL     1      13.181 -24.328  40.740  1.00  0.00     0.000 C 
BRANCH  19  20
ATOM     20  C   UNL     1      13.588 -25.584  39.947  1.00  0.00     0.006 C 
BRANCH  20  21
ATOM     21  C   UNL     1      12.824 -25.728  38.625  1.00  0.00     0.053 C 
BRANCH  21  22
ATOM     22  C   UNL     1      13.747 -26.167  37.533  1.00  0.00     0.041 C 
ATOM     23  O   UNL     1      14.655 -27.008  37.770  1.00  0.00    -0.550 OA
ATOM     24  O   UNL     1      13.635 -25.614  36.262  1.00  0.00    -0.550 OA
ENDBRANCH  21  22
ENDBRANCH  20  21
ENDBRANCH  19  20
ENDBRANCH  18  19
ENDBRANCH  17  18
ENDBRANCH  16  17
ENDBRANCH  15  16
ENDBRANCH  14  15
ENDBRANCH  13  14
ENDBRANCH   1  13
TORSDOF 20
ENDMDL
MODEL 4
REMARK VINA RESULT:    -3.389      4.298      6.675
REMARK INTER + INTRA:         -11.815
REMARK INTER:                  -8.616
REMARK INTRA:                  -3.199
REMARK UNBOUND:                -4.464
REMARK SMILES CCCCCCCCCCCCCCCCCCCCCC(=O)[O-]
REMARK SMILES IDX 12 1 11 2 10 3 9 4 8 5 7 6 6 7 5 8 4 9 3 10 2 11 1 12 13 13
REMARK SMILES IDX 14 14 15 15 16 16 17 17 18 18 19 19 20 20 21 21 22 22 23 23
REMARK SMILES IDX 24 24
REMARK H PARENT
REMARK Flexibility Score: inf
ROOT
ATOM      1  C   UNL     1      11.067 -22.223  41.113  1.00  0.00     0.000 C 
ENDROOT
BRANCH   1   2
ATOM      2  C   UNL     1       9.802 -22.941  40.616  1.00  0.00     0.000 C 
BRANCH   2   3
ATOM      3  C   UNL     1      10.154 -24.029  39.591  1.00  0.00     0.000 C 
BRANCH   3   4
ATOM      4  C   UNL     1      10.659 -25.327  40.247  1.00  0.00    -0.000 C 
BRANCH   4   5
ATOM      5  C   UNL     1      12.194 -25.480  40.287  1.00  0.00    -0.000 C 
BRANCH   5   6
ATOM      6  C   UNL     1      12.957 -24.736  39.172  1.00  0.00    -0.000 C 
BRANCH   6   7
ATOM      7  C   UNL     1      14.047 -23.765  39.662  1.00  0.00    -0.000 C 
BRANCH   7   8
ATOM      8  C   UNL     1      14.988 -24.400  40.700  1.00  0.00    -0.000 C 
BRANCH   8   9
ATOM      9  C   UNL     1      15.944 -25.430  40.078  1.00  0.00    -0.000 C 
BRANCH   9  10
ATOM     10  C   UNL     1      15.601 -26.874  40.477  1.00  0.00    -0.000 C 
BRANCH  10  11
ATOM     11  C   UNL     1      15.435 -27.760  39.236  1.00  0.00    -0.003 C 
ATOM     12  C   UNL     1      15.713 -26.977  37.957  1.00  0.00     0.004 C 
ENDBRANCH  10  11
ENDBRANCH   9  10
ENDBRANCH   8   9
ENDBRANCH   7   8
ENDBRANCH   6   7
ENDBRANCH   5   6
ENDBRANCH   4   5
ENDBRANCH   3   4
ENDBRANCH   2   3
ENDBRANCH   1   2
BRANCH   1  13
ATOM     13  C   UNL     1      11.398 -22.539  42.583  1.00  0.00     0.000 C 
BRANCH  13  14
ATOM     14  C   UNL     1      12.883 -22.387  42.962  1.00  0.00     0.000 C 
BRANCH  14  15
ATOM     15  C   UNL     1      13.432 -20.979  42.675  1.00  0.00     0.000 C 
BRANCH  15  16
ATOM     16  C   UNL     1      14.933 -20.982  42.331  1.00  0.00     0.000 C 
BRANCH  16  17
ATOM     17  C   UNL     1      15.286 -20.445  40.930  1.00  0.00     0.000 C 
BRANCH  17  18
ATOM     18  C   UNL     1      14.896 -18.975  40.679  1.00  0.00     0.000 C 
BRANCH  18  19
ATOM     19  C   UNL     1      14.407 -18.666  39.248  1.00  0.00     0.000 C 
BRANCH  19  20
ATOM     20  C   UNL     1      14.958 -19.603  38.157  1.00  0.00     0.006 C 
BRANCH  20  21
ATOM     21  C   UNL     1      13.857 -20.394  37.439  1.00  0.00     0.053 C 
BRANCH  21  22
ATOM     22  C   UNL     1      14.459 -21.415  36.525  1.00  0.00     0.041 C 
ATOM     23  O   UNL     1      13.782 -22.410  36.154  1.00  0.00    -0.550 OA
ATOM     24  O   UNL     1      15.783 -21.292  36.119  1.00  0.00    -0.550 OA
ENDBRANCH  21  22
ENDBRANCH  20  21
ENDBRANCH  19  20
ENDBRANCH  18  19
ENDBRANCH  17  18
ENDBRANCH  16  17
ENDBRANCH  15  16
ENDBRANCH  14  15
ENDBRANCH  13  14
ENDBRANCH   1  13
TORSDOF 20
ENDMDL
MODEL 5
REMARK VINA RESULT:    -3.358      3.242      5.774
REMARK INTER + INTRA:         -11.748
REMARK INTER:                  -8.489
REMARK INTRA:                  -3.259
REMARK UNBOUND:                -4.464
REMARK SMILES CCCCCCCCCCCCCCCCCCCCCC(=O)[O-]
REMARK SMILES IDX 12 1 11 2 10 3 9 4 8 5 7 6 6 7 5 8 4 9 3 10 2 11 1 12 13 13
REMARK SMILES IDX 14 14 15 15 16 16 17 17 18 18 19 19 20 20 21 21 22 22 23 23
REMARK SMILES IDX 24 24
REMARK H PARENT
REMARK Flexibility Score: inf
ROOT
ATOM      1  C   UNL     1      14.143 -25.600  40.388  1.00  0.00     0.000 C 
ENDROOT
BRANCH   1   2
ATOM      2  C   UNL     1      15.400 -26.257  39.797  1.00  0.00     0.000 C 
BRANCH   2   3
ATOM      3  C   UNL     1      15.381 -27.777  40.017  1.00  0.00     0.000 C 
BRANCH   3   4
ATOM      4  C   UNL     1      15.079 -28.564  38.730  1.00  0.00    -0.000 C 
BRANCH   4   5
ATOM      5  C   UNL     1      13.583 -28.673  38.369  1.00  0.00    -0.000 C 
BRANCH   5   6
ATOM      6  C   UNL     1      12.896 -29.984  38.805  1.00  0.00    -0.000 C 
BRANCH   6   7
ATOM      7  C   UNL     1      12.063 -29.888  40.096  1.00  0.00    -0.000 C 
BRANCH   7   8
ATOM      8  C   UNL     1      12.899 -30.131  41.364  1.00  0.00    -0.000 C 
BRANCH   8   9
ATOM      9  C   UNL     1      12.784 -28.979  42.375  1.00  0.00    -0.000 C 
BRANCH   9  10
ATOM     10  C   UNL     1      13.179 -29.399  43.800  1.00  0.00    -0.000 C 
BRANCH  10  11
ATOM     11  C   UNL     1      14.653 -29.820  43.856  1.00  0.00    -0.003 C 
ATOM     12  C   UNL     1      15.577 -28.637  43.581  1.00  0.00     0.004 C 
ENDBRANCH  10  11
ENDBRANCH   9  10
ENDBRANCH   8   9
ENDBRANCH   7   8
ENDBRANCH   6   7
ENDBRANCH   5   6
ENDBRANCH   4   5
ENDBRANCH   3   4
ENDBRANCH   2   3
ENDBRANCH   1   2
BRANCH   1  13
ATOM     13  C   UNL     1      13.260 -24.927  39.320  1.00  0.00     0.000 C 
BRANCH  13  14
ATOM     14  C   UNL     1      11.851 -25.529  39.166  1.00  0.00     0.000 C 
BRANCH  14  15
ATOM     15  C   UNL     1      11.307 -26.119  40.479  1.00  0.00     0.000 C 
BRANCH  15  16
ATOM     16  C   UNL     1      10.050 -25.390  40.986  1.00  0.00     0.000 C 
BRANCH  16  17
ATOM     17  C   UNL     1       9.552 -24.239  40.089  1.00  0.00     0.000 C 
BRANCH  17  18
ATOM     18  C   UNL     1       9.772 -22.826  40.661  1.00  0.00     0.000 C 
BRANCH  18  19
ATOM     19  C   UNL     1      10.801 -22.739  41.807  1.00  0.00     0.000 C 
BRANCH  19  20
ATOM     20  C   UNL     1      12.019 -21.842  41.520  1.00  0.00     0.006 C 
BRANCH  20  21
ATOM     21  C   UNL     1      13.290 -22.313  42.238  1.00  0.00     0.053 C 
BRANCH  21  22
ATOM     22  C   UNL     1      13.390 -21.684  43.591  1.00  0.00     0.041 C 
ATOM     23  O   UNL     1      12.907 -22.267  44.598  1.00  0.00    -0.550 OA
ATOM     24  O   UNL     1      13.976 -20.432  43.736  1.00  0.00    -0.550 OA
ENDBRANCH  21  22
ENDBRANCH  20  21
ENDBRANCH  19  20
ENDBRANCH  18  19
ENDBRANCH  17  18
ENDBRANCH  16  17
ENDBRANCH  15  16
ENDBRANCH  14  15
ENDBRANCH  13  14
ENDBRANCH   1  13
TORSDOF 20
ENDMDL
MODEL 6
REMARK VINA RESULT:    -3.337      2.286      3.851
REMARK INTER + INTRA:         -11.702
REMARK INTER:                  -8.164
REMARK INTRA:                  -3.538
REMARK UNBOUND:                -4.464
REMARK SMILES CCCCCCCCCCCCCCCCCCCCCC(=O)[O-]
REMARK SMILES IDX 12 1 11 2 10 3 9 4 8 5 7 6 6 7 5 8 4 9 3 10 2 11 1 12 13 13
REMARK SMILES IDX 14 14 15 15 16 16 17 17 18 18 19 19 20 20 21 21 22 22 23 23
REMARK SMILES IDX 24 24
REMARK H PARENT
REMARK Flexibility Score: inf
ROOT
ATOM      1  C   UNL     1       8.620 -25.902  41.015  1.00  0.00     0.000 C 
ENDROOT
BRANCH   1   2
ATOM      2  C   UNL     1       8.225 -27.388  41.000  1.00  0.00     0.000 C 
BRANCH   2   3
ATOM      3  C   UNL     1       9.460 -28.283  40.821  1.00  0.00     0.000 C 
BRANCH   3   4
ATOM      4  C   UNL     1      10.637 -27.865  41.721  1.00  0.00    -0.000 C 
BRANCH   4   5
ATOM      5  C   UNL     1      11.936 -27.511  40.969  1.00  0.00    -0.000 C 
BRANCH   5   6
ATOM      6  C   UNL     1      11.907 -27.772  39.449  1.00  0.00    -0.000 C 
BRANCH   6   7
ATOM      7  C   UNL     1      13.287 -27.944  38.788  1.00  0.00    -0.000 C 
BRANCH   7   8
ATOM      8  C   UNL     1      13.532 -29.377  38.285  1.00  0.00    -0.000 C 
BRANCH   8   9
ATOM      9  C   UNL     1      13.552 -30.407  39.426  1.00  0.00    -0.000 C 
BRANCH   9  10
ATOM     10  C   UNL     1      12.367 -31.383  39.365  1.00  0.00    -0.000 C 
BRANCH  10  11
ATOM     11  C   UNL     1      11.598 -31.394  40.692  1.00  0.00    -0.003 C 
ATOM     12  C   UNL     1      12.524 -31.105  41.870  1.00  0.00     0.004 C 
ENDBRANCH  10  11
ENDBRANCH   9  10
ENDBRANCH   8   9
ENDBRANCH   7   8
ENDBRANCH   6   7
ENDBRANCH   5   6
ENDBRANCH   4   5
ENDBRANCH   3   4
ENDBRANCH   2   3
ENDBRANCH   1   2
BRANCH   1  13
ATOM     13  C   UNL     1       9.028 -25.376  39.627  1.00  0.00     0.000 C 
BRANCH  13  14
ATOM     14  C   UNL     1      10.149 -24.319  39.635  1.00  0.00     0.000 C 
BRANCH  14  15
ATOM     15  C   UNL     1      10.447 -23.777  41.044  1.00  0.00     0.000 C 
BRANCH  15  16
ATOM     16  C   UNL     1      10.828 -22.286  41.042  1.00  0.00     0.000 C 
BRANCH  16  17
ATOM     17  C   UNL     1      12.339 -21.994  40.945  1.00  0.00     0.000 C 
BRANCH  17  18
ATOM     18  C   UNL     1      13.202 -22.669  42.028  1.00  0.00     0.000 C 
BRANCH  18  19
ATOM     19  C   UNL     1      14.278 -23.637  41.494  1.00  0.00     0.000 C 
BRANCH  19  20
ATOM     20  C   UNL     1      13.840 -24.498  40.295  1.00  0.00     0.006 C 
BRANCH  20  21
ATOM     21  C   UNL     1      14.707 -24.273  39.050  1.00  0.00     0.053 C 
BRANCH  21  22
ATOM     22  C   UNL     1      13.848 -24.072  37.842  1.00  0.00     0.041 C 
ATOM     23  O   UNL     1      13.764 -24.974  36.967  1.00  0.00    -0.550 OA
ATOM     24  O   UNL     1      13.174 -22.870  37.659  1.00  0.00    -0.550 OA
ENDBRANCH  21  22
ENDBRANCH  20  21
ENDBRANCH  19  20
ENDBRANCH  18  19
ENDBRANCH  17  18
ENDBRANCH  16  17
ENDBRANCH  15  16
ENDBRANCH  14  15
ENDBRANCH  13  14
ENDBRANCH   1  13
TORSDOF 20
ENDMDL
MODEL 7
REMARK VINA RESULT:    -3.333      2.317      4.761
REMARK INTER + INTRA:         -11.693
REMARK INTER:                  -8.496
REMARK INTRA:                  -3.197
REMARK UNBOUND:                -4.464
REMARK SMILES CCCCCCCCCCCCCCCCCCCCCC(=O)[O-]
REMARK SMILES IDX 12 1 11 2 10 3 9 4 8 5 7 6 6 7 5 8 4 9 3 10 2 11 1 12 13 13
REMARK SMILES IDX 14 14 15 15 16 16 17 17 18 18 19 19 20 20 21 21 22 22 23 23
REMARK SMILES IDX 24 24
REMARK H PARENT
REMARK Flexibility Score: inf
ROOT
ATOM      1  C   UNL     1      13.106 -27.884  41.182  1.00  0.00     0.000 C 
ENDROOT
BRANCH   1   2
ATOM      2  C   UNL     1      13.448 -26.525  40.551  1.00  0.00     0.000 C 
BRANCH   2   3
ATOM      3  C   UNL     1      14.733 -26.615  39.716  1.00  0.00     0.000 C 
BRANCH   3   4
ATOM      4  C   UNL     1      14.591 -27.543  38.496  1.00  0.00    -0.000 C 
BRANCH   4   5
ATOM      5  C   UNL     1      13.419 -27.204  37.553  1.00  0.00    -0.000 C 
BRANCH   5   6
ATOM      6  C   UNL     1      12.417 -28.351  37.313  1.00  0.00    -0.000 C 
BRANCH   6   7
ATOM      7  C   UNL     1      12.841 -29.719  37.877  1.00  0.00    -0.000 C 
BRANCH   7   8
ATOM      8  C   UNL     1      11.670 -30.494  38.506  1.00  0.00    -0.000 C 
BRANCH   8   9
ATOM      9  C   UNL     1      12.130 -31.468  39.603  1.00  0.00    -0.000 C 
BRANCH   9  10
ATOM     10  C   UNL     1      13.628 -31.338  39.921  1.00  0.00    -0.000 C 
BRANCH  10  11
ATOM     11  C   UNL     1      13.970 -32.042  41.241  1.00  0.00    -0.003 C 
ATOM     12  C   UNL     1      13.206 -31.427  42.409  1.00  0.00     0.004 C 
ENDBRANCH  10  11
ENDBRANCH   9  10
ENDBRANCH   8   9
ENDBRANCH   7   8
ENDBRANCH   6   7
ENDBRANCH   5   6
ENDBRANCH   4   5
ENDBRANCH   3   4
ENDBRANCH   2   3
ENDBRANCH   1   2
BRANCH   1  13
ATOM     13  C   UNL     1      11.591 -28.115  41.326  1.00  0.00     0.000 C 
BRANCH  13  14
ATOM     14  C   UNL     1      10.707 -27.201  40.456  1.00  0.00     0.000 C 
BRANCH  14  15
ATOM     15  C   UNL     1       9.631 -26.463  41.269  1.00  0.00     0.000 C 
BRANCH  15  16
ATOM     16  C   UNL     1       9.517 -24.973  40.898  1.00  0.00     0.000 C 
BRANCH  16  17
ATOM     17  C   UNL     1      10.752 -24.115  41.240  1.00  0.00     0.000 C 
BRANCH  17  18
ATOM     18  C   UNL     1      10.659 -22.639  40.807  1.00  0.00     0.000 C 
BRANCH  18  19
ATOM     19  C   UNL     1      12.015 -21.946  40.559  1.00  0.00     0.000 C 
BRANCH  19  20
ATOM     20  C   UNL     1      12.928 -22.652  39.540  1.00  0.00     0.006 C 
BRANCH  20  21
ATOM     21  C   UNL     1      13.441 -21.708  38.444  1.00  0.00     0.053 C 
BRANCH  21  22
ATOM     22  C   UNL     1      13.951 -22.491  37.276  1.00  0.00     0.041 C 
ATOM     23  O   UNL     1      14.114 -21.930  36.160  1.00  0.00    -0.550 OA
ATOM     24  O   UNL     1      14.205 -23.851  37.408  1.00  0.00    -0.550 OA
ENDBRANCH  21  22
ENDBRANCH  20  21
ENDBRANCH  19  20
ENDBRANCH  18  19
ENDBRANCH  17  18
ENDBRANCH  16  17
ENDBRANCH  15  16
ENDBRANCH  14  15
ENDBRANCH  13  14
ENDBRANCH   1  13
TORSDOF 20
ENDMDL
MODEL 8
REMARK VINA RESULT:    -3.312      3.019      5.090
REMARK INTER + INTRA:         -11.649
REMARK INTER:                  -8.555
REMARK INTRA:                  -3.094
REMARK UNBOUND:                -4.464
REMARK SMILES CCCCCCCCCCCCCCCCCCCCCC(=O)[O-]
REMARK SMILES IDX 12 1 11 2 10 3 9 4 8 5 7 6 6 7 5 8 4 9 3 10 2 11 1 12 13 13
REMARK SMILES IDX 14 14 15 15 16 16 17 17 18 18 19 19 20 20 21 21 22 22 23 23
REMARK SMILES IDX 24 24
REMARK H PARENT
REMARK Flexibility Score: inf
ROOT
ATOM      1  C   UNL     1      10.622 -25.934  41.004  1.00  0.00     0.000 C 
ENDROOT
BRANCH   1   2
ATOM      2  C   UNL     1      11.063 -27.033  40.026  1.00  0.00     0.000 C 
BRANCH   2   3
ATOM      3  C   UNL     1      12.019 -26.472  38.963  1.00  0.00     0.000 C 
BRANCH   3   4
ATOM      4  C   UNL     1      13.214 -25.716  39.572  1.00  0.00    -0.000 C 
BRANCH   4   5
ATOM      5  C   UNL     1      14.565 -26.456  39.486  1.00  0.00    -0.000 C 
BRANCH   5   6
ATOM      6  C   UNL     1      14.671 -27.499  38.354  1.00  0.00    -0.000 C 
BRANCH   6   7
ATOM      7  C   UNL     1      14.905 -28.947  38.820  1.00  0.00    -0.000 C 
BRANCH   7   8
ATOM      8  C   UNL     1      13.598 -29.675  39.182  1.00  0.00    -0.000 C 
BRANCH   8   9
ATOM      9  C   UNL     1      13.615 -30.238  40.612  1.00  0.00    -0.000 C 
BRANCH   9  10
ATOM     10  C   UNL     1      13.681 -29.136  41.682  1.00  0.00    -0.000 C 
BRANCH  10  11
ATOM     11  C   UNL     1      12.533 -29.283  42.690  1.00  0.00    -0.003 C 
ATOM     12  C   UNL     1      11.368 -30.064  42.090  1.00  0.00     0.004 C 
ENDBRANCH  10  11
ENDBRANCH   9  10
ENDBRANCH   8   9
ENDBRANCH   7   8
ENDBRANCH   6   7
ENDBRANCH   5   6
ENDBRANCH   4   5
ENDBRANCH   3   4
ENDBRANCH   2   3
ENDBRANCH   1   2
BRANCH   1  13
ATOM     13  C   UNL     1       9.277 -25.291  40.618  1.00  0.00     0.000 C 
BRANCH  13  14
ATOM     14  C   UNL     1       9.262 -23.750  40.641  1.00  0.00     0.000 C 
BRANCH  14  15
ATOM     15  C   UNL     1      10.634 -23.135  40.320  1.00  0.00     0.000 C 
BRANCH  15  16
ATOM     16  C   UNL     1      11.171 -22.247  41.457  1.00  0.00     0.000 C 
BRANCH  16  17
ATOM     17  C   UNL     1      12.466 -21.475  41.132  1.00  0.00     0.000 C 
BRANCH  17  18
ATOM     18  C   UNL     1      13.749 -22.328  41.129  1.00  0.00     0.000 C 
BRANCH  18  19
ATOM     19  C   UNL     1      14.558 -22.283  39.817  1.00  0.00     0.000 C 
BRANCH  19  20
ATOM     20  C   UNL     1      13.711 -22.223  38.532  1.00  0.00     0.006 C 
BRANCH  20  21
ATOM     21  C   UNL     1      13.908 -20.919  37.748  1.00  0.00     0.053 C 
BRANCH  21  22
ATOM     22  C   UNL     1      14.409 -21.209  36.369  1.00  0.00     0.041 C 
ATOM     23  O   UNL     1      15.624 -21.481  36.181  1.00  0.00    -0.550 OA
ATOM     24  O   UNL     1      13.544 -21.133  35.283  1.00  0.00    -0.550 OA
ENDBRANCH  21  22
ENDBRANCH  20  21
ENDBRANCH  19  20
ENDBRANCH  18  19
ENDBRANCH  17  18
ENDBRANCH  16  17
ENDBRANCH  15  16
ENDBRANCH  14  15
ENDBRANCH  13  14
ENDBRANCH   1  13
TORSDOF 20
ENDMDL
MODEL 9
REMARK VINA RESULT:    -3.284      1.876      5.456
REMARK INTER + INTRA:         -11.588
REMARK INTER:                  -8.790
REMARK INTRA:                  -2.798
REMARK UNBOUND:                -4.464
REMARK SMILES CCCCCCCCCCCCCCCCCCCCCC(=O)[O-]
REMARK SMILES IDX 12 1 11 2 10 3 9 4 8 5 7 6 6 7 5 8 4 9 3 10 2 11 1 12 13 13
REMARK SMILES IDX 14 14 15 15 16 16 17 17 18 18 19 19 20 20 21 21 22 22 23 23
REMARK SMILES IDX 24 24
REMARK H PARENT
REMARK Flexibility Score: inf
ROOT
ATOM      1  C   UNL     1      11.872 -29.819  43.018  1.00  0.00     0.000 C 
ENDROOT
BRANCH   1   2
ATOM      2  C   UNL     1      11.213 -28.827  42.046  1.00  0.00     0.000 C 
BRANCH   2   3
ATOM      3  C   UNL     1       9.878 -29.376  41.522  1.00  0.00     0.000 C 
BRANCH   3   4
ATOM      4  C   UNL     1       8.658 -28.650  42.117  1.00  0.00    -0.000 C 
BRANCH   4   5
ATOM      5  C   UNL     1       8.100 -27.501  41.253  1.00  0.00    -0.000 C 
BRANCH   5   6
ATOM      6  C   UNL     1       8.497 -27.547  39.763  1.00  0.00    -0.000 C 
BRANCH   6   7
ATOM      7  C   UNL     1       8.967 -26.207  39.170  1.00  0.00    -0.000 C 
BRANCH   7   8
ATOM      8  C   UNL     1       9.510 -25.240  40.237  1.00  0.00    -0.000 C 
BRANCH   8   9
ATOM      9  C   UNL     1       9.610 -23.794  39.726  1.00  0.00    -0.000 C 
BRANCH   9  10
ATOM     10  C   UNL     1       9.632 -22.763  40.865  1.00  0.00    -0.000 C 
BRANCH  10  11
ATOM     11  C   UNL     1      11.057 -22.250  41.110  1.00  0.00    -0.003 C 
ATOM     12  C   UNL     1      11.528 -22.584  42.523  1.00  0.00     0.004 C 
ENDBRANCH  10  11
ENDBRANCH   9  10
ENDBRANCH   8   9
ENDBRANCH   7   8
ENDBRANCH   6   7
ENDBRANCH   5   6
ENDBRANCH   4   5
ENDBRANCH   3   4
ENDBRANCH   2   3
ENDBRANCH   1   2
BRANCH   1  13
ATOM     13  C   UNL     1      13.405 -29.679  43.072  1.00  0.00     0.000 C 
BRANCH  13  14
ATOM     14  C   UNL     1      14.187 -30.985  42.836  1.00  0.00     0.000 C 
BRANCH  14  15
ATOM     15  C   UNL     1      13.363 -32.047  42.089  1.00  0.00     0.000 C 
BRANCH  15  16
ATOM     16  C   UNL     1      13.816 -32.239  40.631  1.00  0.00     0.000 C 
BRANCH  16  17
ATOM     17  C   UNL     1      12.980 -31.484  39.578  1.00  0.00     0.000 C 
BRANCH  17  18
ATOM     18  C   UNL     1      13.434 -30.038  39.302  1.00  0.00     0.000 C 
BRANCH  18  19
ATOM     19  C   UNL     1      12.650 -29.310  38.190  1.00  0.00     0.000 C 
BRANCH  19  20
ATOM     20  C   UNL     1      12.162 -27.897  38.557  1.00  0.00     0.006 C 
BRANCH  20  21
ATOM     21  C   UNL     1      13.312 -26.921  38.835  1.00  0.00     0.053 C 
BRANCH  21  22
ATOM     22  C   UNL     1      13.237 -25.747  37.912  1.00  0.00     0.041 C 
ATOM     23  O   UNL     1      12.662 -24.688  38.280  1.00  0.00    -0.550 OA
ATOM     24  O   UNL     1      13.761 -25.836  36.628  1.00  0.00    -0.550 OA
ENDBRANCH  21  22
ENDBRANCH  20  21
ENDBRANCH  19  20
ENDBRANCH  18  19
ENDBRANCH  17  18
ENDBRANCH  16  17
ENDBRANCH  15  16
ENDBRANCH  14  15
ENDBRANCH  13  14
ENDBRANCH   1  13
TORSDOF 20
ENDMDL
