MODEL 1
REMARK VINA RESULT:    21.299      0.000      0.000
REMARK INTER + INTRA:          25.836
REMARK INTER:                  25.657
REMARK INTRA:                   0.179
REMARK UNBOUND:                 0.179
REMARK SMILES Oc1cc(O)c2cc(O)c(-c3ccc(O)c(O)c3)[o+]c2c1
REMARK SMILES IDX 10 1 19 2 20 3 21 4 2 5 3 6 4 7 6 8 7 9 8 10 11 11 12 12
REMARK SMILES IDX 13 13 14 14 18 15 16 16 15 17 17 19 9 21 1 23 5 25
REMARK H PARENT 15 18 17 20 9 22 1 24 5 26
REMARK Flexibility Score: inf
ROOT
ATOM      1  C   UNL     1      29.938  23.674  45.287  1.00  0.00     0.402 A 
ATOM      2  O   UNL     1      29.291  23.104  46.302  1.00  0.00    -0.202 OA
ATOM      3  C   UNL     1      27.967  23.116  46.421  1.00  0.00     0.368 A 
ATOM      4  C   UNL     1      27.380  22.494  47.526  1.00  0.00     0.162 A 
ATOM      5  C   UNL     1      25.990  22.494  47.679  1.00  0.00     0.128 A 
ATOM      6  C   UNL     1      25.186  23.121  46.725  1.00  0.00     0.093 A 
ATOM      7  C   UNL     1      25.750  23.752  45.609  1.00  0.00     0.136 A 
ATOM      8  C   UNL     1      27.161  23.753  45.448  1.00  0.00     0.125 A 
ATOM      9  C   UNL     1      27.813  24.349  44.356  1.00  0.00     0.078 A 
ATOM     10  C   UNL     1      29.207  24.305  44.263  1.00  0.00     0.223 A 
ENDROOT
BRANCH   1  11
ATOM     11  C   UNL     1      31.416  23.600  45.270  1.00  0.00     0.087 A 
ATOM     12  C   UNL     1      32.061  22.520  45.891  1.00  0.00     0.022 A 
ATOM     13  C   UNL     1      33.456  22.441  45.904  1.00  0.00     0.051 A 
ATOM     14  C   UNL     1      34.228  23.449  45.312  1.00  0.00     0.157 A 
ATOM     15  C   UNL     1      32.194  24.622  44.695  1.00  0.00     0.068 A 
ATOM     16  C   UNL     1      33.592  24.547  44.708  1.00  0.00     0.158 A 
BRANCH  14  17
ATOM     17  O   UNL     1      35.618  23.367  45.326  1.00  0.00    -0.504 OA
ATOM     18  H   UNL     1      36.115  22.668  44.784  1.00  0.00     0.293 HD
ENDBRANCH  14  17
BRANCH  16  19
ATOM     19  O   UNL     1      34.331  25.575  44.123  1.00  0.00    -0.504 OA
ATOM     20  H   UNL     1      33.951  26.506  43.999  1.00  0.00     0.293 HD
ENDBRANCH  16  19
ENDBRANCH   1  11
BRANCH  10  21
ATOM     21  O   UNL     1      29.851  24.852  43.154  1.00  0.00    -0.500 OA
ATOM     22  H   UNL     1      29.442  25.610  42.620  1.00  0.00     0.294 HD
ENDBRANCH  10  21
BRANCH   5  23
ATOM     23  O   UNL     1      25.397  21.875  48.776  1.00  0.00    -0.507 OA
ATOM     24  H   UNL     1      25.387  22.313  49.691  1.00  0.00     0.293 HD
ENDBRANCH   5  23
BRANCH   7  25
ATOM     25  O   UNL     1      24.877  24.359  44.703  1.00  0.00    -0.507 OA
ATOM     26  H   UNL     1      24.557  23.932  43.845  1.00  0.00     0.293 HD
ENDBRANCH   7  25
TORSDOF 6
ENDMDL
MODEL 2
REMARK VINA RESULT:    23.715     10.343     11.013
REMARK INTER + INTRA:          28.746
REMARK INTER:                  29.091
REMARK INTRA:                  -0.345
REMARK UNBOUND:                 0.179
REMARK SMILES Oc1cc(O)c2cc(O)c(-c3ccc(O)c(O)c3)[o+]c2c1
REMARK SMILES IDX 10 1 19 2 20 3 21 4 2 5 3 6 4 7 6 8 7 9 8 10 11 11 12 12
REMARK SMILES IDX 13 13 14 14 18 15 16 16 15 17 17 19 9 21 1 23 5 25
REMARK H PARENT 15 18 17 20 9 22 1 24 5 26
REMARK Flexibility Score: inf
ROOT
ATOM      1  C   UNL     1      29.130  33.461  48.520  1.00  0.00     0.402 A 
ATOM      2  O   UNL     1      29.399  32.452  49.346  1.00  0.00    -0.202 OA
ATOM      3  C   UNL     1      29.177  31.178  49.036  1.00  0.00     0.368 A 
ATOM      4  C   UNL     1      29.489  30.189  49.971  1.00  0.00     0.162 A 
ATOM      5  C   UNL     1      29.263  28.840  49.673  1.00  0.00     0.128 A 
ATOM      6  C   UNL     1      28.723  28.483  48.436  1.00  0.00     0.093 A 
ATOM      7  C   UNL     1      28.402  29.457  47.482  1.00  0.00     0.136 A 
ATOM      8  C   UNL     1      28.631  30.826  47.779  1.00  0.00     0.125 A 
ATOM      9  C   UNL     1      28.352  31.869  46.879  1.00  0.00     0.078 A 
ATOM     10  C   UNL     1      28.610  33.194  47.241  1.00  0.00     0.223 A 
ENDROOT
BRANCH   1  11
ATOM     11  C   UNL     1      29.413  34.839  48.984  1.00  0.00     0.087 A 
ATOM     12  C   UNL     1      30.729  35.323  48.948  1.00  0.00     0.022 A 
ATOM     13  C   UNL     1      31.022  36.613  49.400  1.00  0.00     0.051 A 
ATOM     14  C   UNL     1      30.006  37.431  49.909  1.00  0.00     0.157 A 
ATOM     15  C   UNL     1      28.399  35.656  49.517  1.00  0.00     0.068 A 
ATOM     16  C   UNL     1      28.689  36.947  49.972  1.00  0.00     0.158 A 
BRANCH  14  17
ATOM     17  O   UNL     1      30.300  38.717  50.358  1.00  0.00    -0.504 OA
ATOM     18  H   UNL     1      29.586  39.435  50.418  1.00  0.00     0.293 HD
ENDBRANCH  14  17
BRANCH  16  19
ATOM     19  O   UNL     1      27.657  37.731  50.487  1.00  0.00    -0.504 OA
ATOM     20  H   UNL     1      27.822  38.447  51.184  1.00  0.00     0.293 HD
ENDBRANCH  16  19
ENDBRANCH   1  11
BRANCH  10  21
ATOM     21  O   UNL     1      28.380  34.225  46.329  1.00  0.00    -0.500 OA
ATOM     22  H   UNL     1      28.354  34.057  45.330  1.00  0.00     0.294 HD
ENDBRANCH  10  21
BRANCH   5  23
ATOM     23  O   UNL     1      29.571  27.848  50.600  1.00  0.00    -0.507 OA
ATOM     24  H   UNL     1      30.451  27.848  51.105  1.00  0.00     0.293 HD
ENDBRANCH   5  23
BRANCH   7  25
ATOM     25  O   UNL     1      27.862  29.018  46.270  1.00  0.00    -0.507 OA
ATOM     26  H   UNL     1      27.753  28.047  46.012  1.00  0.00     0.293 HD
ENDBRANCH   7  25
TORSDOF 6
ENDMDL
MODEL 3
REMARK VINA RESULT:    23.908     10.635     11.516
REMARK INTER + INTRA:          28.978
REMARK INTER:                  29.248
REMARK INTRA:                  -0.269
REMARK UNBOUND:                 0.179
REMARK SMILES Oc1cc(O)c2cc(O)c(-c3ccc(O)c(O)c3)[o+]c2c1
REMARK SMILES IDX 10 1 19 2 20 3 21 4 2 5 3 6 4 7 6 8 7 9 8 10 11 11 12 12
REMARK SMILES IDX 13 13 14 14 18 15 16 16 15 17 17 19 9 21 1 23 5 25
REMARK H PARENT 15 18 17 20 9 22 1 24 5 26
REMARK Flexibility Score: inf
ROOT
ATOM      1  C   UNL     1      29.503  33.629  49.227  1.00  0.00     0.402 A 
ATOM      2  O   UNL     1      28.799  33.197  48.183  1.00  0.00    -0.202 OA
ATOM      3  C   UNL     1      28.536  31.912  47.963  1.00  0.00     0.368 A 
ATOM      4  C   UNL     1      27.791  31.556  46.836  1.00  0.00     0.162 A 
ATOM      5  C   UNL     1      27.501  30.212  46.578  1.00  0.00     0.128 A 
ATOM      6  C   UNL     1      27.961  29.222  47.449  1.00  0.00     0.093 A 
ATOM      7  C   UNL     1      28.710  29.554  48.585  1.00  0.00     0.136 A 
ATOM      8  C   UNL     1      29.004  30.917  48.853  1.00  0.00     0.125 A 
ATOM      9  C   UNL     1      29.736  31.343  49.974  1.00  0.00     0.078 A 
ATOM     10  C   UNL     1      29.982  32.704  50.174  1.00  0.00     0.223 A 
ENDROOT
BRANCH   1  11
ATOM     11  C   UNL     1      29.737  35.085  49.358  1.00  0.00     0.087 A 
ATOM     12  C   UNL     1      31.026  35.598  49.149  1.00  0.00     0.022 A 
ATOM     13  C   UNL     1      31.274  36.966  49.286  1.00  0.00     0.051 A 
ATOM     14  C   UNL     1      30.241  37.839  49.652  1.00  0.00     0.157 A 
ATOM     15  C   UNL     1      28.707  35.961  49.747  1.00  0.00     0.068 A 
ATOM     16  C   UNL     1      28.953  37.332  49.887  1.00  0.00     0.158 A 
BRANCH  14  17
ATOM     17  O   UNL     1      30.491  39.203  49.788  1.00  0.00    -0.504 OA
ATOM     18  H   UNL     1      29.736  39.877  49.859  1.00  0.00     0.293 HD
ENDBRANCH  14  17
BRANCH  16  19
ATOM     19  O   UNL     1      27.906  38.171  50.267  1.00  0.00    -0.504 OA
ATOM     20  H   UNL     1      28.070  39.090  50.663  1.00  0.00     0.293 HD
ENDBRANCH  16  19
ENDBRANCH   1  11
BRANCH  10  21
ATOM     21  O   UNL     1      30.666  33.131  51.312  1.00  0.00    -0.500 OA
ATOM     22  H   UNL     1      30.898  32.494  52.065  1.00  0.00     0.294 HD
ENDBRANCH  10  21
BRANCH   5  23
ATOM     23  O   UNL     1      26.759  29.849  45.457  1.00  0.00    -0.507 OA
ATOM     24  H   UNL     1      26.522  28.881  45.269  1.00  0.00     0.293 HD
ENDBRANCH   5  23
BRANCH   7  25
ATOM     25  O   UNL     1      29.135  28.505  49.405  1.00  0.00    -0.507 OA
ATOM     26  H   UNL     1      29.928  27.911  49.208  1.00  0.00     0.293 HD
ENDBRANCH   7  25
TORSDOF 6
ENDMDL
