MODEL 1
REMARK VINA RESULT:    -4.769      0.000      0.000
REMARK INTER + INTRA:         -11.671
REMARK INTER:                  -8.951
REMARK INTRA:                  -2.720
REMARK UNBOUND:                -2.720
REMARK SMILES CCCCCCCCC=CCCCCCCCC(=O)[O-]
REMARK SMILES IDX 10 1 9 2 11 3 12 4 13 5 14 6 15 7 16 8 17 9 18 10 19 11
REMARK SMILES IDX 20 12 8 13 7 14 6 15 5 16 4 17 3 18 2 19 1 20
REMARK H PARENT
REMARK Flexibility Score: inf
ROOT
ATOM      1  C   UNL     1      14.933  25.704  58.483  1.00  0.00    -0.031 C 
ATOM      2  C   UNL     1      16.095  25.144  58.100  1.00  0.00    -0.031 C 
ENDROOT
BRANCH   1   3
ATOM      3  C   UNL     1      13.919  26.306  57.544  1.00  0.00     0.027 C 
BRANCH   3   4
ATOM      4  C   UNL     1      13.912  27.845  57.580  1.00  0.00     0.004 C 
BRANCH   4   5
ATOM      5  C   UNL     1      15.031  28.455  58.447  1.00  0.00     0.000 C 
BRANCH   5   6
ATOM      6  C   UNL     1      16.108  29.175  57.615  1.00  0.00     0.000 C 
BRANCH   6   7
ATOM      7  C   UNL     1      17.525  28.958  58.167  1.00  0.00     0.000 C 
BRANCH   7   8
ATOM      8  C   UNL     1      18.423  30.194  57.987  1.00  0.00     0.006 C 
BRANCH   8   9
ATOM      9  C   UNL     1      19.794  29.834  57.400  1.00  0.00     0.053 C 
BRANCH   9  10
ATOM     10  C   UNL     1      19.678  29.266  56.018  1.00  0.00     0.041 C 
ATOM     11  O   UNL     1      18.993  29.859  55.145  1.00  0.00    -0.550 OA
ATOM     12  O   UNL     1      20.350  28.095  55.689  1.00  0.00    -0.550 OA
ENDBRANCH   9  10
ENDBRANCH   8   9
ENDBRANCH   7   8
ENDBRANCH   6   7
ENDBRANCH   5   6
ENDBRANCH   4   5
ENDBRANCH   3   4
ENDBRANCH   1   3
BRANCH   2  13
ATOM     13  C   UNL     1      16.520  24.934  56.666  1.00  0.00     0.027 C 
BRANCH  13  14
ATOM     14  C   UNL     1      17.521  26.003  56.206  1.00  0.00     0.004 C 
BRANCH  14  15
ATOM     15  C   UNL     1      16.998  26.809  55.004  1.00  0.00     0.000 C 
BRANCH  15  16
ATOM     16  C   UNL     1      15.718  26.207  54.402  1.00  0.00     0.000 C 
BRANCH  16  17
ATOM     17  C   UNL     1      15.901  25.783  52.933  1.00  0.00    -0.000 C 
BRANCH  17  18
ATOM     18  C   UNL     1      17.374  25.783  52.498  1.00  0.00    -0.000 C 
BRANCH  18  19
ATOM     19  C   UNL     1      17.895  24.374  52.177  1.00  0.00    -0.003 C 
ATOM     20  C   UNL     1      17.941  23.506  53.430  1.00  0.00     0.004 C 
ENDBRANCH  18  19
ENDBRANCH  17  18
ENDBRANCH  16  17
ENDBRANCH  15  16
ENDBRANCH  14  15
ENDBRANCH  13  14
ENDBRANCH   2  13
TORSDOF 15
ENDMDL
MODEL 2
REMARK VINA RESULT:    -4.697      1.441      2.204
REMARK INTER + INTRA:         -11.535
REMARK INTER:                  -8.792
REMARK INTRA:                  -2.743
REMARK UNBOUND:                -2.720
REMARK SMILES CCCCCCCCC=CCCCCCCCC(=O)[O-]
REMARK SMILES IDX 10 1 9 2 11 3 12 4 13 5 14 6 15 7 16 8 17 9 18 10 19 11
REMARK SMILES IDX 20 12 8 13 7 14 6 15 5 16 4 17 3 18 2 19 1 20
REMARK H PARENT
REMARK Flexibility Score: inf
ROOT
ATOM      1  C   UNL     1      15.371  25.622  58.109  1.00  0.00    -0.031 C 
ATOM      2  C   UNL     1      16.507  25.015  57.717  1.00  0.00    -0.031 C 
ENDROOT
BRANCH   1   3
ATOM      3  C   UNL     1      14.328  26.179  57.174  1.00  0.00     0.027 C 
BRANCH   3   4
ATOM      4  C   UNL     1      14.469  27.697  56.960  1.00  0.00     0.004 C 
BRANCH   4   5
ATOM      5  C   UNL     1      15.198  28.080  55.657  1.00  0.00     0.000 C 
BRANCH   5   6
ATOM      6  C   UNL     1      16.503  28.858  55.910  1.00  0.00     0.000 C 
BRANCH   6   7
ATOM      7  C   UNL     1      16.781  29.075  57.405  1.00  0.00     0.000 C 
BRANCH   7   8
ATOM      8  C   UNL     1      18.161  28.545  57.831  1.00  0.00     0.006 C 
BRANCH   8   9
ATOM      9  C   UNL     1      19.297  29.495  57.431  1.00  0.00     0.053 C 
BRANCH   9  10
ATOM     10  C   UNL     1      20.337  28.804  56.602  1.00  0.00     0.041 C 
ATOM     11  O   UNL     1      20.036  28.326  55.477  1.00  0.00    -0.550 OA
ATOM     12  O   UNL     1      21.646  28.714  57.060  1.00  0.00    -0.550 OA
ENDBRANCH   9  10
ENDBRANCH   8   9
ENDBRANCH   7   8
ENDBRANCH   6   7
ENDBRANCH   5   6
ENDBRANCH   4   5
ENDBRANCH   3   4
ENDBRANCH   1   3
BRANCH   2  13
ATOM     13  C   UNL     1      16.867  24.702  56.285  1.00  0.00     0.027 C 
BRANCH  13  14
ATOM     14  C   UNL     1      18.005  25.596  55.775  1.00  0.00     0.004 C 
BRANCH  14  15
ATOM     15  C   UNL     1      18.517  25.153  54.393  1.00  0.00     0.000 C 
BRANCH  15  16
ATOM     16  C   UNL     1      17.394  25.069  53.347  1.00  0.00     0.000 C 
BRANCH  16  17
ATOM     17  C   UNL     1      16.992  26.451  52.801  1.00  0.00    -0.000 C 
BRANCH  17  18
ATOM     18  C   UNL     1      15.577  26.460  52.203  1.00  0.00    -0.000 C 
BRANCH  18  19
ATOM     19  C   UNL     1      15.061  27.880  51.926  1.00  0.00    -0.003 C 
ATOM     20  C   UNL     1      16.197  28.896  51.976  1.00  0.00     0.004 C 
ENDBRANCH  18  19
ENDBRANCH  17  18
ENDBRANCH  16  17
ENDBRANCH  15  16
ENDBRANCH  14  15
ENDBRANCH  13  14
ENDBRANCH   2  13
TORSDOF 15
ENDMDL
MODEL 3
REMARK VINA RESULT:    -4.584      1.675      2.835
REMARK INTER + INTRA:         -11.324
REMARK INTER:                  -8.867
REMARK INTRA:                  -2.457
REMARK UNBOUND:                -2.720
REMARK SMILES CCCCCCCCC=CCCCCCCCC(=O)[O-]
REMARK SMILES IDX 10 1 9 2 11 3 12 4 13 5 14 6 15 7 16 8 17 9 18 10 19 11
REMARK SMILES IDX 20 12 8 13 7 14 6 15 5 16 4 17 3 18 2 19 1 20
REMARK H PARENT
REMARK Flexibility Score: inf
ROOT
ATOM      1  C   UNL     1      13.971  27.445  57.471  1.00  0.00    -0.031 C 
ATOM      2  C   UNL     1      14.244  26.128  57.436  1.00  0.00    -0.031 C 
ENDROOT
BRANCH   1   3
ATOM      3  C   UNL     1      14.478  28.401  58.521  1.00  0.00     0.027 C 
BRANCH   3   4
ATOM      4  C   UNL     1      15.680  29.234  58.037  1.00  0.00     0.004 C 
BRANCH   4   5
ATOM      5  C   UNL     1      16.049  29.000  56.559  1.00  0.00     0.000 C 
BRANCH   5   6
ATOM      6  C   UNL     1      17.568  28.903  56.330  1.00  0.00     0.000 C 
BRANCH   6   7
ATOM      7  C   UNL     1      18.353  28.735  57.641  1.00  0.00     0.000 C 
BRANCH   7   8
ATOM      8  C   UNL     1      19.457  29.795  57.806  1.00  0.00     0.006 C 
BRANCH   8   9
ATOM      9  C   UNL     1      18.986  30.999  58.631  1.00  0.00     0.053 C 
BRANCH   9  10
ATOM     10  C   UNL     1      19.112  32.283  57.869  1.00  0.00     0.041 C 
ATOM     11  O   UNL     1      19.518  32.274  56.677  1.00  0.00    -0.550 OA
ATOM     12  O   UNL     1      18.756  33.485  58.466  1.00  0.00    -0.550 OA
ENDBRANCH   9  10
ENDBRANCH   8   9
ENDBRANCH   7   8
ENDBRANCH   6   7
ENDBRANCH   5   6
ENDBRANCH   4   5
ENDBRANCH   3   4
ENDBRANCH   1   3
BRANCH   2  13
ATOM     13  C   UNL     1      15.186  25.418  58.379  1.00  0.00     0.027 C 
BRANCH  13  14
ATOM     14  C   UNL     1      16.646  25.536  57.922  1.00  0.00     0.004 C 
BRANCH  14  15
ATOM     15  C   UNL     1      16.962  24.602  56.741  1.00  0.00     0.000 C 
BRANCH  15  16
ATOM     16  C   UNL     1      17.248  25.370  55.441  1.00  0.00     0.000 C 
BRANCH  16  17
ATOM     17  C   UNL     1      16.824  24.585  54.187  1.00  0.00    -0.000 C 
BRANCH  17  18
ATOM     18  C   UNL     1      15.860  25.379  53.292  1.00  0.00    -0.000 C 
BRANCH  18  19
ATOM     19  C   UNL     1      15.753  26.855  53.702  1.00  0.00    -0.003 C 
ATOM     20  C   UNL     1      15.728  27.765  52.478  1.00  0.00     0.004 C 
ENDBRANCH  18  19
ENDBRANCH  17  18
ENDBRANCH  16  17
ENDBRANCH  15  16
ENDBRANCH  14  15
ENDBRANCH  13  14
ENDBRANCH   2  13
TORSDOF 15
ENDMDL
MODEL 4
REMARK VINA RESULT:    -4.570      1.445      2.291
REMARK INTER + INTRA:         -11.298
REMARK INTER:                  -8.681
REMARK INTRA:                  -2.617
REMARK UNBOUND:                -2.720
REMARK SMILES CCCCCCCCC=CCCCCCCCC(=O)[O-]
REMARK SMILES IDX 10 1 9 2 11 3 12 4 13 5 14 6 15 7 16 8 17 9 18 10 19 11
REMARK SMILES IDX 20 12 8 13 7 14 6 15 5 16 4 17 3 18 2 19 1 20
REMARK H PARENT
REMARK Flexibility Score: inf
ROOT
ATOM      1  C   UNL     1      15.763  25.439  58.087  1.00  0.00    -0.031 C 
ATOM      2  C   UNL     1      16.850  25.171  57.340  1.00  0.00    -0.031 C 
ENDROOT
BRANCH   1   3
ATOM      3  C   UNL     1      14.510  26.102  57.573  1.00  0.00     0.027 C 
BRANCH   3   4
ATOM      4  C   UNL     1      14.202  27.430  58.288  1.00  0.00     0.004 C 
BRANCH   4   5
ATOM      5  C   UNL     1      15.390  28.413  58.321  1.00  0.00     0.000 C 
BRANCH   5   6
ATOM      6  C   UNL     1      15.644  29.088  56.961  1.00  0.00     0.000 C 
BRANCH   6   7
ATOM      7  C   UNL     1      17.124  29.046  56.548  1.00  0.00     0.000 C 
BRANCH   7   8
ATOM      8  C   UNL     1      18.065  28.845  57.749  1.00  0.00     0.006 C 
BRANCH   8   9
ATOM      9  C   UNL     1      19.451  29.455  57.508  1.00  0.00     0.053 C 
BRANCH   9  10
ATOM     10  C   UNL     1      19.419  30.952  57.558  1.00  0.00     0.041 C 
ATOM     11  O   UNL     1      19.330  31.548  58.664  1.00  0.00    -0.550 OA
ATOM     12  O   UNL     1      19.514  31.690  56.385  1.00  0.00    -0.550 OA
ENDBRANCH   9  10
ENDBRANCH   8   9
ENDBRANCH   7   8
ENDBRANCH   6   7
ENDBRANCH   5   6
ENDBRANCH   4   5
ENDBRANCH   3   4
ENDBRANCH   1   3
BRANCH   2  13
ATOM     13  C   UNL     1      16.949  25.395  55.850  1.00  0.00     0.027 C 
BRANCH  13  14
ATOM     14  C   UNL     1      18.379  25.748  55.421  1.00  0.00     0.004 C 
BRANCH  14  15
ATOM     15  C   UNL     1      18.882  24.845  54.280  1.00  0.00     0.000 C 
BRANCH  15  16
ATOM     16  C   UNL     1      17.734  24.232  53.462  1.00  0.00     0.000 C 
BRANCH  16  17
ATOM     17  C   UNL     1      17.465  25.000  52.156  1.00  0.00    -0.000 C 
BRANCH  17  18
ATOM     18  C   UNL     1      16.188  25.852  52.224  1.00  0.00    -0.000 C 
BRANCH  18  19
ATOM     19  C   UNL     1      16.477  27.325  52.550  1.00  0.00    -0.003 C 
ATOM     20  C   UNL     1      15.393  27.911  53.449  1.00  0.00     0.004 C 
ENDBRANCH  18  19
ENDBRANCH  17  18
ENDBRANCH  16  17
ENDBRANCH  15  16
ENDBRANCH  14  15
ENDBRANCH  13  14
ENDBRANCH   2  13
TORSDOF 15
ENDMDL
MODEL 5
REMARK VINA RESULT:    -4.542      1.846      5.425
REMARK INTER + INTRA:         -11.244
REMARK INTER:                  -8.538
REMARK INTRA:                  -2.706
REMARK UNBOUND:                -2.720
REMARK SMILES CCCCCCCCC=CCCCCCCCC(=O)[O-]
REMARK SMILES IDX 10 1 9 2 11 3 12 4 13 5 14 6 15 7 16 8 17 9 18 10 19 11
REMARK SMILES IDX 20 12 8 13 7 14 6 15 5 16 4 17 3 18 2 19 1 20
REMARK H PARENT
REMARK Flexibility Score: inf
ROOT
ATOM      1  C   UNL     1      16.154  25.094  57.864  1.00  0.00    -0.031 C 
ATOM      2  C   UNL     1      15.163  25.767  58.478  1.00  0.00    -0.031 C 
ENDROOT
BRANCH   1   3
ATOM      3  C   UNL     1      16.525  25.245  56.411  1.00  0.00     0.027 C 
BRANCH   3   4
ATOM      4  C   UNL     1      17.683  26.235  56.191  1.00  0.00     0.004 C 
BRANCH   4   5
ATOM      5  C   UNL     1      17.401  27.298  55.111  1.00  0.00     0.000 C 
BRANCH   5   6
ATOM      6  C   UNL     1      16.012  27.139  54.465  1.00  0.00     0.000 C 
BRANCH   6   7
ATOM      7  C   UNL     1      16.079  27.063  52.932  1.00  0.00     0.000 C 
BRANCH   7   8
ATOM      8  C   UNL     1      16.097  25.614  52.414  1.00  0.00     0.006 C 
BRANCH   8   9
ATOM      9  C   UNL     1      17.517  25.133  52.087  1.00  0.00     0.053 C 
BRANCH   9  10
ATOM     10  C   UNL     1      18.041  24.191  53.128  1.00  0.00     0.041 C 
ATOM     11  O   UNL     1      19.228  24.295  53.536  1.00  0.00    -0.550 OA
ATOM     12  O   UNL     1      17.210  23.217  53.667  1.00  0.00    -0.550 OA
ENDBRANCH   9  10
ENDBRANCH   8   9
ENDBRANCH   7   8
ENDBRANCH   6   7
ENDBRANCH   5   6
ENDBRANCH   4   5
ENDBRANCH   3   4
ENDBRANCH   1   3
BRANCH   2  13
ATOM     13  C   UNL     1      14.335  26.855  57.836  1.00  0.00     0.027 C 
BRANCH  13  14
ATOM     14  C   UNL     1      14.601  28.225  58.476  1.00  0.00     0.004 C 
BRANCH  14  15
ATOM     15  C   UNL     1      15.518  29.103  57.606  1.00  0.00     0.000 C 
BRANCH  15  16
ATOM     16  C   UNL     1      16.607  29.813  58.427  1.00  0.00     0.000 C 
BRANCH  16  17
ATOM     17  C   UNL     1      17.985  29.142  58.282  1.00  0.00    -0.000 C 
BRANCH  17  18
ATOM     18  C   UNL     1      19.119  30.160  58.092  1.00  0.00    -0.000 C 
BRANCH  18  19
ATOM     19  C   UNL     1      19.803  30.033  56.722  1.00  0.00    -0.003 C 
ATOM     20  C   UNL     1      20.554  28.710  56.604  1.00  0.00     0.004 C 
ENDBRANCH  18  19
ENDBRANCH  17  18
ENDBRANCH  16  17
ENDBRANCH  15  16
ENDBRANCH  14  15
ENDBRANCH  13  14
ENDBRANCH   2  13
TORSDOF 15
ENDMDL
MODEL 6
REMARK VINA RESULT:    -4.534      1.763      5.547
REMARK INTER + INTRA:         -11.230
REMARK INTER:                  -8.902
REMARK INTRA:                  -2.327
REMARK UNBOUND:                -2.720
REMARK SMILES CCCCCCCCC=CCCCCCCCC(=O)[O-]
REMARK SMILES IDX 10 1 9 2 11 3 12 4 13 5 14 6 15 7 16 8 17 9 18 10 19 11
REMARK SMILES IDX 20 12 8 13 7 14 6 15 5 16 4 17 3 18 2 19 1 20
REMARK H PARENT
REMARK Flexibility Score: inf
ROOT
ATOM      1  C   UNL     1      14.626  28.504  58.518  1.00  0.00    -0.031 C 
ATOM      2  C   UNL     1      15.685  29.188  58.047  1.00  0.00    -0.031 C 
ENDROOT
BRANCH   1   3
ATOM      3  C   UNL     1      13.568  27.858  57.659  1.00  0.00     0.027 C 
BRANCH   3   4
ATOM      4  C   UNL     1      13.846  26.367  57.391  1.00  0.00     0.004 C 
BRANCH   4   5
ATOM      5  C   UNL     1      14.686  25.681  58.486  1.00  0.00     0.000 C 
BRANCH   5   6
ATOM      6  C   UNL     1      16.067  25.222  57.982  1.00  0.00     0.000 C 
BRANCH   6   7
ATOM      7  C   UNL     1      16.305  25.581  56.507  1.00  0.00     0.000 C 
BRANCH   7   8
ATOM      8  C   UNL     1      17.222  24.571  55.796  1.00  0.00     0.006 C 
BRANCH   8   9
ATOM      9  C   UNL     1      17.356  24.864  54.296  1.00  0.00     0.053 C 
BRANCH   9  10
ATOM     10  C   UNL     1      18.739  25.315  53.936  1.00  0.00     0.041 C 
ATOM     11  O   UNL     1      19.149  26.450  54.295  1.00  0.00    -0.550 OA
ATOM     12  O   UNL     1      19.585  24.470  53.229  1.00  0.00    -0.550 OA
ENDBRANCH   9  10
ENDBRANCH   8   9
ENDBRANCH   7   8
ENDBRANCH   6   7
ENDBRANCH   5   6
ENDBRANCH   4   5
ENDBRANCH   3   4
ENDBRANCH   1   3
BRANCH   2  13
ATOM     13  C   UNL     1      16.039  29.329  56.586  1.00  0.00     0.027 C 
BRANCH  13  14
ATOM     14  C   UNL     1      17.498  28.938  56.314  1.00  0.00     0.004 C 
BRANCH  14  15
ATOM     15  C   UNL     1      18.333  28.874  57.605  1.00  0.00     0.000 C 
BRANCH  15  16
ATOM     16  C   UNL     1      19.774  29.367  57.400  1.00  0.00     0.000 C 
BRANCH  16  17
ATOM     17  C   UNL     1      19.848  30.881  57.134  1.00  0.00    -0.000 C 
BRANCH  17  18
ATOM     18  C   UNL     1      19.408  31.716  58.347  1.00  0.00    -0.000 C 
BRANCH  18  19
ATOM     19  C   UNL     1      18.698  33.016  57.942  1.00  0.00    -0.003 C 
ATOM     20  C   UNL     1      17.529  32.735  57.004  1.00  0.00     0.004 C 
ENDBRANCH  18  19
ENDBRANCH  17  18
ENDBRANCH  16  17
ENDBRANCH  15  16
ENDBRANCH  14  15
ENDBRANCH  13  14
ENDBRANCH   2  13
TORSDOF 15
ENDMDL
MODEL 7
REMARK VINA RESULT:    -4.532      2.481      5.326
REMARK INTER + INTRA:         -11.226
REMARK INTER:                  -8.424
REMARK INTRA:                  -2.802
REMARK UNBOUND:                -2.720
REMARK SMILES CCCCCCCCC=CCCCCCCCC(=O)[O-]
REMARK SMILES IDX 10 1 9 2 11 3 12 4 13 5 14 6 15 7 16 8 17 9 18 10 19 11
REMARK SMILES IDX 20 12 8 13 7 14 6 15 5 16 4 17 3 18 2 19 1 20
REMARK H PARENT
REMARK Flexibility Score: inf
ROOT
ATOM      1  C   UNL     1      16.567  25.004  57.733  1.00  0.00    -0.031 C 
ATOM      2  C   UNL     1      15.564  25.505  58.478  1.00  0.00    -0.031 C 
ENDROOT
BRANCH   1   3
ATOM      3  C   UNL     1      16.505  24.788  56.242  1.00  0.00     0.027 C 
BRANCH   3   4
ATOM      4  C   UNL     1      17.751  25.320  55.510  1.00  0.00     0.004 C 
BRANCH   4   5
ATOM      5  C   UNL     1      17.528  25.587  54.009  1.00  0.00     0.000 C 
BRANCH   5   6
ATOM      6  C   UNL     1      16.040  25.566  53.613  1.00  0.00     0.000 C 
BRANCH   6   7
ATOM      7  C   UNL     1      15.787  26.201  52.237  1.00  0.00     0.000 C 
BRANCH   7   8
ATOM      8  C   UNL     1      15.682  27.735  52.306  1.00  0.00     0.006 C 
BRANCH   8   9
ATOM      9  C   UNL     1      14.693  28.296  51.275  1.00  0.00     0.053 C 
BRANCH   9  10
ATOM     10  C   UNL     1      14.980  29.730  50.950  1.00  0.00     0.041 C 
ATOM     11  O   UNL     1      14.991  30.597  51.862  1.00  0.00    -0.550 OA
ATOM     12  O   UNL     1      15.262  30.104  49.642  1.00  0.00    -0.550 OA
ENDBRANCH   9  10
ENDBRANCH   8   9
ENDBRANCH   7   8
ENDBRANCH   6   7
ENDBRANCH   5   6
ENDBRANCH   4   5
ENDBRANCH   3   4
ENDBRANCH   1   3
BRANCH   2  13
ATOM     13  C   UNL     1      14.258  26.026  57.928  1.00  0.00     0.027 C 
BRANCH  13  14
ATOM     14  C   UNL     1      14.318  27.534  57.653  1.00  0.00     0.004 C 
BRANCH  14  15
ATOM     15  C   UNL     1      14.525  27.844  56.160  1.00  0.00     0.000 C 
BRANCH  15  16
ATOM     16  C   UNL     1      15.841  28.590  55.888  1.00  0.00     0.000 C 
BRANCH  16  17
ATOM     17  C   UNL     1      16.608  28.923  57.180  1.00  0.00    -0.000 C 
BRANCH  17  18
ATOM     18  C   UNL     1      18.059  28.420  57.152  1.00  0.00    -0.000 C 
BRANCH  18  19
ATOM     19  C   UNL     1      18.813  28.862  55.889  1.00  0.00    -0.003 C 
ATOM     20  C   UNL     1      20.201  28.233  55.829  1.00  0.00     0.004 C 
ENDBRANCH  18  19
ENDBRANCH  17  18
ENDBRANCH  16  17
ENDBRANCH  15  16
ENDBRANCH  14  15
ENDBRANCH  13  14
ENDBRANCH   2  13
TORSDOF 15
ENDMDL
MODEL 8
REMARK VINA RESULT:    -4.527      7.437     10.589
REMARK INTER + INTRA:         -11.217
REMARK INTER:                  -9.014
REMARK INTRA:                  -2.204
REMARK UNBOUND:                -2.720
REMARK SMILES CCCCCCCCC=CCCCCCCCC(=O)[O-]
REMARK SMILES IDX 10 1 9 2 11 3 12 4 13 5 14 6 15 7 16 8 17 9 18 10 19 11
REMARK SMILES IDX 20 12 8 13 7 14 6 15 5 16 4 17 3 18 2 19 1 20
REMARK H PARENT
REMARK Flexibility Score: inf
ROOT
ATOM      1  C   UNL     1      28.407  21.976  56.576  1.00  0.00    -0.031 C 
ATOM      2  C   UNL     1      27.860  22.867  57.424  1.00  0.00    -0.031 C 
ENDROOT
BRANCH   1   3
ATOM      3  C   UNL     1      27.639  21.180  55.552  1.00  0.00     0.027 C 
BRANCH   3   4
ATOM      4  C   UNL     1      27.623  21.849  54.166  1.00  0.00     0.004 C 
BRANCH   4   5
ATOM      5  C   UNL     1      26.281  21.713  53.420  1.00  0.00     0.000 C 
BRANCH   5   6
ATOM      6  C   UNL     1      25.069  22.064  54.303  1.00  0.00     0.000 C 
BRANCH   6   7
ATOM      7  C   UNL     1      23.907  21.073  54.131  1.00  0.00     0.000 C 
BRANCH   7   8
ATOM      8  C   UNL     1      22.935  21.492  53.014  1.00  0.00     0.006 C 
BRANCH   8   9
ATOM      9  C   UNL     1      21.721  22.256  53.558  1.00  0.00     0.053 C 
BRANCH   9  10
ATOM     10  C   UNL     1      21.828  23.729  53.302  1.00  0.00     0.041 C 
ATOM     11  O   UNL     1      22.501  24.156  52.328  1.00  0.00    -0.550 OA
ATOM     12  O   UNL     1      21.160  24.628  54.125  1.00  0.00    -0.550 OA
ENDBRANCH   9  10
ENDBRANCH   8   9
ENDBRANCH   7   8
ENDBRANCH   6   7
ENDBRANCH   5   6
ENDBRANCH   4   5
ENDBRANCH   3   4
ENDBRANCH   1   3
BRANCH   2  13
ATOM     13  C   UNL     1      26.409  23.287  57.414  1.00  0.00     0.027 C 
BRANCH  13  14
ATOM     14  C   UNL     1      26.238  24.732  56.925  1.00  0.00     0.004 C 
BRANCH  14  15
ATOM     15  C   UNL     1      27.109  25.035  55.693  1.00  0.00     0.000 C 
BRANCH  15  16
ATOM     16  C   UNL     1      26.484  26.099  54.776  1.00  0.00     0.000 C 
BRANCH  16  17
ATOM     17  C   UNL     1      25.064  25.723  54.318  1.00  0.00    -0.000 C 
BRANCH  17  18
ATOM     18  C   UNL     1      24.003  26.725  54.798  1.00  0.00    -0.000 C 
BRANCH  18  19
ATOM     19  C   UNL     1      24.533  28.166  54.851  1.00  0.00    -0.003 C 
ATOM     20  C   UNL     1      24.403  28.748  56.255  1.00  0.00     0.004 C 
ENDBRANCH  18  19
ENDBRANCH  17  18
ENDBRANCH  16  17
ENDBRANCH  15  16
ENDBRANCH  14  15
ENDBRANCH  13  14
ENDBRANCH   2  13
TORSDOF 15
ENDMDL
MODEL 9
REMARK VINA RESULT:    -4.494      8.570     11.020
REMARK INTER + INTRA:         -11.155
REMARK INTER:                  -8.174
REMARK INTRA:                  -2.981
REMARK UNBOUND:                -2.720
REMARK SMILES CCCCCCCCC=CCCCCCCCC(=O)[O-]
REMARK SMILES IDX 10 1 9 2 11 3 12 4 13 5 14 6 15 7 16 8 17 9 18 10 19 11
REMARK SMILES IDX 20 12 8 13 7 14 6 15 5 16 4 17 3 18 2 19 1 20
REMARK H PARENT
REMARK Flexibility Score: inf
ROOT
ATOM      1  C   UNL     1      26.187  25.801  56.042  1.00  0.00    -0.031 C 
ATOM      2  C   UNL     1      25.844  24.885  56.967  1.00  0.00    -0.031 C 
ENDROOT
BRANCH   1   3
ATOM      3  C   UNL     1      27.138  25.553  54.899  1.00  0.00     0.027 C 
BRANCH   3   4
ATOM      4  C   UNL     1      26.715  26.274  53.605  1.00  0.00     0.004 C 
BRANCH   4   5
ATOM      5  C   UNL     1      26.767  25.384  52.348  1.00  0.00     0.000 C 
BRANCH   5   6
ATOM      6  C   UNL     1      25.405  24.754  52.005  1.00  0.00     0.000 C 
BRANCH   6   7
ATOM      7  C   UNL     1      25.273  23.313  52.520  1.00  0.00     0.000 C 
BRANCH   7   8
ATOM      8  C   UNL     1      24.367  23.211  53.760  1.00  0.00     0.006 C 
BRANCH   8   9
ATOM      9  C   UNL     1      23.211  24.219  53.718  1.00  0.00     0.053 C 
BRANCH   9  10
ATOM     10  C   UNL     1      21.887  23.543  53.536  1.00  0.00     0.041 C 
ATOM     11  O   UNL     1      20.882  24.206  53.168  1.00  0.00    -0.550 OA
ATOM     12  O   UNL     1      21.769  22.174  53.746  1.00  0.00    -0.550 OA
ENDBRANCH   9  10
ENDBRANCH   8   9
ENDBRANCH   7   8
ENDBRANCH   6   7
ENDBRANCH   5   6
ENDBRANCH   4   5
ENDBRANCH   3   4
ENDBRANCH   1   3
BRANCH   2  13
ATOM     13  C   UNL     1      26.274  23.438  56.947  1.00  0.00     0.027 C 
BRANCH  13  14
ATOM     14  C   UNL     1      27.372  23.156  57.982  1.00  0.00     0.004 C 
BRANCH  14  15
ATOM     15  C   UNL     1      28.569  22.408  57.369  1.00  0.00     0.000 C 
BRANCH  15  16
ATOM     16  C   UNL     1      29.283  23.227  56.282  1.00  0.00     0.000 C 
BRANCH  16  17
ATOM     17  C   UNL     1      29.605  22.392  55.030  1.00  0.00    -0.000 C 
BRANCH  17  18
ATOM     18  C   UNL     1      28.408  22.273  54.075  1.00  0.00    -0.000 C 
BRANCH  18  19
ATOM     19  C   UNL     1      27.956  20.820  53.871  1.00  0.00    -0.003 C 
ATOM     20  C   UNL     1      26.781  20.476  54.781  1.00  0.00     0.004 C 
ENDBRANCH  18  19
ENDBRANCH  17  18
ENDBRANCH  16  17
ENDBRANCH  15  16
ENDBRANCH  14  15
ENDBRANCH  13  14
ENDBRANCH   2  13
TORSDOF 15
ENDMDL
