MODEL 1
REMARK VINA RESULT:    -3.303      0.000      0.000
REMARK INTER + INTRA:          -7.984
REMARK INTER:                  -6.006
REMARK INTRA:                  -1.977
REMARK UNBOUND:                -1.977
REMARK SMILES CCCCCCCCCCCCCCCC(=O)[O-]
REMARK SMILES IDX 9 1 10 2 11 3 12 4 13 5 14 6 15 7 16 8 17 9 18 10 8 11 7 12
REMARK SMILES IDX 6 13 5 14 4 15 3 16 2 17 1 18
REMARK H PARENT
REMARK Flexibility Score: inf
ROOT
ATOM      1  C   UNL     1      22.430   9.159  36.588  1.00  0.00     0.000 C 
ENDROOT
BRANCH   1   2
ATOM      2  C   UNL     1      21.327  10.087  36.055  1.00  0.00     0.000 C 
BRANCH   2   3
ATOM      3  C   UNL     1      20.171   9.275  35.451  1.00  0.00     0.000 C 
BRANCH   3   4
ATOM      4  C   UNL     1      20.636   7.937  34.852  1.00  0.00     0.000 C 
BRANCH   4   5
ATOM      5  C   UNL     1      19.578   6.827  34.991  1.00  0.00     0.000 C 
BRANCH   5   6
ATOM      6  C   UNL     1      20.159   5.529  35.588  1.00  0.00     0.006 C 
BRANCH   6   7
ATOM      7  C   UNL     1      21.695   5.460  35.536  1.00  0.00     0.053 C 
BRANCH   7   8
ATOM      8  C   UNL     1      22.187   4.470  34.528  1.00  0.00     0.041 C 
ATOM      9  O   UNL     1      21.814   4.547  33.328  1.00  0.00    -0.550 OA
ATOM     10  O   UNL     1      23.073   3.470  34.910  1.00  0.00    -0.550 OA
ENDBRANCH   7   8
ENDBRANCH   6   7
ENDBRANCH   5   6
ENDBRANCH   4   5
ENDBRANCH   3   4
ENDBRANCH   2   3
ENDBRANCH   1   2
BRANCH   1  11
ATOM     11  C   UNL     1      22.361   8.968  38.112  1.00  0.00     0.000 C 
BRANCH  11  12
ATOM     12  C   UNL     1      21.912   7.550  38.512  1.00  0.00    -0.000 C 
BRANCH  12  13
ATOM     13  C   UNL     1      20.693   7.560  39.448  1.00  0.00    -0.000 C 
BRANCH  13  14
ATOM     14  C   UNL     1      20.637   8.819  40.332  1.00  0.00    -0.000 C 
BRANCH  14  15
ATOM     15  C   UNL     1      19.220   9.409  40.430  1.00  0.00    -0.000 C 
BRANCH  15  16
ATOM     16  C   UNL     1      18.714   9.966  39.091  1.00  0.00    -0.000 C 
BRANCH  16  17
ATOM     17  C   UNL     1      17.183   9.929  39.027  1.00  0.00    -0.003 C 
ATOM     18  C   UNL     1      16.592   9.331  40.301  1.00  0.00     0.004 C 
ENDBRANCH  16  17
ENDBRANCH  15  16
ENDBRANCH  14  15
ENDBRANCH  13  14
ENDBRANCH  12  13
ENDBRANCH  11  12
ENDBRANCH   1  11
TORSDOF 14
ENDMDL
MODEL 2
REMARK VINA RESULT:    -3.253      2.291      3.810
REMARK INTER + INTRA:          -7.892
REMARK INTER:                  -5.756
REMARK INTRA:                  -2.136
REMARK UNBOUND:                -1.977
REMARK SMILES CCCCCCCCCCCCCCCC(=O)[O-]
REMARK SMILES IDX 9 1 10 2 11 3 12 4 13 5 14 6 15 7 16 8 17 9 18 10 8 11 7 12
REMARK SMILES IDX 6 13 5 14 4 15 3 16 2 17 1 18
REMARK H PARENT
REMARK Flexibility Score: inf
ROOT
ATOM      1  C   UNL     1      20.418   6.573  38.534  1.00  0.00     0.000 C 
ENDROOT
BRANCH   1   2
ATOM      2  C   UNL     1      20.672   5.339  37.654  1.00  0.00     0.000 C 
BRANCH   2   3
ATOM      3  C   UNL     1      21.999   5.474  36.891  1.00  0.00     0.000 C 
BRANCH   3   4
ATOM      4  C   UNL     1      22.331   4.229  36.052  1.00  0.00     0.000 C 
BRANCH   4   5
ATOM      5  C   UNL     1      21.083   3.603  35.402  1.00  0.00     0.000 C 
BRANCH   5   6
ATOM      6  C   UNL     1      21.214   3.484  33.869  1.00  0.00     0.006 C 
BRANCH   6   7
ATOM      7  C   UNL     1      22.355   4.329  33.280  1.00  0.00     0.053 C 
BRANCH   7   8
ATOM      8  C   UNL     1      21.852   5.532  32.545  1.00  0.00     0.041 C 
ATOM      9  O   UNL     1      20.621   5.797  32.527  1.00  0.00    -0.550 OA
ATOM     10  O   UNL     1      22.746   6.373  31.894  1.00  0.00    -0.550 OA
ENDBRANCH   7   8
ENDBRANCH   6   7
ENDBRANCH   5   6
ENDBRANCH   4   5
ENDBRANCH   3   4
ENDBRANCH   2   3
ENDBRANCH   1   2
BRANCH   1  11
ATOM     11  C   UNL     1      21.647   6.968  39.371  1.00  0.00     0.000 C 
BRANCH  11  12
ATOM     12  C   UNL     1      21.653   8.462  39.746  1.00  0.00    -0.000 C 
BRANCH  12  13
ATOM     13  C   UNL     1      21.317   9.370  38.553  1.00  0.00    -0.000 C 
BRANCH  13  14
ATOM     14  C   UNL     1      22.556   9.719  37.709  1.00  0.00    -0.000 C 
BRANCH  14  15
ATOM     15  C   UNL     1      22.356   9.421  36.214  1.00  0.00    -0.000 C 
BRANCH  15  16
ATOM     16  C   UNL     1      20.884   9.509  35.782  1.00  0.00    -0.000 C 
BRANCH  16  17
ATOM     17  C   UNL     1      20.447   8.226  35.066  1.00  0.00    -0.003 C 
ATOM     18  C   UNL     1      19.001   7.872  35.401  1.00  0.00     0.004 C 
ENDBRANCH  16  17
ENDBRANCH  15  16
ENDBRANCH  14  15
ENDBRANCH  13  14
ENDBRANCH  12  13
ENDBRANCH  11  12
ENDBRANCH   1  11
TORSDOF 14
ENDMDL
MODEL 3
REMARK VINA RESULT:    -3.231      2.130      3.822
REMARK INTER + INTRA:          -7.853
REMARK INTER:                  -5.758
REMARK INTRA:                  -2.095
REMARK UNBOUND:                -1.977
REMARK SMILES CCCCCCCCCCCCCCCC(=O)[O-]
REMARK SMILES IDX 9 1 10 2 11 3 12 4 13 5 14 6 15 7 16 8 17 9 18 10 8 11 7 12
REMARK SMILES IDX 6 13 5 14 4 15 3 16 2 17 1 18
REMARK H PARENT
REMARK Flexibility Score: inf
ROOT
ATOM      1  C   UNL     1      20.113   6.563  35.458  1.00  0.00     0.000 C 
ENDROOT
BRANCH   1   2
ATOM      2  C   UNL     1      21.540   6.300  35.967  1.00  0.00     0.000 C 
BRANCH   2   3
ATOM      3  C   UNL     1      21.653   4.894  36.577  1.00  0.00     0.000 C 
BRANCH   3   4
ATOM      4  C   UNL     1      22.399   3.908  35.663  1.00  0.00     0.000 C 
BRANCH   4   5
ATOM      5  C   UNL     1      21.451   3.127  34.735  1.00  0.00     0.000 C 
BRANCH   5   6
ATOM      6  C   UNL     1      21.813   3.296  33.245  1.00  0.00     0.006 C 
BRANCH   6   7
ATOM      7  C   UNL     1      22.773   4.466  32.972  1.00  0.00     0.053 C 
BRANCH   7   8
ATOM      8  C   UNL     1      22.114   5.579  32.218  1.00  0.00     0.041 C 
ATOM      9  O   UNL     1      22.811   6.439  31.618  1.00  0.00    -0.550 OA
ATOM     10  O   UNL     1      20.728   5.656  32.162  1.00  0.00    -0.550 OA
ENDBRANCH   7   8
ENDBRANCH   6   7
ENDBRANCH   5   6
ENDBRANCH   4   5
ENDBRANCH   3   4
ENDBRANCH   2   3
ENDBRANCH   1   2
BRANCH   1  11
ATOM     11  C   UNL     1      19.551   7.912  35.938  1.00  0.00     0.000 C 
BRANCH  11  12
ATOM     12  C   UNL     1      20.321   9.114  35.362  1.00  0.00    -0.000 C 
BRANCH  12  13
ATOM     13  C   UNL     1      20.925  10.007  36.457  1.00  0.00    -0.000 C 
BRANCH  13  14
ATOM     14  C   UNL     1      20.571   9.525  37.875  1.00  0.00    -0.000 C 
BRANCH  14  15
ATOM     15  C   UNL     1      21.815   9.230  38.727  1.00  0.00    -0.000 C 
BRANCH  15  16
ATOM     16  C   UNL     1      21.890   7.764  39.181  1.00  0.00    -0.000 C 
BRANCH  16  17
ATOM     17  C   UNL     1      20.490   7.205  39.457  1.00  0.00    -0.003 C 
ATOM     18  C   UNL     1      20.564   5.832  40.120  1.00  0.00     0.004 C 
ENDBRANCH  16  17
ENDBRANCH  15  16
ENDBRANCH  14  15
ENDBRANCH  13  14
ENDBRANCH  12  13
ENDBRANCH  11  12
ENDBRANCH   1  11
TORSDOF 14
ENDMDL
MODEL 4
REMARK VINA RESULT:    -3.176      2.320      3.930
REMARK INTER + INTRA:          -7.753
REMARK INTER:                  -5.708
REMARK INTRA:                  -2.045
REMARK UNBOUND:                -1.977
REMARK SMILES CCCCCCCCCCCCCCCC(=O)[O-]
REMARK SMILES IDX 9 1 10 2 11 3 12 4 13 5 14 6 15 7 16 8 17 9 18 10 8 11 7 12
REMARK SMILES IDX 6 13 5 14 4 15 3 16 2 17 1 18
REMARK H PARENT
REMARK Flexibility Score: inf
ROOT
ATOM      1  C   UNL     1      19.419   7.815  35.622  1.00  0.00     0.000 C 
ENDROOT
BRANCH   1   2
ATOM      2  C   UNL     1      19.767   6.615  34.728  1.00  0.00     0.000 C 
BRANCH   2   3
ATOM      3  C   UNL     1      21.221   6.700  34.237  1.00  0.00     0.000 C 
BRANCH   3   4
ATOM      4  C   UNL     1      21.386   6.227  32.784  1.00  0.00     0.000 C 
BRANCH   4   5
ATOM      5  C   UNL     1      22.606   5.308  32.594  1.00  0.00     0.000 C 
BRANCH   5   6
ATOM      6  C   UNL     1      22.646   4.161  33.625  1.00  0.00     0.006 C 
BRANCH   6   7
ATOM      7  C   UNL     1      21.601   3.063  33.368  1.00  0.00     0.053 C 
BRANCH   7   8
ATOM      8  C   UNL     1      20.869   2.670  34.613  1.00  0.00     0.041 C 
ATOM      9  O   UNL     1      21.469   2.059  35.536  1.00  0.00    -0.550 OA
ATOM     10  O   UNL     1      19.526   2.995  34.762  1.00  0.00    -0.550 OA
ENDBRANCH   7   8
ENDBRANCH   6   7
ENDBRANCH   5   6
ENDBRANCH   4   5
ENDBRANCH   3   4
ENDBRANCH   2   3
ENDBRANCH   1   2
BRANCH   1  11
ATOM     11  C   UNL     1      20.231   9.074  35.269  1.00  0.00     0.000 C 
BRANCH  11  12
ATOM     12  C   UNL     1      20.683   9.856  36.516  1.00  0.00    -0.000 C 
BRANCH  12  13
ATOM     13  C   UNL     1      22.206   9.815  36.717  1.00  0.00    -0.000 C 
BRANCH  13  14
ATOM     14  C   UNL     1      22.603   9.433  38.154  1.00  0.00    -0.000 C 
BRANCH  14  15
ATOM     15  C   UNL     1      21.601   8.467  38.806  1.00  0.00    -0.000 C 
BRANCH  15  16
ATOM     16  C   UNL     1      22.147   7.036  38.926  1.00  0.00    -0.000 C 
BRANCH  16  17
ATOM     17  C   UNL     1      21.195   6.030  38.268  1.00  0.00    -0.003 C 
ATOM     18  C   UNL     1      21.955   5.050  37.379  1.00  0.00     0.004 C 
ENDBRANCH  16  17
ENDBRANCH  15  16
ENDBRANCH  14  15
ENDBRANCH  13  14
ENDBRANCH  12  13
ENDBRANCH  11  12
ENDBRANCH   1  11
TORSDOF 14
ENDMDL
MODEL 5
REMARK VINA RESULT:    -3.148      2.360      3.760
REMARK INTER + INTRA:          -7.703
REMARK INTER:                  -5.636
REMARK INTRA:                  -2.066
REMARK UNBOUND:                -1.977
REMARK SMILES CCCCCCCCCCCCCCCC(=O)[O-]
REMARK SMILES IDX 9 1 10 2 11 3 12 4 13 5 14 6 15 7 16 8 17 9 18 10 8 11 7 12
REMARK SMILES IDX 6 13 5 14 4 15 3 16 2 17 1 18
REMARK H PARENT
REMARK Flexibility Score: inf
ROOT
ATOM      1  C   UNL     1      21.716   5.544  36.122  1.00  0.00     0.000 C 
ENDROOT
BRANCH   1   2
ATOM      2  C   UNL     1      20.257   5.653  35.649  1.00  0.00     0.000 C 
BRANCH   2   3
ATOM      3  C   UNL     1      20.173   6.368  34.292  1.00  0.00     0.000 C 
BRANCH   3   4
ATOM      4  C   UNL     1      21.550   6.798  33.761  1.00  0.00     0.000 C 
BRANCH   4   5
ATOM      5  C   UNL     1      21.892   6.150  32.406  1.00  0.00     0.000 C 
BRANCH   5   6
ATOM      6  C   UNL     1      22.735   4.868  32.562  1.00  0.00     0.006 C 
BRANCH   6   7
ATOM      7  C   UNL     1      21.953   3.576  32.274  1.00  0.00     0.053 C 
BRANCH   7   8
ATOM      8  C   UNL     1      22.033   3.169  30.836  1.00  0.00     0.041 C 
ATOM      9  O   UNL     1      21.374   3.792  29.963  1.00  0.00    -0.550 OA
ATOM     10  O   UNL     1      22.850   2.112  30.456  1.00  0.00    -0.550 OA
ENDBRANCH   7   8
ENDBRANCH   6   7
ENDBRANCH   5   6
ENDBRANCH   4   5
ENDBRANCH   3   4
ENDBRANCH   2   3
ENDBRANCH   1   2
BRANCH   1  11
ATOM     11  C   UNL     1      21.857   5.672  37.649  1.00  0.00     0.000 C 
BRANCH  11  12
ATOM     12  C   UNL     1      20.499   5.818  38.359  1.00  0.00    -0.000 C 
BRANCH  12  13
ATOM     13  C   UNL     1      20.335   7.185  39.043  1.00  0.00    -0.000 C 
BRANCH  13  14
ATOM     14  C   UNL     1      21.576   8.081  38.877  1.00  0.00    -0.000 C 
BRANCH  14  15
ATOM     15  C   UNL     1      21.263   9.394  38.142  1.00  0.00    -0.000 C 
BRANCH  15  16
ATOM     16  C   UNL     1      20.239   9.212  37.011  1.00  0.00    -0.000 C 
BRANCH  16  17
ATOM     17  C   UNL     1      20.714   9.902  35.727  1.00  0.00    -0.003 C 
ATOM     18  C   UNL     1      22.234   9.845  35.600  1.00  0.00     0.004 C 
ENDBRANCH  16  17
ENDBRANCH  15  16
ENDBRANCH  14  15
ENDBRANCH  13  14
ENDBRANCH  12  13
ENDBRANCH  11  12
ENDBRANCH   1  11
TORSDOF 14
ENDMDL
MODEL 6
REMARK VINA RESULT:    -3.098      2.031      3.918
REMARK INTER + INTRA:          -7.611
REMARK INTER:                  -5.859
REMARK INTRA:                  -1.751
REMARK UNBOUND:                -1.977
REMARK SMILES CCCCCCCCCCCCCCCC(=O)[O-]
REMARK SMILES IDX 9 1 10 2 11 3 12 4 13 5 14 6 15 7 16 8 17 9 18 10 8 11 7 12
REMARK SMILES IDX 6 13 5 14 4 15 3 16 2 17 1 18
REMARK H PARENT
REMARK Flexibility Score: inf
ROOT
ATOM      1  C   UNL     1      19.408   8.240  35.853  1.00  0.00     0.000 C 
ENDROOT
BRANCH   1   2
ATOM      2  C   UNL     1      19.777   7.110  34.879  1.00  0.00     0.000 C 
BRANCH   2   3
ATOM      3  C   UNL     1      21.215   7.281  34.363  1.00  0.00     0.000 C 
BRANCH   3   4
ATOM      4  C   UNL     1      21.565   6.286  33.244  1.00  0.00     0.000 C 
BRANCH   4   5
ATOM      5  C   UNL     1      21.894   4.881  33.781  1.00  0.00     0.000 C 
BRANCH   5   6
ATOM      6  C   UNL     1      23.009   4.187  32.972  1.00  0.00     0.006 C 
BRANCH   6   7
ATOM      7  C   UNL     1      22.544   2.912  32.249  1.00  0.00     0.053 C 
BRANCH   7   8
ATOM      8  C   UNL     1      21.398   3.169  31.321  1.00  0.00     0.041 C 
ATOM      9  O   UNL     1      20.286   2.613  31.516  1.00  0.00    -0.550 OA
ATOM     10  O   UNL     1      21.554   4.039  30.248  1.00  0.00    -0.550 OA
ENDBRANCH   7   8
ENDBRANCH   6   7
ENDBRANCH   5   6
ENDBRANCH   4   5
ENDBRANCH   3   4
ENDBRANCH   2   3
ENDBRANCH   1   2
BRANCH   1  11
ATOM     11  C   UNL     1      20.453   9.368  35.880  1.00  0.00     0.000 C 
BRANCH  11  12
ATOM     12  C   UNL     1      20.799   9.823  37.309  1.00  0.00    -0.000 C 
BRANCH  12  13
ATOM     13  C   UNL     1      19.739   9.395  38.336  1.00  0.00    -0.000 C 
BRANCH  13  14
ATOM     14  C   UNL     1      20.353   8.710  39.570  1.00  0.00    -0.000 C 
BRANCH  14  15
ATOM     15  C   UNL     1      21.773   8.183  39.307  1.00  0.00    -0.000 C 
BRANCH  15  16
ATOM     16  C   UNL     1      21.825   6.654  39.175  1.00  0.00    -0.000 C 
BRANCH  16  17
ATOM     17  C   UNL     1      21.983   6.237  37.708  1.00  0.00    -0.003 C 
ATOM     18  C   UNL     1      21.978   4.718  37.562  1.00  0.00     0.004 C 
ENDBRANCH  16  17
ENDBRANCH  15  16
ENDBRANCH  14  15
ENDBRANCH  13  14
ENDBRANCH  12  13
ENDBRANCH  11  12
ENDBRANCH   1  11
TORSDOF 14
ENDMDL
MODEL 7
REMARK VINA RESULT:    -3.066     10.299     12.372
REMARK INTER + INTRA:          -7.552
REMARK INTER:                  -5.246
REMARK INTRA:                  -2.306
REMARK UNBOUND:                -1.977
REMARK SMILES CCCCCCCCCCCCCCCC(=O)[O-]
REMARK SMILES IDX 9 1 10 2 11 3 12 4 13 5 14 6 15 7 16 8 17 9 18 10 8 11 7 12
REMARK SMILES IDX 6 13 5 14 4 15 3 16 2 17 1 18
REMARK H PARENT
REMARK Flexibility Score: inf
ROOT
ATOM      1  C   UNL     1      10.316   7.757  31.946  1.00  0.00     0.000 C 
ENDROOT
BRANCH   1   2
ATOM      2  C   UNL     1       9.120   7.134  31.210  1.00  0.00     0.000 C 
BRANCH   2   3
ATOM      3  C   UNL     1       9.329   7.179  29.689  1.00  0.00     0.000 C 
BRANCH   3   4
ATOM      4  C   UNL     1       9.164   5.802  29.026  1.00  0.00     0.000 C 
BRANCH   4   5
ATOM      5  C   UNL     1      10.268   4.810  29.438  1.00  0.00     0.000 C 
BRANCH   5   6
ATOM      6  C   UNL     1      11.682   5.410  29.299  1.00  0.00     0.006 C 
BRANCH   6   7
ATOM      7  C   UNL     1      12.663   4.936  30.384  1.00  0.00     0.053 C 
BRANCH   7   8
ATOM      8  C   UNL     1      13.970   4.482  29.812  1.00  0.00     0.041 C 
ATOM      9  O   UNL     1      13.997   3.801  28.753  1.00  0.00    -0.550 OA
ATOM     10  O   UNL     1      15.161   4.827  30.438  1.00  0.00    -0.550 OA
ENDBRANCH   7   8
ENDBRANCH   6   7
ENDBRANCH   5   6
ENDBRANCH   4   5
ENDBRANCH   3   4
ENDBRANCH   2   3
ENDBRANCH   1   2
BRANCH   1  11
ATOM     11  C   UNL     1      10.956   6.794  32.961  1.00  0.00     0.000 C 
BRANCH  11  12
ATOM     12  C   UNL     1       9.940   5.806  33.563  1.00  0.00    -0.000 C 
BRANCH  12  13
ATOM     13  C   UNL     1      10.322   4.339  33.307  1.00  0.00    -0.000 C 
BRANCH  13  14
ATOM     14  C   UNL     1       9.200   3.549  32.610  1.00  0.00    -0.000 C 
BRANCH  14  15
ATOM     15  C   UNL     1       9.130   2.086  33.076  1.00  0.00    -0.000 C 
BRANCH  15  16
ATOM     16  C   UNL     1      10.176   1.193  32.391  1.00  0.00    -0.000 C 
BRANCH  16  17
ATOM     17  C   UNL     1      10.289   1.528  30.900  1.00  0.00    -0.003 C 
ATOM     18  C   UNL     1      11.715   1.327  30.395  1.00  0.00     0.004 C 
ENDBRANCH  16  17
ENDBRANCH  15  16
ENDBRANCH  14  15
ENDBRANCH  13  14
ENDBRANCH  12  13
ENDBRANCH  11  12
ENDBRANCH   1  11
TORSDOF 14
ENDMDL
MODEL 8
REMARK VINA RESULT:    -3.058     10.009     12.011
REMARK INTER + INTRA:          -7.539
REMARK INTER:                  -5.024
REMARK INTRA:                  -2.515
REMARK UNBOUND:                -1.977
REMARK SMILES CCCCCCCCCCCCCCCC(=O)[O-]
REMARK SMILES IDX 9 1 10 2 11 3 12 4 13 5 14 6 15 7 16 8 17 9 18 10 8 11 7 12
REMARK SMILES IDX 6 13 5 14 4 15 3 16 2 17 1 18
REMARK H PARENT
REMARK Flexibility Score: inf
ROOT
ATOM      1  C   UNL     1       8.875   1.651  32.775  1.00  0.00     0.000 C 
ENDROOT
BRANCH   1   2
ATOM      2  C   UNL     1       9.732   1.611  31.500  1.00  0.00     0.000 C 
BRANCH   2   3
ATOM      3  C   UNL     1       9.494   2.862  30.640  1.00  0.00     0.000 C 
BRANCH   3   4
ATOM      4  C   UNL     1      10.766   3.337  29.919  1.00  0.00     0.000 C 
BRANCH   4   5
ATOM      5  C   UNL     1      11.942   3.573  30.885  1.00  0.00     0.000 C 
BRANCH   5   6
ATOM      6  C   UNL     1      12.597   4.956  30.689  1.00  0.00     0.006 C 
BRANCH   6   7
ATOM      7  C   UNL     1      13.353   5.097  29.357  1.00  0.00     0.053 C 
BRANCH   7   8
ATOM      8  C   UNL     1      14.825   4.871  29.511  1.00  0.00     0.041 C 
ATOM      9  O   UNL     1      15.579   4.891  28.503  1.00  0.00    -0.550 OA
ATOM     10  O   UNL     1      15.368   4.657  30.772  1.00  0.00    -0.550 OA
ENDBRANCH   7   8
ENDBRANCH   6   7
ENDBRANCH   5   6
ENDBRANCH   4   5
ENDBRANCH   3   4
ENDBRANCH   2   3
ENDBRANCH   1   2
BRANCH   1  11
ATOM     11  C   UNL     1       8.883   3.032  33.453  1.00  0.00     0.000 C 
BRANCH  11  12
ATOM     12  C   UNL     1      10.081   3.220  34.401  1.00  0.00    -0.000 C 
BRANCH  12  13
ATOM     13  C   UNL     1      10.750   4.594  34.240  1.00  0.00    -0.000 C 
BRANCH  13  14
ATOM     14  C   UNL     1       9.904   5.568  33.401  1.00  0.00    -0.000 C 
BRANCH  14  15
ATOM     15  C   UNL     1      10.647   6.877  33.087  1.00  0.00    -0.000 C 
BRANCH  15  16
ATOM     16  C   UNL     1      10.038   7.635  31.898  1.00  0.00    -0.000 C 
BRANCH  16  17
ATOM     17  C   UNL     1       9.163   6.707  31.048  1.00  0.00    -0.003 C 
ATOM     18  C   UNL     1       9.526   6.808  29.569  1.00  0.00     0.004 C 
ENDBRANCH  16  17
ENDBRANCH  15  16
ENDBRANCH  14  15
ENDBRANCH  13  14
ENDBRANCH  12  13
ENDBRANCH  11  12
ENDBRANCH   1  11
TORSDOF 14
ENDMDL
MODEL 9
REMARK VINA RESULT:    -3.006      9.974     12.147
REMARK INTER + INTRA:          -7.443
REMARK INTER:                  -5.020
REMARK INTRA:                  -2.424
REMARK UNBOUND:                -1.977
REMARK SMILES CCCCCCCCCCCCCCCC(=O)[O-]
REMARK SMILES IDX 9 1 10 2 11 3 12 4 13 5 14 6 15 7 16 8 17 9 18 10 8 11 7 12
REMARK SMILES IDX 6 13 5 14 4 15 3 16 2 17 1 18
REMARK H PARENT
REMARK Flexibility Score: inf
ROOT
ATOM      1  C   UNL     1      11.025   7.425  33.306  1.00  0.00     0.000 C 
ENDROOT
BRANCH   1   2
ATOM      2  C   UNL     1      10.318   7.874  32.017  1.00  0.00     0.000 C 
BRANCH   2   3
ATOM      3  C   UNL     1       9.534   6.712  31.388  1.00  0.00     0.000 C 
BRANCH   3   4
ATOM      4  C   UNL     1       9.843   6.528  29.893  1.00  0.00     0.000 C 
BRANCH   4   5
ATOM      5  C   UNL     1       9.625   5.081  29.417  1.00  0.00     0.000 C 
BRANCH   5   6
ATOM      6  C   UNL     1       9.835   4.050  30.545  1.00  0.00     0.006 C 
BRANCH   6   7
ATOM      7  C   UNL     1       9.638   2.593  30.095  1.00  0.00     0.053 C 
BRANCH   7   8
ATOM      8  C   UNL     1      10.527   1.643  30.834  1.00  0.00     0.041 C 
ATOM      9  O   UNL     1      10.165   1.165  31.941  1.00  0.00    -0.550 OA
ATOM     10  O   UNL     1      11.751   1.270  30.291  1.00  0.00    -0.550 OA
ENDBRANCH   7   8
ENDBRANCH   6   7
ENDBRANCH   5   6
ENDBRANCH   4   5
ENDBRANCH   3   4
ENDBRANCH   2   3
ENDBRANCH   1   2
BRANCH   1  11
ATOM     11  C   UNL     1      10.438   6.125  33.883  1.00  0.00     0.000 C 
BRANCH  11  12
ATOM     12  C   UNL     1      11.478   4.992  33.966  1.00  0.00    -0.000 C 
BRANCH  12  13
ATOM     13  C   UNL     1      12.698   5.244  33.067  1.00  0.00    -0.000 C 
BRANCH  13  14
ATOM     14  C   UNL     1      13.100   4.001  32.253  1.00  0.00    -0.000 C 
BRANCH  14  15
ATOM     15  C   UNL     1      13.960   4.349  31.028  1.00  0.00    -0.000 C 
BRANCH  15  16
ATOM     16  C   UNL     1      13.226   5.249  30.022  1.00  0.00    -0.000 C 
BRANCH  16  17
ATOM     17  C   UNL     1      13.634   4.909  28.584  1.00  0.00    -0.003 C 
ATOM     18  C   UNL     1      12.768   3.788  28.015  1.00  0.00     0.004 C 
ENDBRANCH  16  17
ENDBRANCH  15  16
ENDBRANCH  14  15
ENDBRANCH  13  14
ENDBRANCH  12  13
ENDBRANCH  11  12
ENDBRANCH   1  11
TORSDOF 14
ENDMDL
