MODEL 1
REMARK VINA RESULT:    -4.108      0.000      0.000
REMARK INTER + INTRA:          -7.829
REMARK INTER:                  -6.509
REMARK INTRA:                  -1.320
REMARK UNBOUND:                -1.320
REMARK SMILES CCCCCCCCCCCC(=O)[O-]
REMARK SMILES IDX 7 1 8 2 9 3 10 4 11 5 12 6 13 7 14 8 6 9 5 10 4 11 3 12 2 13
REMARK SMILES IDX 1 14
REMARK H PARENT
REMARK Flexibility Score: inf
ROOT
ATOM      1  C   UNL     1      37.177  20.842 -22.077  1.00  0.00     0.000 C 
ENDROOT
BRANCH   1   2
ATOM      2  C   UNL     1      37.619  21.612 -23.335  1.00  0.00     0.000 C 
BRANCH   2   3
ATOM      3  C   UNL     1      38.406  20.781 -24.368  1.00  0.00     0.000 C 
BRANCH   3   4
ATOM      4  C   UNL     1      39.542  21.536 -25.086  1.00  0.00     0.006 C 
BRANCH   4   5
ATOM      5  C   UNL     1      39.916  22.880 -24.444  1.00  0.00     0.053 C 
BRANCH   5   6
ATOM      6  C   UNL     1      41.055  22.741 -23.480  1.00  0.00     0.041 C 
ATOM      7  O   UNL     1      42.243  22.867 -23.880  1.00  0.00    -0.550 OA
ATOM      8  O   UNL     1      40.803  22.506 -22.135  1.00  0.00    -0.550 OA
ENDBRANCH   5   6
ENDBRANCH   4   5
ENDBRANCH   3   4
ENDBRANCH   2   3
ENDBRANCH   1   2
BRANCH   1   9
ATOM      9  C   UNL     1      37.056  19.330 -22.315  1.00  0.00     0.000 C 
BRANCH   9  10
ATOM     10  C   UNL     1      37.884  18.546 -21.284  1.00  0.00    -0.000 C 
BRANCH  10  11
ATOM     11  C   UNL     1      38.904  19.428 -20.546  1.00  0.00    -0.000 C 
BRANCH  11  12
ATOM     12  C   UNL     1      40.348  18.918 -20.703  1.00  0.00    -0.000 C 
BRANCH  12  13
ATOM     13  C   UNL     1      40.604  18.296 -22.084  1.00  0.00    -0.003 C 
ATOM     14  C   UNL     1      41.463  19.184 -22.986  1.00  0.00     0.004 C 
ENDBRANCH  12  13
ENDBRANCH  11  12
ENDBRANCH  10  11
ENDBRANCH   9  10
ENDBRANCH   1   9
TORSDOF 10
ENDMDL
MODEL 2
REMARK VINA RESULT:    -4.075     17.870     19.603
REMARK INTER + INTRA:          -7.778
REMARK INTER:                  -6.308
REMARK INTRA:                  -1.470
REMARK UNBOUND:                -1.320
REMARK SMILES CCCCCCCCCCCC(=O)[O-]
REMARK SMILES IDX 7 1 8 2 9 3 10 4 11 5 12 6 13 7 14 8 6 9 5 10 4 11 3 12 2 13
REMARK SMILES IDX 1 14
REMARK H PARENT
REMARK Flexibility Score: inf
ROOT
ATOM      1  C   UNL     1      48.185  34.768 -13.940  1.00  0.00     0.000 C 
ENDROOT
BRANCH   1   2
ATOM      2  C   UNL     1      48.291  36.103 -13.180  1.00  0.00     0.000 C 
BRANCH   2   3
ATOM      3  C   UNL     1      47.481  37.267 -13.786  1.00  0.00     0.000 C 
BRANCH   3   4
ATOM      4  C   UNL     1      46.240  37.692 -12.977  1.00  0.00     0.006 C 
BRANCH   4   5
ATOM      5  C   UNL     1      44.899  37.364 -13.652  1.00  0.00     0.053 C 
BRANCH   5   6
ATOM      6  C   UNL     1      44.170  36.266 -12.940  1.00  0.00     0.041 C 
ATOM      7  O   UNL     1      44.809  35.317 -12.413  1.00  0.00    -0.550 OA
ATOM      8  O   UNL     1      42.786  36.309 -12.829  1.00  0.00    -0.550 OA
ENDBRANCH   5   6
ENDBRANCH   4   5
ENDBRANCH   3   4
ENDBRANCH   2   3
ENDBRANCH   1   2
BRANCH   1   9
ATOM      9  C   UNL     1      47.081  34.775 -15.007  1.00  0.00     0.000 C 
BRANCH   9  10
ATOM     10  C   UNL     1      47.683  34.706 -16.419  1.00  0.00    -0.000 C 
BRANCH  10  11
ATOM     11  C   UNL     1      47.452  35.993 -17.228  1.00  0.00    -0.000 C 
BRANCH  11  12
ATOM     12  C   UNL     1      48.684  36.914 -17.238  1.00  0.00    -0.000 C 
BRANCH  12  13
ATOM     13  C   UNL     1      49.981  36.164 -16.896  1.00  0.00    -0.003 C 
ATOM     14  C   UNL     1      50.846  36.906 -15.877  1.00  0.00     0.004 C 
ENDBRANCH  12  13
ENDBRANCH  11  12
ENDBRANCH  10  11
ENDBRANCH   9  10
ENDBRANCH   1   9
TORSDOF 10
ENDMDL
MODEL 3
REMARK VINA RESULT:    -4.015     17.972     20.182
REMARK INTER + INTRA:          -7.683
REMARK INTER:                  -6.390
REMARK INTRA:                  -1.292
REMARK UNBOUND:                -1.320
REMARK SMILES CCCCCCCCCCCC(=O)[O-]
REMARK SMILES IDX 7 1 8 2 9 3 10 4 11 5 12 6 13 7 14 8 6 9 5 10 4 11 3 12 2 13
REMARK SMILES IDX 1 14
REMARK H PARENT
REMARK Flexibility Score: inf
ROOT
ATOM      1  C   UNL     1      48.525  34.716 -13.827  1.00  0.00     0.000 C 
ENDROOT
BRANCH   1   2
ATOM      2  C   UNL     1      49.188  35.901 -13.100  1.00  0.00     0.000 C 
BRANCH   2   3
ATOM      3  C   UNL     1      48.306  37.159 -12.962  1.00  0.00     0.000 C 
BRANCH   3   4
ATOM      4  C   UNL     1      47.620  37.328 -11.591  1.00  0.00     0.006 C 
BRANCH   4   5
ATOM      5  C   UNL     1      47.990  36.252 -10.559  1.00  0.00     0.053 C 
BRANCH   5   6
ATOM      6  C   UNL     1      46.876  35.272 -10.351  1.00  0.00     0.041 C 
ATOM      7  O   UNL     1      46.839  34.565  -9.309  1.00  0.00    -0.550 OA
ATOM      8  O   UNL     1      45.861  35.163 -11.292  1.00  0.00    -0.550 OA
ENDBRANCH   5   6
ENDBRANCH   4   5
ENDBRANCH   3   4
ENDBRANCH   2   3
ENDBRANCH   1   2
BRANCH   1   9
ATOM      9  C   UNL     1      47.284  35.129 -14.633  1.00  0.00     0.000 C 
BRANCH   9  10
ATOM     10  C   UNL     1      47.417  34.697 -16.102  1.00  0.00    -0.000 C 
BRANCH  10  11
ATOM     11  C   UNL     1      47.431  35.889 -17.073  1.00  0.00    -0.000 C 
BRANCH  11  12
ATOM     12  C   UNL     1      48.736  36.702 -16.992  1.00  0.00    -0.000 C 
BRANCH  12  13
ATOM     13  C   UNL     1      49.987  35.817 -17.105  1.00  0.00    -0.003 C 
ATOM     14  C   UNL     1      51.211  36.431 -16.425  1.00  0.00     0.004 C 
ENDBRANCH  12  13
ENDBRANCH  11  12
ENDBRANCH  10  11
ENDBRANCH   9  10
ENDBRANCH   1   9
TORSDOF 10
ENDMDL
MODEL 4
REMARK VINA RESULT:    -3.994     17.846     19.715
REMARK INTER + INTRA:          -7.648
REMARK INTER:                  -6.480
REMARK INTRA:                  -1.168
REMARK UNBOUND:                -1.320
REMARK SMILES CCCCCCCCCCCC(=O)[O-]
REMARK SMILES IDX 7 1 8 2 9 3 10 4 11 5 12 6 13 7 14 8 6 9 5 10 4 11 3 12 2 13
REMARK SMILES IDX 1 14
REMARK H PARENT
REMARK Flexibility Score: inf
ROOT
ATOM      1  C   UNL     1      47.491  35.028 -16.662  1.00  0.00     0.000 C 
ENDROOT
BRANCH   1   2
ATOM      2  C   UNL     1      47.231  36.471 -17.129  1.00  0.00     0.000 C 
BRANCH   2   3
ATOM      3  C   UNL     1      46.579  37.392 -16.077  1.00  0.00     0.000 C 
BRANCH   3   4
ATOM      4  C   UNL     1      46.483  36.797 -14.658  1.00  0.00     0.006 C 
BRANCH   4   5
ATOM      5  C   UNL     1      45.176  37.126 -13.920  1.00  0.00     0.053 C 
BRANCH   5   6
ATOM      6  C   UNL     1      44.672  35.957 -13.129  1.00  0.00     0.041 C 
ATOM      7  O   UNL     1      45.255  34.844 -13.202  1.00  0.00    -0.550 OA
ATOM      8  O   UNL     1      43.577  36.107 -12.288  1.00  0.00    -0.550 OA
ENDBRANCH   5   6
ENDBRANCH   4   5
ENDBRANCH   3   4
ENDBRANCH   2   3
ENDBRANCH   1   2
BRANCH   1   9
ATOM      9  C   UNL     1      48.954  34.784 -16.265  1.00  0.00     0.000 C 
BRANCH   9  10
ATOM     10  C   UNL     1      49.904  35.623 -17.134  1.00  0.00    -0.000 C 
BRANCH  10  11
ATOM     11  C   UNL     1      50.892  36.456 -16.301  1.00  0.00    -0.000 C 
BRANCH  11  12
ATOM     12  C   UNL     1      50.204  37.210 -15.149  1.00  0.00    -0.000 C 
BRANCH  12  13
ATOM     13  C   UNL     1      50.795  36.851 -13.776  1.00  0.00    -0.003 C 
ATOM     14  C   UNL     1      49.814  36.086 -12.888  1.00  0.00     0.004 C 
ENDBRANCH  12  13
ENDBRANCH  11  12
ENDBRANCH  10  11
ENDBRANCH   9  10
ENDBRANCH   1   9
TORSDOF 10
ENDMDL
MODEL 5
REMARK VINA RESULT:    -3.973     18.217     19.961
REMARK INTER + INTRA:          -7.615
REMARK INTER:                  -6.406
REMARK INTRA:                  -1.209
REMARK UNBOUND:                -1.320
REMARK SMILES CCCCCCCCCCCC(=O)[O-]
REMARK SMILES IDX 7 1 8 2 9 3 10 4 11 5 12 6 13 7 14 8 6 9 5 10 4 11 3 12 2 13
REMARK SMILES IDX 1 14
REMARK H PARENT
REMARK Flexibility Score: inf
ROOT
ATOM      1  C   UNL     1      47.771  34.686 -16.166  1.00  0.00     0.000 C 
ENDROOT
BRANCH   1   2
ATOM      2  C   UNL     1      47.264  34.728 -14.713  1.00  0.00     0.000 C 
BRANCH   2   3
ATOM      3  C   UNL     1      46.598  36.054 -14.292  1.00  0.00     0.000 C 
BRANCH   3   4
ATOM      4  C   UNL     1      45.890  36.024 -12.923  1.00  0.00     0.006 C 
BRANCH   4   5
ATOM      5  C   UNL     1      46.227  34.798 -12.060  1.00  0.00     0.053 C 
BRANCH   5   6
ATOM      6  C   UNL     1      46.168  35.112 -10.596  1.00  0.00     0.041 C 
ATOM      7  O   UNL     1      47.207  35.039  -9.889  1.00  0.00    -0.550 OA
ATOM      8  O   UNL     1      44.971  35.517 -10.021  1.00  0.00    -0.550 OA
ENDBRANCH   5   6
ENDBRANCH   4   5
ENDBRANCH   3   4
ENDBRANCH   2   3
ENDBRANCH   1   2
BRANCH   1   9
ATOM      9  C   UNL     1      47.466  35.975 -16.942  1.00  0.00     0.000 C 
BRANCH   9  10
ATOM     10  C   UNL     1      48.760  36.742 -17.260  1.00  0.00    -0.000 C 
BRANCH  10  11
ATOM     11  C   UNL     1      50.026  35.941 -16.915  1.00  0.00    -0.000 C 
BRANCH  11  12
ATOM     12  C   UNL     1      50.934  36.675 -15.913  1.00  0.00    -0.000 C 
BRANCH  12  13
ATOM     13  C   UNL     1      50.140  37.341 -14.778  1.00  0.00    -0.003 C 
ATOM     14  C   UNL     1      50.242  36.581 -13.456  1.00  0.00     0.004 C 
ENDBRANCH  12  13
ENDBRANCH  11  12
ENDBRANCH  10  11
ENDBRANCH   9  10
ENDBRANCH   1   9
TORSDOF 10
ENDMDL
MODEL 6
REMARK VINA RESULT:    -3.963     18.288     19.730
REMARK INTER + INTRA:          -7.601
REMARK INTER:                  -6.267
REMARK INTRA:                  -1.333
REMARK UNBOUND:                -1.320
REMARK SMILES CCCCCCCCCCCC(=O)[O-]
REMARK SMILES IDX 7 1 8 2 9 3 10 4 11 5 12 6 13 7 14 8 6 9 5 10 4 11 3 12 2 13
REMARK SMILES IDX 1 14
REMARK H PARENT
REMARK Flexibility Score: inf
ROOT
ATOM      1  C   UNL     1      48.799  36.939 -13.344  1.00  0.00     0.000 C 
ENDROOT
BRANCH   1   2
ATOM      2  C   UNL     1      47.630  36.321 -12.556  1.00  0.00     0.000 C 
BRANCH   2   3
ATOM      3  C   UNL     1      47.178  34.929 -13.041  1.00  0.00     0.000 C 
BRANCH   3   4
ATOM      4  C   UNL     1      45.656  34.686 -13.003  1.00  0.00     0.006 C 
BRANCH   4   5
ATOM      5  C   UNL     1      44.806  35.937 -13.275  1.00  0.00     0.053 C 
BRANCH   5   6
ATOM      6  C   UNL     1      43.800  36.174 -12.190  1.00  0.00     0.041 C 
ATOM      7  O   UNL     1      42.611  36.472 -12.482  1.00  0.00    -0.550 OA
ATOM      8  O   UNL     1      44.167  36.033 -10.858  1.00  0.00    -0.550 OA
ENDBRANCH   5   6
ENDBRANCH   4   5
ENDBRANCH   3   4
ENDBRANCH   2   3
ENDBRANCH   1   2
BRANCH   1   9
ATOM      9  C   UNL     1      49.613  35.894 -14.122  1.00  0.00     0.000 C 
BRANCH   9  10
ATOM     10  C   UNL     1      50.022  36.435 -15.501  1.00  0.00    -0.000 C 
BRANCH  10  11
ATOM     11  C   UNL     1      49.593  35.511 -16.653  1.00  0.00    -0.000 C 
BRANCH  11  12
ATOM     12  C   UNL     1      48.093  35.172 -16.612  1.00  0.00    -0.000 C 
BRANCH  12  13
ATOM     13  C   UNL     1      47.230  36.240 -17.301  1.00  0.00    -0.003 C 
ATOM     14  C   UNL     1      46.599  37.222 -16.315  1.00  0.00     0.004 C 
ENDBRANCH  12  13
ENDBRANCH  11  12
ENDBRANCH  10  11
ENDBRANCH   9  10
ENDBRANCH   1   9
TORSDOF 10
ENDMDL
MODEL 7
REMARK VINA RESULT:    -3.942     18.268     20.469
REMARK INTER + INTRA:          -7.566
REMARK INTER:                  -6.032
REMARK INTRA:                  -1.534
REMARK UNBOUND:                -1.320
REMARK SMILES CCCCCCCCCCCC(=O)[O-]
REMARK SMILES IDX 7 1 8 2 9 3 10 4 11 5 12 6 13 7 14 8 6 9 5 10 4 11 3 12 2 13
REMARK SMILES IDX 1 14
REMARK H PARENT
REMARK Flexibility Score: inf
ROOT
ATOM      1  C   UNL     1      51.162  37.242 -13.833  1.00  0.00     0.000 C 
ENDROOT
BRANCH   1   2
ATOM      2  C   UNL     1      49.853  38.045 -13.934  1.00  0.00     0.000 C 
BRANCH   2   3
ATOM      3  C   UNL     1      48.576  37.265 -13.557  1.00  0.00     0.000 C 
BRANCH   3   4
ATOM      4  C   UNL     1      48.801  35.787 -13.178  1.00  0.00     0.006 C 
BRANCH   4   5
ATOM      5  C   UNL     1      47.794  34.811 -13.805  1.00  0.00     0.053 C 
BRANCH   5   6
ATOM      6  C   UNL     1      46.652  34.517 -12.880  1.00  0.00     0.041 C 
ATOM      7  O   UNL     1      45.617  33.945 -13.312  1.00  0.00    -0.550 OA
ATOM      8  O   UNL     1      46.746  34.845 -11.534  1.00  0.00    -0.550 OA
ENDBRANCH   5   6
ENDBRANCH   4   5
ENDBRANCH   3   4
ENDBRANCH   2   3
ENDBRANCH   1   2
BRANCH   1   9
ATOM      9  C   UNL     1      52.076  37.435 -15.052  1.00  0.00     0.000 C 
BRANCH   9  10
ATOM     10  C   UNL     1      51.268  37.372 -16.358  1.00  0.00    -0.000 C 
BRANCH  10  11
ATOM     11  C   UNL     1      51.093  35.937 -16.879  1.00  0.00    -0.000 C 
BRANCH  11  12
ATOM     12  C   UNL     1      49.618  35.499 -16.921  1.00  0.00    -0.000 C 
BRANCH  12  13
ATOM     13  C   UNL     1      48.664  36.671 -17.194  1.00  0.00    -0.003 C 
ATOM     14  C   UNL     1      47.199  36.242 -17.260  1.00  0.00     0.004 C 
ENDBRANCH  12  13
ENDBRANCH  11  12
ENDBRANCH  10  11
ENDBRANCH   9  10
ENDBRANCH   1   9
TORSDOF 10
ENDMDL
MODEL 8
REMARK VINA RESULT:    -3.898     18.254     19.688
REMARK INTER + INTRA:          -7.497
REMARK INTER:                  -6.257
REMARK INTRA:                  -1.240
REMARK UNBOUND:                -1.320
REMARK SMILES CCCCCCCCCCCC(=O)[O-]
REMARK SMILES IDX 7 1 8 2 9 3 10 4 11 5 12 6 13 7 14 8 6 9 5 10 4 11 3 12 2 13
REMARK SMILES IDX 1 14
REMARK H PARENT
REMARK Flexibility Score: inf
ROOT
ATOM      1  C   UNL     1      47.005  37.968 -16.217  1.00  0.00     0.000 C 
ENDROOT
BRANCH   1   2
ATOM      2  C   UNL     1      45.712  37.931 -15.383  1.00  0.00     0.000 C 
BRANCH   2   3
ATOM      3  C   UNL     1      45.907  37.596 -13.890  1.00  0.00     0.000 C 
BRANCH   3   4
ATOM      4  C   UNL     1      45.207  36.308 -13.412  1.00  0.00     0.006 C 
BRANCH   4   5
ATOM      5  C   UNL     1      44.916  36.266 -11.904  1.00  0.00     0.053 C 
BRANCH   5   6
ATOM      6  C   UNL     1      43.444  36.244 -11.621  1.00  0.00     0.041 C 
ATOM      7  O   UNL     1      42.615  36.373 -12.560  1.00  0.00    -0.550 OA
ATOM      8  O   UNL     1      42.989  36.048 -10.324  1.00  0.00    -0.550 OA
ENDBRANCH   5   6
ENDBRANCH   4   5
ENDBRANCH   3   4
ENDBRANCH   2   3
ENDBRANCH   1   2
BRANCH   1   9
ATOM      9  C   UNL     1      47.117  36.791 -17.198  1.00  0.00     0.000 C 
BRANCH   9  10
ATOM     10  C   UNL     1      48.492  36.114 -17.086  1.00  0.00    -0.000 C 
BRANCH  10  11
ATOM     11  C   UNL     1      48.421  34.729 -16.424  1.00  0.00    -0.000 C 
BRANCH  11  12
ATOM     12  C   UNL     1      48.223  34.811 -14.900  1.00  0.00    -0.000 C 
BRANCH  12  13
ATOM     13  C   UNL     1      49.182  35.812 -14.237  1.00  0.00    -0.003 C 
ATOM     14  C   UNL     1      49.043  35.848 -12.715  1.00  0.00     0.004 C 
ENDBRANCH  12  13
ENDBRANCH  11  12
ENDBRANCH  10  11
ENDBRANCH   9  10
ENDBRANCH   1   9
TORSDOF 10
ENDMDL
MODEL 9
REMARK VINA RESULT:    -3.834     18.230     19.439
REMARK INTER + INTRA:          -7.396
REMARK INTER:                  -6.296
REMARK INTRA:                  -1.099
REMARK UNBOUND:                -1.320
REMARK SMILES CCCCCCCCCCCC(=O)[O-]
REMARK SMILES IDX 7 1 8 2 9 3 10 4 11 5 12 6 13 7 14 8 6 9 5 10 4 11 3 12 2 13
REMARK SMILES IDX 1 14
REMARK H PARENT
REMARK Flexibility Score: inf
ROOT
ATOM      1  C   UNL     1      46.821  37.562 -15.097  1.00  0.00     0.000 C 
ENDROOT
BRANCH   1   2
ATOM      2  C   UNL     1      45.376  37.744 -14.598  1.00  0.00     0.000 C 
BRANCH   2   3
ATOM      3  C   UNL     1      45.122  37.284 -13.148  1.00  0.00     0.000 C 
BRANCH   3   4
ATOM      4  C   UNL     1      44.529  35.868 -13.005  1.00  0.00     0.006 C 
BRANCH   4   5
ATOM      5  C   UNL     1      45.553  34.733 -13.160  1.00  0.00     0.053 C 
BRANCH   5   6
ATOM      6  C   UNL     1      46.748  34.935 -12.278  1.00  0.00     0.041 C 
ATOM      7  O   UNL     1      47.877  35.168 -12.784  1.00  0.00    -0.550 OA
ATOM      8  O   UNL     1      46.607  34.899 -10.897  1.00  0.00    -0.550 OA
ENDBRANCH   5   6
ENDBRANCH   4   5
ENDBRANCH   3   4
ENDBRANCH   2   3
ENDBRANCH   1   2
BRANCH   1   9
ATOM      9  C   UNL     1      46.956  37.748 -16.615  1.00  0.00     0.000 C 
BRANCH   9  10
ATOM     10  C   UNL     1      47.213  36.402 -17.310  1.00  0.00    -0.000 C 
BRANCH  10  11
ATOM     11  C   UNL     1      47.568  35.279 -16.321  1.00  0.00    -0.000 C 
BRANCH  11  12
ATOM     12  C   UNL     1      48.960  34.680 -16.583  1.00  0.00    -0.000 C 
BRANCH  12  13
ATOM     13  C   UNL     1      49.974  35.732 -17.058  1.00  0.00    -0.003 C 
ATOM     14  C   UNL     1      50.562  36.552 -15.910  1.00  0.00     0.004 C 
ENDBRANCH  12  13
ENDBRANCH  11  12
ENDBRANCH  10  11
ENDBRANCH   9  10
ENDBRANCH   1   9
TORSDOF 10
ENDMDL
