MODEL 1
REMARK VINA RESULT:    -3.582      0.000      0.000
REMARK INTER + INTRA:          -3.687
REMARK INTER:                  -3.687
REMARK INTRA:                   0.000
REMARK UNBOUND:                 0.000
REMARK SMILES CC1(C)[C@@H]2CC[C@@](C)(C2)[C@@H]1O
REMARK SMILES IDX 1 1 2 2 4 3 5 4 6 5 7 6 9 7 10 8 8 9 3 10 11 11
REMARK H PARENT 11 12
REMARK Flexibility Score: inf
ROOT
ATOM      1  C   UNL     1     136.652 142.282 141.260  1.00  0.00     0.014 C 
ATOM      2  C   UNL     1     135.287 141.832 141.843  1.00  0.00    -0.006 C 
ATOM      3  C   UNL     1     134.725 140.519 141.192  1.00  0.00    -0.002 C 
ATOM      4  C   UNL     1     134.762 140.591 139.651  1.00  0.00     0.005 C 
ATOM      5  C   UNL     1     133.687 141.640 139.329  1.00  0.00     0.010 C 
ATOM      6  C   UNL     1     133.116 141.991 140.727  1.00  0.00    -0.006 C 
ATOM      7  C   UNL     1     133.223 140.647 141.418  1.00  0.00     0.013 C 
ATOM      8  C   UNL     1     134.110 142.831 141.581  1.00  0.00     0.126 C 
ATOM      9  C   UNL     1     131.694 142.560 140.689  1.00  0.00     0.014 C 
ATOM     10  C   UNL     1     135.496 141.615 143.363  1.00  0.00     0.014 C 
ENDROOT
BRANCH   8  11
ATOM     11  O   UNL     1     134.474 144.074 141.022  1.00  0.00    -0.392 OA
ATOM     12  H   UNL     1     134.421 144.028 140.039  1.00  0.00     0.211 HD
ENDBRANCH   8  11
TORSDOF 1
ENDMDL
MODEL 2
REMARK VINA RESULT:    -3.576      8.462      9.572
REMARK INTER + INTRA:          -3.680
REMARK INTER:                  -3.680
REMARK INTRA:                   0.000
REMARK UNBOUND:                 0.000
REMARK SMILES CC1(C)[C@@H]2CC[C@@](C)(C2)[C@@H]1O
REMARK SMILES IDX 1 1 2 2 4 3 5 4 6 5 7 6 9 7 10 8 8 9 3 10 11 11
REMARK H PARENT 11 12
REMARK Flexibility Score: inf
ROOT
ATOM      1  C   UNL     1     142.277 144.967 141.468  1.00  0.00     0.014 C 
ATOM      2  C   UNL     1     141.790 146.353 141.965  1.00  0.00    -0.006 C 
ATOM      3  C   UNL     1     140.485 146.856 141.252  1.00  0.00    -0.002 C 
ATOM      4  C   UNL     1     140.598 146.737 139.718  1.00  0.00     0.005 C 
ATOM      5  C   UNL     1     141.637 147.812 139.364  1.00  0.00     0.010 C 
ATOM      6  C   UNL     1     141.943 148.464 140.737  1.00  0.00    -0.006 C 
ATOM      7  C   UNL     1     140.583 148.369 141.400  1.00  0.00     0.013 C 
ATOM      8  C   UNL     1     142.776 147.532 141.664  1.00  0.00     0.126 C 
ATOM      9  C   UNL     1     142.489 149.891 140.636  1.00  0.00     0.014 C 
ATOM     10  C   UNL     1     141.537 146.222 143.488  1.00  0.00     0.014 C 
ENDROOT
BRANCH   8  11
ATOM     11  O   UNL     1     144.039 147.160 141.157  1.00  0.00    -0.392 OA
ATOM     12  H   UNL     1     144.497 146.567 141.798  1.00  0.00     0.211 HD
ENDBRANCH   8  11
TORSDOF 1
ENDMDL
MODEL 3
REMARK VINA RESULT:    -3.536      8.467      9.573
REMARK INTER + INTRA:          -3.640
REMARK INTER:                  -3.640
REMARK INTRA:                   0.000
REMARK UNBOUND:                 0.000
REMARK SMILES CC1(C)[C@@H]2CC[C@@](C)(C2)[C@@H]1O
REMARK SMILES IDX 1 1 2 2 4 3 5 4 6 5 7 6 9 7 10 8 8 9 3 10 11 11
REMARK H PARENT 11 12
REMARK Flexibility Score: inf
ROOT
ATOM      1  C   UNL     1     139.319 136.708 141.523  1.00  0.00     0.014 C 
ATOM      2  C   UNL     1     139.821 135.322 142.005  1.00  0.00    -0.006 C 
ATOM      3  C   UNL     1     141.116 134.828 141.267  1.00  0.00    -0.002 C 
ATOM      4  C   UNL     1     140.977 134.954 139.736  1.00  0.00     0.005 C 
ATOM      5  C   UNL     1     139.937 133.875 139.396  1.00  0.00     0.010 C 
ATOM      6  C   UNL     1     139.658 133.216 140.770  1.00  0.00    -0.006 C 
ATOM      7  C   UNL     1     141.029 133.314 141.410  1.00  0.00     0.013 C 
ATOM      8  C   UNL     1     138.836 134.140 141.716  1.00  0.00     0.126 C 
ATOM      9  C   UNL     1     139.117 131.787 140.673  1.00  0.00     0.014 C 
ATOM     10  C   UNL     1     140.100 135.448 143.524  1.00  0.00     0.014 C 
ENDROOT
BRANCH   8  11
ATOM     11  O   UNL     1     137.563 134.508 141.232  1.00  0.00    -0.392 OA
ATOM     12  H   UNL     1     137.243 135.311 141.707  1.00  0.00     0.211 HD
ENDBRANCH   8  11
TORSDOF 1
ENDMDL
MODEL 4
REMARK VINA RESULT:    -3.527     11.419     13.601
REMARK INTER + INTRA:          -3.630
REMARK INTER:                  -3.630
REMARK INTRA:                   0.000
REMARK UNBOUND:                 0.000
REMARK SMILES CC1(C)[C@@H]2CC[C@@](C)(C2)[C@@H]1O
REMARK SMILES IDX 1 1 2 2 4 3 5 4 6 5 7 6 9 7 10 8 8 9 3 10 11 11
REMARK H PARENT 11 12
REMARK Flexibility Score: inf
ROOT
ATOM      1  C   UNL     1     144.975 139.409 141.340  1.00  0.00     0.014 C 
ATOM      2  C   UNL     1     146.361 139.866 141.867  1.00  0.00    -0.006 C 
ATOM      3  C   UNL     1     146.913 141.153 141.157  1.00  0.00    -0.002 C 
ATOM      4  C   UNL     1     146.827 141.032 139.621  1.00  0.00     0.005 C 
ATOM      5  C   UNL     1     147.885 139.964 139.301  1.00  0.00     0.010 C 
ATOM      6  C   UNL     1     148.496 139.653 140.691  1.00  0.00    -0.006 C 
ATOM      7  C   UNL     1     148.419 141.020 141.342  1.00  0.00     0.013 C 
ATOM      8  C   UNL     1     147.522 138.850 141.602  1.00  0.00     0.126 C 
ATOM      9  C   UNL     1     149.911 139.072 140.628  1.00  0.00     0.014 C 
ATOM     10  C   UNL     1     146.200 140.134 143.385  1.00  0.00     0.014 C 
ENDROOT
BRANCH   8  11
ATOM     11  O   UNL     1     147.132 137.593 141.095  1.00  0.00    -0.392 OA
ATOM     12  H   UNL     1     147.349 137.536 140.135  1.00  0.00     0.211 HD
ENDBRANCH   8  11
TORSDOF 1
ENDMDL
MODEL 5
REMARK VINA RESULT:    -3.329      1.095      3.225
REMARK INTER + INTRA:          -3.426
REMARK INTER:                  -3.426
REMARK INTRA:                   0.000
REMARK UNBOUND:                 0.000
REMARK SMILES CC1(C)[C@@H]2CC[C@@](C)(C2)[C@@H]1O
REMARK SMILES IDX 1 1 2 2 4 3 5 4 6 5 7 6 9 7 10 8 8 9 3 10 11 11
REMARK H PARENT 11 12
REMARK Flexibility Score: inf
ROOT
ATOM      1  C   UNL     1     132.766 142.571 139.460  1.00  0.00     0.014 C 
ATOM      2  C   UNL     1     134.228 142.057 139.531  1.00  0.00    -0.006 C 
ATOM      3  C   UNL     1     134.356 140.592 140.081  1.00  0.00    -0.002 C 
ATOM      4  C   UNL     1     133.556 140.407 141.387  1.00  0.00     0.005 C 
ATOM      5  C   UNL     1     134.354 141.241 142.401  1.00  0.00     0.010 C 
ATOM      6  C   UNL     1     135.555 141.749 141.563  1.00  0.00    -0.006 C 
ATOM      7  C   UNL     1     135.773 140.565 140.641  1.00  0.00     0.013 C 
ATOM      8  C   UNL     1     135.143 142.840 140.533  1.00  0.00     0.126 C 
ATOM      9  C   UNL     1     136.782 142.118 142.403  1.00  0.00     0.014 C 
ATOM     10  C   UNL     1     134.800 142.129 138.093  1.00  0.00     0.014 C 
ENDROOT
BRANCH   8  11
ATOM     11  O   UNL     1     134.580 144.006 141.092  1.00  0.00    -0.392 OA
ATOM     12  H   UNL     1     134.136 144.535 140.389  1.00  0.00     0.211 HD
ENDBRANCH   8  11
TORSDOF 1
ENDMDL
MODEL 6
REMARK VINA RESULT:    -3.323      1.717      3.480
REMARK INTER + INTRA:          -3.420
REMARK INTER:                  -3.420
REMARK INTRA:                   0.000
REMARK UNBOUND:                 0.000
REMARK SMILES CC1(C)[C@@H]2CC[C@@](C)(C2)[C@@H]1O
REMARK SMILES IDX 1 1 2 2 4 3 5 4 6 5 7 6 9 7 10 8 8 9 3 10 11 11
REMARK H PARENT 11 12
REMARK Flexibility Score: inf
ROOT
ATOM      1  C   UNL     1     132.705 140.937 138.837  1.00  0.00     0.014 C 
ATOM      2  C   UNL     1     132.652 141.579 140.248  1.00  0.00    -0.006 C 
ATOM      3  C   UNL     1     133.270 143.021 140.310  1.00  0.00    -0.002 C 
ATOM      4  C   UNL     1     134.661 143.068 139.644  1.00  0.00     0.005 C 
ATOM      5  C   UNL     1     135.536 142.261 140.617  1.00  0.00     0.010 C 
ATOM      6  C   UNL     1     134.549 141.908 141.758  1.00  0.00    -0.006 C 
ATOM      7  C   UNL     1     133.680 143.150 141.771  1.00  0.00     0.013 C 
ATOM      8  C   UNL     1     133.505 140.835 141.331  1.00  0.00     0.126 C 
ATOM      9  C   UNL     1     135.232 141.612 143.096  1.00  0.00     0.014 C 
ATOM     10  C   UNL     1     131.160 141.631 140.664  1.00  0.00     0.014 C 
ENDROOT
BRANCH   8  11
ATOM     11  O   UNL     1     134.051 139.596 140.935  1.00  0.00    -0.392 OA
ATOM     12  H   UNL     1     133.327 138.975 140.686  1.00  0.00     0.211 HD
ENDBRANCH   8  11
TORSDOF 1
ENDMDL
MODEL 7
REMARK VINA RESULT:    -3.289      8.827      9.950
REMARK INTER + INTRA:          -3.385
REMARK INTER:                  -3.385
REMARK INTRA:                   0.000
REMARK UNBOUND:                 0.000
REMARK SMILES CC1(C)[C@@H]2CC[C@@](C)(C2)[C@@H]1O
REMARK SMILES IDX 1 1 2 2 4 3 5 4 6 5 7 6 9 7 10 8 8 9 3 10 11 11
REMARK H PARENT 11 12
REMARK Flexibility Score: inf
ROOT
ATOM      1  C   UNL     1     140.936 148.652 138.840  1.00  0.00     0.014 C 
ATOM      2  C   UNL     1     141.561 148.774 140.254  1.00  0.00    -0.006 C 
ATOM      3  C   UNL     1     143.024 148.213 140.349  1.00  0.00    -0.002 C 
ATOM      4  C   UNL     1     143.130 146.803 139.730  1.00  0.00     0.005 C 
ATOM      5  C   UNL     1     142.346 145.932 140.723  1.00  0.00     0.010 C 
ATOM      6  C   UNL     1     141.944 146.941 141.829  1.00  0.00    -0.006 C 
ATOM      7  C   UNL     1     143.153 147.856 141.824  1.00  0.00     0.013 C 
ATOM      8  C   UNL     1     140.838 147.929 141.357  1.00  0.00     0.126 C 
ATOM      9  C   UNL     1     141.660 146.291 143.186  1.00  0.00     0.014 C 
ATOM     10  C   UNL     1     141.553 150.280 140.621  1.00  0.00     0.014 C 
ENDROOT
BRANCH   8  11
ATOM     11  O   UNL     1     139.624 147.325 140.969  1.00  0.00    -0.392 OA
ATOM     12  H   UNL     1     138.937 147.479 141.658  1.00  0.00     0.211 HD
ENDBRANCH   8  11
TORSDOF 1
ENDMDL
MODEL 8
REMARK VINA RESULT:    -3.284     12.161     13.742
REMARK INTER + INTRA:          -3.380
REMARK INTER:                  -3.380
REMARK INTRA:                   0.000
REMARK UNBOUND:                 0.000
REMARK SMILES CC1(C)[C@@H]2CC[C@@](C)(C2)[C@@H]1O
REMARK SMILES IDX 1 1 2 2 4 3 5 4 6 5 7 6 9 7 10 8 8 9 3 10 11 11
REMARK H PARENT 11 12
REMARK Flexibility Score: inf
ROOT
ATOM      1  C   UNL     1     148.685 140.674 138.852  1.00  0.00     0.014 C 
ATOM      2  C   UNL     1     148.802 140.044 140.264  1.00  0.00    -0.006 C 
ATOM      3  C   UNL     1     148.236 138.583 140.352  1.00  0.00    -0.002 C 
ATOM      4  C   UNL     1     146.828 138.483 139.729  1.00  0.00     0.005 C 
ATOM      5  C   UNL     1     145.956 139.265 140.724  1.00  0.00     0.010 C 
ATOM      6  C   UNL     1     146.964 139.660 141.833  1.00  0.00    -0.006 C 
ATOM      7  C   UNL     1     147.875 138.449 141.826  1.00  0.00     0.013 C 
ATOM      8  C   UNL     1     147.957 140.766 141.367  1.00  0.00     0.126 C 
ATOM      9  C   UNL     1     146.311 139.942 143.189  1.00  0.00     0.014 C 
ATOM     10  C   UNL     1     150.306 140.047 140.635  1.00  0.00     0.014 C 
ENDROOT
BRANCH   8  11
ATOM     11  O   UNL     1     147.356 141.982 140.982  1.00  0.00    -0.392 OA
ATOM     12  H   UNL     1     147.812 142.736 141.424  1.00  0.00     0.211 HD
ENDBRANCH   8  11
TORSDOF 1
ENDMDL
MODEL 9
REMARK VINA RESULT:    -3.270      8.246      9.586
REMARK INTER + INTRA:          -3.366
REMARK INTER:                  -3.366
REMARK INTRA:                   0.000
REMARK UNBOUND:                 0.000
REMARK SMILES CC1(C)[C@@H]2CC[C@@](C)(C2)[C@@H]1O
REMARK SMILES IDX 1 1 2 2 4 3 5 4 6 5 7 6 9 7 10 8 8 9 3 10 11 11
REMARK H PARENT 11 12
REMARK Flexibility Score: inf
ROOT
ATOM      1  C   UNL     1     139.035 132.486 139.919  1.00  0.00     0.014 C 
ATOM      2  C   UNL     1     139.523 133.943 139.704  1.00  0.00    -0.006 C 
ATOM      3  C   UNL     1     140.990 134.197 140.200  1.00  0.00    -0.002 C 
ATOM      4  C   UNL     1     141.203 133.663 141.632  1.00  0.00     0.005 C 
ATOM      5  C   UNL     1     140.364 134.625 142.486  1.00  0.00     0.010 C 
ATOM      6  C   UNL     1     139.826 135.637 141.443  1.00  0.00    -0.006 C 
ATOM      7  C   UNL     1     140.996 135.694 140.481  1.00  0.00     0.013 C 
ATOM      8  C   UNL     1     138.733 135.018 140.524  1.00  0.00     0.126 C 
ATOM      9  C   UNL     1     139.443 136.994 142.039  1.00  0.00     0.014 C 
ATOM     10  C   UNL     1     139.427 134.230 138.184  1.00  0.00     0.014 C 
ENDROOT
BRANCH   8  11
ATOM     11  O   UNL     1     137.583 134.553 141.195  1.00  0.00    -0.392 OA
ATOM     12  H   UNL     1     137.456 135.058 142.032  1.00  0.00     0.211 HD
ENDBRANCH   8  11
TORSDOF 1
ENDMDL
