MODEL 1
REMARK VINA RESULT:    -3.992      0.000      0.000
REMARK INTER + INTRA:          -9.349
REMARK INTER:                  -7.258
REMARK INTRA:                  -2.091
REMARK UNBOUND:                -2.091
REMARK SMILES CCCCCCCCCCCCCCCC(=O)[O-]
REMARK SMILES IDX 9 1 10 2 11 3 12 4 13 5 14 6 15 7 16 8 17 9 18 10 8 11 7 12
REMARK SMILES IDX 6 13 5 14 4 15 3 16 2 17 1 18
REMARK H PARENT
REMARK Flexibility Score: inf
ROOT
ATOM      1  C   UNL     1     181.737 182.277 200.422  1.00  0.00     0.000 C 
ENDROOT
BRANCH   1   2
ATOM      2  C   UNL     1     180.693 183.390 200.608  1.00  0.00     0.000 C 
BRANCH   2   3
ATOM      3  C   UNL     1     180.646 183.925 202.050  1.00  0.00     0.000 C 
BRANCH   3   4
ATOM      4  C   UNL     1     180.559 185.458 202.112  1.00  0.00     0.000 C 
BRANCH   4   5
ATOM      5  C   UNL     1     181.634 186.144 201.251  1.00  0.00     0.000 C 
BRANCH   5   6
ATOM      6  C   UNL     1     181.035 187.132 200.236  1.00  0.00     0.006 C 
BRANCH   6   7
ATOM      7  C   UNL     1     181.710 188.509 200.282  1.00  0.00     0.053 C 
BRANCH   7   8
ATOM      8  C   UNL     1     183.135 188.405 199.839  1.00  0.00     0.041 C 
ATOM      9  O   UNL     1     183.413 187.949 198.699  1.00  0.00    -0.550 OA
ATOM     10  O   UNL     1     184.156 188.857 200.666  1.00  0.00    -0.550 OA
ENDBRANCH   7   8
ENDBRANCH   6   7
ENDBRANCH   5   6
ENDBRANCH   4   5
ENDBRANCH   3   4
ENDBRANCH   2   3
ENDBRANCH   1   2
BRANCH   1  11
ATOM     11  C   UNL     1     182.021 181.510 201.726  1.00  0.00     0.000 C 
BRANCH  11  12
ATOM     12  C   UNL     1     183.518 181.476 202.078  1.00  0.00    -0.000 C 
BRANCH  12  13
ATOM     13  C   UNL     1     184.146 182.880 202.125  1.00  0.00    -0.000 C 
BRANCH  13  14
ATOM     14  C   UNL     1     185.630 182.874 201.723  1.00  0.00    -0.000 C 
BRANCH  14  15
ATOM     15  C   UNL     1     185.951 183.917 200.637  1.00  0.00    -0.000 C 
BRANCH  15  16
ATOM     16  C   UNL     1     184.755 184.833 200.317  1.00  0.00    -0.000 C 
BRANCH  16  17
ATOM     17  C   UNL     1     184.100 184.591 198.946  1.00  0.00    -0.003 C 
ATOM     18  C   UNL     1     184.849 183.562 198.099  1.00  0.00     0.004 C 
ENDBRANCH  16  17
ENDBRANCH  15  16
ENDBRANCH  14  15
ENDBRANCH  13  14
ENDBRANCH  12  13
ENDBRANCH  11  12
ENDBRANCH   1  11
TORSDOF 14
ENDMDL
MODEL 2
REMARK VINA RESULT:    -3.874      1.840      3.127
REMARK INTER + INTRA:          -9.136
REMARK INTER:                  -7.234
REMARK INTRA:                  -1.902
REMARK UNBOUND:                -2.091
REMARK SMILES CCCCCCCCCCCCCCCC(=O)[O-]
REMARK SMILES IDX 9 1 10 2 11 3 12 4 13 5 14 6 15 7 16 8 17 9 18 10 8 11 7 12
REMARK SMILES IDX 6 13 5 14 4 15 3 16 2 17 1 18
REMARK H PARENT
REMARK Flexibility Score: inf
ROOT
ATOM      1  C   UNL     1     181.750 185.102 201.984  1.00  0.00     0.000 C 
ENDROOT
BRANCH   1   2
ATOM      2  C   UNL     1     181.311 186.569 202.123  1.00  0.00     0.000 C 
BRANCH   2   3
ATOM      3  C   UNL     1     181.894 187.470 201.020  1.00  0.00     0.000 C 
BRANCH   3   4
ATOM      4  C   UNL     1     182.261 186.689 199.749  1.00  0.00     0.000 C 
BRANCH   4   5
ATOM      5  C   UNL     1     183.483 187.280 199.026  1.00  0.00     0.000 C 
BRANCH   5   6
ATOM      6  C   UNL     1     184.757 187.238 199.888  1.00  0.00     0.006 C 
BRANCH   6   7
ATOM      7  C   UNL     1     185.305 188.637 200.201  1.00  0.00     0.053 C 
BRANCH   7   8
ATOM      8  C   UNL     1     186.761 188.562 200.535  1.00  0.00     0.041 C 
ATOM      9  O   UNL     1     187.379 189.592 200.911  1.00  0.00    -0.550 OA
ATOM     10  O   UNL     1     187.427 187.343 200.478  1.00  0.00    -0.550 OA
ENDBRANCH   7   8
ENDBRANCH   6   7
ENDBRANCH   5   6
ENDBRANCH   4   5
ENDBRANCH   3   4
ENDBRANCH   2   3
ENDBRANCH   1   2
BRANCH   1  11
ATOM     11  C   UNL     1     180.578 184.163 201.647  1.00  0.00     0.000 C 
BRANCH  11  12
ATOM     12  C   UNL     1     181.041 182.841 201.014  1.00  0.00    -0.000 C 
BRANCH  12  13
ATOM     13  C   UNL     1     181.976 182.038 201.938  1.00  0.00    -0.000 C 
BRANCH  13  14
ATOM     14  C   UNL     1     183.213 181.501 201.201  1.00  0.00    -0.000 C 
BRANCH  14  15
ATOM     15  C   UNL     1     184.486 182.300 201.526  1.00  0.00    -0.000 C 
BRANCH  15  16
ATOM     16  C   UNL     1     184.721 183.473 200.556  1.00  0.00    -0.000 C 
BRANCH  16  17
ATOM     17  C   UNL     1     184.072 183.310 199.170  1.00  0.00    -0.003 C 
ATOM     18  C   UNL     1     184.903 183.924 198.044  1.00  0.00     0.004 C 
ENDBRANCH  16  17
ENDBRANCH  15  16
ENDBRANCH  14  15
ENDBRANCH  13  14
ENDBRANCH  12  13
ENDBRANCH  11  12
ENDBRANCH   1  11
TORSDOF 14
ENDMDL
MODEL 3
REMARK VINA RESULT:    -3.775      2.509      5.570
REMARK INTER + INTRA:          -8.956
REMARK INTER:                  -6.790
REMARK INTRA:                  -2.166
REMARK UNBOUND:                -2.091
REMARK SMILES CCCCCCCCCCCCCCCC(=O)[O-]
REMARK SMILES IDX 9 1 10 2 11 3 12 4 13 5 14 6 15 7 16 8 17 9 18 10 8 11 7 12
REMARK SMILES IDX 6 13 5 14 4 15 3 16 2 17 1 18
REMARK H PARENT
REMARK Flexibility Score: inf
ROOT
ATOM      1  C   UNL     1     181.661 187.650 199.786  1.00  0.00     0.000 C 
ENDROOT
BRANCH   1   2
ATOM      2  C   UNL     1     180.460 187.016 200.507  1.00  0.00     0.000 C 
BRANCH   2   3
ATOM      3  C   UNL     1     180.786 186.604 201.954  1.00  0.00     0.000 C 
BRANCH   3   4
ATOM      4  C   UNL     1     180.899 185.082 202.125  1.00  0.00     0.000 C 
BRANCH   4   5
ATOM      5  C   UNL     1     182.343 184.576 201.969  1.00  0.00     0.000 C 
BRANCH   5   6
ATOM      6  C   UNL     1     182.597 183.931 200.596  1.00  0.00     0.006 C 
BRANCH   6   7
ATOM      7  C   UNL     1     183.748 184.601 199.832  1.00  0.00     0.053 C 
BRANCH   7   8
ATOM      8  C   UNL     1     184.294 183.672 198.795  1.00  0.00     0.041 C 
ATOM      9  O   UNL     1     184.935 184.127 197.811  1.00  0.00    -0.550 OA
ATOM     10  O   UNL     1     184.140 182.299 198.940  1.00  0.00    -0.550 OA
ENDBRANCH   7   8
ENDBRANCH   6   7
ENDBRANCH   5   6
ENDBRANCH   4   5
ENDBRANCH   3   4
ENDBRANCH   2   3
ENDBRANCH   1   2
BRANCH   1  11
ATOM     11  C   UNL     1     182.782 188.062 200.755  1.00  0.00     0.000 C 
BRANCH  11  12
ATOM     12  C   UNL     1     182.955 189.588 200.846  1.00  0.00    -0.000 C 
BRANCH  12  13
ATOM     13  C   UNL     1     182.242 190.333 199.702  1.00  0.00    -0.000 C 
BRANCH  13  14
ATOM     14  C   UNL     1     183.229 190.981 198.718  1.00  0.00    -0.000 C 
BRANCH  14  15
ATOM     15  C   UNL     1     183.187 190.328 197.326  1.00  0.00    -0.000 C 
BRANCH  15  16
ATOM     16  C   UNL     1     183.975 189.006 197.262  1.00  0.00    -0.000 C 
BRANCH  16  17
ATOM     17  C   UNL     1     185.322 189.016 198.006  1.00  0.00    -0.003 C 
ATOM     18  C   UNL     1     185.823 187.615 198.355  1.00  0.00     0.004 C 
ENDBRANCH  16  17
ENDBRANCH  15  16
ENDBRANCH  14  15
ENDBRANCH  13  14
ENDBRANCH  12  13
ENDBRANCH  11  12
ENDBRANCH   1  11
TORSDOF 14
ENDMDL
MODEL 4
REMARK VINA RESULT:    -3.740      3.019      6.172
REMARK INTER + INTRA:          -8.893
REMARK INTER:                  -6.750
REMARK INTRA:                  -2.142
REMARK UNBOUND:                -2.091
REMARK SMILES CCCCCCCCCCCCCCCC(=O)[O-]
REMARK SMILES IDX 9 1 10 2 11 3 12 4 13 5 14 6 15 7 16 8 17 9 18 10 8 11 7 12
REMARK SMILES IDX 6 13 5 14 4 15 3 16 2 17 1 18
REMARK H PARENT
REMARK Flexibility Score: inf
ROOT
ATOM      1  C   UNL     1     183.259 186.035 200.280  1.00  0.00     0.000 C 
ENDROOT
BRANCH   1   2
ATOM      2  C   UNL     1     183.808 185.423 198.981  1.00  0.00     0.000 C 
BRANCH   2   3
ATOM      3  C   UNL     1     184.955 184.428 199.232  1.00  0.00     0.000 C 
BRANCH   3   4
ATOM      4  C   UNL     1     185.550 184.554 200.643  1.00  0.00     0.000 C 
BRANCH   4   5
ATOM      5  C   UNL     1     185.718 183.191 201.336  1.00  0.00     0.000 C 
BRANCH   5   6
ATOM      6  C   UNL     1     184.399 182.664 201.928  1.00  0.00     0.006 C 
BRANCH   6   7
ATOM      7  C   UNL     1     183.785 181.534 201.090  1.00  0.00     0.053 C 
BRANCH   7   8
ATOM      8  C   UNL     1     182.316 181.757 200.915  1.00  0.00     0.041 C 
ATOM      9  O   UNL     1     181.898 182.753 200.268  1.00  0.00    -0.550 OA
ATOM     10  O   UNL     1     181.407 180.837 201.424  1.00  0.00    -0.550 OA
ENDBRANCH   7   8
ENDBRANCH   6   7
ENDBRANCH   5   6
ENDBRANCH   4   5
ENDBRANCH   3   4
ENDBRANCH   2   3
ENDBRANCH   1   2
BRANCH   1  11
ATOM     11  C   UNL     1     183.042 187.554 200.172  1.00  0.00     0.000 C 
BRANCH  11  12
ATOM     12  C   UNL     1     182.692 188.003 198.744  1.00  0.00    -0.000 C 
BRANCH  12  13
ATOM     13  C   UNL     1     182.912 189.511 198.527  1.00  0.00    -0.000 C 
BRANCH  13  14
ATOM     14  C   UNL     1     184.108 189.805 197.607  1.00  0.00    -0.000 C 
BRANCH  14  15
ATOM     15  C   UNL     1     185.439 189.874 198.375  1.00  0.00    -0.000 C 
BRANCH  15  16
ATOM     16  C   UNL     1     186.360 188.675 198.085  1.00  0.00    -0.000 C 
BRANCH  16  17
ATOM     17  C   UNL     1     186.689 187.797 199.304  1.00  0.00    -0.003 C 
ATOM     18  C   UNL     1     186.572 188.547 200.630  1.00  0.00     0.004 C 
ENDBRANCH  16  17
ENDBRANCH  15  16
ENDBRANCH  14  15
ENDBRANCH  13  14
ENDBRANCH  12  13
ENDBRANCH  11  12
ENDBRANCH   1  11
TORSDOF 14
ENDMDL
MODEL 5
REMARK VINA RESULT:    -3.735      1.412      4.508
REMARK INTER + INTRA:          -8.882
REMARK INTER:                  -7.003
REMARK INTRA:                  -1.879
REMARK UNBOUND:                -2.091
REMARK SMILES CCCCCCCCCCCCCCCC(=O)[O-]
REMARK SMILES IDX 9 1 10 2 11 3 12 4 13 5 14 6 15 7 16 8 17 9 18 10 8 11 7 12
REMARK SMILES IDX 6 13 5 14 4 15 3 16 2 17 1 18
REMARK H PARENT
REMARK Flexibility Score: inf
ROOT
ATOM      1  C   UNL     1     182.226 182.182 200.446  1.00  0.00     0.000 C 
ENDROOT
BRANCH   1   2
ATOM      2  C   UNL     1     183.730 181.864 200.412  1.00  0.00     0.000 C 
BRANCH   2   3
ATOM      3  C   UNL     1     184.417 182.096 201.769  1.00  0.00     0.000 C 
BRANCH   3   4
ATOM      4  C   UNL     1     185.393 183.282 201.744  1.00  0.00     0.000 C 
BRANCH   4   5
ATOM      5  C   UNL     1     185.648 183.807 200.321  1.00  0.00     0.000 C 
BRANCH   5   6
ATOM      6  C   UNL     1     185.236 185.280 200.152  1.00  0.00     0.006 C 
BRANCH   6   7
ATOM      7  C   UNL     1     184.677 185.581 198.755  1.00  0.00     0.053 C 
BRANCH   7   8
ATOM      8  C   UNL     1     185.348 186.785 198.175  1.00  0.00     0.041 C 
ATOM      9  O   UNL     1     185.652 187.760 198.913  1.00  0.00    -0.550 OA
ATOM     10  O   UNL     1     185.685 186.813 196.827  1.00  0.00    -0.550 OA
ENDBRANCH   7   8
ENDBRANCH   6   7
ENDBRANCH   5   6
ENDBRANCH   4   5
ENDBRANCH   3   4
ENDBRANCH   2   3
ENDBRANCH   1   2
BRANCH   1  11
ATOM     11  C   UNL     1     181.944 183.679 200.664  1.00  0.00     0.000 C 
BRANCH  11  12
ATOM     12  C   UNL     1     180.973 183.935 201.828  1.00  0.00    -0.000 C 
BRANCH  12  13
ATOM     13  C   UNL     1     180.722 185.435 202.070  1.00  0.00    -0.000 C 
BRANCH  13  14
ATOM     14  C   UNL     1     179.436 185.933 201.391  1.00  0.00    -0.000 C 
BRANCH  14  15
ATOM     15  C   UNL     1     179.709 187.027 200.343  1.00  0.00    -0.000 C 
BRANCH  15  16
ATOM     16  C   UNL     1     181.181 187.069 199.892  1.00  0.00    -0.000 C 
BRANCH  16  17
ATOM     17  C   UNL     1     181.879 188.426 200.080  1.00  0.00    -0.003 C 
ATOM     18  C   UNL     1     182.976 188.393 201.143  1.00  0.00     0.004 C 
ENDBRANCH  16  17
ENDBRANCH  15  16
ENDBRANCH  14  15
ENDBRANCH  13  14
ENDBRANCH  12  13
ENDBRANCH  11  12
ENDBRANCH   1  11
TORSDOF 14
ENDMDL
MODEL 6
REMARK VINA RESULT:    -3.711      2.881      5.272
REMARK INTER + INTRA:          -8.838
REMARK INTER:                  -6.934
REMARK INTRA:                  -1.905
REMARK UNBOUND:                -2.091
REMARK SMILES CCCCCCCCCCCCCCCC(=O)[O-]
REMARK SMILES IDX 9 1 10 2 11 3 12 4 13 5 14 6 15 7 16 8 17 9 18 10 8 11 7 12
REMARK SMILES IDX 6 13 5 14 4 15 3 16 2 17 1 18
REMARK H PARENT
REMARK Flexibility Score: inf
ROOT
ATOM      1  C   UNL     1     182.571 187.107 199.125  1.00  0.00     0.000 C 
ENDROOT
BRANCH   1   2
ATOM      2  C   UNL     1     183.052 188.551 198.906  1.00  0.00     0.000 C 
BRANCH   2   3
ATOM      3  C   UNL     1     183.960 188.692 197.671  1.00  0.00     0.000 C 
BRANCH   3   4
ATOM      4  C   UNL     1     185.440 188.427 197.990  1.00  0.00     0.000 C 
BRANCH   4   5
ATOM      5  C   UNL     1     186.066 189.539 198.849  1.00  0.00     0.000 C 
BRANCH   5   6
ATOM      6  C   UNL     1     186.448 189.052 200.257  1.00  0.00     0.006 C 
BRANCH   6   7
ATOM      7  C   UNL     1     187.278 187.761 200.231  1.00  0.00     0.053 C 
BRANCH   7   8
ATOM      8  C   UNL     1     188.673 188.029 200.700  1.00  0.00     0.041 C 
ATOM      9  O   UNL     1     189.047 187.635 201.836  1.00  0.00    -0.550 OA
ATOM     10  O   UNL     1     189.577 188.672 199.863  1.00  0.00    -0.550 OA
ENDBRANCH   7   8
ENDBRANCH   6   7
ENDBRANCH   5   6
ENDBRANCH   4   5
ENDBRANCH   3   4
ENDBRANCH   2   3
ENDBRANCH   1   2
BRANCH   1  11
ATOM     11  C   UNL     1     183.177 186.467 200.386  1.00  0.00     0.000 C 
BRANCH  11  12
ATOM     12  C   UNL     1     184.368 185.548 200.069  1.00  0.00    -0.000 C 
BRANCH  12  13
ATOM     13  C   UNL     1     184.253 184.886 198.684  1.00  0.00    -0.000 C 
BRANCH  13  14
ATOM     14  C   UNL     1     184.701 183.415 198.696  1.00  0.00    -0.000 C 
BRANCH  14  15
ATOM     15  C   UNL     1     183.590 182.465 199.175  1.00  0.00    -0.000 C 
BRANCH  15  16
ATOM     16  C   UNL     1     183.867 181.877 200.571  1.00  0.00    -0.000 C 
BRANCH  16  17
ATOM     17  C   UNL     1     182.638 181.779 201.491  1.00  0.00    -0.003 C 
ATOM     18  C   UNL     1     181.773 183.039 201.469  1.00  0.00     0.004 C 
ENDBRANCH  16  17
ENDBRANCH  15  16
ENDBRANCH  14  15
ENDBRANCH  13  14
ENDBRANCH  12  13
ENDBRANCH  11  12
ENDBRANCH   1  11
TORSDOF 14
ENDMDL
MODEL 7
REMARK VINA RESULT:    -3.676      1.374      2.262
REMARK INTER + INTRA:          -8.775
REMARK INTER:                  -6.628
REMARK INTRA:                  -2.147
REMARK UNBOUND:                -2.091
REMARK SMILES CCCCCCCCCCCCCCCC(=O)[O-]
REMARK SMILES IDX 9 1 10 2 11 3 12 4 13 5 14 6 15 7 16 8 17 9 18 10 8 11 7 12
REMARK SMILES IDX 6 13 5 14 4 15 3 16 2 17 1 18
REMARK H PARENT
REMARK Flexibility Score: inf
ROOT
ATOM      1  C   UNL     1     181.861 181.464 201.365  1.00  0.00     0.000 C 
ENDROOT
BRANCH   1   2
ATOM      2  C   UNL     1     181.234 182.789 200.899  1.00  0.00     0.000 C 
BRANCH   2   3
ATOM      3  C   UNL     1     180.868 183.717 202.072  1.00  0.00     0.000 C 
BRANCH   3   4
ATOM      4  C   UNL     1     180.704 185.182 201.639  1.00  0.00     0.000 C 
BRANCH   4   5
ATOM      5  C   UNL     1     181.860 186.073 202.125  1.00  0.00     0.000 C 
BRANCH   5   6
ATOM      6  C   UNL     1     181.568 187.572 201.937  1.00  0.00     0.006 C 
BRANCH   6   7
ATOM      7  C   UNL     1     180.490 187.836 200.878  1.00  0.00     0.053 C 
BRANCH   7   8
ATOM      8  C   UNL     1     180.945 188.896 199.926  1.00  0.00     0.041 C 
ATOM      9  O   UNL     1     181.507 189.937 200.357  1.00  0.00    -0.550 OA
ATOM     10  O   UNL     1     180.793 188.713 198.557  1.00  0.00    -0.550 OA
ENDBRANCH   7   8
ENDBRANCH   6   7
ENDBRANCH   5   6
ENDBRANCH   4   5
ENDBRANCH   3   4
ENDBRANCH   2   3
ENDBRANCH   1   2
BRANCH   1  11
ATOM     11  C   UNL     1     183.372 181.395 201.086  1.00  0.00     0.000 C 
BRANCH  11  12
ATOM     12  C   UNL     1     184.197 182.220 202.088  1.00  0.00    -0.000 C 
BRANCH  12  13
ATOM     13  C   UNL     1     184.977 183.363 201.412  1.00  0.00    -0.000 C 
BRANCH  13  14
ATOM     14  C   UNL     1     184.771 183.395 199.889  1.00  0.00    -0.000 C 
BRANCH  14  15
ATOM     15  C   UNL     1     184.064 184.677 199.416  1.00  0.00    -0.000 C 
BRANCH  15  16
ATOM     16  C   UNL     1     184.868 185.953 199.728  1.00  0.00    -0.000 C 
BRANCH  16  17
ATOM     17  C   UNL     1     184.189 187.268 199.309  1.00  0.00    -0.003 C 
ATOM     18  C   UNL     1     184.713 188.482 200.075  1.00  0.00     0.004 C 
ENDBRANCH  16  17
ENDBRANCH  15  16
ENDBRANCH  14  15
ENDBRANCH  13  14
ENDBRANCH  12  13
ENDBRANCH  11  12
ENDBRANCH   1  11
TORSDOF 14
ENDMDL
MODEL 8
REMARK VINA RESULT:    -3.650      2.854      6.735
REMARK INTER + INTRA:          -8.728
REMARK INTER:                  -6.449
REMARK INTRA:                  -2.279
REMARK UNBOUND:                -2.091
REMARK SMILES CCCCCCCCCCCCCCCC(=O)[O-]
REMARK SMILES IDX 9 1 10 2 11 3 12 4 13 5 14 6 15 7 16 8 17 9 18 10 8 11 7 12
REMARK SMILES IDX 6 13 5 14 4 15 3 16 2 17 1 18
REMARK H PARENT
REMARK Flexibility Score: inf
ROOT
ATOM      1  C   UNL     1     186.509 189.608 199.648  1.00  0.00     0.000 C 
ENDROOT
BRANCH   1   2
ATOM      2  C   UNL     1     186.379 188.197 200.245  1.00  0.00     0.000 C 
BRANCH   2   3
ATOM      3  C   UNL     1     186.141 187.118 199.173  1.00  0.00     0.000 C 
BRANCH   3   4
ATOM      4  C   UNL     1     185.070 186.098 199.587  1.00  0.00     0.000 C 
BRANCH   4   5
ATOM      5  C   UNL     1     184.538 185.284 198.395  1.00  0.00     0.000 C 
BRANCH   5   6
ATOM      6  C   UNL     1     184.930 183.799 198.472  1.00  0.00     0.006 C 
BRANCH   6   7
ATOM      7  C   UNL     1     185.076 183.300 199.916  1.00  0.00     0.053 C 
BRANCH   7   8
ATOM      8  C   UNL     1     183.844 182.566 200.340  1.00  0.00     0.041 C 
ATOM      9  O   UNL     1     183.520 182.520 201.556  1.00  0.00    -0.550 OA
ATOM     10  O   UNL     1     183.026 181.971 199.388  1.00  0.00    -0.550 OA
ENDBRANCH   7   8
ENDBRANCH   6   7
ENDBRANCH   5   6
ENDBRANCH   4   5
ENDBRANCH   3   4
ENDBRANCH   2   3
ENDBRANCH   1   2
BRANCH   1  11
ATOM     11  C   UNL     1     186.009 189.683 198.195  1.00  0.00     0.000 C 
BRANCH  11  12
ATOM     12  C   UNL     1     184.560 190.190 198.093  1.00  0.00    -0.000 C 
BRANCH  12  13
ATOM     13  C   UNL     1     183.630 189.185 197.389  1.00  0.00    -0.000 C 
BRANCH  13  14
ATOM     14  C   UNL     1     182.520 188.663 198.316  1.00  0.00    -0.000 C 
BRANCH  14  15
ATOM     15  C   UNL     1     182.766 189.022 199.791  1.00  0.00    -0.000 C 
BRANCH  15  16
ATOM     16  C   UNL     1     181.870 188.226 200.758  1.00  0.00    -0.000 C 
BRANCH  16  17
ATOM     17  C   UNL     1     181.638 186.756 200.368  1.00  0.00    -0.003 C 
ATOM     18  C   UNL     1     181.973 185.778 201.494  1.00  0.00     0.004 C 
ENDBRANCH  16  17
ENDBRANCH  15  16
ENDBRANCH  14  15
ENDBRANCH  13  14
ENDBRANCH  12  13
ENDBRANCH  11  12
ENDBRANCH   1  11
TORSDOF 14
ENDMDL
MODEL 9
REMARK VINA RESULT:    -3.629      1.899      3.999
REMARK INTER + INTRA:          -8.689
REMARK INTER:                  -6.811
REMARK INTRA:                  -1.878
REMARK UNBOUND:                -2.091
REMARK SMILES CCCCCCCCCCCCCCCC(=O)[O-]
REMARK SMILES IDX 9 1 10 2 11 3 12 4 13 5 14 6 15 7 16 8 17 9 18 10 8 11 7 12
REMARK SMILES IDX 6 13 5 14 4 15 3 16 2 17 1 18
REMARK H PARENT
REMARK Flexibility Score: inf
ROOT
ATOM      1  C   UNL     1     184.585 186.218 199.723  1.00  0.00     0.000 C 
ENDROOT
BRANCH   1   2
ATOM      2  C   UNL     1     183.120 186.663 199.864  1.00  0.00     0.000 C 
BRANCH   2   3
ATOM      3  C   UNL     1     182.979 188.031 200.554  1.00  0.00     0.000 C 
BRANCH   3   4
ATOM      4  C   UNL     1     182.622 189.157 199.571  1.00  0.00     0.000 C 
BRANCH   4   5
ATOM      5  C   UNL     1     182.869 188.760 198.105  1.00  0.00     0.000 C 
BRANCH   5   6
ATOM      6  C   UNL     1     183.968 189.608 197.442  1.00  0.00     0.006 C 
BRANCH   6   7
ATOM      7  C   UNL     1     184.878 190.301 198.464  1.00  0.00     0.053 C 
BRANCH   7   8
ATOM      8  C   UNL     1     186.049 189.431 198.793  1.00  0.00     0.041 C 
ATOM      9  O   UNL     1     186.577 188.715 197.902  1.00  0.00    -0.550 OA
ATOM     10  O   UNL     1     186.592 189.447 200.072  1.00  0.00    -0.550 OA
ENDBRANCH   7   8
ENDBRANCH   6   7
ENDBRANCH   5   6
ENDBRANCH   4   5
ENDBRANCH   3   4
ENDBRANCH   2   3
ENDBRANCH   1   2
BRANCH   1  11
ATOM     11  C   UNL     1     184.843 185.437 198.422  1.00  0.00     0.000 C 
BRANCH  11  12
ATOM     12  C   UNL     1     184.827 183.914 198.633  1.00  0.00    -0.000 C 
BRANCH  12  13
ATOM     13  C   UNL     1     185.451 183.497 199.978  1.00  0.00    -0.000 C 
BRANCH  13  14
ATOM     14  C   UNL     1     184.514 182.608 200.810  1.00  0.00    -0.000 C 
BRANCH  14  15
ATOM     15  C   UNL     1     183.911 183.353 202.014  1.00  0.00    -0.000 C 
BRANCH  15  16
ATOM     16  C   UNL     1     182.375 183.445 201.952  1.00  0.00    -0.000 C 
BRANCH  16  17
ATOM     17  C   UNL     1     181.769 183.264 200.550  1.00  0.00    -0.003 C 
ATOM     18  C   UNL     1     181.007 181.949 200.392  1.00  0.00     0.004 C 
ENDBRANCH  16  17
ENDBRANCH  15  16
ENDBRANCH  14  15
ENDBRANCH  13  14
ENDBRANCH  12  13
ENDBRANCH  11  12
ENDBRANCH   1  11
TORSDOF 14
ENDMDL
