MODEL 1
REMARK VINA RESULT:    -5.345      0.000      0.000
REMARK INTER + INTRA:          -6.616
REMARK INTER:                  -6.438
REMARK INTRA:                  -0.177
REMARK UNBOUND:                -0.177
REMARK SMILES O=c1c(O)c(-c2ccc(O)c(O)c2)oc2cc(O)cc(O)c12
REMARK SMILES IDX 5 1 3 2 2 3 1 4 22 5 20 6 19 7 17 8 16 9 15 10 14 11 6 12
REMARK SMILES IDX 7 13 8 14 9 15 13 16 11 17 10 18 12 20 4 22 21 24 18 26
REMARK H PARENT 10 19 12 21 4 23 21 25 18 27
REMARK Flexibility Score: inf
ROOT
ATOM      1  C   UNL     1     -21.992  56.413   1.771  1.00  0.00     0.180 A 
ATOM      2  C   UNL     1     -23.362  56.652   1.568  1.00  0.00     0.208 A 
ATOM      3  C   UNL     1     -24.297  55.990   2.379  1.00  0.00     0.238 A 
ATOM      4  O   UNL     1     -25.523  56.167   2.156  1.00  0.00    -0.285 OA
ATOM      5  C   UNL     1     -23.851  55.110   3.393  1.00  0.00     0.111 A 
ATOM      6  C   UNL     1     -24.709  54.416   4.300  1.00  0.00     0.134 A 
ATOM      7  C   UNL     1     -24.165  53.470   5.178  1.00  0.00     0.093 A 
ATOM      8  C   UNL     1     -22.791  53.239   5.228  1.00  0.00     0.123 A 
ATOM      9  C   UNL     1     -21.937  53.955   4.389  1.00  0.00     0.094 A 
ATOM     10  C   UNL     1     -22.452  54.879   3.476  1.00  0.00     0.146 A 
ATOM     11  O   UNL     1     -21.607  55.531   2.688  1.00  0.00    -0.452 OA
ENDROOT
BRANCH   1  12
ATOM     12  C   UNL     1     -20.945  57.093   0.974  1.00  0.00     0.025 A 
ATOM     13  C   UNL     1     -20.112  58.038   1.591  1.00  0.00     0.016 A 
ATOM     14  C   UNL     1     -19.132  58.706   0.854  1.00  0.00     0.051 A 
ATOM     15  C   UNL     1     -18.980  58.451  -0.516  1.00  0.00     0.157 A 
ATOM     16  C   UNL     1     -20.805  56.854  -0.405  1.00  0.00     0.062 A 
ATOM     17  C   UNL     1     -19.825  57.523  -1.148  1.00  0.00     0.158 A 
BRANCH  15  18
ATOM     18  O   UNL     1     -18.000  59.118  -1.249  1.00  0.00    -0.504 OA
ATOM     19  H   UNL     1     -17.697  58.785  -2.156  1.00  0.00     0.293 HD
ENDBRANCH  15  18
BRANCH  17  20
ATOM     20  O   UNL     1     -19.710  57.257  -2.512  1.00  0.00    -0.504 OA
ATOM     21  H   UNL     1     -19.274  57.910  -3.152  1.00  0.00     0.293 HD
ENDBRANCH  17  20
ENDBRANCH   1  12
BRANCH   2  22
ATOM     22  O   UNL     1     -23.781  57.508   0.546  1.00  0.00    -0.502 OA
ATOM     23  H   UNL     1     -24.695  57.436   0.116  1.00  0.00     0.293 HD
ENDBRANCH   2  22
BRANCH   6  24
ATOM     24  O   UNL     1     -26.086  54.638   4.396  1.00  0.00    -0.507 OA
ATOM     25  H   UNL     1     -26.567  55.434   4.006  1.00  0.00     0.293 HD
ENDBRANCH   6  24
BRANCH   8  26
ATOM     26  O   UNL     1     -22.284  52.303   6.125  1.00  0.00    -0.508 OA
ATOM     27  H   UNL     1     -21.930  51.406   5.812  1.00  0.00     0.293 HD
ENDBRANCH   8  26
TORSDOF 6
ENDMDL
MODEL 2
REMARK VINA RESULT:    -5.312      2.223      4.177
REMARK INTER + INTRA:          -6.576
REMARK INTER:                  -6.551
REMARK INTRA:                  -0.025
REMARK UNBOUND:                -0.177
REMARK SMILES O=c1c(O)c(-c2ccc(O)c(O)c2)oc2cc(O)cc(O)c12
REMARK SMILES IDX 5 1 3 2 2 3 1 4 22 5 20 6 19 7 17 8 16 9 15 10 14 11 6 12
REMARK SMILES IDX 7 13 8 14 9 15 13 16 11 17 10 18 12 20 4 22 21 24 18 26
REMARK H PARENT 10 19 12 21 4 23 21 25 18 27
REMARK Flexibility Score: inf
ROOT
ATOM      1  C   UNL     1     -23.234  56.810   1.246  1.00  0.00     0.180 A 
ATOM      2  C   UNL     1     -23.576  55.748   2.099  1.00  0.00     0.208 A 
ATOM      3  C   UNL     1     -24.930  55.517   2.391  1.00  0.00     0.238 A 
ATOM      4  O   UNL     1     -25.226  54.598   3.199  1.00  0.00    -0.285 OA
ATOM      5  C   UNL     1     -25.925  56.341   1.813  1.00  0.00     0.111 A 
ATOM      6  C   UNL     1     -27.330  56.173   2.007  1.00  0.00     0.134 A 
ATOM      7  C   UNL     1     -28.217  57.126   1.491  1.00  0.00     0.093 A 
ATOM      8  C   UNL     1     -27.756  58.204   0.735  1.00  0.00     0.123 A 
ATOM      9  C   UNL     1     -26.391  58.344   0.488  1.00  0.00     0.094 A 
ATOM     10  C   UNL     1     -25.478  57.430   1.020  1.00  0.00     0.146 A 
ATOM     11  O   UNL     1     -24.186  57.606   0.771  1.00  0.00    -0.452 OA
ENDROOT
BRANCH   1  12
ATOM     12  C   UNL     1     -21.831  57.100   0.871  1.00  0.00     0.025 A 
ATOM     13  C   UNL     1     -20.879  57.325   1.878  1.00  0.00     0.016 A 
ATOM     14  C   UNL     1     -19.555  57.620   1.547  1.00  0.00     0.051 A 
ATOM     15  C   UNL     1     -19.164  57.710   0.205  1.00  0.00     0.157 A 
ATOM     16  C   UNL     1     -21.440  57.211  -0.475  1.00  0.00     0.062 A 
ATOM     17  C   UNL     1     -20.114  57.508  -0.811  1.00  0.00     0.158 A 
BRANCH  15  18
ATOM     18  O   UNL     1     -17.841  58.002  -0.122  1.00  0.00    -0.504 OA
ATOM     19  H   UNL     1     -17.361  58.802   0.272  1.00  0.00     0.293 HD
ENDBRANCH  15  18
BRANCH  17  20
ATOM     20  O   UNL     1     -19.761  57.605  -2.157  1.00  0.00    -0.504 OA
ATOM     21  H   UNL     1     -20.083  56.937  -2.846  1.00  0.00     0.293 HD
ENDBRANCH  17  20
ENDBRANCH   1  12
BRANCH   2  22
ATOM     22  O   UNL     1     -22.576  54.961   2.677  1.00  0.00    -0.502 OA
ATOM     23  H   UNL     1     -21.591  55.118   2.502  1.00  0.00     0.293 HD
ENDBRANCH   2  22
BRANCH   6  24
ATOM     24  O   UNL     1     -27.901  55.083   2.669  1.00  0.00    -0.507 OA
ATOM     25  H   UNL     1     -28.872  54.815   2.602  1.00  0.00     0.293 HD
ENDBRANCH   6  24
BRANCH   8  26
ATOM     26  O   UNL     1     -28.669  59.124   0.224  1.00  0.00    -0.508 OA
ATOM     27  H   UNL     1     -28.527  59.568  -0.676  1.00  0.00     0.293 HD
ENDBRANCH   8  26
TORSDOF 6
ENDMDL
MODEL 3
REMARK VINA RESULT:    -5.273      1.270      2.949
REMARK INTER + INTRA:          -6.529
REMARK INTER:                  -6.231
REMARK INTRA:                  -0.298
REMARK UNBOUND:                -0.177
REMARK SMILES O=c1c(O)c(-c2ccc(O)c(O)c2)oc2cc(O)cc(O)c12
REMARK SMILES IDX 5 1 3 2 2 3 1 4 22 5 20 6 19 7 17 8 16 9 15 10 14 11 6 12
REMARK SMILES IDX 7 13 8 14 9 15 13 16 11 17 10 18 12 20 4 22 21 24 18 26
REMARK H PARENT 10 19 12 21 4 23 21 25 18 27
REMARK Flexibility Score: inf
ROOT
ATOM      1  C   UNL     1     -21.943  56.472   1.890  1.00  0.00     0.180 A 
ATOM      2  C   UNL     1     -21.631  55.333   2.650  1.00  0.00     0.208 A 
ATOM      3  C   UNL     1     -22.634  54.738   3.431  1.00  0.00     0.238 A 
ATOM      4  O   UNL     1     -22.334  53.751   4.152  1.00  0.00    -0.285 OA
ATOM      5  C   UNL     1     -23.942  55.281   3.431  1.00  0.00     0.111 A 
ATOM      6  C   UNL     1     -25.046  54.737   4.154  1.00  0.00     0.134 A 
ATOM      7  C   UNL     1     -26.261  55.432   4.183  1.00  0.00     0.093 A 
ATOM      8  C   UNL     1     -26.433  56.615   3.465  1.00  0.00     0.123 A 
ATOM      9  C   UNL     1     -25.379  57.124   2.706  1.00  0.00     0.094 A 
ATOM     10  C   UNL     1     -24.142  56.473   2.686  1.00  0.00     0.146 A 
ATOM     11  O   UNL     1     -23.162  56.997   1.961  1.00  0.00    -0.452 OA
ENDROOT
BRANCH   1  12
ATOM     12  C   UNL     1     -20.946  57.139   1.021  1.00  0.00     0.025 A 
ATOM     13  C   UNL     1     -20.032  58.042   1.586  1.00  0.00     0.016 A 
ATOM     14  C   UNL     1     -19.096  58.697   0.783  1.00  0.00     0.051 A 
ATOM     15  C   UNL     1     -19.069  58.472  -0.599  1.00  0.00     0.157 A 
ATOM     16  C   UNL     1     -20.929  56.930  -0.369  1.00  0.00     0.062 A 
ATOM     17  C   UNL     1     -19.994  57.586  -1.178  1.00  0.00     0.158 A 
BRANCH  15  18
ATOM     18  O   UNL     1     -18.132  59.125  -1.398  1.00  0.00    -0.504 OA
ATOM     19  H   UNL     1     -17.706  59.998  -1.110  1.00  0.00     0.293 HD
ENDBRANCH  15  18
BRANCH  17  20
ATOM     20  O   UNL     1     -20.003  57.350  -2.552  1.00  0.00    -0.504 OA
ATOM     21  H   UNL     1     -19.293  57.728  -3.167  1.00  0.00     0.293 HD
ENDBRANCH  17  20
ENDBRANCH   1  12
BRANCH   2  22
ATOM     22  O   UNL     1     -20.328  54.826   2.654  1.00  0.00    -0.502 OA
ATOM     23  H   UNL     1     -20.034  54.077   2.039  1.00  0.00     0.293 HD
ENDBRANCH   2  22
BRANCH   6  24
ATOM     24  O   UNL     1     -25.009  53.515   4.831  1.00  0.00    -0.507 OA
ATOM     25  H   UNL     1     -24.900  52.616   4.386  1.00  0.00     0.293 HD
ENDBRANCH   6  24
BRANCH   8  26
ATOM     26  O   UNL     1     -27.661  57.271   3.505  1.00  0.00    -0.508 OA
ATOM     27  H   UNL     1     -27.792  58.178   3.074  1.00  0.00     0.293 HD
ENDBRANCH   8  26
TORSDOF 6
ENDMDL
MODEL 4
REMARK VINA RESULT:    -4.988      2.135      4.218
REMARK INTER + INTRA:          -6.185
REMARK INTER:                  -6.430
REMARK INTRA:                   0.245
REMARK UNBOUND:                -0.177
REMARK SMILES O=c1c(O)c(-c2ccc(O)c(O)c2)oc2cc(O)cc(O)c12
REMARK SMILES IDX 5 1 3 2 2 3 1 4 22 5 20 6 19 7 17 8 16 9 15 10 14 11 6 12
REMARK SMILES IDX 7 13 8 14 9 15 13 16 11 17 10 18 12 20 4 22 21 24 18 26
REMARK H PARENT 10 19 12 21 4 23 21 25 18 27
REMARK Flexibility Score: inf
ROOT
ATOM      1  C   UNL     1     -22.743  57.047   1.083  1.00  0.00     0.180 A 
ATOM      2  C   UNL     1     -22.968  55.985   1.975  1.00  0.00     0.208 A 
ATOM      3  C   UNL     1     -24.287  55.657   2.324  1.00  0.00     0.238 A 
ATOM      4  O   UNL     1     -24.480  54.740   3.166  1.00  0.00    -0.285 OA
ATOM      5  C   UNL     1     -25.366  56.384   1.765  1.00  0.00     0.111 A 
ATOM      6  C   UNL     1     -26.745  56.113   2.018  1.00  0.00     0.134 A 
ATOM      7  C   UNL     1     -27.722  56.979   1.514  1.00  0.00     0.093 A 
ATOM      8  C   UNL     1     -27.377  58.068   0.714  1.00  0.00     0.123 A 
ATOM      9  C   UNL     1     -26.037  58.308   0.411  1.00  0.00     0.094 A 
ATOM     10  C   UNL     1     -25.035  57.483   0.929  1.00  0.00     0.146 A 
ATOM     11  O   UNL     1     -23.772  57.752   0.626  1.00  0.00    -0.452 OA
ENDROOT
BRANCH   1  12
ATOM     12  C   UNL     1     -21.381  57.435   0.647  1.00  0.00     0.025 A 
ATOM     13  C   UNL     1     -21.178  57.881  -0.668  1.00  0.00     0.016 A 
ATOM     14  C   UNL     1     -19.900  58.233  -1.107  1.00  0.00     0.051 A 
ATOM     15  C   UNL     1     -18.802  58.129  -0.243  1.00  0.00     0.157 A 
ATOM     16  C   UNL     1     -20.275  57.312   1.506  1.00  0.00     0.062 A 
ATOM     17  C   UNL     1     -18.991  57.662   1.069  1.00  0.00     0.158 A 
BRANCH  15  18
ATOM     18  O   UNL     1     -17.528  58.483  -0.682  1.00  0.00    -0.504 OA
ATOM     19  H   UNL     1     -17.316  59.424  -0.993  1.00  0.00     0.293 HD
ENDBRANCH  15  18
BRANCH  17  20
ATOM     20  O   UNL     1     -17.917  57.533   1.950  1.00  0.00    -0.504 OA
ATOM     21  H   UNL     1     -18.044  57.246   2.912  1.00  0.00     0.293 HD
ENDBRANCH  17  20
ENDBRANCH   1  12
BRANCH   2  22
ATOM     22  O   UNL     1     -21.889  55.294   2.532  1.00  0.00    -0.502 OA
ATOM     23  H   UNL     1     -21.896  54.950   3.485  1.00  0.00     0.293 HD
ENDBRANCH   2  22
BRANCH   6  24
ATOM     24  O   UNL     1     -27.203  55.000   2.729  1.00  0.00    -0.507 OA
ATOM     25  H   UNL     1     -27.771  54.263   2.337  1.00  0.00     0.293 HD
ENDBRANCH   6  24
BRANCH   8  26
ATOM     26  O   UNL     1     -28.377  58.900   0.217  1.00  0.00    -0.508 OA
ATOM     27  H   UNL     1     -28.165  59.673  -0.402  1.00  0.00     0.293 HD
ENDBRANCH   8  26
TORSDOF 6
ENDMDL
MODEL 5
REMARK VINA RESULT:    -4.855      2.038      6.643
REMARK INTER + INTRA:          -6.026
REMARK INTER:                  -5.792
REMARK INTRA:                  -0.234
REMARK UNBOUND:                -0.177
REMARK SMILES O=c1c(O)c(-c2ccc(O)c(O)c2)oc2cc(O)cc(O)c12
REMARK SMILES IDX 5 1 3 2 2 3 1 4 22 5 20 6 19 7 17 8 16 9 15 10 14 11 6 12
REMARK SMILES IDX 7 13 8 14 9 15 13 16 11 17 10 18 12 20 4 22 21 24 18 26
REMARK H PARENT 10 19 12 21 4 23 21 25 18 27
REMARK Flexibility Score: inf
ROOT
ATOM      1  C   UNL     1     -24.068  55.042   3.086  1.00  0.00     0.180 A 
ATOM      2  C   UNL     1     -25.363  55.586   3.091  1.00  0.00     0.208 A 
ATOM      3  C   UNL     1     -25.633  56.710   2.295  1.00  0.00     0.238 A 
ATOM      4  O   UNL     1     -26.780  57.226   2.345  1.00  0.00    -0.285 OA
ATOM      5  C   UNL     1     -24.608  57.268   1.493  1.00  0.00     0.111 A 
ATOM      6  C   UNL     1     -24.780  58.383   0.618  1.00  0.00     0.134 A 
ATOM      7  C   UNL     1     -23.664  58.930  -0.029  1.00  0.00     0.093 A 
ATOM      8  C   UNL     1     -22.398  58.365   0.116  1.00  0.00     0.123 A 
ATOM      9  C   UNL     1     -22.229  57.239   0.921  1.00  0.00     0.094 A 
ATOM     10  C   UNL     1     -23.316  56.691   1.608  1.00  0.00     0.146 A 
ATOM     11  O   UNL     1     -23.111  55.627   2.373  1.00  0.00    -0.452 OA
ENDROOT
BRANCH   1  12
ATOM     12  C   UNL     1     -23.714  53.841   3.878  1.00  0.00     0.025 A 
ATOM     13  C   UNL     1     -22.807  53.959   4.942  1.00  0.00     0.016 A 
ATOM     14  C   UNL     1     -22.443  52.837   5.690  1.00  0.00     0.051 A 
ATOM     15  C   UNL     1     -22.969  51.577   5.376  1.00  0.00     0.157 A 
ATOM     16  C   UNL     1     -24.224  52.572   3.552  1.00  0.00     0.062 A 
ATOM     17  C   UNL     1     -23.861  51.444   4.298  1.00  0.00     0.158 A 
BRANCH  15  18
ATOM     18  O   UNL     1     -22.606  50.459   6.125  1.00  0.00    -0.504 OA
ATOM     19  H   UNL     1     -22.716  50.436   7.132  1.00  0.00     0.293 HD
ENDBRANCH  15  18
BRANCH  17  20
ATOM     20  O   UNL     1     -24.391  50.202   3.950  1.00  0.00    -0.504 OA
ATOM     21  H   UNL     1     -25.388  50.028   3.941  1.00  0.00     0.293 HD
ENDBRANCH  17  20
ENDBRANCH   1  12
BRANCH   2  22
ATOM     22  O   UNL     1     -26.354  55.034   3.907  1.00  0.00    -0.502 OA
ATOM     23  H   UNL     1     -27.330  55.293   3.829  1.00  0.00     0.293 HD
ENDBRANCH   2  22
BRANCH   6  24
ATOM     24  O   UNL     1     -26.017  58.967   0.331  1.00  0.00    -0.507 OA
ATOM     25  H   UNL     1     -26.146  59.777  -0.256  1.00  0.00     0.293 HD
ENDBRANCH   6  24
BRANCH   8  26
ATOM     26  O   UNL     1     -21.314  58.927  -0.555  1.00  0.00    -0.508 OA
ATOM     27  H   UNL     1     -21.436  59.451  -1.413  1.00  0.00     0.293 HD
ENDBRANCH   8  26
TORSDOF 6
ENDMDL
MODEL 6
REMARK VINA RESULT:    -4.822      1.585      6.706
REMARK INTER + INTRA:          -5.986
REMARK INTER:                  -5.786
REMARK INTRA:                  -0.200
REMARK UNBOUND:                -0.177
REMARK SMILES O=c1c(O)c(-c2ccc(O)c(O)c2)oc2cc(O)cc(O)c12
REMARK SMILES IDX 5 1 3 2 2 3 1 4 22 5 20 6 19 7 17 8 16 9 15 10 14 11 6 12
REMARK SMILES IDX 7 13 8 14 9 15 13 16 11 17 10 18 12 20 4 22 21 24 18 26
REMARK H PARENT 10 19 12 21 4 23 21 25 18 27
REMARK Flexibility Score: inf
ROOT
ATOM      1  C   UNL     1     -23.163  56.639   2.002  1.00  0.00     0.180 A 
ATOM      2  C   UNL     1     -23.818  57.391   1.012  1.00  0.00     0.208 A 
ATOM      3  C   UNL     1     -23.053  58.037   0.028  1.00  0.00     0.238 A 
ATOM      4  O   UNL     1     -23.642  58.752  -0.823  1.00  0.00    -0.285 OA
ATOM      5  C   UNL     1     -21.643  57.910   0.038  1.00  0.00     0.111 A 
ATOM      6  C   UNL     1     -20.770  58.490  -0.933  1.00  0.00     0.134 A 
ATOM      7  C   UNL     1     -19.384  58.408  -0.750  1.00  0.00     0.093 A 
ATOM      8  C   UNL     1     -18.838  57.716   0.330  1.00  0.00     0.123 A 
ATOM      9  C   UNL     1     -19.681  57.095   1.252  1.00  0.00     0.094 A 
ATOM     10  C   UNL     1     -21.069  57.189   1.118  1.00  0.00     0.146 A 
ATOM     11  O   UNL     1     -21.835  56.594   2.023  1.00  0.00    -0.452 OA
ENDROOT
BRANCH   1  12
ATOM     12  C   UNL     1     -23.904  55.908   3.056  1.00  0.00     0.025 A 
ATOM     13  C   UNL     1     -24.553  56.629   4.070  1.00  0.00     0.016 A 
ATOM     14  C   UNL     1     -25.240  55.960   5.085  1.00  0.00     0.051 A 
ATOM     15  C   UNL     1     -25.276  54.560   5.112  1.00  0.00     0.157 A 
ATOM     16  C   UNL     1     -23.924  54.503   3.096  1.00  0.00     0.062 A 
ATOM     17  C   UNL     1     -24.610  53.829   4.114  1.00  0.00     0.158 A 
BRANCH  15  18
ATOM     18  O   UNL     1     -25.964  53.895   6.124  1.00  0.00    -0.504 OA
ATOM     19  H   UNL     1     -26.427  54.399   6.871  1.00  0.00     0.293 HD
ENDBRANCH  15  18
BRANCH  17  20
ATOM     20  O   UNL     1     -24.614  52.434   4.119  1.00  0.00    -0.504 OA
ATOM     21  H   UNL     1     -23.760  51.895   4.189  1.00  0.00     0.293 HD
ENDBRANCH  17  20
ENDBRANCH   1  12
BRANCH   2  22
ATOM     22  O   UNL     1     -25.209  57.520   1.034  1.00  0.00    -0.502 OA
ATOM     23  H   UNL     1     -25.765  57.570   0.188  1.00  0.00     0.293 HD
ENDBRANCH   2  22
BRANCH   6  24
ATOM     24  O   UNL     1     -21.210  59.125  -2.097  1.00  0.00    -0.507 OA
ATOM     25  H   UNL     1     -21.749  58.680  -2.825  1.00  0.00     0.293 HD
ENDBRANCH   6  24
BRANCH   8  26
ATOM     26  O   UNL     1     -17.455  57.642   0.471  1.00  0.00    -0.508 OA
ATOM     27  H   UNL     1     -16.944  56.795   0.254  1.00  0.00     0.293 HD
ENDBRANCH   8  26
TORSDOF 6
ENDMDL
MODEL 7
REMARK VINA RESULT:    -4.632      3.670      4.982
REMARK INTER + INTRA:          -5.757
REMARK INTER:                  -5.427
REMARK INTRA:                  -0.330
REMARK UNBOUND:                -0.177
REMARK SMILES O=c1c(O)c(-c2ccc(O)c(O)c2)oc2cc(O)cc(O)c12
REMARK SMILES IDX 5 1 3 2 2 3 1 4 22 5 20 6 19 7 17 8 16 9 15 10 14 11 6 12
REMARK SMILES IDX 7 13 8 14 9 15 13 16 11 17 10 18 12 20 4 22 21 24 18 26
REMARK H PARENT 10 19 12 21 4 23 21 25 18 27
REMARK Flexibility Score: inf
ROOT
ATOM      1  C   UNL     1     -24.475  55.798   3.154  1.00  0.00     0.180 A 
ATOM      2  C   UNL     1     -23.421  56.404   3.859  1.00  0.00     0.208 A 
ATOM      3  C   UNL     1     -22.593  55.606   4.663  1.00  0.00     0.238 A 
ATOM      4  O   UNL     1     -21.684  56.162   5.335  1.00  0.00    -0.285 OA
ATOM      5  C   UNL     1     -22.818  54.210   4.741  1.00  0.00     0.111 A 
ATOM      6  C   UNL     1     -22.017  53.300   5.494  1.00  0.00     0.134 A 
ATOM      7  C   UNL     1     -22.411  51.960   5.602  1.00  0.00     0.093 A 
ATOM      8  C   UNL     1     -23.539  51.484   4.934  1.00  0.00     0.123 A 
ATOM      9  C   UNL     1     -24.296  52.352   4.147  1.00  0.00     0.094 A 
ATOM     10  C   UNL     1     -23.949  53.702   4.048  1.00  0.00     0.146 A 
ATOM     11  O   UNL     1     -24.702  54.497   3.299  1.00  0.00    -0.452 OA
ENDROOT
BRANCH   1  12
ATOM     12  C   UNL     1     -25.375  56.570   2.265  1.00  0.00     0.025 A 
ATOM     13  C   UNL     1     -26.567  57.101   2.782  1.00  0.00     0.016 A 
ATOM     14  C   UNL     1     -27.440  57.814   1.958  1.00  0.00     0.051 A 
ATOM     15  C   UNL     1     -27.143  57.994   0.600  1.00  0.00     0.157 A 
ATOM     16  C   UNL     1     -25.089  56.734   0.898  1.00  0.00     0.062 A 
ATOM     17  C   UNL     1     -25.963  57.446   0.068  1.00  0.00     0.158 A 
BRANCH  15  18
ATOM     18  O   UNL     1     -28.014  58.708  -0.220  1.00  0.00    -0.504 OA
ATOM     19  H   UNL     1     -27.711  59.097  -1.105  1.00  0.00     0.293 HD
ENDBRANCH  15  18
BRANCH  17  20
ATOM     20  O   UNL     1     -25.645  57.595  -1.282  1.00  0.00    -0.504 OA
ATOM     21  H   UNL     1     -25.384  56.807  -1.862  1.00  0.00     0.293 HD
ENDBRANCH  17  20
ENDBRANCH   1  12
BRANCH   2  22
ATOM     22  O   UNL     1     -23.230  57.786   3.786  1.00  0.00    -0.502 OA
ATOM     23  H   UNL     1     -23.956  58.450   4.028  1.00  0.00     0.293 HD
ENDBRANCH   2  22
BRANCH   6  24
ATOM     24  O   UNL     1     -20.820  53.651   6.125  1.00  0.00    -0.507 OA
ATOM     25  H   UNL     1     -20.683  53.673   7.124  1.00  0.00     0.293 HD
ENDBRANCH   6  24
BRANCH   8  26
ATOM     26  O   UNL     1     -23.892  50.142   5.053  1.00  0.00    -0.508 OA
ATOM     27  H   UNL     1     -23.918  49.528   4.248  1.00  0.00     0.293 HD
ENDBRANCH   8  26
TORSDOF 6
ENDMDL
MODEL 8
REMARK VINA RESULT:    -4.620      3.127      6.957
REMARK INTER + INTRA:          -5.743
REMARK INTER:                  -5.428
REMARK INTRA:                  -0.315
REMARK UNBOUND:                -0.177
REMARK SMILES O=c1c(O)c(-c2ccc(O)c(O)c2)oc2cc(O)cc(O)c12
REMARK SMILES IDX 5 1 3 2 2 3 1 4 22 5 20 6 19 7 17 8 16 9 15 10 14 11 6 12
REMARK SMILES IDX 7 13 8 14 9 15 13 16 11 17 10 18 12 20 4 22 21 24 18 26
REMARK H PARENT 10 19 12 21 4 23 21 25 18 27
REMARK Flexibility Score: inf
ROOT
ATOM      1  C   UNL     1     -24.369  57.907   0.954  1.00  0.00     0.180 A 
ATOM      2  C   UNL     1     -24.386  58.384  -0.367  1.00  0.00     0.208 A 
ATOM      3  C   UNL     1     -23.174  58.503  -1.065  1.00  0.00     0.238 A 
ATOM      4  O   UNL     1     -23.190  58.983  -2.228  1.00  0.00    -0.285 OA
ATOM      5  C   UNL     1     -21.961  58.128  -0.438  1.00  0.00     0.111 A 
ATOM      6  C   UNL     1     -20.678  58.171  -1.063  1.00  0.00     0.134 A 
ATOM      7  C   UNL     1     -19.532  57.900  -0.306  1.00  0.00     0.093 A 
ATOM      8  C   UNL     1     -19.625  57.528   1.035  1.00  0.00     0.123 A 
ATOM      9  C   UNL     1     -20.878  57.425   1.640  1.00  0.00     0.094 A 
ATOM     10  C   UNL     1     -22.038  57.724   0.921  1.00  0.00     0.146 A 
ATOM     11  O   UNL     1     -23.209  57.625   1.537  1.00  0.00    -0.452 OA
ENDROOT
BRANCH   1  12
ATOM     12  C   UNL     1     -25.609  57.729   1.744  1.00  0.00     0.025 A 
ATOM     13  C   UNL     1     -26.130  58.814   2.466  1.00  0.00     0.016 A 
ATOM     14  C   UNL     1     -27.287  58.664   3.234  1.00  0.00     0.051 A 
ATOM     15  C   UNL     1     -27.932  57.422   3.305  1.00  0.00     0.157 A 
ATOM     16  C   UNL     1     -26.247  56.479   1.834  1.00  0.00     0.062 A 
ATOM     17  C   UNL     1     -27.406  56.324   2.605  1.00  0.00     0.158 A 
BRANCH  15  18
ATOM     18  O   UNL     1     -29.087  57.275   4.070  1.00  0.00    -0.504 OA
ATOM     19  H   UNL     1     -29.067  57.343   5.081  1.00  0.00     0.293 HD
ENDBRANCH  15  18
BRANCH  17  20
ATOM     20  O   UNL     1     -28.016  55.071   2.666  1.00  0.00    -0.504 OA
ATOM     21  H   UNL     1     -28.325  54.666   3.541  1.00  0.00     0.293 HD
ENDBRANCH  17  20
ENDBRANCH   1  12
BRANCH   2  22
ATOM     22  O   UNL     1     -25.592  58.770  -0.959  1.00  0.00    -0.502 OA
ATOM     23  H   UNL     1     -26.072  58.194  -1.641  1.00  0.00     0.293 HD
ENDBRANCH   2  22
BRANCH   6  24
ATOM     24  O   UNL     1     -20.480  58.442  -2.420  1.00  0.00    -0.507 OA
ATOM     25  H   UNL     1     -20.586  59.351  -2.845  1.00  0.00     0.293 HD
ENDBRANCH   6  24
BRANCH   8  26
ATOM     26  O   UNL     1     -18.465  57.251   1.753  1.00  0.00    -0.508 OA
ATOM     27  H   UNL     1     -17.546  57.426   1.364  1.00  0.00     0.293 HD
ENDBRANCH   8  26
TORSDOF 6
ENDMDL
MODEL 9
REMARK VINA RESULT:    -4.544      2.251      7.240
REMARK INTER + INTRA:          -5.651
REMARK INTER:                  -5.459
REMARK INTRA:                  -0.191
REMARK UNBOUND:                -0.177
REMARK SMILES O=c1c(O)c(-c2ccc(O)c(O)c2)oc2cc(O)cc(O)c12
REMARK SMILES IDX 5 1 3 2 2 3 1 4 22 5 20 6 19 7 17 8 16 9 15 10 14 11 6 12
REMARK SMILES IDX 7 13 8 14 9 15 13 16 11 17 10 18 12 20 4 22 21 24 18 26
REMARK H PARENT 10 19 12 21 4 23 21 25 18 27
REMARK Flexibility Score: inf
ROOT
ATOM      1  C   UNL     1     -23.026  57.079   2.028  1.00  0.00     0.180 A 
ATOM      2  C   UNL     1     -21.762  56.652   2.471  1.00  0.00     0.208 A 
ATOM      3  C   UNL     1     -20.647  56.853   1.642  1.00  0.00     0.238 A 
ATOM      4  O   UNL     1     -19.527  56.420   2.020  1.00  0.00    -0.285 OA
ATOM      5  C   UNL     1     -20.807  57.492   0.389  1.00  0.00     0.111 A 
ATOM      6  C   UNL     1     -19.740  57.782  -0.515  1.00  0.00     0.134 A 
ATOM      7  C   UNL     1     -20.032  58.300  -1.784  1.00  0.00     0.093 A 
ATOM      8  C   UNL     1     -21.342  58.597  -2.157  1.00  0.00     0.123 A 
ATOM      9  C   UNL     1     -22.386  58.373  -1.259  1.00  0.00     0.094 A 
ATOM     10  C   UNL     1     -22.132  57.824   0.000  1.00  0.00     0.146 A 
ATOM     11  O   UNL     1     -23.154  57.616   0.820  1.00  0.00    -0.452 OA
ENDROOT
BRANCH   1  12
ATOM     12  C   UNL     1     -24.244  56.925   2.857  1.00  0.00     0.025 A 
ATOM     13  C   UNL     1     -24.364  57.655   4.050  1.00  0.00     0.016 A 
ATOM     14  C   UNL     1     -25.495  57.510   4.857  1.00  0.00     0.051 A 
ATOM     15  C   UNL     1     -26.516  56.623   4.492  1.00  0.00     0.157 A 
ATOM     16  C   UNL     1     -25.261  56.020   2.504  1.00  0.00     0.062 A 
ATOM     17  C   UNL     1     -26.395  55.872   3.311  1.00  0.00     0.158 A 
BRANCH  15  18
ATOM     18  O   UNL     1     -27.644  56.483   5.298  1.00  0.00    -0.504 OA
ATOM     19  H   UNL     1     -27.606  55.993   6.184  1.00  0.00     0.293 HD
ENDBRANCH  15  18
BRANCH  17  20
ATOM     20  O   UNL     1     -27.387  54.969   2.927  1.00  0.00    -0.504 OA
ATOM     21  H   UNL     1     -28.058  55.186   2.201  1.00  0.00     0.293 HD
ENDBRANCH  17  20
ENDBRANCH   1  12
BRANCH   2  22
ATOM     22  O   UNL     1     -21.630  56.004   3.701  1.00  0.00    -0.502 OA
ATOM     23  H   UNL     1     -21.220  56.453   4.512  1.00  0.00     0.293 HD
ENDBRANCH   2  22
BRANCH   6  24
ATOM     24  O   UNL     1     -18.388  57.609  -0.208  1.00  0.00    -0.507 OA
ATOM     25  H   UNL     1     -18.038  57.003   0.519  1.00  0.00     0.293 HD
ENDBRANCH   6  24
BRANCH   8  26
ATOM     26  O   UNL     1     -21.594  59.125  -3.421  1.00  0.00    -0.508 OA
ATOM     27  H   UNL     1     -22.536  59.214  -3.781  1.00  0.00     0.293 HD
ENDBRANCH   8  26
TORSDOF 6
ENDMDL
