MODEL 1
REMARK VINA RESULT:    -5.040      0.000      0.000
REMARK INTER + INTRA:          -6.226
REMARK INTER:                  -5.924
REMARK INTRA:                  -0.303
REMARK UNBOUND:                -0.303
REMARK SMILES O=c1cc(-c2ccc(O)c(O)c2)oc2cc(O)cc(O)c12
REMARK SMILES IDX 4 1 3 2 2 3 1 4 21 5 19 6 18 7 16 8 15 9 14 10 13 11 5 12
REMARK SMILES IDX 6 13 7 14 8 15 12 16 10 17 9 18 11 20 20 22 17 24
REMARK H PARENT 9 19 11 21 20 23 17 25
REMARK Flexibility Score: inf
ROOT
ATOM      1  C   UNL     1     -22.360  23.449  14.390  1.00  0.00     0.138 A 
ATOM      2  C   UNL     1     -23.416  23.300  15.301  1.00  0.00     0.100 A 
ATOM      3  C   UNL     1     -23.139  23.194  16.665  1.00  0.00     0.197 A 
ATOM      4  O   UNL     1     -24.101  22.999  17.452  1.00  0.00    -0.289 OA
ATOM      5  C   UNL     1     -21.801  23.269  17.120  1.00  0.00     0.107 A 
ATOM      6  C   UNL     1     -21.405  23.214  18.489  1.00  0.00     0.134 A 
ATOM      7  C   UNL     1     -20.042  23.181  18.812  1.00  0.00     0.093 A 
ATOM      8  C   UNL     1     -19.064  23.262  17.821  1.00  0.00     0.123 A 
ATOM      9  C   UNL     1     -19.441  23.370  16.482  1.00  0.00     0.094 A 
ATOM     10  C   UNL     1     -20.792  23.371  16.125  1.00  0.00     0.146 A 
ATOM     11  O   UNL     1     -21.110  23.461  14.838  1.00  0.00    -0.456 OA
ENDROOT
BRANCH   1  12
ATOM     12  C   UNL     1     -22.598  23.568  12.928  1.00  0.00     0.021 A 
ATOM     13  C   UNL     1     -23.674  22.876  12.345  1.00  0.00     0.016 A 
ATOM     14  C   UNL     1     -23.915  22.965  10.972  1.00  0.00     0.051 A 
ATOM     15  C   UNL     1     -23.080  23.738  10.157  1.00  0.00     0.157 A 
ATOM     16  C   UNL     1     -21.754  24.334  12.100  1.00  0.00     0.062 A 
ATOM     17  C   UNL     1     -21.996  24.421  10.721  1.00  0.00     0.158 A 
BRANCH  15  18
ATOM     18  O   UNL     1     -23.318  23.831   8.787  1.00  0.00    -0.504 OA
ATOM     19  H   UNL     1     -22.660  23.465   8.109  1.00  0.00     0.293 HD
ENDBRANCH  15  18
BRANCH  17  20
ATOM     20  O   UNL     1     -21.159  25.181   9.906  1.00  0.00    -0.504 OA
ATOM     21  H   UNL     1     -20.208  25.400  10.178  1.00  0.00     0.293 HD
ENDBRANCH  17  20
ENDBRANCH   1  12
BRANCH   6  22
ATOM     22  O   UNL     1     -22.300  23.216  19.562  1.00  0.00    -0.507 OA
ATOM     23  H   UNL     1     -23.243  23.571  19.526  1.00  0.00     0.293 HD
ENDBRANCH   6  22
BRANCH   8  24
ATOM     24  O   UNL     1     -17.718  23.241  18.180  1.00  0.00    -0.508 OA
ATOM     25  H   UNL     1     -17.343  22.523  18.788  1.00  0.00     0.293 HD
ENDBRANCH   8  24
TORSDOF 5
ENDMDL
MODEL 2
REMARK VINA RESULT:    -4.792      9.314     11.705
REMARK INTER + INTRA:          -5.935
REMARK INTER:                  -5.617
REMARK INTRA:                  -0.318
REMARK UNBOUND:                -0.303
REMARK SMILES O=c1cc(-c2ccc(O)c(O)c2)oc2cc(O)cc(O)c12
REMARK SMILES IDX 4 1 3 2 2 3 1 4 21 5 19 6 18 7 16 8 15 9 14 10 13 11 5 12
REMARK SMILES IDX 6 13 7 14 8 15 12 16 10 17 9 18 11 20 20 22 17 24
REMARK H PARENT 9 19 11 21 20 23 17 25
REMARK Flexibility Score: inf
ROOT
ATOM      1  C   UNL     1     -20.678  31.828  22.137  1.00  0.00     0.138 A 
ATOM      2  C   UNL     1     -19.723  31.587  23.136  1.00  0.00     0.100 A 
ATOM      3  C   UNL     1     -19.057  30.361  23.172  1.00  0.00     0.197 A 
ATOM      4  O   UNL     1     -18.253  30.150  24.116  1.00  0.00    -0.289 OA
ATOM      5  C   UNL     1     -19.328  29.384  22.185  1.00  0.00     0.107 A 
ATOM      6  C   UNL     1     -18.681  28.116  22.099  1.00  0.00     0.134 A 
ATOM      7  C   UNL     1     -19.114  27.183  21.147  1.00  0.00     0.093 A 
ATOM      8  C   UNL     1     -20.126  27.496  20.240  1.00  0.00     0.123 A 
ATOM      9  C   UNL     1     -20.730  28.753  20.281  1.00  0.00     0.094 A 
ATOM     10  C   UNL     1     -20.344  29.693  21.240  1.00  0.00     0.146 A 
ATOM     11  O   UNL     1     -20.952  30.873  21.255  1.00  0.00    -0.456 OA
ENDROOT
BRANCH   1  12
ATOM     12  C   UNL     1     -21.414  33.115  22.051  1.00  0.00     0.021 A 
ATOM     13  C   UNL     1     -21.116  34.143  22.963  1.00  0.00     0.016 A 
ATOM     14  C   UNL     1     -21.799  35.361  22.908  1.00  0.00     0.051 A 
ATOM     15  C   UNL     1     -22.797  35.569  21.949  1.00  0.00     0.157 A 
ATOM     16  C   UNL     1     -22.429  33.326  21.097  1.00  0.00     0.062 A 
ATOM     17  C   UNL     1     -23.115  34.549  21.044  1.00  0.00     0.158 A 
BRANCH  15  18
ATOM     18  O   UNL     1     -23.479  36.782  21.890  1.00  0.00    -0.504 OA
ATOM     19  H   UNL     1     -23.454  37.365  21.061  1.00  0.00     0.293 HD
ENDBRANCH  15  18
BRANCH  17  20
ATOM     20  O   UNL     1     -24.117  34.754  20.097  1.00  0.00    -0.504 OA
ATOM     21  H   UNL     1     -24.796  34.035  19.878  1.00  0.00     0.293 HD
ENDBRANCH  17  20
ENDBRANCH   1  12
BRANCH   6  22
ATOM     22  O   UNL     1     -17.601  27.734  22.900  1.00  0.00    -0.507 OA
ATOM     23  H   UNL     1     -17.556  26.883  23.440  1.00  0.00     0.293 HD
ENDBRANCH   6  22
BRANCH   8  24
ATOM     24  O   UNL     1     -20.521  26.549  19.298  1.00  0.00    -0.508 OA
ATOM     25  H   UNL     1     -20.353  25.560  19.437  1.00  0.00     0.293 HD
ENDBRANCH   8  24
TORSDOF 5
ENDMDL
MODEL 3
REMARK VINA RESULT:    -4.577      7.637     10.754
REMARK INTER + INTRA:          -5.683
REMARK INTER:                  -5.366
REMARK INTRA:                  -0.317
REMARK UNBOUND:                -0.303
REMARK SMILES O=c1cc(-c2ccc(O)c(O)c2)oc2cc(O)cc(O)c12
REMARK SMILES IDX 4 1 3 2 2 3 1 4 21 5 19 6 18 7 16 8 15 9 14 10 13 11 5 12
REMARK SMILES IDX 6 13 7 14 8 15 12 16 10 17 9 18 11 20 20 22 17 24
REMARK H PARENT 9 19 11 21 20 23 17 25
REMARK Flexibility Score: inf
ROOT
ATOM      1  C   UNL     1     -19.767  29.794  22.093  1.00  0.00     0.138 A 
ATOM      2  C   UNL     1     -18.718  29.357  22.915  1.00  0.00     0.100 A 
ATOM      3  C   UNL     1     -18.202  28.071  22.750  1.00  0.00     0.197 A 
ATOM      4  O   UNL     1     -17.306  27.684  23.543  1.00  0.00    -0.289 OA
ATOM      5  C   UNL     1     -18.719  27.230  21.735  1.00  0.00     0.107 A 
ATOM      6  C   UNL     1     -18.244  25.916  21.448  1.00  0.00     0.134 A 
ATOM      7  C   UNL     1     -18.911  25.133  20.497  1.00  0.00     0.093 A 
ATOM      8  C   UNL     1     -19.995  25.638  19.780  1.00  0.00     0.123 A 
ATOM      9  C   UNL     1     -20.435  26.941  20.014  1.00  0.00     0.094 A 
ATOM     10  C   UNL     1     -19.813  27.735  20.981  1.00  0.00     0.146 A 
ATOM     11  O   UNL     1     -20.270  28.966  21.184  1.00  0.00    -0.456 OA
ENDROOT
BRANCH   1  12
ATOM     12  C   UNL     1     -20.351  31.153  22.225  1.00  0.00     0.021 A 
ATOM     13  C   UNL     1     -19.747  32.084  23.089  1.00  0.00     0.016 A 
ATOM     14  C   UNL     1     -20.281  33.366  23.236  1.00  0.00     0.051 A 
ATOM     15  C   UNL     1     -21.433  33.737  22.531  1.00  0.00     0.157 A 
ATOM     16  C   UNL     1     -21.517  31.529  21.529  1.00  0.00     0.062 A 
ATOM     17  C   UNL     1     -22.053  32.816  21.679  1.00  0.00     0.158 A 
BRANCH  15  18
ATOM     18  O   UNL     1     -21.968  35.016  22.675  1.00  0.00    -0.504 OA
ATOM     19  H   UNL     1     -22.065  35.642  21.883  1.00  0.00     0.293 HD
ENDBRANCH  15  18
BRANCH  17  20
ATOM     20  O   UNL     1     -23.206  33.185  20.987  1.00  0.00    -0.504 OA
ATOM     21  H   UNL     1     -23.228  33.227  19.976  1.00  0.00     0.293 HD
ENDBRANCH  17  20
ENDBRANCH   1  12
BRANCH   6  22
ATOM     22  O   UNL     1     -17.117  25.346  22.046  1.00  0.00    -0.507 OA
ATOM     23  H   UNL     1     -16.163  25.609  21.849  1.00  0.00     0.293 HD
ENDBRANCH   6  22
BRANCH   8  24
ATOM     24  O   UNL     1     -20.624  24.837  18.830  1.00  0.00    -0.508 OA
ATOM     25  H   UNL     1     -21.395  24.228  19.077  1.00  0.00     0.293 HD
ENDBRANCH   8  24
TORSDOF 5
ENDMDL
MODEL 4
REMARK VINA RESULT:    -4.548      2.298      7.534
REMARK INTER + INTRA:          -5.649
REMARK INTER:                  -5.373
REMARK INTRA:                  -0.275
REMARK UNBOUND:                -0.303
REMARK SMILES O=c1cc(-c2ccc(O)c(O)c2)oc2cc(O)cc(O)c12
REMARK SMILES IDX 4 1 3 2 2 3 1 4 21 5 19 6 18 7 16 8 15 9 14 10 13 11 5 12
REMARK SMILES IDX 6 13 7 14 8 15 12 16 10 17 9 18 11 20 20 22 17 24
REMARK H PARENT 9 19 11 21 20 23 17 25
REMARK Flexibility Score: inf
ROOT
ATOM      1  C   UNL     1     -20.008  23.504  17.944  1.00  0.00     0.138 A 
ATOM      2  C   UNL     1     -21.353  23.222  18.220  1.00  0.00     0.100 A 
ATOM      3  C   UNL     1     -22.275  23.166  17.173  1.00  0.00     0.197 A 
ATOM      4  O   UNL     1     -23.485  22.973  17.458  1.00  0.00    -0.289 OA
ATOM      5  C   UNL     1     -21.840  23.364  15.841  1.00  0.00     0.107 A 
ATOM      6  C   UNL     1     -22.682  23.289  14.693  1.00  0.00     0.134 A 
ATOM      7  C   UNL     1     -22.163  23.618  13.433  1.00  0.00     0.093 A 
ATOM      8  C   UNL     1     -20.820  23.958  13.274  1.00  0.00     0.123 A 
ATOM      9  C   UNL     1     -19.975  23.982  14.384  1.00  0.00     0.094 A 
ATOM     10  C   UNL     1     -20.470  23.692  15.657  1.00  0.00     0.146 A 
ATOM     11  O   UNL     1     -19.636  23.739  16.690  1.00  0.00    -0.456 OA
ENDROOT
BRANCH   1  12
ATOM     12  C   UNL     1     -18.986  23.574  19.019  1.00  0.00     0.021 A 
ATOM     13  C   UNL     1     -17.768  22.890  18.859  1.00  0.00     0.016 A 
ATOM     14  C   UNL     1     -16.792  22.933  19.858  1.00  0.00     0.051 A 
ATOM     15  C   UNL     1     -17.021  23.652  21.038  1.00  0.00     0.157 A 
ATOM     16  C   UNL     1     -19.214  24.285  20.214  1.00  0.00     0.062 A 
ATOM     17  C   UNL     1     -18.234  24.326  21.217  1.00  0.00     0.158 A 
BRANCH  15  18
ATOM     18  O   UNL     1     -16.050  23.699  22.036  1.00  0.00    -0.504 OA
ATOM     19  H   UNL     1     -16.299  23.704  23.019  1.00  0.00     0.293 HD
ENDBRANCH  15  18
BRANCH  17  20
ATOM     20  O   UNL     1     -18.464  25.032  22.397  1.00  0.00    -0.504 OA
ATOM     21  H   UNL     1     -17.991  25.905  22.594  1.00  0.00     0.293 HD
ENDBRANCH  17  20
ENDBRANCH   1  12
BRANCH   6  22
ATOM     22  O   UNL     1     -24.018  22.878  14.728  1.00  0.00    -0.507 OA
ATOM     23  H   UNL     1     -24.612  22.918  15.542  1.00  0.00     0.293 HD
ENDBRANCH   6  22
BRANCH   8  24
ATOM     24  O   UNL     1     -20.335  24.264  12.005  1.00  0.00    -0.508 OA
ATOM     25  H   UNL     1     -20.202  23.548  11.301  1.00  0.00     0.293 HD
ENDBRANCH   8  24
TORSDOF 5
ENDMDL
MODEL 5
REMARK VINA RESULT:    -4.540      2.748      5.002
REMARK INTER + INTRA:          -5.639
REMARK INTER:                  -5.373
REMARK INTRA:                  -0.266
REMARK UNBOUND:                -0.303
REMARK SMILES O=c1cc(-c2ccc(O)c(O)c2)oc2cc(O)cc(O)c12
REMARK SMILES IDX 4 1 3 2 2 3 1 4 21 5 19 6 18 7 16 8 15 9 14 10 13 11 5 12
REMARK SMILES IDX 6 13 7 14 8 15 12 16 10 17 9 18 11 20 20 22 17 24
REMARK H PARENT 9 19 11 21 20 23 17 25
REMARK Flexibility Score: inf
ROOT
ATOM      1  C   UNL     1     -19.556  23.832  17.824  1.00  0.00     0.138 A 
ATOM      2  C   UNL     1     -18.343  23.195  18.121  1.00  0.00     0.100 A 
ATOM      3  C   UNL     1     -17.735  23.411  19.359  1.00  0.00     0.197 A 
ATOM      4  O   UNL     1     -16.616  22.876  19.573  1.00  0.00    -0.289 OA
ATOM      5  C   UNL     1     -18.362  24.246  20.314  1.00  0.00     0.107 A 
ATOM      6  C   UNL     1     -17.855  24.506  21.622  1.00  0.00     0.134 A 
ATOM      7  C   UNL     1     -18.503  25.442  22.439  1.00  0.00     0.093 A 
ATOM      8  C   UNL     1     -19.670  26.079  22.020  1.00  0.00     0.123 A 
ATOM      9  C   UNL     1     -20.204  25.792  20.764  1.00  0.00     0.094 A 
ATOM     10  C   UNL     1     -19.563  24.889  19.912  1.00  0.00     0.146 A 
ATOM     11  O   UNL     1     -20.096  24.653  18.718  1.00  0.00    -0.456 OA
ENDROOT
BRANCH   1  12
ATOM     12  C   UNL     1     -20.246  23.635  16.524  1.00  0.00     0.021 A 
ATOM     13  C   UNL     1     -21.537  23.077  16.505  1.00  0.00     0.016 A 
ATOM     14  C   UNL     1     -22.205  22.875  15.295  1.00  0.00     0.051 A 
ATOM     15  C   UNL     1     -21.592  23.217  14.083  1.00  0.00     0.157 A 
ATOM     16  C   UNL     1     -19.630  23.965  15.300  1.00  0.00     0.062 A 
ATOM     17  C   UNL     1     -20.302  23.760  14.086  1.00  0.00     0.158 A 
BRANCH  15  18
ATOM     18  O   UNL     1     -22.256  23.019  12.874  1.00  0.00    -0.504 OA
ATOM     19  H   UNL     1     -21.816  23.232  11.987  1.00  0.00     0.293 HD
ENDBRANCH  15  18
BRANCH  17  20
ATOM     20  O   UNL     1     -19.689  24.089  12.878  1.00  0.00    -0.504 OA
ATOM     21  H   UNL     1     -19.467  25.048  12.639  1.00  0.00     0.293 HD
ENDBRANCH  17  20
ENDBRANCH   1  12
BRANCH   6  22
ATOM     22  O   UNL     1     -16.744  23.861  22.172  1.00  0.00    -0.507 OA
ATOM     23  H   UNL     1     -16.592  22.864  22.162  1.00  0.00     0.293 HD
ENDBRANCH   6  22
BRANCH   8  24
ATOM     24  O   UNL     1     -20.296  26.992  22.866  1.00  0.00    -0.508 OA
ATOM     25  H   UNL     1     -19.796  27.443  23.623  1.00  0.00     0.293 HD
ENDBRANCH   8  24
TORSDOF 5
ENDMDL
MODEL 6
REMARK VINA RESULT:    -4.528     13.170     14.773
REMARK INTER + INTRA:          -5.625
REMARK INTER:                  -5.341
REMARK INTRA:                  -0.284
REMARK UNBOUND:                -0.303
REMARK SMILES O=c1cc(-c2ccc(O)c(O)c2)oc2cc(O)cc(O)c12
REMARK SMILES IDX 4 1 3 2 2 3 1 4 21 5 19 6 18 7 16 8 15 9 14 10 13 11 5 12
REMARK SMILES IDX 6 13 7 14 8 15 12 16 10 17 9 18 11 20 20 22 17 24
REMARK H PARENT 9 19 11 21 20 23 17 25
REMARK Flexibility Score: inf
ROOT
ATOM      1  C   UNL     1     -22.207  35.840  21.929  1.00  0.00     0.138 A 
ATOM      2  C   UNL     1     -23.092  35.177  21.067  1.00  0.00     0.100 A 
ATOM      3  C   UNL     1     -23.000  33.793  20.916  1.00  0.00     0.197 A 
ATOM      4  O   UNL     1     -23.766  33.234  20.089  1.00  0.00    -0.289 OA
ATOM      5  C   UNL     1     -22.037  33.066  21.655  1.00  0.00     0.107 A 
ATOM      6  C   UNL     1     -21.879  31.649  21.612  1.00  0.00     0.134 A 
ATOM      7  C   UNL     1     -20.814  31.052  22.299  1.00  0.00     0.093 A 
ATOM      8  C   UNL     1     -19.940  31.812  23.075  1.00  0.00     0.123 A 
ATOM      9  C   UNL     1     -20.117  33.193  23.168  1.00  0.00     0.094 A 
ATOM     10  C   UNL     1     -21.149  33.823  22.467  1.00  0.00     0.146 A 
ATOM     11  O   UNL     1     -21.276  35.141  22.570  1.00  0.00    -0.456 OA
ENDROOT
BRANCH   1  12
ATOM     12  C   UNL     1     -22.262  37.311  22.129  1.00  0.00     0.021 A 
ATOM     13  C   UNL     1     -21.979  37.846  23.398  1.00  0.00     0.016 A 
ATOM     14  C   UNL     1     -22.031  39.225  23.614  1.00  0.00     0.051 A 
ATOM     15  C   UNL     1     -22.375  40.092  22.570  1.00  0.00     0.157 A 
ATOM     16  C   UNL     1     -22.620  38.188  21.086  1.00  0.00     0.062 A 
ATOM     17  C   UNL     1     -22.673  39.572  21.305  1.00  0.00     0.158 A 
BRANCH  15  18
ATOM     18  O   UNL     1     -22.426  41.468  22.781  1.00  0.00    -0.504 OA
ATOM     19  H   UNL     1     -23.257  41.918  23.148  1.00  0.00     0.293 HD
ENDBRANCH  15  18
BRANCH  17  20
ATOM     20  O   UNL     1     -23.027  40.436  20.270  1.00  0.00    -0.504 OA
ATOM     21  H   UNL     1     -22.735  40.268  19.315  1.00  0.00     0.293 HD
ENDBRANCH  17  20
ENDBRANCH   1  12
BRANCH   6  22
ATOM     22  O   UNL     1     -22.746  30.787  20.936  1.00  0.00    -0.507 OA
ATOM     23  H   UNL     1     -22.714  29.780  20.985  1.00  0.00     0.293 HD
ENDBRANCH   6  22
BRANCH   8  24
ATOM     24  O   UNL     1     -18.901  31.183  23.757  1.00  0.00    -0.508 OA
ATOM     25  H   UNL     1     -18.250  31.705  24.331  1.00  0.00     0.293 HD
ENDBRANCH   8  24
TORSDOF 5
ENDMDL
MODEL 7
REMARK VINA RESULT:    -4.491      7.928     10.804
REMARK INTER + INTRA:          -5.581
REMARK INTER:                  -5.286
REMARK INTRA:                  -0.295
REMARK UNBOUND:                -0.303
REMARK SMILES O=c1cc(-c2ccc(O)c(O)c2)oc2cc(O)cc(O)c12
REMARK SMILES IDX 4 1 3 2 2 3 1 4 21 5 19 6 18 7 16 8 15 9 14 10 13 11 5 12
REMARK SMILES IDX 6 13 7 14 8 15 12 16 10 17 9 18 11 20 20 22 17 24
REMARK H PARENT 9 19 11 21 20 23 17 25
REMARK Flexibility Score: inf
ROOT
ATOM      1  C   UNL     1     -19.920  29.761  21.893  1.00  0.00     0.138 A 
ATOM      2  C   UNL     1     -20.430  29.006  20.828  1.00  0.00     0.100 A 
ATOM      3  C   UNL     1     -19.971  27.703  20.624  1.00  0.00     0.197 A 
ATOM      4  O   UNL     1     -20.400  27.072  19.624  1.00  0.00    -0.289 OA
ATOM      5  C   UNL     1     -19.019  27.146  21.511  1.00  0.00     0.107 A 
ATOM      6  C   UNL     1     -18.510  25.817  21.425  1.00  0.00     0.134 A 
ATOM      7  C   UNL     1     -17.483  25.413  22.289  1.00  0.00     0.093 A 
ATOM      8  C   UNL     1     -16.992  26.270  23.273  1.00  0.00     0.123 A 
ATOM      9  C   UNL     1     -17.520  27.555  23.401  1.00  0.00     0.094 A 
ATOM     10  C   UNL     1     -18.520  27.998  22.533  1.00  0.00     0.146 A 
ATOM     11  O   UNL     1     -18.987  29.233  22.678  1.00  0.00    -0.456 OA
ENDROOT
BRANCH   1  12
ATOM     12  C   UNL     1     -20.375  31.151  22.157  1.00  0.00     0.021 A 
ATOM     13  C   UNL     1     -19.668  31.947  23.075  1.00  0.00     0.016 A 
ATOM     14  C   UNL     1     -20.079  33.254  23.346  1.00  0.00     0.051 A 
ATOM     15  C   UNL     1     -21.209  33.785  22.712  1.00  0.00     0.157 A 
ATOM     16  C   UNL     1     -21.519  31.687  21.532  1.00  0.00     0.062 A 
ATOM     17  C   UNL     1     -21.932  32.999  21.806  1.00  0.00     0.158 A 
BRANCH  15  18
ATOM     18  O   UNL     1     -21.621  35.089  22.979  1.00  0.00    -0.504 OA
ATOM     19  H   UNL     1     -20.986  35.777  23.365  1.00  0.00     0.293 HD
ENDBRANCH  15  18
BRANCH  17  20
ATOM     20  O   UNL     1     -23.063  33.526  21.186  1.00  0.00    -0.504 OA
ATOM     21  H   UNL     1     -23.014  34.359  20.611  1.00  0.00     0.293 HD
ENDBRANCH  17  20
ENDBRANCH   1  12
BRANCH   6  22
ATOM     22  O   UNL     1     -18.989  24.853  20.534  1.00  0.00    -0.507 OA
ATOM     23  H   UNL     1     -18.732  24.787  19.561  1.00  0.00     0.293 HD
ENDBRANCH   6  22
BRANCH   8  24
ATOM     24  O   UNL     1     -15.981  25.830  24.125  1.00  0.00    -0.508 OA
ATOM     25  H   UNL     1     -15.526  26.457  24.777  1.00  0.00     0.293 HD
ENDBRANCH   8  24
TORSDOF 5
ENDMDL
