MODEL 1
REMARK VINA RESULT:    -2.720      0.000      0.000
REMARK INTER + INTRA:          -5.748
REMARK INTER:                  -6.218
REMARK INTRA:                   0.470
REMARK UNBOUND:                 0.470
REMARK SMILES CCCCCCCCCCCCCCCCCCCCCCCC(=O)[O-]
REMARK SMILES IDX 13 1 14 2 15 3 16 4 17 5 18 6 19 7 20 8 21 9 22 10 23 11
REMARK SMILES IDX 24 12 25 13 26 14 12 15 11 16 10 17 9 18 8 19 7 20 6 21 5 22
REMARK SMILES IDX 4 23 3 24 2 25 1 26
REMARK H PARENT
REMARK Flexibility Score: inf
ROOT
ATOM      1  C   UNL     1     121.505  69.555   0.215  1.00  0.00     0.000 C 
ENDROOT
BRANCH   1   2
ATOM      2  C   UNL     1     120.435  70.665   0.281  1.00  0.00     0.000 C 
BRANCH   2   3
ATOM      3  C   UNL     1     121.014  72.055   0.618  1.00  0.00     0.000 C 
BRANCH   3   4
ATOM      4  C   UNL     1     120.625  72.562   2.020  1.00  0.00     0.000 C 
BRANCH   4   5
ATOM      5  C   UNL     1     120.714  71.456   3.088  1.00  0.00     0.000 C 
BRANCH   5   6
ATOM      6  C   UNL     1     120.293  71.943   4.486  1.00  0.00     0.000 C 
BRANCH   6   7
ATOM      7  C   UNL     1     120.125  70.824   5.531  1.00  0.00     0.000 C 
BRANCH   7   8
ATOM      8  C   UNL     1     120.586  71.196   6.953  1.00  0.00     0.000 C 
BRANCH   8   9
ATOM      9  C   UNL     1     119.889  70.376   8.060  1.00  0.00     0.000 C 
BRANCH   9  10
ATOM     10  C   UNL     1     120.209  70.904   9.470  1.00  0.00     0.006 C 
BRANCH  10  11
ATOM     11  C   UNL     1     121.057  72.182   9.430  1.00  0.00     0.053 C 
BRANCH  11  12
ATOM     12  C   UNL     1     120.257  73.366   8.980  1.00  0.00     0.041 C 
ATOM     13  O   UNL     1     119.906  73.469   7.775  1.00  0.00    -0.550 OA
ATOM     14  O   UNL     1     119.875  74.341   9.892  1.00  0.00    -0.550 OA
ENDBRANCH  11  12
ENDBRANCH  10  11
ENDBRANCH   9  10
ENDBRANCH   8   9
ENDBRANCH   7   8
ENDBRANCH   6   7
ENDBRANCH   5   6
ENDBRANCH   4   5
ENDBRANCH   3   4
ENDBRANCH   2   3
ENDBRANCH   1   2
BRANCH   1  15
ATOM     15  C   UNL     1     121.839  69.102  -1.221  1.00  0.00     0.000 C 
BRANCH  15  16
ATOM     16  C   UNL     1     120.849  68.050  -1.749  1.00  0.00     0.000 C 
BRANCH  16  17
ATOM     17  C   UNL     1     120.058  68.530  -2.981  1.00  0.00     0.000 C 
BRANCH  17  18
ATOM     18  C   UNL     1     120.461  69.915  -3.527  1.00  0.00    -0.000 C 
BRANCH  18  19
ATOM     19  C   UNL     1     120.026  70.145  -4.983  1.00  0.00    -0.000 C 
BRANCH  19  20
ATOM     20  C   UNL     1     120.122  68.872  -5.843  1.00  0.00    -0.000 C 
BRANCH  20  21
ATOM     21  C   UNL     1     120.041  69.145  -7.360  1.00  0.00    -0.000 C 
BRANCH  21  22
ATOM     22  C   UNL     1     120.303  67.880  -8.195  1.00  0.00    -0.000 C 
BRANCH  22  23
ATOM     23  C   UNL     1     121.654  67.227  -7.861  1.00  0.00    -0.000 C 
BRANCH  23  24
ATOM     24  C   UNL     1     121.539  65.706  -7.653  1.00  0.00    -0.000 C 
BRANCH  24  25
ATOM     25  C   UNL     1     120.663  65.345  -6.443  1.00  0.00    -0.003 C 
ATOM     26  C   UNL     1     120.840  63.891  -6.004  1.00  0.00     0.004 C 
ENDBRANCH  24  25
ENDBRANCH  23  24
ENDBRANCH  22  23
ENDBRANCH  21  22
ENDBRANCH  20  21
ENDBRANCH  19  20
ENDBRANCH  18  19
ENDBRANCH  17  18
ENDBRANCH  16  17
ENDBRANCH  15  16
ENDBRANCH   1  15
TORSDOF 22
ENDMDL
MODEL 2
REMARK VINA RESULT:    -1.624      5.391     13.369
REMARK INTER + INTRA:          -3.242
REMARK INTER:                  -3.016
REMARK INTRA:                  -0.226
REMARK UNBOUND:                 0.470
REMARK SMILES CCCCCCCCCCCCCCCCCCCCCCCC(=O)[O-]
REMARK SMILES IDX 13 1 14 2 15 3 16 4 17 5 18 6 19 7 20 8 21 9 22 10 23 11
REMARK SMILES IDX 24 12 25 13 26 14 12 15 11 16 10 17 9 18 8 19 7 20 6 21 5 22
REMARK SMILES IDX 4 23 3 24 2 25 1 26
REMARK H PARENT
REMARK Flexibility Score: inf
ROOT
ATOM      1  C   UNL     1     120.463  70.686   0.874  1.00  0.00     0.000 C 
ENDROOT
BRANCH   1   2
ATOM      2  C   UNL     1     120.160  70.381  -0.608  1.00  0.00     0.000 C 
BRANCH   2   3
ATOM      3  C   UNL     1     120.890  69.129  -1.138  1.00  0.00     0.000 C 
BRANCH   3   4
ATOM      4  C   UNL     1     120.007  68.229  -2.023  1.00  0.00     0.000 C 
BRANCH   4   5
ATOM      5  C   UNL     1     120.838  67.326  -2.953  1.00  0.00     0.000 C 
BRANCH   5   6
ATOM      6  C   UNL     1     120.094  66.963  -4.250  1.00  0.00     0.000 C 
BRANCH   6   7
ATOM      7  C   UNL     1     120.091  68.071  -5.319  1.00  0.00     0.000 C 
BRANCH   7   8
ATOM      8  C   UNL     1     120.866  67.728  -6.606  1.00  0.00     0.000 C 
BRANCH   8   9
ATOM      9  C   UNL     1     120.011  67.832  -7.887  1.00  0.00     0.000 C 
BRANCH   9  10
ATOM     10  C   UNL     1     120.095  66.563  -8.753  1.00  0.00     0.006 C 
BRANCH  10  11
ATOM     11  C   UNL     1     121.378  65.764  -8.486  1.00  0.00     0.053 C 
BRANCH  11  12
ATOM     12  C   UNL     1     121.112  64.545  -7.656  1.00  0.00     0.041 C 
ATOM     13  O   UNL     1     119.938  64.106  -7.539  1.00  0.00    -0.550 OA
ATOM     14  O   UNL     1     122.160  63.876  -7.038  1.00  0.00    -0.550 OA
ENDBRANCH  11  12
ENDBRANCH  10  11
ENDBRANCH   9  10
ENDBRANCH   8   9
ENDBRANCH   7   8
ENDBRANCH   6   7
ENDBRANCH   5   6
ENDBRANCH   4   5
ENDBRANCH   3   4
ENDBRANCH   2   3
ENDBRANCH   1   2
BRANCH   1  15
ATOM     15  C   UNL     1     121.380  71.909   1.080  1.00  0.00     0.000 C 
BRANCH  15  16
ATOM     16  C   UNL     1     121.352  72.426   2.529  1.00  0.00     0.000 C 
BRANCH  16  17
ATOM     17  C   UNL     1     120.251  73.476   2.773  1.00  0.00     0.000 C 
BRANCH  17  18
ATOM     18  C   UNL     1     120.280  74.152   4.159  1.00  0.00    -0.000 C 
BRANCH  18  19
ATOM     19  C   UNL     1     119.876  73.210   5.304  1.00  0.00    -0.000 C 
BRANCH  19  20
ATOM     20  C   UNL     1     121.083  72.691   6.104  1.00  0.00    -0.000 C 
BRANCH  20  21
ATOM     21  C   UNL     1     121.394  71.199   5.855  1.00  0.00    -0.000 C 
BRANCH  21  22
ATOM     22  C   UNL     1     120.253  70.279   6.324  1.00  0.00    -0.000 C 
BRANCH  22  23
ATOM     23  C   UNL     1     119.881  70.512   7.797  1.00  0.00    -0.000 C 
BRANCH  23  24
ATOM     24  C   UNL     1     120.865  71.456   8.512  1.00  0.00    -0.000 C 
BRANCH  24  25
ATOM     25  C   UNL     1     120.380  71.852   9.916  1.00  0.00    -0.003 C 
ATOM     26  C   UNL     1     120.054  73.342  10.025  1.00  0.00     0.004 C 
ENDBRANCH  24  25
ENDBRANCH  23  24
ENDBRANCH  22  23
ENDBRANCH  21  22
ENDBRANCH  20  21
ENDBRANCH  19  20
ENDBRANCH  18  19
ENDBRANCH  17  18
ENDBRANCH  16  17
ENDBRANCH  15  16
ENDBRANCH   1  15
TORSDOF 22
ENDMDL
MODEL 3
REMARK VINA RESULT:    -1.117      4.992     13.267
REMARK INTER + INTRA:          -2.082
REMARK INTER:                  -5.165
REMARK INTRA:                   3.083
REMARK UNBOUND:                 0.470
REMARK SMILES CCCCCCCCCCCCCCCCCCCCCCCC(=O)[O-]
REMARK SMILES IDX 13 1 14 2 15 3 16 4 17 5 18 6 19 7 20 8 21 9 22 10 23 11
REMARK SMILES IDX 24 12 25 13 26 14 12 15 11 16 10 17 9 18 8 19 7 20 6 21 5 22
REMARK SMILES IDX 4 23 3 24 2 25 1 26
REMARK H PARENT
REMARK Flexibility Score: inf
ROOT
ATOM      1  C   UNL     1     120.367  73.166   1.539  1.00  0.00     0.000 C 
ENDROOT
BRANCH   1   2
ATOM      2  C   UNL     1     121.075  72.035   0.764  1.00  0.00     0.000 C 
BRANCH   2   3
ATOM      3  C   UNL     1     120.122  71.219  -0.135  1.00  0.00     0.000 C 
BRANCH   3   4
ATOM      4  C   UNL     1     120.377  69.700  -0.084  1.00  0.00     0.000 C 
BRANCH   4   5
ATOM      5  C   UNL     1     120.076  69.011  -1.428  1.00  0.00     0.000 C 
BRANCH   5   6
ATOM      6  C   UNL     1     120.762  69.702  -2.619  1.00  0.00     0.000 C 
BRANCH   6   7
ATOM      7  C   UNL     1     119.878  69.848  -3.871  1.00  0.00     0.000 C 
BRANCH   7   8
ATOM      8  C   UNL     1     120.643  70.183  -5.166  1.00  0.00     0.000 C 
BRANCH   8   9
ATOM      9  C   UNL     1     119.896  69.762  -6.450  1.00  0.00     0.000 C 
BRANCH   9  10
ATOM     10  C   UNL     1     120.430  68.441  -7.032  1.00  0.00     0.006 C 
BRANCH  10  11
ATOM     11  C   UNL     1     120.241  67.264  -6.065  1.00  0.00     0.053 C 
BRANCH  11  12
ATOM     12  C   UNL     1     120.330  65.945  -6.771  1.00  0.00     0.041 C 
ATOM     13  O   UNL     1     120.142  64.875  -6.134  1.00  0.00    -0.550 OA
ATOM     14  O   UNL     1     120.589  65.896  -8.134  1.00  0.00    -0.550 OA
ENDBRANCH  11  12
ENDBRANCH  10  11
ENDBRANCH   9  10
ENDBRANCH   8   9
ENDBRANCH   7   8
ENDBRANCH   6   7
ENDBRANCH   5   6
ENDBRANCH   4   5
ENDBRANCH   3   4
ENDBRANCH   2   3
ENDBRANCH   1   2
BRANCH   1  15
ATOM     15  C   UNL     1     119.887  72.747   2.944  1.00  0.00     0.000 C 
BRANCH  15  16
ATOM     16  C   UNL     1     120.174  71.265   3.244  1.00  0.00     0.000 C 
BRANCH  16  17
ATOM     17  C   UNL     1     120.846  71.045   4.613  1.00  0.00     0.000 C 
BRANCH  17  18
ATOM     18  C   UNL     1     120.061  71.580   5.828  1.00  0.00    -0.000 C 
BRANCH  18  19
ATOM     19  C   UNL     1     119.939  73.112   5.846  1.00  0.00    -0.000 C 
BRANCH  19  20
ATOM     20  C   UNL     1     120.305  73.724   7.209  1.00  0.00    -0.000 C 
BRANCH  20  21
ATOM     21  C   UNL     1     119.892  72.846   8.411  1.00  0.00    -0.000 C 
BRANCH  21  22
ATOM     22  C   UNL     1     120.013  71.343   8.105  1.00  0.00    -0.000 C 
BRANCH  22  23
ATOM     23  C   UNL     1     120.377  70.520   9.351  1.00  0.00    -0.000 C 
BRANCH  23  24
ATOM     24  C   UNL     1     119.920  71.193  10.658  1.00  0.00    -0.000 C 
BRANCH  24  25
ATOM     25  C   UNL     1     120.800  72.395  11.036  1.00  0.00    -0.003 C 
ATOM     26  C   UNL     1     120.054  73.725  10.929  1.00  0.00     0.004 C 
ENDBRANCH  24  25
ENDBRANCH  23  24
ENDBRANCH  22  23
ENDBRANCH  21  22
ENDBRANCH  20  21
ENDBRANCH  19  20
ENDBRANCH  18  19
ENDBRANCH  17  18
ENDBRANCH  16  17
ENDBRANCH  15  16
ENDBRANCH   1  15
TORSDOF 22
ENDMDL
MODEL 4
REMARK VINA RESULT:    -0.604      3.553     11.863
REMARK INTER + INTRA:          -0.911
REMARK INTER:                  -0.222
REMARK INTRA:                  -0.689
REMARK UNBOUND:                 0.470
REMARK SMILES CCCCCCCCCCCCCCCCCCCCCCCC(=O)[O-]
REMARK SMILES IDX 13 1 14 2 15 3 16 4 17 5 18 6 19 7 20 8 21 9 22 10 23 11
REMARK SMILES IDX 24 12 25 13 26 14 12 15 11 16 10 17 9 18 8 19 7 20 6 21 5 22
REMARK SMILES IDX 4 23 3 24 2 25 1 26
REMARK H PARENT
REMARK Flexibility Score: inf
ROOT
ATOM      1  C   UNL     1     121.471  70.284   0.015  1.00  0.00     0.000 C 
ENDROOT
BRANCH   1   2
ATOM      2  C   UNL     1     121.513  70.029  -1.507  1.00  0.00     0.000 C 
BRANCH   2   3
ATOM      3  C   UNL     1     120.505  70.886  -2.299  1.00  0.00     0.000 C 
BRANCH   3   4
ATOM      4  C   UNL     1     119.875  70.148  -3.496  1.00  0.00     0.000 C 
BRANCH   4   5
ATOM      5  C   UNL     1     120.901  69.845  -4.603  1.00  0.00     0.000 C 
BRANCH   5   6
ATOM      6  C   UNL     1     120.242  69.397  -5.920  1.00  0.00     0.000 C 
BRANCH   6   7
ATOM      7  C   UNL     1     120.979  68.258  -6.650  1.00  0.00     0.000 C 
BRANCH   7   8
ATOM      8  C   UNL     1     121.276  67.021  -5.781  1.00  0.00     0.000 C 
BRANCH   8   9
ATOM      9  C   UNL     1     120.036  66.136  -5.526  1.00  0.00     0.000 C 
BRANCH   9  10
ATOM     10  C   UNL     1     119.879  65.761  -4.041  1.00  0.00     0.006 C 
BRANCH  10  11
ATOM     11  C   UNL     1     120.431  66.847  -3.109  1.00  0.00     0.053 C 
BRANCH  11  12
ATOM     12  C   UNL     1     120.526  66.368  -1.692  1.00  0.00     0.041 C 
ATOM     13  O   UNL     1     119.878  65.354  -1.324  1.00  0.00    -0.550 OA
ATOM     14  O   UNL     1     121.350  67.022  -0.786  1.00  0.00    -0.550 OA
ENDBRANCH  11  12
ENDBRANCH  10  11
ENDBRANCH   9  10
ENDBRANCH   8   9
ENDBRANCH   7   8
ENDBRANCH   6   7
ENDBRANCH   5   6
ENDBRANCH   4   5
ENDBRANCH   3   4
ENDBRANCH   2   3
ENDBRANCH   1   2
BRANCH   1  15
ATOM     15  C   UNL     1     121.961  71.688   0.422  1.00  0.00     0.000 C 
BRANCH  15  16
ATOM     16  C   UNL     1     120.817  72.715   0.479  1.00  0.00     0.000 C 
BRANCH  16  17
ATOM     17  C   UNL     1     120.646  73.351   1.873  1.00  0.00     0.000 C 
BRANCH  17  18
ATOM     18  C   UNL     1     120.935  72.417   3.065  1.00  0.00    -0.000 C 
BRANCH  18  19
ATOM     19  C   UNL     1     120.158  71.092   3.002  1.00  0.00    -0.000 C 
BRANCH  19  20
ATOM     20  C   UNL     1     119.893  70.489   4.393  1.00  0.00    -0.000 C 
BRANCH  20  21
ATOM     21  C   UNL     1     120.768  71.100   5.508  1.00  0.00    -0.000 C 
BRANCH  21  22
ATOM     22  C   UNL     1     120.032  71.167   6.857  1.00  0.00    -0.000 C 
BRANCH  22  23
ATOM     23  C   UNL     1     120.948  71.631   8.002  1.00  0.00    -0.000 C 
BRANCH  23  24
ATOM     24  C   UNL     1     120.169  72.314   9.140  1.00  0.00    -0.000 C 
BRANCH  24  25
ATOM     25  C   UNL     1     120.492  73.813   9.254  1.00  0.00    -0.003 C 
ATOM     26  C   UNL     1     119.929  74.439  10.530  1.00  0.00     0.004 C 
ENDBRANCH  24  25
ENDBRANCH  23  24
ENDBRANCH  22  23
ENDBRANCH  21  22
ENDBRANCH  20  21
ENDBRANCH  19  20
ENDBRANCH  18  19
ENDBRANCH  17  18
ENDBRANCH  16  17
ENDBRANCH  15  16
ENDBRANCH   1  15
TORSDOF 22
ENDMDL
MODEL 5
REMARK VINA RESULT:    -0.458      1.444      3.434
REMARK INTER + INTRA:          -0.576
REMARK INTER:                   0.292
REMARK INTRA:                  -0.868
REMARK UNBOUND:                 0.470
REMARK SMILES CCCCCCCCCCCCCCCCCCCCCCCC(=O)[O-]
REMARK SMILES IDX 13 1 14 2 15 3 16 4 17 5 18 6 19 7 20 8 21 9 22 10 23 11
REMARK SMILES IDX 24 12 25 13 26 14 12 15 11 16 10 17 9 18 8 19 7 20 6 21 5 22
REMARK SMILES IDX 4 23 3 24 2 25 1 26
REMARK H PARENT
REMARK Flexibility Score: inf
ROOT
ATOM      1  C   UNL     1     121.131  72.234   2.053  1.00  0.00     0.000 C 
ENDROOT
BRANCH   1   2
ATOM      2  C   UNL     1     120.518  72.540   3.436  1.00  0.00     0.000 C 
BRANCH   2   3
ATOM      3  C   UNL     1     121.492  72.290   4.607  1.00  0.00     0.000 C 
BRANCH   3   4
ATOM      4  C   UNL     1     121.579  70.811   5.031  1.00  0.00     0.000 C 
BRANCH   4   5
ATOM      5  C   UNL     1     120.213  70.243   5.458  1.00  0.00     0.000 C 
BRANCH   5   6
ATOM      6  C   UNL     1     120.336  69.108   6.490  1.00  0.00     0.000 C 
BRANCH   6   7
ATOM      7  C   UNL     1     119.882  69.485   7.913  1.00  0.00     0.000 C 
BRANCH   7   8
ATOM      8  C   UNL     1     121.006  69.995   8.835  1.00  0.00     0.000 C 
BRANCH   8   9
ATOM      9  C   UNL     1     120.531  70.309  10.270  1.00  0.00     0.000 C 
BRANCH   9  10
ATOM     10  C   UNL     1     121.080  71.649  10.789  1.00  0.00     0.006 C 
BRANCH  10  11
ATOM     11  C   UNL     1     119.985  72.718  10.904  1.00  0.00     0.053 C 
BRANCH  11  12
ATOM     12  C   UNL     1     120.189  73.831   9.922  1.00  0.00     0.041 C 
ATOM     13  O   UNL     1     120.124  75.030  10.304  1.00  0.00    -0.550 OA
ATOM     14  O   UNL     1     120.479  73.549   8.594  1.00  0.00    -0.550 OA
ENDBRANCH  11  12
ENDBRANCH  10  11
ENDBRANCH   9  10
ENDBRANCH   8   9
ENDBRANCH   7   8
ENDBRANCH   6   7
ENDBRANCH   5   6
ENDBRANCH   4   5
ENDBRANCH   3   4
ENDBRANCH   2   3
ENDBRANCH   1   2
BRANCH   1  15
ATOM     15  C   UNL     1     121.144  70.733   1.700  1.00  0.00     0.000 C 
BRANCH  15  16
ATOM     16  C   UNL     1     120.642  70.463   0.271  1.00  0.00     0.000 C 
BRANCH  16  17
ATOM     17  C   UNL     1     119.893  69.123   0.138  1.00  0.00     0.000 C 
BRANCH  17  18
ATOM     18  C   UNL     1     120.785  67.889  -0.107  1.00  0.00    -0.000 C 
BRANCH  18  19
ATOM     19  C   UNL     1     120.029  66.707  -0.735  1.00  0.00    -0.000 C 
BRANCH  19  20
ATOM     20  C   UNL     1     120.344  66.524  -2.230  1.00  0.00    -0.000 C 
BRANCH  20  21
ATOM     21  C   UNL     1     120.791  67.826  -2.931  1.00  0.00    -0.000 C 
BRANCH  21  22
ATOM     22  C   UNL     1     119.963  68.123  -4.193  1.00  0.00    -0.000 C 
BRANCH  22  23
ATOM     23  C   UNL     1     120.136  69.572  -4.678  1.00  0.00    -0.000 C 
BRANCH  23  24
ATOM     24  C   UNL     1     120.206  69.676  -6.213  1.00  0.00    -0.000 C 
BRANCH  24  25
ATOM     25  C   UNL     1     121.126  68.610  -6.830  1.00  0.00    -0.003 C 
ATOM     26  C   UNL     1     120.365  67.353  -7.253  1.00  0.00     0.004 C 
ENDBRANCH  24  25
ENDBRANCH  23  24
ENDBRANCH  22  23
ENDBRANCH  21  22
ENDBRANCH  20  21
ENDBRANCH  19  20
ENDBRANCH  18  19
ENDBRANCH  17  18
ENDBRANCH  16  17
ENDBRANCH  15  16
ENDBRANCH   1  15
TORSDOF 22
ENDMDL
MODEL 6
REMARK VINA RESULT:    -0.445      1.210      2.178
REMARK INTER + INTRA:          -0.548
REMARK INTER:                  -0.241
REMARK INTRA:                  -0.307
REMARK UNBOUND:                 0.470
REMARK SMILES CCCCCCCCCCCCCCCCCCCCCCCC(=O)[O-]
REMARK SMILES IDX 13 1 14 2 15 3 16 4 17 5 18 6 19 7 20 8 21 9 22 10 23 11
REMARK SMILES IDX 24 12 25 13 26 14 12 15 11 16 10 17 9 18 8 19 7 20 6 21 5 22
REMARK SMILES IDX 4 23 3 24 2 25 1 26
REMARK H PARENT
REMARK Flexibility Score: inf
ROOT
ATOM      1  C   UNL     1     122.008  69.739  -0.041  1.00  0.00     0.000 C 
ENDROOT
BRANCH   1   2
ATOM      2  C   UNL     1     121.620  70.943  -0.925  1.00  0.00     0.000 C 
BRANCH   2   3
ATOM      3  C   UNL     1     121.641  72.288  -0.170  1.00  0.00     0.000 C 
BRANCH   3   4
ATOM      4  C   UNL     1     120.483  72.450   0.834  1.00  0.00     0.000 C 
BRANCH   4   5
ATOM      5  C   UNL     1     120.510  71.376   1.937  1.00  0.00     0.000 C 
BRANCH   5   6
ATOM      6  C   UNL     1     119.880  71.861   3.255  1.00  0.00     0.000 C 
BRANCH   6   7
ATOM      7  C   UNL     1     120.064  70.900   4.444  1.00  0.00     0.000 C 
BRANCH   7   8
ATOM      8  C   UNL     1     120.705  71.535   5.694  1.00  0.00     0.000 C 
BRANCH   8   9
ATOM      9  C   UNL     1     120.972  70.524   6.830  1.00  0.00     0.000 C 
BRANCH   9  10
ATOM     10  C   UNL     1     121.361  71.214   8.149  1.00  0.00     0.006 C 
BRANCH  10  11
ATOM     11  C   UNL     1     120.176  71.952   8.787  1.00  0.00     0.053 C 
BRANCH  11  12
ATOM     12  C   UNL     1     120.201  73.417   8.476  1.00  0.00     0.041 C 
ATOM     13  O   UNL     1     120.511  74.248   9.370  1.00  0.00    -0.550 OA
ATOM     14  O   UNL     1     119.910  73.866   7.194  1.00  0.00    -0.550 OA
ENDBRANCH  11  12
ENDBRANCH  10  11
ENDBRANCH   9  10
ENDBRANCH   8   9
ENDBRANCH   7   8
ENDBRANCH   6   7
ENDBRANCH   5   6
ENDBRANCH   4   5
ENDBRANCH   3   4
ENDBRANCH   2   3
ENDBRANCH   1   2
BRANCH   1  15
ATOM     15  C   UNL     1     122.089  68.406  -0.813  1.00  0.00     0.000 C 
BRANCH  15  16
ATOM     16  C   UNL     1     120.950  67.441  -0.438  1.00  0.00     0.000 C 
BRANCH  16  17
ATOM     17  C   UNL     1     119.884  67.308  -1.542  1.00  0.00     0.000 C 
BRANCH  17  18
ATOM     18  C   UNL     1     119.924  68.396  -2.634  1.00  0.00    -0.000 C 
BRANCH  18  19
ATOM     19  C   UNL     1     119.875  67.826  -4.061  1.00  0.00    -0.000 C 
BRANCH  19  20
ATOM     20  C   UNL     1     120.185  66.320  -4.114  1.00  0.00    -0.000 C 
BRANCH  20  21
ATOM     21  C   UNL     1     119.895  65.677  -5.488  1.00  0.00    -0.000 C 
BRANCH  21  22
ATOM     22  C   UNL     1     121.183  65.353  -6.264  1.00  0.00    -0.000 C 
BRANCH  22  23
ATOM     23  C   UNL     1     120.927  65.165  -7.769  1.00  0.00    -0.000 C 
BRANCH  23  24
ATOM     24  C   UNL     1     121.643  66.225  -8.626  1.00  0.00    -0.000 C 
BRANCH  24  25
ATOM     25  C   UNL     1     121.472  67.645  -8.063  1.00  0.00    -0.003 C 
ATOM     26  C   UNL     1     120.194  68.322  -8.559  1.00  0.00     0.004 C 
ENDBRANCH  24  25
ENDBRANCH  23  24
ENDBRANCH  22  23
ENDBRANCH  21  22
ENDBRANCH  20  21
ENDBRANCH  19  20
ENDBRANCH  18  19
ENDBRANCH  17  18
ENDBRANCH  16  17
ENDBRANCH  15  16
ENDBRANCH   1  15
TORSDOF 22
ENDMDL
