MODEL 1
REMARK VINA RESULT:    -4.294      0.000      0.000
REMARK INTER + INTRA:         -11.974
REMARK INTER:                  -9.314
REMARK INTRA:                  -2.660
REMARK UNBOUND:                -2.660
REMARK SMILES CCCCCCCCCCCCCCCCCCCCCC(=O)[O-]
REMARK SMILES IDX 12 1 11 2 10 3 9 4 8 5 7 6 6 7 5 8 4 9 3 10 2 11 1 12 13 13
REMARK SMILES IDX 14 14 15 15 16 16 17 17 18 18 19 19 20 20 21 21 22 22 23 23
REMARK SMILES IDX 24 24
REMARK H PARENT
REMARK Flexibility Score: inf
ROOT
ATOM      1  C   UNL     1     120.414 115.935 113.395  1.00  0.00     0.000 C 
ENDROOT
BRANCH   1   2
ATOM      2  C   UNL     1     119.682 116.158 114.730  1.00  0.00     0.000 C 
BRANCH   2   3
ATOM      3  C   UNL     1     118.821 114.955 115.140  1.00  0.00     0.000 C 
BRANCH   3   4
ATOM      4  C   UNL     1     117.663 115.350 116.077  1.00  0.00    -0.000 C 
BRANCH   4   5
ATOM      5  C   UNL     1     117.293 114.227 117.059  1.00  0.00    -0.000 C 
BRANCH   5   6
ATOM      6  C   UNL     1     118.526 113.608 117.741  1.00  0.00    -0.000 C 
BRANCH   6   7
ATOM      7  C   UNL     1     118.385 112.089 117.935  1.00  0.00    -0.000 C 
BRANCH   7   8
ATOM      8  C   UNL     1     119.710 111.343 117.693  1.00  0.00    -0.000 C 
BRANCH   8   9
ATOM      9  C   UNL     1     120.551 111.979 116.574  1.00  0.00    -0.000 C 
BRANCH   9  10
ATOM     10  C   UNL     1     122.009 111.488 116.581  1.00  0.00    -0.000 C 
BRANCH  10  11
ATOM     11  C   UNL     1     123.018 112.634 116.408  1.00  0.00    -0.003 C 
ATOM     12  C   UNL     1     122.503 113.748 115.496  1.00  0.00     0.004 C 
ENDBRANCH  10  11
ENDBRANCH   9  10
ENDBRANCH   8   9
ENDBRANCH   7   8
ENDBRANCH   6   7
ENDBRANCH   5   6
ENDBRANCH   4   5
ENDBRANCH   3   4
ENDBRANCH   2   3
ENDBRANCH   1   2
BRANCH   1  13
ATOM     13  C   UNL     1     119.705 114.908 112.494  1.00  0.00     0.000 C 
BRANCH  13  14
ATOM     14  C   UNL     1     120.518 113.630 112.197  1.00  0.00     0.000 C 
BRANCH  14  15
ATOM     15  C   UNL     1     120.147 112.410 113.062  1.00  0.00     0.000 C 
BRANCH  15  16
ATOM     16  C   UNL     1     121.032 111.166 112.848  1.00  0.00     0.000 C 
BRANCH  16  17
ATOM     17  C   UNL     1     120.366 110.012 112.075  1.00  0.00     0.000 C 
BRANCH  17  18
ATOM     18  C   UNL     1     118.953 110.361 111.576  1.00  0.00     0.000 C 
BRANCH  18  19
ATOM     19  C   UNL     1     118.844 110.319 110.044  1.00  0.00     0.000 C 
BRANCH  19  20
ATOM     20  C   UNL     1     119.696 111.402 109.359  1.00  0.00     0.006 C 
BRANCH  20  21
ATOM     21  C   UNL     1     119.931 111.099 107.874  1.00  0.00     0.053 C 
BRANCH  21  22
ATOM     22  C   UNL     1     120.314 109.668 107.653  1.00  0.00     0.041 C 
ATOM     23  O   UNL     1     119.573 108.914 106.968  1.00  0.00    -0.550 OA
ATOM     24  O   UNL     1     121.470 109.158 108.232  1.00  0.00    -0.550 OA
ENDBRANCH  21  22
ENDBRANCH  20  21
ENDBRANCH  19  20
ENDBRANCH  18  19
ENDBRANCH  17  18
ENDBRANCH  16  17
ENDBRANCH  15  16
ENDBRANCH  14  15
ENDBRANCH  13  14
ENDBRANCH   1  13
TORSDOF 20
ENDMDL
MODEL 2
REMARK VINA RESULT:    -4.074      3.292      7.416
REMARK INTER + INTRA:         -11.497
REMARK INTER:                  -7.648
REMARK INTRA:                  -3.848
REMARK UNBOUND:                -2.660
REMARK SMILES CCCCCCCCCCCCCCCCCCCCCC(=O)[O-]
REMARK SMILES IDX 12 1 11 2 10 3 9 4 8 5 7 6 6 7 5 8 4 9 3 10 2 11 1 12 13 13
REMARK SMILES IDX 14 14 15 15 16 16 17 17 18 18 19 19 20 20 21 21 22 22 23 23
REMARK SMILES IDX 24 24
REMARK H PARENT
REMARK Flexibility Score: inf
ROOT
ATOM      1  C   UNL     1     123.670 111.754 111.534  1.00  0.00     0.000 C 
ENDROOT
BRANCH   1   2
ATOM      2  C   UNL     1     123.165 110.506 112.278  1.00  0.00     0.000 C 
BRANCH   2   3
ATOM      3  C   UNL     1     122.589 110.836 113.663  1.00  0.00     0.000 C 
BRANCH   3   4
ATOM      4  C   UNL     1     121.050 110.768 113.694  1.00  0.00    -0.000 C 
BRANCH   4   5
ATOM      5  C   UNL     1     120.474 109.976 112.510  1.00  0.00    -0.000 C 
BRANCH   5   6
ATOM      6  C   UNL     1     119.187 110.607 111.947  1.00  0.00    -0.000 C 
BRANCH   6   7
ATOM      7  C   UNL     1     118.936 110.214 110.482  1.00  0.00    -0.000 C 
BRANCH   7   8
ATOM      8  C   UNL     1     120.206 109.681 109.794  1.00  0.00    -0.000 C 
BRANCH   8   9
ATOM      9  C   UNL     1     120.258 110.028 108.297  1.00  0.00    -0.000 C 
BRANCH   9  10
ATOM     10  C   UNL     1     119.928 111.506 108.023  1.00  0.00    -0.000 C 
BRANCH  10  11
ATOM     11  C   UNL     1     120.857 112.132 106.971  1.00  0.00    -0.003 C 
ATOM     12  C   UNL     1     122.172 111.368 106.806  1.00  0.00     0.004 C 
ENDBRANCH  10  11
ENDBRANCH   9  10
ENDBRANCH   8   9
ENDBRANCH   7   8
ENDBRANCH   6   7
ENDBRANCH   5   6
ENDBRANCH   4   5
ENDBRANCH   3   4
ENDBRANCH   2   3
ENDBRANCH   1   2
BRANCH   1  13
ATOM     13  C   UNL     1     122.763 112.150 110.355  1.00  0.00     0.000 C 
BRANCH  13  14
ATOM     14  C   UNL     1     122.122 113.549 110.467  1.00  0.00     0.000 C 
BRANCH  14  15
ATOM     15  C   UNL     1     120.811 113.600 111.276  1.00  0.00     0.000 C 
BRANCH  15  16
ATOM     16  C   UNL     1     120.898 114.363 112.613  1.00  0.00     0.000 C 
BRANCH  16  17
ATOM     17  C   UNL     1     119.658 114.243 113.518  1.00  0.00     0.000 C 
BRANCH  17  18
ATOM     18  C   UNL     1     119.853 114.899 114.895  1.00  0.00     0.000 C 
BRANCH  18  19
ATOM     19  C   UNL     1     119.221 114.081 116.031  1.00  0.00     0.000 C 
BRANCH  19  20
ATOM     20  C   UNL     1     120.116 112.918 116.493  1.00  0.00     0.006 C 
BRANCH  20  21
ATOM     21  C   UNL     1     121.566 113.364 116.729  1.00  0.00     0.053 C 
BRANCH  21  22
ATOM     22  C   UNL     1     122.368 112.302 117.416  1.00  0.00     0.041 C 
ATOM     23  O   UNL     1     122.058 111.089 117.279  1.00  0.00    -0.550 OA
ATOM     24  O   UNL     1     123.435 112.653 118.234  1.00  0.00    -0.550 OA
ENDBRANCH  21  22
ENDBRANCH  20  21
ENDBRANCH  19  20
ENDBRANCH  18  19
ENDBRANCH  17  18
ENDBRANCH  16  17
ENDBRANCH  15  16
ENDBRANCH  14  15
ENDBRANCH  13  14
ENDBRANCH   1  13
TORSDOF 20
ENDMDL
MODEL 3
REMARK VINA RESULT:    -4.067      2.246      4.961
REMARK INTER + INTRA:         -11.483
REMARK INTER:                  -9.110
REMARK INTRA:                  -2.374
REMARK UNBOUND:                -2.660
REMARK SMILES CCCCCCCCCCCCCCCCCCCCCC(=O)[O-]
REMARK SMILES IDX 12 1 11 2 10 3 9 4 8 5 7 6 6 7 5 8 4 9 3 10 2 11 1 12 13 13
REMARK SMILES IDX 14 14 15 15 16 16 17 17 18 18 19 19 20 20 21 21 22 22 23 23
REMARK SMILES IDX 24 24
REMARK H PARENT
REMARK Flexibility Score: inf
ROOT
ATOM      1  C   UNL     1     121.895 113.123 109.370  1.00  0.00     0.000 C 
ENDROOT
BRANCH   1   2
ATOM      2  C   UNL     1     120.738 113.211 110.382  1.00  0.00     0.000 C 
BRANCH   2   3
ATOM      3  C   UNL     1     121.065 114.122 111.574  1.00  0.00     0.000 C 
BRANCH   3   4
ATOM      4  C   UNL     1     119.816 114.483 112.401  1.00  0.00    -0.000 C 
BRANCH   4   5
ATOM      5  C   UNL     1     119.822 115.947 112.866  1.00  0.00    -0.000 C 
BRANCH   5   6
ATOM      6  C   UNL     1     119.757 116.081 114.399  1.00  0.00    -0.000 C 
BRANCH   6   7
ATOM      7  C   UNL     1     118.435 116.706 114.875  1.00  0.00    -0.000 C 
BRANCH   7   8
ATOM      8  C   UNL     1     117.657 115.776 115.824  1.00  0.00    -0.000 C 
BRANCH   8   9
ATOM      9  C   UNL     1     118.382 114.444 116.072  1.00  0.00    -0.000 C 
BRANCH   9  10
ATOM     10  C   UNL     1     117.751 113.634 117.218  1.00  0.00    -0.000 C 
BRANCH  10  11
ATOM     11  C   UNL     1     118.804 113.021 118.156  1.00  0.00    -0.003 C 
ATOM     12  C   UNL     1     119.743 112.047 117.443  1.00  0.00     0.004 C 
ENDBRANCH  10  11
ENDBRANCH   9  10
ENDBRANCH   8   9
ENDBRANCH   7   8
ENDBRANCH   6   7
ENDBRANCH   5   6
ENDBRANCH   4   5
ENDBRANCH   3   4
ENDBRANCH   2   3
ENDBRANCH   1   2
BRANCH   1  13
ATOM     13  C   UNL     1     121.413 113.191 107.910  1.00  0.00     0.000 C 
BRANCH  13  14
ATOM     14  C   UNL     1     121.312 111.829 107.192  1.00  0.00     0.000 C 
BRANCH  14  15
ATOM     15  C   UNL     1     120.093 110.975 107.588  1.00  0.00     0.000 C 
BRANCH  15  16
ATOM     16  C   UNL     1     120.428 109.588 108.172  1.00  0.00     0.000 C 
BRANCH  16  17
ATOM     17  C   UNL     1     120.452 109.513 109.710  1.00  0.00     0.000 C 
BRANCH  17  18
ATOM     18  C   UNL     1     119.112 109.911 110.352  1.00  0.00     0.000 C 
BRANCH  18  19
ATOM     19  C   UNL     1     119.284 110.463 111.775  1.00  0.00     0.000 C 
BRANCH  19  20
ATOM     20  C   UNL     1     120.631 110.069 112.406  1.00  0.00     0.006 C 
BRANCH  20  21
ATOM     21  C   UNL     1     120.883 110.798 113.732  1.00  0.00     0.053 C 
BRANCH  21  22
ATOM     22  C   UNL     1     122.311 111.231 113.864  1.00  0.00     0.041 C 
ATOM     23  O   UNL     1     122.813 111.412 115.005  1.00  0.00    -0.550 OA
ATOM     24  O   UNL     1     123.075 111.469 112.729  1.00  0.00    -0.550 OA
ENDBRANCH  21  22
ENDBRANCH  20  21
ENDBRANCH  19  20
ENDBRANCH  18  19
ENDBRANCH  17  18
ENDBRANCH  16  17
ENDBRANCH  15  16
ENDBRANCH  14  15
ENDBRANCH  13  14
ENDBRANCH   1  13
TORSDOF 20
ENDMDL
MODEL 4
REMARK VINA RESULT:    -4.036      3.460      9.101
REMARK INTER + INTRA:         -11.415
REMARK INTER:                  -9.808
REMARK INTRA:                  -1.607
REMARK UNBOUND:                -2.660
REMARK SMILES CCCCCCCCCCCCCCCCCCCCCC(=O)[O-]
REMARK SMILES IDX 12 1 11 2 10 3 9 4 8 5 7 6 6 7 5 8 4 9 3 10 2 11 1 12 13 13
REMARK SMILES IDX 14 14 15 15 16 16 17 17 18 18 19 19 20 20 21 21 22 22 23 23
REMARK SMILES IDX 24 24
REMARK H PARENT
REMARK Flexibility Score: inf
ROOT
ATOM      1  C   UNL     1     120.584 110.065 112.206  1.00  0.00     0.000 C 
ENDROOT
BRANCH   1   2
ATOM      2  C   UNL     1     120.384 109.645 110.740  1.00  0.00     0.000 C 
BRANCH   2   3
ATOM      3  C   UNL     1     119.258 110.427 110.049  1.00  0.00     0.000 C 
BRANCH   3   4
ATOM      4  C   UNL     1     119.793 111.502 109.083  1.00  0.00    -0.000 C 
BRANCH   4   5
ATOM      5  C   UNL     1     120.055 110.948 107.674  1.00  0.00    -0.000 C 
BRANCH   5   6
ATOM      6  C   UNL     1     121.180 111.702 106.942  1.00  0.00    -0.000 C 
BRANCH   6   7
ATOM      7  C   UNL     1     122.422 110.824 106.717  1.00  0.00    -0.000 C 
BRANCH   7   8
ATOM      8  C   UNL     1     122.336 109.485 107.471  1.00  0.00    -0.000 C 
BRANCH   8   9
ATOM      9  C   UNL     1     122.298 108.274 106.525  1.00  0.00    -0.000 C 
BRANCH   9  10
ATOM     10  C   UNL     1     121.141 107.311 106.845  1.00  0.00    -0.000 C 
BRANCH  10  11
ATOM     11  C   UNL     1     120.004 107.392 105.814  1.00  0.00    -0.003 C 
ATOM     12  C   UNL     1     120.420 106.896 104.428  1.00  0.00     0.004 C 
ENDBRANCH  10  11
ENDBRANCH   9  10
ENDBRANCH   8   9
ENDBRANCH   7   8
ENDBRANCH   6   7
ENDBRANCH   5   6
ENDBRANCH   4   5
ENDBRANCH   3   4
ENDBRANCH   2   3
ENDBRANCH   1   2
BRANCH   1  13
ATOM     13  C   UNL     1     119.796 111.336 112.572  1.00  0.00     0.000 C 
BRANCH  13  14
ATOM     14  C   UNL     1     120.602 112.403 113.341  1.00  0.00     0.000 C 
BRANCH  14  15
ATOM     15  C   UNL     1     120.012 113.826 113.288  1.00  0.00     0.000 C 
BRANCH  15  16
ATOM     16  C   UNL     1     119.259 114.268 114.558  1.00  0.00     0.000 C 
BRANCH  16  17
ATOM     17  C   UNL     1     119.709 113.580 115.860  1.00  0.00     0.000 C 
BRANCH  17  18
ATOM     18  C   UNL     1     118.659 113.669 116.981  1.00  0.00     0.000 C 
BRANCH  18  19
ATOM     19  C   UNL     1     118.746 112.490 117.963  1.00  0.00     0.000 C 
BRANCH  19  20
ATOM     20  C   UNL     1     119.936 111.560 117.668  1.00  0.00     0.006 C 
BRANCH  20  21
ATOM     21  C   UNL     1     120.944 111.528 118.824  1.00  0.00     0.053 C 
BRANCH  21  22
ATOM     22  C   UNL     1     122.057 110.560 118.563  1.00  0.00     0.041 C 
ATOM     23  O   UNL     1     122.240 109.585 119.338  1.00  0.00    -0.550 OA
ATOM     24  O   UNL     1     122.913 110.755 117.486  1.00  0.00    -0.550 OA
ENDBRANCH  21  22
ENDBRANCH  20  21
ENDBRANCH  19  20
ENDBRANCH  18  19
ENDBRANCH  17  18
ENDBRANCH  16  17
ENDBRANCH  15  16
ENDBRANCH  14  15
ENDBRANCH  13  14
ENDBRANCH   1  13
TORSDOF 20
ENDMDL
MODEL 5
REMARK VINA RESULT:    -3.996      3.878      8.584
REMARK INTER + INTRA:         -11.327
REMARK INTER:                  -7.984
REMARK INTRA:                  -3.344
REMARK UNBOUND:                -2.660
REMARK SMILES CCCCCCCCCCCCCCCCCCCCCC(=O)[O-]
REMARK SMILES IDX 12 1 11 2 10 3 9 4 8 5 7 6 6 7 5 8 4 9 3 10 2 11 1 12 13 13
REMARK SMILES IDX 14 14 15 15 16 16 17 17 18 18 19 19 20 20 21 21 22 22 23 23
REMARK SMILES IDX 24 24
REMARK H PARENT
REMARK Flexibility Score: inf
ROOT
ATOM      1  C   UNL     1     123.694 109.730 107.798  1.00  0.00     0.000 C 
ENDROOT
BRANCH   1   2
ATOM      2  C   UNL     1     123.712 109.317 109.280  1.00  0.00     0.000 C 
BRANCH   2   3
ATOM      3  C   UNL     1     123.374 110.482 110.222  1.00  0.00     0.000 C 
BRANCH   3   4
ATOM      4  C   UNL     1     123.532 111.855 109.542  1.00  0.00    -0.000 C 
BRANCH   4   5
ATOM      5  C   UNL     1     122.371 112.808 109.866  1.00  0.00    -0.000 C 
BRANCH   5   6
ATOM      6  C   UNL     1     121.936 113.646 108.649  1.00  0.00    -0.000 C 
BRANCH   6   7
ATOM      7  C   UNL     1     122.027 112.856 107.334  1.00  0.00    -0.000 C 
BRANCH   7   8
ATOM      8  C   UNL     1     120.760 113.007 106.472  1.00  0.00    -0.000 C 
BRANCH   8   9
ATOM      9  C   UNL     1     120.914 114.076 105.377  1.00  0.00    -0.000 C 
BRANCH   9  10
ATOM     10  C   UNL     1     120.262 115.415 105.765  1.00  0.00    -0.000 C 
BRANCH  10  11
ATOM     11  C   UNL     1     120.693 116.568 104.845  1.00  0.00    -0.003 C 
ATOM     12  C   UNL     1     121.934 116.237 104.015  1.00  0.00     0.004 C 
ENDBRANCH  10  11
ENDBRANCH   9  10
ENDBRANCH   8   9
ENDBRANCH   7   8
ENDBRANCH   6   7
ENDBRANCH   5   6
ENDBRANCH   4   5
ENDBRANCH   3   4
ENDBRANCH   2   3
ENDBRANCH   1   2
BRANCH   1  13
ATOM     13  C   UNL     1     122.662 108.938 106.974  1.00  0.00     0.000 C 
BRANCH  13  14
ATOM     14  C   UNL     1     121.397 108.514 107.747  1.00  0.00     0.000 C 
BRANCH  14  15
ATOM     15  C   UNL     1     120.380 109.643 108.000  1.00  0.00     0.000 C 
BRANCH  15  16
ATOM     16  C   UNL     1     119.712 109.623 109.389  1.00  0.00     0.000 C 
BRANCH  16  17
ATOM     17  C   UNL     1     119.337 111.004 109.956  1.00  0.00     0.000 C 
BRANCH  17  18
ATOM     18  C   UNL     1     119.469 111.081 111.487  1.00  0.00     0.000 C 
BRANCH  18  19
ATOM     19  C   UNL     1     120.309 109.931 112.063  1.00  0.00     0.000 C 
BRANCH  19  20
ATOM     20  C   UNL     1     121.123 110.352 113.298  1.00  0.00     0.006 C 
BRANCH  20  21
ATOM     21  C   UNL     1     121.093 111.870 113.520  1.00  0.00     0.053 C 
BRANCH  21  22
ATOM     22  C   UNL     1     120.739 112.218 114.934  1.00  0.00     0.041 C 
ATOM     23  O   UNL     1     120.909 111.373 115.852  1.00  0.00    -0.550 OA
ATOM     24  O   UNL     1     120.191 113.459 115.230  1.00  0.00    -0.550 OA
ENDBRANCH  21  22
ENDBRANCH  20  21
ENDBRANCH  19  20
ENDBRANCH  18  19
ENDBRANCH  17  18
ENDBRANCH  16  17
ENDBRANCH  15  16
ENDBRANCH  14  15
ENDBRANCH  13  14
ENDBRANCH   1  13
TORSDOF 20
ENDMDL
MODEL 6
REMARK VINA RESULT:    -3.987      1.673      3.931
REMARK INTER + INTRA:         -11.309
REMARK INTER:                  -8.340
REMARK INTRA:                  -2.969
REMARK UNBOUND:                -2.660
REMARK SMILES CCCCCCCCCCCCCCCCCCCCCC(=O)[O-]
REMARK SMILES IDX 12 1 11 2 10 3 9 4 8 5 7 6 6 7 5 8 4 9 3 10 2 11 1 12 13 13
REMARK SMILES IDX 14 14 15 15 16 16 17 17 18 18 19 19 20 20 21 21 22 22 23 23
REMARK SMILES IDX 24 24
REMARK H PARENT
REMARK Flexibility Score: inf
ROOT
ATOM      1  C   UNL     1     123.310 113.005 112.586  1.00  0.00     0.000 C 
ENDROOT
BRANCH   1   2
ATOM      2  C   UNL     1     123.201 112.453 111.154  1.00  0.00     0.000 C 
BRANCH   2   3
ATOM      3  C   UNL     1     121.892 112.859 110.462  1.00  0.00     0.000 C 
BRANCH   3   4
ATOM      4  C   UNL     1     121.320 114.181 111.010  1.00  0.00    -0.000 C 
BRANCH   4   5
ATOM      5  C   UNL     1     120.067 113.965 111.872  1.00  0.00    -0.000 C 
BRANCH   5   6
ATOM      6  C   UNL     1     119.630 115.243 112.612  1.00  0.00    -0.000 C 
BRANCH   6   7
ATOM      7  C   UNL     1     119.835 115.137 114.132  1.00  0.00    -0.000 C 
BRANCH   7   8
ATOM      8  C   UNL     1     119.796 113.680 114.627  1.00  0.00    -0.000 C 
BRANCH   8   9
ATOM      9  C   UNL     1     120.433 113.510 116.016  1.00  0.00    -0.000 C 
BRANCH   9  10
ATOM     10  C   UNL     1     120.459 112.042 116.477  1.00  0.00    -0.000 C 
BRANCH  10  11
ATOM     11  C   UNL     1     119.920 111.864 117.905  1.00  0.00    -0.003 C 
ATOM     12  C   UNL     1     118.454 112.275 118.045  1.00  0.00     0.004 C 
ENDBRANCH  10  11
ENDBRANCH   9  10
ENDBRANCH   8   9
ENDBRANCH   7   8
ENDBRANCH   6   7
ENDBRANCH   5   6
ENDBRANCH   4   5
ENDBRANCH   3   4
ENDBRANCH   2   3
ENDBRANCH   1   2
BRANCH   1  13
ATOM     13  C   UNL     1     122.881 111.981 113.652  1.00  0.00     0.000 C 
BRANCH  13  14
ATOM     14  C   UNL     1     122.356 110.641 113.096  1.00  0.00     0.000 C 
BRANCH  14  15
ATOM     15  C   UNL     1     120.828 110.460 113.173  1.00  0.00     0.000 C 
BRANCH  15  16
ATOM     16  C   UNL     1     120.196 109.729 111.971  1.00  0.00     0.000 C 
BRANCH  16  17
ATOM     17  C   UNL     1     118.992 110.443 111.329  1.00  0.00     0.000 C 
BRANCH  17  18
ATOM     18  C   UNL     1     119.162 110.665 109.817  1.00  0.00     0.000 C 
BRANCH  18  19
ATOM     19  C   UNL     1     120.319 109.843 109.229  1.00  0.00     0.000 C 
BRANCH  19  20
ATOM     20  C   UNL     1     120.023 109.337 107.806  1.00  0.00     0.006 C 
BRANCH  20  21
ATOM     21  C   UNL     1     121.078 108.334 107.319  1.00  0.00     0.053 C 
BRANCH  21  22
ATOM     22  C   UNL     1     120.597 107.554 106.134  1.00  0.00     0.041 C 
ATOM     23  O   UNL     1     119.363 107.382 105.951  1.00  0.00    -0.550 OA
ATOM     24  O   UNL     1     121.511 106.989 105.254  1.00  0.00    -0.550 OA
ENDBRANCH  21  22
ENDBRANCH  20  21
ENDBRANCH  19  20
ENDBRANCH  18  19
ENDBRANCH  17  18
ENDBRANCH  16  17
ENDBRANCH  15  16
ENDBRANCH  14  15
ENDBRANCH  13  14
ENDBRANCH   1  13
TORSDOF 20
ENDMDL
MODEL 7
REMARK VINA RESULT:    -3.984      3.348      7.197
REMARK INTER + INTRA:         -11.303
REMARK INTER:                  -9.008
REMARK INTRA:                  -2.295
REMARK UNBOUND:                -2.660
REMARK SMILES CCCCCCCCCCCCCCCCCCCCCC(=O)[O-]
REMARK SMILES IDX 12 1 11 2 10 3 9 4 8 5 7 6 6 7 5 8 4 9 3 10 2 11 1 12 13 13
REMARK SMILES IDX 14 14 15 15 16 16 17 17 18 18 19 19 20 20 21 21 22 22 23 23
REMARK SMILES IDX 24 24
REMARK H PARENT
REMARK Flexibility Score: inf
ROOT
ATOM      1  C   UNL     1     120.274 116.722 112.819  1.00  0.00     0.000 C 
ENDROOT
BRANCH   1   2
ATOM      2  C   UNL     1     121.533 115.879 112.553  1.00  0.00     0.000 C 
BRANCH   2   3
ATOM      3  C   UNL     1     121.651 114.677 113.502  1.00  0.00     0.000 C 
BRANCH   3   4
ATOM      4  C   UNL     1     121.670 113.332 112.751  1.00  0.00    -0.000 C 
BRANCH   4   5
ATOM      5  C   UNL     1     120.396 112.507 112.993  1.00  0.00    -0.000 C 
BRANCH   5   6
ATOM      6  C   UNL     1     120.690 111.141 113.641  1.00  0.00    -0.000 C 
BRANCH   6   7
ATOM      7  C   UNL     1     120.676 109.994 112.618  1.00  0.00    -0.000 C 
BRANCH   7   8
ATOM      8  C   UNL     1     119.595 110.185 111.539  1.00  0.00    -0.000 C 
BRANCH   8   9
ATOM      9  C   UNL     1     120.110 109.876 110.124  1.00  0.00    -0.000 C 
BRANCH   9  10
ATOM     10  C   UNL     1     119.611 110.890 109.080  1.00  0.00    -0.000 C 
BRANCH  10  11
ATOM     11  C   UNL     1     120.190 110.629 107.681  1.00  0.00    -0.003 C 
ATOM     12  C   UNL     1     119.972 109.192 107.204  1.00  0.00     0.004 C 
ENDBRANCH  10  11
ENDBRANCH   9  10
ENDBRANCH   8   9
ENDBRANCH   7   8
ENDBRANCH   6   7
ENDBRANCH   5   6
ENDBRANCH   4   5
ENDBRANCH   3   4
ENDBRANCH   2   3
ENDBRANCH   1   2
BRANCH   1  13
ATOM     13  C   UNL     1     119.152 115.917 113.497  1.00  0.00     0.000 C 
BRANCH  13  14
ATOM     14  C   UNL     1     118.528 116.585 114.739  1.00  0.00     0.000 C 
BRANCH  14  15
ATOM     15  C   UNL     1     118.111 115.613 115.859  1.00  0.00     0.000 C 
BRANCH  15  16
ATOM     16  C   UNL     1     118.522 114.144 115.635  1.00  0.00     0.000 C 
BRANCH  16  17
ATOM     17  C   UNL     1     119.706 113.657 116.491  1.00  0.00     0.000 C 
BRANCH  17  18
ATOM     18  C   UNL     1     119.294 112.621 117.552  1.00  0.00     0.000 C 
BRANCH  18  19
ATOM     19  C   UNL     1     120.132 111.335 117.473  1.00  0.00     0.000 C 
BRANCH  19  20
ATOM     20  C   UNL     1     121.560 111.589 116.958  1.00  0.00     0.006 C 
BRANCH  20  21
ATOM     21  C   UNL     1     122.588 111.611 118.097  1.00  0.00     0.053 C 
BRANCH  21  22
ATOM     22  C   UNL     1     122.981 110.229 118.517  1.00  0.00     0.041 C 
ATOM     23  O   UNL     1     123.909 109.626 117.916  1.00  0.00    -0.550 OA
ATOM     24  O   UNL     1     122.301 109.593 119.548  1.00  0.00    -0.550 OA
ENDBRANCH  21  22
ENDBRANCH  20  21
ENDBRANCH  19  20
ENDBRANCH  18  19
ENDBRANCH  17  18
ENDBRANCH  16  17
ENDBRANCH  15  16
ENDBRANCH  14  15
ENDBRANCH  13  14
ENDBRANCH   1  13
TORSDOF 20
ENDMDL
MODEL 8
REMARK VINA RESULT:    -3.973      2.401      5.155
REMARK INTER + INTRA:         -11.278
REMARK INTER:                  -8.071
REMARK INTRA:                  -3.207
REMARK UNBOUND:                -2.660
REMARK SMILES CCCCCCCCCCCCCCCCCCCCCC(=O)[O-]
REMARK SMILES IDX 12 1 11 2 10 3 9 4 8 5 7 6 6 7 5 8 4 9 3 10 2 11 1 12 13 13
REMARK SMILES IDX 14 14 15 15 16 16 17 17 18 18 19 19 20 20 21 21 22 22 23 23
REMARK SMILES IDX 24 24
REMARK H PARENT
REMARK Flexibility Score: inf
ROOT
ATOM      1  C   UNL     1     120.019 109.502 109.536  1.00  0.00     0.000 C 
ENDROOT
BRANCH   1   2
ATOM      2  C   UNL     1     118.960 110.380 110.226  1.00  0.00     0.000 C 
BRANCH   2   3
ATOM      3  C   UNL     1     119.236 110.571 111.725  1.00  0.00     0.000 C 
BRANCH   3   4
ATOM      4  C   UNL     1     120.610 110.015 112.147  1.00  0.00    -0.000 C 
BRANCH   4   5
ATOM      5  C   UNL     1     121.147 110.685 113.422  1.00  0.00    -0.000 C 
BRANCH   5   6
ATOM      6  C   UNL     1     121.183 112.220 113.314  1.00  0.00    -0.000 C 
BRANCH   6   7
ATOM      7  C   UNL     1     120.453 112.905 114.481  1.00  0.00    -0.000 C 
BRANCH   7   8
ATOM      8  C   UNL     1     121.427 113.433 115.551  1.00  0.00    -0.000 C 
BRANCH   8   9
ATOM      9  C   UNL     1     121.542 112.491 116.761  1.00  0.00    -0.000 C 
BRANCH   9  10
ATOM     10  C   UNL     1     120.308 111.586 116.923  1.00  0.00    -0.000 C 
BRANCH  10  11
ATOM     11  C   UNL     1     119.408 112.021 118.090  1.00  0.00    -0.003 C 
ATOM     12  C   UNL     1     118.412 113.113 117.700  1.00  0.00     0.004 C 
ENDBRANCH  10  11
ENDBRANCH   9  10
ENDBRANCH   8   9
ENDBRANCH   7   8
ENDBRANCH   6   7
ENDBRANCH   5   6
ENDBRANCH   4   5
ENDBRANCH   3   4
ENDBRANCH   2   3
ENDBRANCH   1   2
BRANCH   1  13
ATOM     13  C   UNL     1     119.972 109.611 108.002  1.00  0.00     0.000 C 
BRANCH  13  14
ATOM     14  C   UNL     1     121.284 109.239 107.281  1.00  0.00     0.000 C 
BRANCH  14  15
ATOM     15  C   UNL     1     122.449 108.850 108.213  1.00  0.00     0.000 C 
BRANCH  15  16
ATOM     16  C   UNL     1     123.515 109.945 108.418  1.00  0.00     0.000 C 
BRANCH  16  17
ATOM     17  C   UNL     1     123.465 110.661 109.780  1.00  0.00     0.000 C 
BRANCH  17  18
ATOM     18  C   UNL     1     123.316 112.187 109.652  1.00  0.00     0.000 C 
BRANCH  18  19
ATOM     19  C   UNL     1     121.846 112.633 109.622  1.00  0.00     0.000 C 
BRANCH  19  20
ATOM     20  C   UNL     1     121.542 113.597 108.462  1.00  0.00     0.006 C 
BRANCH  20  21
ATOM     21  C   UNL     1     120.978 112.867 107.237  1.00  0.00     0.053 C 
BRANCH  21  22
ATOM     22  C   UNL     1     121.865 113.023 106.040  1.00  0.00     0.041 C 
ATOM     23  O   UNL     1     122.785 112.190 105.824  1.00  0.00    -0.550 OA
ATOM     24  O   UNL     1     121.700 114.105 105.186  1.00  0.00    -0.550 OA
ENDBRANCH  21  22
ENDBRANCH  20  21
ENDBRANCH  19  20
ENDBRANCH  18  19
ENDBRANCH  17  18
ENDBRANCH  16  17
ENDBRANCH  15  16
ENDBRANCH  14  15
ENDBRANCH  13  14
ENDBRANCH   1  13
TORSDOF 20
ENDMDL
MODEL 9
REMARK VINA RESULT:    -3.938      2.954      5.775
REMARK INTER + INTRA:         -11.203
REMARK INTER:                  -6.983
REMARK INTRA:                  -4.220
REMARK UNBOUND:                -2.660
REMARK SMILES CCCCCCCCCCCCCCCCCCCCCC(=O)[O-]
REMARK SMILES IDX 12 1 11 2 10 3 9 4 8 5 7 6 6 7 5 8 4 9 3 10 2 11 1 12 13 13
REMARK SMILES IDX 14 14 15 15 16 16 17 17 18 18 19 19 20 20 21 21 22 22 23 23
REMARK SMILES IDX 24 24
REMARK H PARENT
REMARK Flexibility Score: inf
ROOT
ATOM      1  C   UNL     1     119.647 111.287 109.039  1.00  0.00     0.000 C 
ENDROOT
BRANCH   1   2
ATOM      2  C   UNL     1     119.260 110.136 109.985  1.00  0.00     0.000 C 
BRANCH   2   3
ATOM      3  C   UNL     1     119.279 110.554 111.462  1.00  0.00     0.000 C 
BRANCH   3   4
ATOM      4  C   UNL     1     120.501 109.996 112.218  1.00  0.00    -0.000 C 
BRANCH   4   5
ATOM      5  C   UNL     1     120.950 110.913 113.366  1.00  0.00    -0.000 C 
BRANCH   5   6
ATOM      6  C   UNL     1     120.112 112.202 113.456  1.00  0.00    -0.000 C 
BRANCH   6   7
ATOM      7  C   UNL     1     120.947 113.410 113.911  1.00  0.00    -0.000 C 
BRANCH   7   8
ATOM      8  C   UNL     1     120.925 114.556 112.883  1.00  0.00    -0.000 C 
BRANCH   8   9
ATOM      9  C   UNL     1     120.648 114.062 111.453  1.00  0.00    -0.000 C 
BRANCH   9  10
ATOM     10  C   UNL     1     121.916 114.039 110.582  1.00  0.00    -0.000 C 
BRANCH  10  11
ATOM     11  C   UNL     1     122.582 112.654 110.548  1.00  0.00    -0.003 C 
ATOM     12  C   UNL     1     123.779 112.545 111.493  1.00  0.00     0.004 C 
ENDBRANCH  10  11
ENDBRANCH   9  10
ENDBRANCH   8   9
ENDBRANCH   7   8
ENDBRANCH   6   7
ENDBRANCH   5   6
ENDBRANCH   4   5
ENDBRANCH   3   4
ENDBRANCH   2   3
ENDBRANCH   1   2
BRANCH   1  13
ATOM     13  C   UNL     1     120.018 110.797 107.628  1.00  0.00     0.000 C 
BRANCH  13  14
ATOM     14  C   UNL     1     119.975 109.267 107.437  1.00  0.00     0.000 C 
BRANCH  14  15
ATOM     15  C   UNL     1     121.140 108.683 106.614  1.00  0.00     0.000 C 
BRANCH  15  16
ATOM     16  C   UNL     1     122.169 107.871 107.425  1.00  0.00     0.000 C 
BRANCH  16  17
ATOM     17  C   UNL     1     122.123 108.089 108.948  1.00  0.00     0.000 C 
BRANCH  17  18
ATOM     18  C   UNL     1     123.051 109.221 109.422  1.00  0.00     0.000 C 
BRANCH  18  19
ATOM     19  C   UNL     1     124.403 109.216 108.692  1.00  0.00     0.000 C 
BRANCH  19  20
ATOM     20  C   UNL     1     124.787 110.603 108.147  1.00  0.00     0.006 C 
BRANCH  20  21
ATOM     21  C   UNL     1     123.599 111.313 107.485  1.00  0.00     0.053 C 
BRANCH  21  22
ATOM     22  C   UNL     1     123.812 111.497 106.014  1.00  0.00     0.041 C 
ATOM     23  O   UNL     1     124.873 111.086 105.473  1.00  0.00    -0.550 OA
ATOM     24  O   UNL     1     122.857 112.153 105.247  1.00  0.00    -0.550 OA
ENDBRANCH  21  22
ENDBRANCH  20  21
ENDBRANCH  19  20
ENDBRANCH  18  19
ENDBRANCH  17  18
ENDBRANCH  16  17
ENDBRANCH  15  16
ENDBRANCH  14  15
ENDBRANCH  13  14
ENDBRANCH   1  13
TORSDOF 20
ENDMDL
