MODEL 1
REMARK VINA RESULT:    -2.970      0.000      0.000
REMARK INTER + INTRA:         -11.452
REMARK INTER:                  -6.789
REMARK INTRA:                  -4.663
REMARK UNBOUND:                -4.663
REMARK SMILES CCCCCCCCCCCCCCCCCCCCCCCC(=O)[O-]
REMARK SMILES IDX 13 1 14 2 15 3 16 4 17 5 18 6 19 7 20 8 21 9 22 10 23 11
REMARK SMILES IDX 24 12 25 13 26 14 12 15 11 16 10 17 9 18 8 19 7 20 6 21 5 22
REMARK SMILES IDX 4 23 3 24 2 25 1 26
REMARK H PARENT
REMARK Flexibility Score: inf
ROOT
ATOM      1  C   UNL     1      52.154  52.403  49.527  1.00  0.00     0.000 C 
ENDROOT
BRANCH   1   2
ATOM      2  C   UNL     1      51.878  52.871  50.964  1.00  0.00     0.000 C 
BRANCH   2   3
ATOM      3  C   UNL     1      52.371  54.306  51.183  1.00  0.00     0.000 C 
BRANCH   3   4
ATOM      4  C   UNL     1      53.422  54.363  52.303  1.00  0.00     0.000 C 
BRANCH   4   5
ATOM      5  C   UNL     1      54.863  54.321  51.769  1.00  0.00     0.000 C 
BRANCH   5   6
ATOM      6  C   UNL     1      55.525  52.945  51.956  1.00  0.00     0.000 C 
BRANCH   6   7
ATOM      7  C   UNL     1      55.823  52.251  50.616  1.00  0.00     0.000 C 
BRANCH   7   8
ATOM      8  C   UNL     1      55.244  50.828  50.541  1.00  0.00     0.000 C 
BRANCH   8   9
ATOM      9  C   UNL     1      54.499  50.434  51.836  1.00  0.00     0.000 C 
BRANCH   9  10
ATOM     10  C   UNL     1      53.271  49.535  51.593  1.00  0.00     0.006 C 
BRANCH  10  11
ATOM     11  C   UNL     1      53.584  48.230  50.844  1.00  0.00     0.053 C 
BRANCH  11  12
ATOM     12  C   UNL     1      53.008  47.029  51.534  1.00  0.00     0.041 C 
ATOM     13  O   UNL     1      52.042  46.404  51.021  1.00  0.00    -0.550 OA
ATOM     14  O   UNL     1      53.525  46.611  52.755  1.00  0.00    -0.550 OA
ENDBRANCH  11  12
ENDBRANCH  10  11
ENDBRANCH   9  10
ENDBRANCH   8   9
ENDBRANCH   7   8
ENDBRANCH   6   7
ENDBRANCH   5   6
ENDBRANCH   4   5
ENDBRANCH   3   4
ENDBRANCH   2   3
ENDBRANCH   1   2
BRANCH   1  15
ATOM     15  C   UNL     1      52.761  53.504  48.639  1.00  0.00     0.000 C 
BRANCH  15  16
ATOM     16  C   UNL     1      53.322  53.022  47.288  1.00  0.00     0.000 C 
BRANCH  16  17
ATOM     17  C   UNL     1      54.857  53.079  47.218  1.00  0.00     0.000 C 
BRANCH  17  18
ATOM     18  C   UNL     1      55.374  53.837  45.981  1.00  0.00    -0.000 C 
BRANCH  18  19
ATOM     19  C   UNL     1      56.275  55.047  46.283  1.00  0.00    -0.000 C 
BRANCH  19  20
ATOM     20  C   UNL     1      56.261  55.446  47.769  1.00  0.00    -0.000 C 
BRANCH  20  21
ATOM     21  C   UNL     1      55.568  56.798  48.006  1.00  0.00    -0.000 C 
BRANCH  21  22
ATOM     22  C   UNL     1      54.450  56.708  49.060  1.00  0.00    -0.000 C 
BRANCH  22  23
ATOM     23  C   UNL     1      53.070  57.098  48.503  1.00  0.00    -0.000 C 
BRANCH  23  24
ATOM     24  C   UNL     1      53.053  57.456  47.006  1.00  0.00    -0.000 C 
BRANCH  24  25
ATOM     25  C   UNL     1      52.276  56.441  46.156  1.00  0.00    -0.003 C 
ATOM     26  C   UNL     1      52.932  56.247  44.792  1.00  0.00     0.004 C 
ENDBRANCH  24  25
ENDBRANCH  23  24
ENDBRANCH  22  23
ENDBRANCH  21  22
ENDBRANCH  20  21
ENDBRANCH  19  20
ENDBRANCH  18  19
ENDBRANCH  17  18
ENDBRANCH  16  17
ENDBRANCH  15  16
ENDBRANCH   1  15
TORSDOF 22
ENDMDL
MODEL 2
REMARK VINA RESULT:    -2.943      3.116      7.322
REMARK INTER + INTRA:         -11.390
REMARK INTER:                  -7.048
REMARK INTRA:                  -4.342
REMARK UNBOUND:                -4.663
REMARK SMILES CCCCCCCCCCCCCCCCCCCCCCCC(=O)[O-]
REMARK SMILES IDX 13 1 14 2 15 3 16 4 17 5 18 6 19 7 20 8 21 9 22 10 23 11
REMARK SMILES IDX 24 12 25 13 26 14 12 15 11 16 10 17 9 18 8 19 7 20 6 21 5 22
REMARK SMILES IDX 4 23 3 24 2 25 1 26
REMARK H PARENT
REMARK Flexibility Score: inf
ROOT
ATOM      1  C   UNL     1      54.768  53.803  47.990  1.00  0.00     0.000 C 
ENDROOT
BRANCH   1   2
ATOM      2  C   UNL     1      55.606  54.616  46.992  1.00  0.00     0.000 C 
BRANCH   2   3
ATOM      3  C   UNL     1      54.974  54.598  45.595  1.00  0.00     0.000 C 
BRANCH   3   4
ATOM      4  C   UNL     1      55.246  55.915  44.850  1.00  0.00     0.000 C 
BRANCH   4   5
ATOM      5  C   UNL     1      53.997  56.802  44.733  1.00  0.00     0.000 C 
BRANCH   5   6
ATOM      6  C   UNL     1      52.700  56.050  45.081  1.00  0.00     0.000 C 
BRANCH   6   7
ATOM      7  C   UNL     1      52.044  56.576  46.368  1.00  0.00     0.000 C 
BRANCH   7   8
ATOM      8  C   UNL     1      52.974  57.499  47.175  1.00  0.00     0.000 C 
BRANCH   8   9
ATOM      9  C   UNL     1      53.216  56.973  48.607  1.00  0.00     0.000 C 
BRANCH   9  10
ATOM     10  C   UNL     1      52.863  57.992  49.707  1.00  0.00     0.006 C 
BRANCH  10  11
ATOM     11  C   UNL     1      53.605  57.769  51.034  1.00  0.00     0.053 C 
BRANCH  11  12
ATOM     12  C   UNL     1      52.729  57.142  52.077  1.00  0.00     0.041 C 
ATOM     13  O   UNL     1      52.946  57.352  53.300  1.00  0.00    -0.550 OA
ATOM     14  O   UNL     1      51.683  56.308  51.699  1.00  0.00    -0.550 OA
ENDBRANCH  11  12
ENDBRANCH  10  11
ENDBRANCH   9  10
ENDBRANCH   8   9
ENDBRANCH   7   8
ENDBRANCH   6   7
ENDBRANCH   5   6
ENDBRANCH   4   5
ENDBRANCH   3   4
ENDBRANCH   2   3
ENDBRANCH   1   2
BRANCH   1  15
ATOM     15  C   UNL     1      53.499  53.198  47.362  1.00  0.00     0.000 C 
BRANCH  15  16
ATOM     16  C   UNL     1      52.450  52.685  48.368  1.00  0.00     0.000 C 
BRANCH  16  17
ATOM     17  C   UNL     1      52.397  53.517  49.660  1.00  0.00     0.000 C 
BRANCH  17  18
ATOM     18  C   UNL     1      51.995  52.686  50.892  1.00  0.00    -0.000 C 
BRANCH  18  19
ATOM     19  C   UNL     1      52.039  51.159  50.695  1.00  0.00    -0.000 C 
BRANCH  19  20
ATOM     20  C   UNL     1      53.215  50.496  51.430  1.00  0.00    -0.000 C 
BRANCH  20  21
ATOM     21  C   UNL     1      54.356  50.101  50.477  1.00  0.00    -0.000 C 
BRANCH  21  22
ATOM     22  C   UNL     1      55.417  51.207  50.339  1.00  0.00    -0.000 C 
BRANCH  22  23
ATOM     23  C   UNL     1      55.688  51.943  51.663  1.00  0.00    -0.000 C 
BRANCH  23  24
ATOM     24  C   UNL     1      55.531  53.472  51.599  1.00  0.00    -0.000 C 
BRANCH  24  25
ATOM     25  C   UNL     1      55.352  54.115  52.981  1.00  0.00    -0.003 C 
ATOM     26  C   UNL     1      53.940  53.888  53.516  1.00  0.00     0.004 C 
ENDBRANCH  24  25
ENDBRANCH  23  24
ENDBRANCH  22  23
ENDBRANCH  21  22
ENDBRANCH  20  21
ENDBRANCH  19  20
ENDBRANCH  18  19
ENDBRANCH  17  18
ENDBRANCH  16  17
ENDBRANCH  15  16
ENDBRANCH   1  15
TORSDOF 22
ENDMDL
MODEL 3
REMARK VINA RESULT:    -2.940      1.603      3.960
REMARK INTER + INTRA:         -11.385
REMARK INTER:                  -6.949
REMARK INTRA:                  -4.436
REMARK UNBOUND:                -4.663
REMARK SMILES CCCCCCCCCCCCCCCCCCCCCCCC(=O)[O-]
REMARK SMILES IDX 13 1 14 2 15 3 16 4 17 5 18 6 19 7 20 8 21 9 22 10 23 11
REMARK SMILES IDX 24 12 25 13 26 14 12 15 11 16 10 17 9 18 8 19 7 20 6 21 5 22
REMARK SMILES IDX 4 23 3 24 2 25 1 26
REMARK H PARENT
REMARK Flexibility Score: inf
ROOT
ATOM      1  C   UNL     1      52.787  53.529  52.087  1.00  0.00     0.000 C 
ENDROOT
BRANCH   1   2
ATOM      2  C   UNL     1      51.960  52.844  50.990  1.00  0.00     0.000 C 
BRANCH   2   3
ATOM      3  C   UNL     1      52.347  53.363  49.600  1.00  0.00     0.000 C 
BRANCH   3   4
ATOM      4  C   UNL     1      52.597  52.199  48.627  1.00  0.00     0.000 C 
BRANCH   4   5
ATOM      5  C   UNL     1      53.217  52.658  47.298  1.00  0.00     0.000 C 
BRANCH   5   6
ATOM      6  C   UNL     1      54.742  52.458  47.253  1.00  0.00     0.000 C 
BRANCH   6   7
ATOM      7  C   UNL     1      55.513  53.751  47.571  1.00  0.00     0.000 C 
BRANCH   7   8
ATOM      8  C   UNL     1      55.912  53.856  49.053  1.00  0.00     0.000 C 
BRANCH   8   9
ATOM      9  C   UNL     1      56.515  52.539  49.589  1.00  0.00     0.000 C 
BRANCH   9  10
ATOM     10  C   UNL     1      55.681  51.887  50.707  1.00  0.00     0.006 C 
BRANCH  10  11
ATOM     11  C   UNL     1      55.233  50.449  50.402  1.00  0.00     0.053 C 
BRANCH  11  12
ATOM     12  C   UNL     1      54.224  49.947  51.392  1.00  0.00     0.041 C 
ATOM     13  O   UNL     1      53.068  49.618  51.010  1.00  0.00    -0.550 OA
ATOM     14  O   UNL     1      54.551  49.862  52.740  1.00  0.00    -0.550 OA
ENDBRANCH  11  12
ENDBRANCH  10  11
ENDBRANCH   9  10
ENDBRANCH   8   9
ENDBRANCH   7   8
ENDBRANCH   6   7
ENDBRANCH   5   6
ENDBRANCH   4   5
ENDBRANCH   3   4
ENDBRANCH   2   3
ENDBRANCH   1   2
BRANCH   1  15
ATOM     15  C   UNL     1      53.520  54.790  51.595  1.00  0.00     0.000 C 
BRANCH  15  16
ATOM     16  C   UNL     1      53.132  56.097  52.313  1.00  0.00     0.000 C 
BRANCH  16  17
ATOM     17  C   UNL     1      52.612  57.180  51.354  1.00  0.00     0.000 C 
BRANCH  17  18
ATOM     18  C   UNL     1      53.045  56.947  49.895  1.00  0.00    -0.000 C 
BRANCH  18  19
ATOM     19  C   UNL     1      52.992  58.192  48.990  1.00  0.00    -0.000 C 
BRANCH  19  20
ATOM     20  C   UNL     1      52.727  57.847  47.515  1.00  0.00    -0.000 C 
BRANCH  20  21
ATOM     21  C   UNL     1      52.739  56.332  47.255  1.00  0.00    -0.000 C 
BRANCH  21  22
ATOM     22  C   UNL     1      52.344  55.979  45.810  1.00  0.00    -0.000 C 
BRANCH  22  23
ATOM     23  C   UNL     1      53.300  56.581  44.766  1.00  0.00    -0.000 C 
BRANCH  23  24
ATOM     24  C   UNL     1      54.708  55.959  44.741  1.00  0.00    -0.000 C 
BRANCH  24  25
ATOM     25  C   UNL     1      55.825  57.000  44.894  1.00  0.00    -0.003 C 
ATOM     26  C   UNL     1      56.236  57.159  46.355  1.00  0.00     0.004 C 
ENDBRANCH  24  25
ENDBRANCH  23  24
ENDBRANCH  22  23
ENDBRANCH  21  22
ENDBRANCH  20  21
ENDBRANCH  19  20
ENDBRANCH  18  19
ENDBRANCH  17  18
ENDBRANCH  16  17
ENDBRANCH  15  16
ENDBRANCH   1  15
TORSDOF 22
ENDMDL
MODEL 4
REMARK VINA RESULT:    -2.924      1.287      4.332
REMARK INTER + INTRA:         -11.347
REMARK INTER:                  -6.570
REMARK INTRA:                  -4.777
REMARK UNBOUND:                -4.663
REMARK SMILES CCCCCCCCCCCCCCCCCCCCCCCC(=O)[O-]
REMARK SMILES IDX 13 1 14 2 15 3 16 4 17 5 18 6 19 7 20 8 21 9 22 10 23 11
REMARK SMILES IDX 24 12 25 13 26 14 12 15 11 16 10 17 9 18 8 19 7 20 6 21 5 22
REMARK SMILES IDX 4 23 3 24 2 25 1 26
REMARK H PARENT
REMARK Flexibility Score: inf
ROOT
ATOM      1  C   UNL     1      53.228  56.311  47.641  1.00  0.00     0.000 C 
ENDROOT
BRANCH   1   2
ATOM      2  C   UNL     1      54.523  56.424  48.459  1.00  0.00     0.000 C 
BRANCH   2   3
ATOM      3  C   UNL     1      54.412  55.653  49.779  1.00  0.00     0.000 C 
BRANCH   3   4
ATOM      4  C   UNL     1      53.183  56.107  50.582  1.00  0.00     0.000 C 
BRANCH   4   5
ATOM      5  C   UNL     1      52.389  54.932  51.172  1.00  0.00     0.000 C 
BRANCH   5   6
ATOM      6  C   UNL     1      52.436  53.677  50.282  1.00  0.00     0.000 C 
BRANCH   6   7
ATOM      7  C   UNL     1      52.024  52.404  51.040  1.00  0.00     0.000 C 
BRANCH   7   8
ATOM      8  C   UNL     1      52.396  51.116  50.287  1.00  0.00     0.000 C 
BRANCH   8   9
ATOM      9  C   UNL     1      52.915  50.015  51.237  1.00  0.00     0.000 C 
BRANCH   9  10
ATOM     10  C   UNL     1      53.986  49.106  50.603  1.00  0.00     0.006 C 
BRANCH  10  11
ATOM     11  C   UNL     1      54.313  47.849  51.425  1.00  0.00     0.053 C 
BRANCH  11  12
ATOM     12  C   UNL     1      53.120  46.956  51.595  1.00  0.00     0.041 C 
ATOM     13  O   UNL     1      52.610  46.788  52.735  1.00  0.00    -0.550 OA
ATOM     14  O   UNL     1      52.584  46.292  50.498  1.00  0.00    -0.550 OA
ENDBRANCH  11  12
ENDBRANCH  10  11
ENDBRANCH   9  10
ENDBRANCH   8   9
ENDBRANCH   7   8
ENDBRANCH   6   7
ENDBRANCH   5   6
ENDBRANCH   4   5
ENDBRANCH   3   4
ENDBRANCH   2   3
ENDBRANCH   1   2
BRANCH   1  15
ATOM     15  C   UNL     1      53.244  55.141  46.640  1.00  0.00     0.000 C 
BRANCH  15  16
ATOM     16  C   UNL     1      54.581  54.925  45.905  1.00  0.00     0.000 C 
BRANCH  16  17
ATOM     17  C   UNL     1      55.167  53.520  46.119  1.00  0.00     0.000 C 
BRANCH  17  18
ATOM     18  C   UNL     1      54.330  52.663  47.087  1.00  0.00    -0.000 C 
BRANCH  18  19
ATOM     19  C   UNL     1      55.115  52.039  48.255  1.00  0.00    -0.000 C 
BRANCH  19  20
ATOM     20  C   UNL     1      56.517  52.648  48.425  1.00  0.00    -0.000 C 
BRANCH  20  21
ATOM     21  C   UNL     1      56.861  52.926  49.898  1.00  0.00    -0.000 C 
BRANCH  21  22
ATOM     22  C   UNL     1      55.896  52.225  50.870  1.00  0.00    -0.000 C 
BRANCH  22  23
ATOM     23  C   UNL     1      55.675  53.019  52.169  1.00  0.00    -0.000 C 
BRANCH  23  24
ATOM     24  C   UNL     1      55.070  52.209  53.329  1.00  0.00    -0.000 C 
BRANCH  24  25
ATOM     25  C   UNL     1      53.972  52.971  54.083  1.00  0.00    -0.003 C 
ATOM     26  C   UNL     1      54.380  54.420  54.336  1.00  0.00     0.004 C 
ENDBRANCH  24  25
ENDBRANCH  23  24
ENDBRANCH  22  23
ENDBRANCH  21  22
ENDBRANCH  20  21
ENDBRANCH  19  20
ENDBRANCH  18  19
ENDBRANCH  17  18
ENDBRANCH  16  17
ENDBRANCH  15  16
ENDBRANCH   1  15
TORSDOF 22
ENDMDL
MODEL 5
REMARK VINA RESULT:    -2.910      1.352      3.181
REMARK INTER + INTRA:         -11.315
REMARK INTER:                  -6.949
REMARK INTRA:                  -4.366
REMARK UNBOUND:                -4.663
REMARK SMILES CCCCCCCCCCCCCCCCCCCCCCCC(=O)[O-]
REMARK SMILES IDX 13 1 14 2 15 3 16 4 17 5 18 6 19 7 20 8 21 9 22 10 23 11
REMARK SMILES IDX 24 12 25 13 26 14 12 15 11 16 10 17 9 18 8 19 7 20 6 21 5 22
REMARK SMILES IDX 4 23 3 24 2 25 1 26
REMARK H PARENT
REMARK Flexibility Score: inf
ROOT
ATOM      1  C   UNL     1      52.800  53.306  52.098  1.00  0.00     0.000 C 
ENDROOT
BRANCH   1   2
ATOM      2  C   UNL     1      52.009  52.686  50.937  1.00  0.00     0.000 C 
BRANCH   2   3
ATOM      3  C   UNL     1      52.389  53.333  49.600  1.00  0.00     0.000 C 
BRANCH   3   4
ATOM      4  C   UNL     1      52.467  52.282  48.481  1.00  0.00     0.000 C 
BRANCH   4   5
ATOM      5  C   UNL     1      53.820  52.285  47.754  1.00  0.00     0.000 C 
BRANCH   5   6
ATOM      6  C   UNL     1      54.989  52.673  48.678  1.00  0.00     0.000 C 
BRANCH   6   7
ATOM      7  C   UNL     1      55.693  51.445  49.280  1.00  0.00     0.000 C 
BRANCH   7   8
ATOM      8  C   UNL     1      55.713  51.465  50.818  1.00  0.00     0.000 C 
BRANCH   8   9
ATOM      9  C   UNL     1      54.947  50.270  51.426  1.00  0.00     0.000 C 
BRANCH   9  10
ATOM     10  C   UNL     1      54.035  49.543  50.419  1.00  0.00     0.006 C 
BRANCH  10  11
ATOM     11  C   UNL     1      54.501  48.125  50.056  1.00  0.00     0.053 C 
BRANCH  11  12
ATOM     12  C   UNL     1      53.727  47.069  50.787  1.00  0.00     0.041 C 
ATOM     13  O   UNL     1      54.187  45.900  50.889  1.00  0.00    -0.550 OA
ATOM     14  O   UNL     1      52.487  47.369  51.339  1.00  0.00    -0.550 OA
ENDBRANCH  11  12
ENDBRANCH  10  11
ENDBRANCH   9  10
ENDBRANCH   8   9
ENDBRANCH   7   8
ENDBRANCH   6   7
ENDBRANCH   5   6
ENDBRANCH   4   5
ENDBRANCH   3   4
ENDBRANCH   2   3
ENDBRANCH   1   2
BRANCH   1  15
ATOM     15  C   UNL     1      53.315  54.724  51.790  1.00  0.00     0.000 C 
BRANCH  15  16
ATOM     16  C   UNL     1      54.841  54.906  51.894  1.00  0.00     0.000 C 
BRANCH  16  17
ATOM     17  C   UNL     1      55.434  55.704  50.722  1.00  0.00     0.000 C 
BRANCH  17  18
ATOM     18  C   UNL     1      54.374  56.510  49.948  1.00  0.00    -0.000 C 
BRANCH  18  19
ATOM     19  C   UNL     1      54.418  56.348  48.417  1.00  0.00    -0.000 C 
BRANCH  19  20
ATOM     20  C   UNL     1      53.047  56.565  47.754  1.00  0.00    -0.000 C 
BRANCH  20  21
ATOM     21  C   UNL     1      52.753  55.525  46.661  1.00  0.00    -0.000 C 
BRANCH  21  22
ATOM     22  C   UNL     1      52.047  56.139  45.439  1.00  0.00    -0.000 C 
BRANCH  22  23
ATOM     23  C   UNL     1      53.008  56.914  44.521  1.00  0.00    -0.000 C 
BRANCH  23  24
ATOM     24  C   UNL     1      54.418  56.309  44.398  1.00  0.00    -0.000 C 
BRANCH  24  25
ATOM     25  C   UNL     1      55.523  57.262  44.871  1.00  0.00    -0.003 C 
ATOM     26  C   UNL     1      54.957  58.640  45.204  1.00  0.00     0.004 C 
ENDBRANCH  24  25
ENDBRANCH  23  24
ENDBRANCH  22  23
ENDBRANCH  21  22
ENDBRANCH  20  21
ENDBRANCH  19  20
ENDBRANCH  18  19
ENDBRANCH  17  18
ENDBRANCH  16  17
ENDBRANCH  15  16
ENDBRANCH   1  15
TORSDOF 22
ENDMDL
MODEL 6
REMARK VINA RESULT:    -2.892      4.172      7.218
REMARK INTER + INTRA:         -11.275
REMARK INTER:                  -6.256
REMARK INTRA:                  -5.020
REMARK UNBOUND:                -4.663
REMARK SMILES CCCCCCCCCCCCCCCCCCCCCCCC(=O)[O-]
REMARK SMILES IDX 13 1 14 2 15 3 16 4 17 5 18 6 19 7 20 8 21 9 22 10 23 11
REMARK SMILES IDX 24 12 25 13 26 14 12 15 11 16 10 17 9 18 8 19 7 20 6 21 5 22
REMARK SMILES IDX 4 23 3 24 2 25 1 26
REMARK H PARENT
REMARK Flexibility Score: inf
ROOT
ATOM      1  C   UNL     1      52.447  52.327  50.214  1.00  0.00     0.000 C 
ENDROOT
BRANCH   1   2
ATOM      2  C   UNL     1      52.349  53.043  48.858  1.00  0.00     0.000 C 
BRANCH   2   3
ATOM      3  C   UNL     1      53.082  52.257  47.764  1.00  0.00     0.000 C 
BRANCH   3   4
ATOM      4  C   UNL     1      54.440  51.745  48.269  1.00  0.00     0.000 C 
BRANCH   4   5
ATOM      5  C   UNL     1      55.604  52.136  47.346  1.00  0.00     0.000 C 
BRANCH   5   6
ATOM      6  C   UNL     1      55.139  52.897  46.093  1.00  0.00     0.000 C 
BRANCH   6   7
ATOM      7  C   UNL     1      55.957  54.175  45.844  1.00  0.00     0.000 C 
BRANCH   7   8
ATOM      8  C   UNL     1      55.095  55.346  45.342  1.00  0.00     0.000 C 
BRANCH   8   9
ATOM      9  C   UNL     1      53.631  55.238  45.821  1.00  0.00     0.000 C 
BRANCH   9  10
ATOM     10  C   UNL     1      52.948  56.603  46.035  1.00  0.00     0.006 C 
BRANCH  10  11
ATOM     11  C   UNL     1      53.862  57.812  45.776  1.00  0.00     0.053 C 
BRANCH  11  12
ATOM     12  C   UNL     1      54.106  58.615  47.018  1.00  0.00     0.041 C 
ATOM     13  O   UNL     1      53.155  59.225  47.577  1.00  0.00    -0.550 OA
ATOM     14  O   UNL     1      55.387  58.708  47.548  1.00  0.00    -0.550 OA
ENDBRANCH  11  12
ENDBRANCH  10  11
ENDBRANCH   9  10
ENDBRANCH   8   9
ENDBRANCH   7   8
ENDBRANCH   6   7
ENDBRANCH   5   6
ENDBRANCH   4   5
ENDBRANCH   3   4
ENDBRANCH   2   3
ENDBRANCH   1   2
BRANCH   1  15
ATOM     15  C   UNL     1      51.990  53.204  51.395  1.00  0.00     0.000 C 
BRANCH  15  16
ATOM     16  C   UNL     1      53.117  53.683  52.330  1.00  0.00     0.000 C 
BRANCH  16  17
ATOM     17  C   UNL     1      53.261  55.214  52.363  1.00  0.00     0.000 C 
BRANCH  17  18
ATOM     18  C   UNL     1      52.316  55.927  51.377  1.00  0.00    -0.000 C 
BRANCH  18  19
ATOM     19  C   UNL     1      52.996  56.509  50.125  1.00  0.00    -0.000 C 
BRANCH  19  20
ATOM     20  C   UNL     1      54.531  56.437  50.189  1.00  0.00    -0.000 C 
BRANCH  20  21
ATOM     21  C   UNL     1      55.120  55.513  49.110  1.00  0.00    -0.000 C 
BRANCH  21  22
ATOM     22  C   UNL     1      56.488  54.936  49.513  1.00  0.00    -0.000 C 
BRANCH  22  23
ATOM     23  C   UNL     1      56.498  54.362  50.941  1.00  0.00    -0.000 C 
BRANCH  23  24
ATOM     24  C   UNL     1      56.560  52.826  51.022  1.00  0.00    -0.000 C 
BRANCH  24  25
ATOM     25  C   UNL     1      56.621  52.304  52.464  1.00  0.00    -0.003 C 
ATOM     26  C   UNL     1      56.693  53.455  53.464  1.00  0.00     0.004 C 
ENDBRANCH  24  25
ENDBRANCH  23  24
ENDBRANCH  22  23
ENDBRANCH  21  22
ENDBRANCH  20  21
ENDBRANCH  19  20
ENDBRANCH  18  19
ENDBRANCH  17  18
ENDBRANCH  16  17
ENDBRANCH  15  16
ENDBRANCH   1  15
TORSDOF 22
ENDMDL
MODEL 7
REMARK VINA RESULT:    -2.838      1.575      3.574
REMARK INTER + INTRA:         -11.150
REMARK INTER:                  -6.934
REMARK INTRA:                  -4.216
REMARK UNBOUND:                -4.663
REMARK SMILES CCCCCCCCCCCCCCCCCCCCCCCC(=O)[O-]
REMARK SMILES IDX 13 1 14 2 15 3 16 4 17 5 18 6 19 7 20 8 21 9 22 10 23 11
REMARK SMILES IDX 24 12 25 13 26 14 12 15 11 16 10 17 9 18 8 19 7 20 6 21 5 22
REMARK SMILES IDX 4 23 3 24 2 25 1 26
REMARK H PARENT
REMARK Flexibility Score: inf
ROOT
ATOM      1  C   UNL     1      54.786  52.523  47.911  1.00  0.00     0.000 C 
ENDROOT
BRANCH   1   2
ATOM      2  C   UNL     1      53.343  52.566  47.385  1.00  0.00     0.000 C 
BRANCH   2   3
ATOM      3  C   UNL     1      52.355  52.903  48.508  1.00  0.00     0.000 C 
BRANCH   3   4
ATOM      4  C   UNL     1      52.556  51.974  49.717  1.00  0.00     0.000 C 
BRANCH   4   5
ATOM      5  C   UNL     1      51.961  52.546  51.013  1.00  0.00     0.000 C 
BRANCH   5   6
ATOM      6  C   UNL     1      52.317  54.028  51.227  1.00  0.00     0.000 C 
BRANCH   6   7
ATOM      7  C   UNL     1      53.754  54.217  51.740  1.00  0.00     0.000 C 
BRANCH   7   8
ATOM      8  C   UNL     1      53.830  54.306  53.274  1.00  0.00     0.000 C 
BRANCH   8   9
ATOM      9  C   UNL     1      54.095  52.930  53.925  1.00  0.00     0.000 C 
BRANCH   9  10
ATOM     10  C   UNL     1      54.940  51.985  53.049  1.00  0.00     0.006 C 
BRANCH  10  11
ATOM     11  C   UNL     1      54.923  50.518  53.507  1.00  0.00     0.053 C 
BRANCH  11  12
ATOM     12  C   UNL     1      54.541  49.582  52.399  1.00  0.00     0.041 C 
ATOM     13  O   UNL     1      53.333  49.450  52.066  1.00  0.00    -0.550 OA
ATOM     14  O   UNL     1      55.518  48.839  51.746  1.00  0.00    -0.550 OA
ENDBRANCH  11  12
ENDBRANCH  10  11
ENDBRANCH   9  10
ENDBRANCH   8   9
ENDBRANCH   7   8
ENDBRANCH   6   7
ENDBRANCH   5   6
ENDBRANCH   4   5
ENDBRANCH   3   4
ENDBRANCH   2   3
ENDBRANCH   1   2
BRANCH   1  15
ATOM     15  C   UNL     1      55.797  53.185  46.957  1.00  0.00     0.000 C 
BRANCH  15  16
ATOM     16  C   UNL     1      56.191  54.630  47.318  1.00  0.00     0.000 C 
BRANCH  16  17
ATOM     17  C   UNL     1      55.692  55.061  48.707  1.00  0.00     0.000 C 
BRANCH  17  18
ATOM     18  C   UNL     1      54.942  56.406  48.685  1.00  0.00    -0.000 C 
BRANCH  18  19
ATOM     19  C   UNL     1      53.414  56.302  48.529  1.00  0.00    -0.000 C 
BRANCH  19  20
ATOM     20  C   UNL     1      52.856  57.255  47.459  1.00  0.00    -0.000 C 
BRANCH  20  21
ATOM     21  C   UNL     1      52.174  56.504  46.304  1.00  0.00    -0.000 C 
BRANCH  21  22
ATOM     22  C   UNL     1      53.171  55.683  45.466  1.00  0.00    -0.000 C 
BRANCH  22  23
ATOM     23  C   UNL     1      53.792  56.492  44.314  1.00  0.00    -0.000 C 
BRANCH  23  24
ATOM     24  C   UNL     1      55.330  56.549  44.317  1.00  0.00    -0.000 C 
BRANCH  24  25
ATOM     25  C   UNL     1      55.887  57.657  45.221  1.00  0.00    -0.003 C 
ATOM     26  C   UNL     1      55.070  58.939  45.091  1.00  0.00     0.004 C 
ENDBRANCH  24  25
ENDBRANCH  23  24
ENDBRANCH  22  23
ENDBRANCH  21  22
ENDBRANCH  20  21
ENDBRANCH  19  20
ENDBRANCH  18  19
ENDBRANCH  17  18
ENDBRANCH  16  17
ENDBRANCH  15  16
ENDBRANCH   1  15
TORSDOF 22
ENDMDL
MODEL 8
REMARK VINA RESULT:    -2.815      1.946      4.803
REMARK INTER + INTRA:         -11.100
REMARK INTER:                  -6.584
REMARK INTRA:                  -4.516
REMARK UNBOUND:                -4.663
REMARK SMILES CCCCCCCCCCCCCCCCCCCCCCCC(=O)[O-]
REMARK SMILES IDX 13 1 14 2 15 3 16 4 17 5 18 6 19 7 20 8 21 9 22 10 23 11
REMARK SMILES IDX 24 12 25 13 26 14 12 15 11 16 10 17 9 18 8 19 7 20 6 21 5 22
REMARK SMILES IDX 4 23 3 24 2 25 1 26
REMARK H PARENT
REMARK Flexibility Score: inf
ROOT
ATOM      1  C   UNL     1      56.806  57.678  47.058  1.00  0.00     0.000 C 
ENDROOT
BRANCH   1   2
ATOM      2  C   UNL     1      57.391  56.549  47.918  1.00  0.00     0.000 C 
BRANCH   2   3
ATOM      3  C   UNL     1      57.320  55.203  47.187  1.00  0.00     0.000 C 
BRANCH   3   4
ATOM      4  C   UNL     1      56.368  54.234  47.906  1.00  0.00     0.000 C 
BRANCH   4   5
ATOM      5  C   UNL     1      56.073  52.970  47.085  1.00  0.00     0.000 C 
BRANCH   5   6
ATOM      6  C   UNL     1      54.919  52.137  47.669  1.00  0.00     0.000 C 
BRANCH   6   7
ATOM      7  C   UNL     1      53.540  52.646  47.217  1.00  0.00     0.000 C 
BRANCH   7   8
ATOM      8  C   UNL     1      52.428  52.330  48.231  1.00  0.00     0.000 C 
BRANCH   8   9
ATOM      9  C   UNL     1      52.405  53.335  49.404  1.00  0.00     0.000 C 
BRANCH   9  10
ATOM     10  C   UNL     1      52.011  52.702  50.752  1.00  0.00     0.006 C 
BRANCH  10  11
ATOM     11  C   UNL     1      53.205  52.326  51.644  1.00  0.00     0.053 C 
BRANCH  11  12
ATOM     12  C   UNL     1      53.591  50.884  51.497  1.00  0.00     0.041 C 
ATOM     13  O   UNL     1      54.734  50.493  51.855  1.00  0.00    -0.550 OA
ATOM     14  O   UNL     1      52.696  49.975  50.944  1.00  0.00    -0.550 OA
ENDBRANCH  11  12
ENDBRANCH  10  11
ENDBRANCH   9  10
ENDBRANCH   8   9
ENDBRANCH   7   8
ENDBRANCH   6   7
ENDBRANCH   5   6
ENDBRANCH   4   5
ENDBRANCH   3   4
ENDBRANCH   2   3
ENDBRANCH   1   2
BRANCH   1  15
ATOM     15  C   UNL     1      57.170  57.553  45.567  1.00  0.00     0.000 C 
BRANCH  15  16
ATOM     16  C   UNL     1      55.981  57.646  44.591  1.00  0.00     0.000 C 
BRANCH  16  17
ATOM     17  C   UNL     1      55.560  56.280  44.024  1.00  0.00     0.000 C 
BRANCH  17  18
ATOM     18  C   UNL     1      54.497  55.574  44.887  1.00  0.00    -0.000 C 
BRANCH  18  19
ATOM     19  C   UNL     1      53.116  56.255  44.910  1.00  0.00    -0.000 C 
BRANCH  19  20
ATOM     20  C   UNL     1      52.400  56.108  46.263  1.00  0.00    -0.000 C 
BRANCH  20  21
ATOM     21  C   UNL     1      53.361  56.256  47.455  1.00  0.00    -0.000 C 
BRANCH  21  22
ATOM     22  C   UNL     1      53.061  57.507  48.300  1.00  0.00    -0.000 C 
BRANCH  22  23
ATOM     23  C   UNL     1      53.961  57.618  49.543  1.00  0.00    -0.000 C 
BRANCH  23  24
ATOM     24  C   UNL     1      54.281  56.281  50.234  1.00  0.00    -0.000 C 
BRANCH  24  25
ATOM     25  C   UNL     1      53.665  56.168  51.635  1.00  0.00    -0.003 C 
ATOM     26  C   UNL     1      52.154  56.383  51.592  1.00  0.00     0.004 C 
ENDBRANCH  24  25
ENDBRANCH  23  24
ENDBRANCH  22  23
ENDBRANCH  21  22
ENDBRANCH  20  21
ENDBRANCH  19  20
ENDBRANCH  18  19
ENDBRANCH  17  18
ENDBRANCH  16  17
ENDBRANCH  15  16
ENDBRANCH   1  15
TORSDOF 22
ENDMDL
MODEL 9
REMARK VINA RESULT:    -2.803      3.094      7.529
REMARK INTER + INTRA:         -11.072
REMARK INTER:                  -7.261
REMARK INTRA:                  -3.810
REMARK UNBOUND:                -4.663
REMARK SMILES CCCCCCCCCCCCCCCCCCCCCCCC(=O)[O-]
REMARK SMILES IDX 13 1 14 2 15 3 16 4 17 5 18 6 19 7 20 8 21 9 22 10 23 11
REMARK SMILES IDX 24 12 25 13 26 14 12 15 11 16 10 17 9 18 8 19 7 20 6 21 5 22
REMARK SMILES IDX 4 23 3 24 2 25 1 26
REMARK H PARENT
REMARK Flexibility Score: inf
ROOT
ATOM      1  C   UNL     1      55.032  53.324  48.094  1.00  0.00     0.000 C 
ENDROOT
BRANCH   1   2
ATOM      2  C   UNL     1      55.893  54.215  47.187  1.00  0.00     0.000 C 
BRANCH   2   3
ATOM      3  C   UNL     1      55.449  54.107  45.723  1.00  0.00     0.000 C 
BRANCH   3   4
ATOM      4  C   UNL     1      55.401  55.492  45.058  1.00  0.00     0.000 C 
BRANCH   4   5
ATOM      5  C   UNL     1      53.967  55.963  44.768  1.00  0.00     0.000 C 
BRANCH   5   6
ATOM      6  C   UNL     1      53.453  56.975  45.807  1.00  0.00     0.000 C 
BRANCH   6   7
ATOM      7  C   UNL     1      52.701  56.297  46.964  1.00  0.00     0.000 C 
BRANCH   7   8
ATOM      8  C   UNL     1      53.330  56.593  48.336  1.00  0.00     0.000 C 
BRANCH   8   9
ATOM      9  C   UNL     1      52.981  58.010  48.843  1.00  0.00     0.000 C 
BRANCH   9  10
ATOM     10  C   UNL     1      53.657  58.373  50.179  1.00  0.00     0.006 C 
BRANCH  10  11
ATOM     11  C   UNL     1      54.027  57.160  51.048  1.00  0.00     0.053 C 
BRANCH  11  12
ATOM     12  C   UNL     1      53.016  56.906  52.127  1.00  0.00     0.041 C 
ATOM     13  O   UNL     1      53.379  56.823  53.331  1.00  0.00    -0.550 OA
ATOM     14  O   UNL     1      51.675  56.739  51.801  1.00  0.00    -0.550 OA
ENDBRANCH  11  12
ENDBRANCH  10  11
ENDBRANCH   9  10
ENDBRANCH   8   9
ENDBRANCH   7   8
ENDBRANCH   6   7
ENDBRANCH   5   6
ENDBRANCH   4   5
ENDBRANCH   3   4
ENDBRANCH   2   3
ENDBRANCH   1   2
BRANCH   1  15
ATOM     15  C   UNL     1      53.864  52.652  47.349  1.00  0.00     0.000 C 
BRANCH  15  16
ATOM     16  C   UNL     1      52.640  52.309  48.221  1.00  0.00     0.000 C 
BRANCH  16  17
ATOM     17  C   UNL     1      52.365  53.358  49.312  1.00  0.00     0.000 C 
BRANCH  17  18
ATOM     18  C   UNL     1      51.983  52.729  50.665  1.00  0.00    -0.000 C 
BRANCH  18  19
ATOM     19  C   UNL     1      52.723  53.305  51.886  1.00  0.00    -0.000 C 
BRANCH  19  20
ATOM     20  C   UNL     1      54.217  52.942  51.905  1.00  0.00    -0.000 C 
BRANCH  20  21
ATOM     21  C   UNL     1      54.452  51.434  52.087  1.00  0.00    -0.000 C 
BRANCH  21  22
ATOM     22  C   UNL     1      55.137  50.793  50.866  1.00  0.00    -0.000 C 
BRANCH  22  23
ATOM     23  C   UNL     1      54.301  49.666  50.235  1.00  0.00    -0.000 C 
BRANCH  23  24
ATOM     24  C   UNL     1      53.075  49.230  51.057  1.00  0.00    -0.000 C 
BRANCH  24  25
ATOM     25  C   UNL     1      53.300  47.916  51.818  1.00  0.00    -0.003 C 
ATOM     26  C   UNL     1      52.385  46.812  51.295  1.00  0.00     0.004 C 
ENDBRANCH  24  25
ENDBRANCH  23  24
ENDBRANCH  22  23
ENDBRANCH  21  22
ENDBRANCH  20  21
ENDBRANCH  19  20
ENDBRANCH  18  19
ENDBRANCH  17  18
ENDBRANCH  16  17
ENDBRANCH  15  16
ENDBRANCH   1  15
TORSDOF 22
ENDMDL
