MODEL 1
REMARK VINA RESULT:     7.180      0.000      0.000
REMARK INTER + INTRA:           8.963
REMARK INTER:                   8.649
REMARK INTRA:                   0.314
REMARK UNBOUND:                 0.314
REMARK SMILES O=c1c(O)c(-c2ccc(O)c(O)c2)oc2cc(O)cc(O)c12
REMARK SMILES IDX 5 1 3 2 2 3 1 4 22 5 20 6 19 7 17 8 16 9 15 10 14 11 6 12
REMARK SMILES IDX 7 13 8 14 9 15 13 16 11 17 10 18 12 20 4 22 21 24 18 26
REMARK H PARENT 10 19 12 21 4 23 21 25 18 27
REMARK Flexibility Score: inf
ROOT
ATOM      1  C   UNL     1     -22.395  11.704   5.213  1.00  0.00     0.180 A 
ATOM      2  C   UNL     1     -21.153  11.417   4.620  1.00  0.00     0.208 A 
ATOM      3  C   UNL     1     -20.806  10.077   4.383  1.00  0.00     0.238 A 
ATOM      4  O   UNL     1     -19.669   9.823   3.903  1.00  0.00    -0.285 OA
ATOM      5  C   UNL     1     -21.710   9.043   4.725  1.00  0.00     0.111 A 
ATOM      6  C   UNL     1     -21.478   7.654   4.492  1.00  0.00     0.134 A 
ATOM      7  C   UNL     1     -22.385   6.710   4.991  1.00  0.00     0.093 A 
ATOM      8  C   UNL     1     -23.546   7.107   5.654  1.00  0.00     0.123 A 
ATOM      9  C   UNL     1     -23.812   8.464   5.835  1.00  0.00     0.094 A 
ATOM     10  C   UNL     1     -22.908   9.428   5.381  1.00  0.00     0.146 A 
ATOM     11  O   UNL     1     -23.193  10.709   5.583  1.00  0.00    -0.452 OA
ENDROOT
BRANCH   1  12
ATOM     12  C   UNL     1     -22.842  13.092   5.472  1.00  0.00     0.025 A 
ATOM     13  C   UNL     1     -24.213  13.392   5.447  1.00  0.00     0.016 A 
ATOM     14  C   UNL     1     -24.656  14.699   5.666  1.00  0.00     0.051 A 
ATOM     15  C   UNL     1     -23.733  15.726   5.899  1.00  0.00     0.157 A 
ATOM     16  C   UNL     1     -21.918  14.131   5.686  1.00  0.00     0.062 A 
ATOM     17  C   UNL     1     -22.362  15.443   5.904  1.00  0.00     0.158 A 
BRANCH  15  18
ATOM     18  O   UNL     1     -24.171  17.031   6.121  1.00  0.00    -0.504 OA
ATOM     19  H   UNL     1     -24.369  17.662   5.353  1.00  0.00     0.293 HD
ENDBRANCH  15  18
BRANCH  17  20
ATOM     20  O   UNL     1     -21.446  16.471   6.124  1.00  0.00    -0.504 OA
ATOM     21  H   UNL     1     -21.678  17.438   5.933  1.00  0.00     0.293 HD
ENDBRANCH  17  20
ENDBRANCH   1  12
BRANCH   2  22
ATOM     22  O   UNL     1     -20.266  12.451   4.310  1.00  0.00    -0.502 OA
ATOM     23  H   UNL     1     -19.456  12.313   3.718  1.00  0.00     0.293 HD
ENDBRANCH   2  22
BRANCH   6  24
ATOM     24  O   UNL     1     -20.398   7.154   3.760  1.00  0.00    -0.507 OA
ATOM     25  H   UNL     1     -20.021   6.224   3.856  1.00  0.00     0.293 HD
ENDBRANCH   6  24
BRANCH   8  26
ATOM     26  O   UNL     1     -24.433   6.140   6.122  1.00  0.00    -0.508 OA
ATOM     27  H   UNL     1     -25.220   6.385   6.711  1.00  0.00     0.293 HD
ENDBRANCH   8  26
TORSDOF 6
ENDMDL
MODEL 2
REMARK VINA RESULT:     7.960      0.777      1.435
REMARK INTER + INTRA:           9.903
REMARK INTER:                   9.922
REMARK INTRA:                  -0.020
REMARK UNBOUND:                 0.314
REMARK SMILES O=c1c(O)c(-c2ccc(O)c(O)c2)oc2cc(O)cc(O)c12
REMARK SMILES IDX 5 1 3 2 2 3 1 4 22 5 20 6 19 7 17 8 16 9 15 10 14 11 6 12
REMARK SMILES IDX 7 13 8 14 9 15 13 16 11 17 10 18 12 20 4 22 21 24 18 26
REMARK H PARENT 10 19 12 21 4 23 21 25 18 27
REMARK Flexibility Score: inf
ROOT
ATOM      1  C   UNL     1     -22.181  11.961   5.034  1.00  0.00     0.180 A 
ATOM      2  C   UNL     1     -20.949  11.500   4.540  1.00  0.00     0.208 A 
ATOM      3  C   UNL     1     -20.746  10.117   4.402  1.00  0.00     0.238 A 
ATOM      4  O   UNL     1     -19.621   9.707   4.011  1.00  0.00    -0.285 OA
ATOM      5  C   UNL     1     -21.782   9.215   4.743  1.00  0.00     0.111 A 
ATOM      6  C   UNL     1     -21.700   7.797   4.605  1.00  0.00     0.134 A 
ATOM      7  C   UNL     1     -22.736   6.994   5.097  1.00  0.00     0.093 A 
ATOM      8  C   UNL     1     -23.880   7.560   5.661  1.00  0.00     0.123 A 
ATOM      9  C   UNL     1     -23.997   8.947   5.747  1.00  0.00     0.094 A 
ATOM     10  C   UNL     1     -22.963   9.773   5.298  1.00  0.00     0.146 A 
ATOM     11  O   UNL     1     -23.109  11.088   5.408  1.00  0.00    -0.452 OA
ENDROOT
BRANCH   1  12
ATOM     12  C   UNL     1     -22.479  13.405   5.184  1.00  0.00     0.025 A 
ATOM     13  C   UNL     1     -21.622  14.210   5.952  1.00  0.00     0.016 A 
ATOM     14  C   UNL     1     -21.895  15.569   6.125  1.00  0.00     0.051 A 
ATOM     15  C   UNL     1     -23.036  16.139   5.545  1.00  0.00     0.157 A 
ATOM     16  C   UNL     1     -23.634  13.977   4.621  1.00  0.00     0.062 A 
ATOM     17  C   UNL     1     -23.909  15.341   4.795  1.00  0.00     0.158 A 
BRANCH  15  18
ATOM     18  O   UNL     1     -23.310  17.495   5.712  1.00  0.00    -0.504 OA
ATOM     19  H   UNL     1     -22.694  18.099   6.244  1.00  0.00     0.293 HD
ENDBRANCH  15  18
BRANCH  17  20
ATOM     20  O   UNL     1     -25.050  15.908   4.230  1.00  0.00    -0.504 OA
ATOM     21  H   UNL     1     -25.095  16.895   4.004  1.00  0.00     0.293 HD
ENDBRANCH  17  20
ENDBRANCH   1  12
BRANCH   2  22
ATOM     22  O   UNL     1     -19.932  12.406   4.230  1.00  0.00    -0.502 OA
ATOM     23  H   UNL     1     -18.984  12.297   4.570  1.00  0.00     0.293 HD
ENDBRANCH   2  22
BRANCH   6  24
ATOM     24  O   UNL     1     -20.644   7.133   3.974  1.00  0.00    -0.507 OA
ATOM     25  H   UNL     1     -20.068   6.428   4.408  1.00  0.00     0.293 HD
ENDBRANCH   6  24
BRANCH   8  26
ATOM     26  O   UNL     1     -24.899   6.731   6.125  1.00  0.00    -0.508 OA
ATOM     27  H   UNL     1     -24.845   6.282   7.032  1.00  0.00     0.293 HD
ENDBRANCH   8  26
TORSDOF 6
ENDMDL
MODEL 3
REMARK VINA RESULT:     9.865      1.308      3.085
REMARK INTER + INTRA:          12.197
REMARK INTER:                  12.174
REMARK INTRA:                   0.023
REMARK UNBOUND:                 0.314
REMARK SMILES O=c1c(O)c(-c2ccc(O)c(O)c2)oc2cc(O)cc(O)c12
REMARK SMILES IDX 5 1 3 2 2 3 1 4 22 5 20 6 19 7 17 8 16 9 15 10 14 11 6 12
REMARK SMILES IDX 7 13 8 14 9 15 13 16 11 17 10 18 12 20 4 22 21 24 18 26
REMARK H PARENT 10 19 12 21 4 23 21 25 18 27
REMARK Flexibility Score: inf
ROOT
ATOM      1  C   UNL     1     -22.772  11.696   5.166  1.00  0.00     0.180 A 
ATOM      2  C   UNL     1     -23.853  10.941   5.653  1.00  0.00     0.208 A 
ATOM      3  C   UNL     1     -23.773   9.539   5.620  1.00  0.00     0.238 A 
ATOM      4  O   UNL     1     -24.767   8.869   6.007  1.00  0.00    -0.285 OA
ATOM      5  C   UNL     1     -22.609   8.910   5.117  1.00  0.00     0.111 A 
ATOM      6  C   UNL     1     -22.405   7.499   5.075  1.00  0.00     0.134 A 
ATOM      7  C   UNL     1     -21.270   6.985   4.435  1.00  0.00     0.093 A 
ATOM      8  C   UNL     1     -20.301   7.831   3.897  1.00  0.00     0.123 A 
ATOM      9  C   UNL     1     -20.462   9.214   3.986  1.00  0.00     0.094 A 
ATOM     10  C   UNL     1     -21.601   9.757   4.585  1.00  0.00     0.146 A 
ATOM     11  O   UNL     1     -21.722  11.077   4.639  1.00  0.00    -0.452 OA
ENDROOT
BRANCH   1  12
ATOM     12  C   UNL     1     -22.771  13.177   5.190  1.00  0.00     0.025 A 
ATOM     13  C   UNL     1     -21.693  13.858   5.777  1.00  0.00     0.016 A 
ATOM     14  C   UNL     1     -21.682  15.254   5.831  1.00  0.00     0.051 A 
ATOM     15  C   UNL     1     -22.755  15.988   5.311  1.00  0.00     0.157 A 
ATOM     16  C   UNL     1     -23.856  13.918   4.687  1.00  0.00     0.062 A 
ATOM     17  C   UNL     1     -23.846  15.319   4.742  1.00  0.00     0.158 A 
BRANCH  15  18
ATOM     18  O   UNL     1     -22.747  17.381   5.359  1.00  0.00    -0.504 OA
ATOM     19  H   UNL     1     -21.948  17.895   5.712  1.00  0.00     0.293 HD
ENDBRANCH  15  18
BRANCH  17  20
ATOM     20  O   UNL     1     -24.919  16.053   4.237  1.00  0.00    -0.504 OA
ATOM     21  H   UNL     1     -25.690  16.340   4.829  1.00  0.00     0.293 HD
ENDBRANCH  17  20
ENDBRANCH   1  12
BRANCH   2  22
ATOM     22  O   UNL     1     -25.002  11.582   6.125  1.00  0.00    -0.502 OA
ATOM     23  H   UNL     1     -24.963  12.436   6.669  1.00  0.00     0.293 HD
ENDBRANCH   2  22
BRANCH   6  24
ATOM     24  O   UNL     1     -23.264   6.567   5.664  1.00  0.00    -0.507 OA
ATOM     25  H   UNL     1     -24.262   6.536   5.520  1.00  0.00     0.293 HD
ENDBRANCH   6  24
BRANCH   8  26
ATOM     26  O   UNL     1     -19.177   7.285   3.282  1.00  0.00    -0.508 OA
ATOM     27  H   UNL     1     -19.242   6.463   2.692  1.00  0.00     0.293 HD
ENDBRANCH   8  26
TORSDOF 6
ENDMDL
