MODEL 1
REMARK VINA RESULT:    -4.450      0.000      0.000
REMARK INTER + INTRA:          -4.580
REMARK INTER:                  -4.580
REMARK INTRA:                   0.000
REMARK UNBOUND:                 0.000
REMARK SMILES O=c1ccc2ccc(O)cc2o1
REMARK SMILES IDX 6 1 7 2 8 3 10 4 11 5 5 6 4 7 3 8 2 9 1 10 12 11 9 12
REMARK H PARENT 9 13
REMARK Flexibility Score: inf
ROOT
ATOM      1  C   UNL     1      75.495  40.780  21.059  1.00  0.00     0.016 A 
ATOM      2  C   UNL     1      75.532  41.778  22.037  1.00  0.00     0.047 A 
ATOM      3  C   UNL     1      74.414  42.021  22.845  1.00  0.00     0.119 A 
ATOM      4  C   UNL     1      73.248  41.262  22.672  1.00  0.00     0.094 A 
ATOM      5  C   UNL     1      73.200  40.261  21.695  1.00  0.00     0.142 A 
ATOM      6  C   UNL     1      74.331  40.018  20.884  1.00  0.00     0.018 A 
ATOM      7  C   UNL     1      74.253  39.011  19.916  1.00  0.00     0.019 A 
ATOM      8  C   UNL     1      73.072  38.281  19.782  1.00  0.00     0.094 A 
ATOM      9  C   UNL     1      71.993  38.578  20.620  1.00  0.00     0.336 A 
ATOM     10  O   UNL     1      70.918  37.930  20.514  1.00  0.00    -0.246 OA
ATOM     11  O   UNL     1      72.093  39.540  21.533  1.00  0.00    -0.423 OA
ENDROOT
BRANCH   3  12
ATOM     12  O   UNL     1      74.472  43.021  23.813  1.00  0.00    -0.508 OA
ATOM     13  H   UNL     1      75.345  43.271  24.264  1.00  0.00     0.293 HD
ENDBRANCH   3  12
TORSDOF 1
ENDMDL
MODEL 2
REMARK VINA RESULT:    -4.416      1.889      2.579
REMARK INTER + INTRA:          -4.545
REMARK INTER:                  -4.545
REMARK INTRA:                   0.000
REMARK UNBOUND:                 0.000
REMARK SMILES O=c1ccc2ccc(O)cc2o1
REMARK SMILES IDX 6 1 7 2 8 3 10 4 11 5 5 6 4 7 3 8 2 9 1 10 12 11 9 12
REMARK H PARENT 9 13
REMARK Flexibility Score: inf
ROOT
ATOM      1  C   UNL     1      73.500  41.131  21.617  1.00  0.00     0.016 A 
ATOM      2  C   UNL     1      74.772  41.680  21.429  1.00  0.00     0.047 A 
ATOM      3  C   UNL     1      75.682  41.074  20.554  1.00  0.00     0.119 A 
ATOM      4  C   UNL     1      75.319  39.909  19.863  1.00  0.00     0.094 A 
ATOM      5  C   UNL     1      74.048  39.352  20.045  1.00  0.00     0.142 A 
ATOM      6  C   UNL     1      73.133  39.967  20.928  1.00  0.00     0.018 A 
ATOM      7  C   UNL     1      71.870  39.387  21.089  1.00  0.00     0.019 A 
ATOM      8  C   UNL     1      71.553  38.229  20.380  1.00  0.00     0.094 A 
ATOM      9  C   UNL     1      72.510  37.675  19.524  1.00  0.00     0.336 A 
ATOM     10  O   UNL     1      72.243  36.630  18.875  1.00  0.00    -0.246 OA
ATOM     11  O   UNL     1      73.704  38.247  19.388  1.00  0.00    -0.423 OA
ENDROOT
BRANCH   3  12
ATOM     12  O   UNL     1      76.946  41.636  20.380  1.00  0.00    -0.508 OA
ATOM     13  H   UNL     1      77.274  41.927  19.467  1.00  0.00     0.293 HD
ENDBRANCH   3  12
TORSDOF 1
ENDMDL
MODEL 3
REMARK VINA RESULT:    -4.128      1.422      4.387
REMARK INTER + INTRA:          -4.249
REMARK INTER:                  -4.249
REMARK INTRA:                   0.000
REMARK UNBOUND:                 0.000
REMARK SMILES O=c1ccc2ccc(O)cc2o1
REMARK SMILES IDX 6 1 7 2 8 3 10 4 11 5 5 6 4 7 3 8 2 9 1 10 12 11 9 12
REMARK H PARENT 9 13
REMARK Flexibility Score: inf
ROOT
ATOM      1  C   UNL     1      74.425  39.020  18.875  1.00  0.00     0.016 A 
ATOM      2  C   UNL     1      73.422  38.102  19.201  1.00  0.00     0.047 A 
ATOM      3  C   UNL     1      72.820  38.130  20.466  1.00  0.00     0.119 A 
ATOM      4  C   UNL     1      73.225  39.082  21.412  1.00  0.00     0.094 A 
ATOM      5  C   UNL     1      74.228  40.005  21.096  1.00  0.00     0.142 A 
ATOM      6  C   UNL     1      74.832  39.974  19.819  1.00  0.00     0.018 A 
ATOM      7  C   UNL     1      75.832  40.909  19.531  1.00  0.00     0.019 A 
ATOM      8  C   UNL     1      76.201  41.837  20.505  1.00  0.00     0.094 A 
ATOM      9  C   UNL     1      75.560  41.807  21.747  1.00  0.00     0.336 A 
ATOM     10  O   UNL     1      75.879  42.638  22.638  1.00  0.00    -0.246 OA
ATOM     11  O   UNL     1      74.611  40.908  21.995  1.00  0.00    -0.423 OA
ENDROOT
BRANCH   3  12
ATOM     12  O   UNL     1      71.823  37.206  20.771  1.00  0.00    -0.508 OA
ATOM     13  H   UNL     1      71.982  36.456  21.434  1.00  0.00     0.293 HD
ENDBRANCH   3  12
TORSDOF 1
ENDMDL
MODEL 4
REMARK VINA RESULT:    -3.943      2.040      4.842
REMARK INTER + INTRA:          -4.059
REMARK INTER:                  -4.059
REMARK INTRA:                   0.000
REMARK UNBOUND:                 0.000
REMARK SMILES O=c1ccc2ccc(O)cc2o1
REMARK SMILES IDX 6 1 7 2 8 3 10 4 11 5 5 6 4 7 3 8 2 9 1 10 12 11 9 12
REMARK H PARENT 9 13
REMARK Flexibility Score: inf
ROOT
ATOM      1  C   UNL     1      72.511  39.357  21.509  1.00  0.00     0.016 A 
ATOM      2  C   UNL     1      72.131  38.251  20.744  1.00  0.00     0.047 A 
ATOM      3  C   UNL     1      72.884  37.869  19.627  1.00  0.00     0.119 A 
ATOM      4  C   UNL     1      74.026  38.600  19.271  1.00  0.00     0.094 A 
ATOM      5  C   UNL     1      74.416  39.709  20.030  1.00  0.00     0.142 A 
ATOM      6  C   UNL     1      73.653  40.090  21.157  1.00  0.00     0.018 A 
ATOM      7  C   UNL     1      74.067  41.203  21.897  1.00  0.00     0.019 A 
ATOM      8  C   UNL     1      75.211  41.898  21.505  1.00  0.00     0.094 A 
ATOM      9  C   UNL     1      75.915  41.463  20.377  1.00  0.00     0.336 A 
ATOM     10  O   UNL     1      76.950  42.078  20.008  1.00  0.00    -0.246 OA
ATOM     11  O   UNL     1      75.501  40.402  19.692  1.00  0.00    -0.423 OA
ENDROOT
BRANCH   3  12
ATOM     12  O   UNL     1      72.487  36.764  18.877  1.00  0.00    -0.508 OA
ATOM     13  H   UNL     1      71.966  36.002  19.294  1.00  0.00     0.293 HD
ENDBRANCH   3  12
TORSDOF 1
ENDMDL
MODEL 5
REMARK VINA RESULT:    -3.939      1.762      2.303
REMARK INTER + INTRA:          -4.054
REMARK INTER:                  -4.054
REMARK INTRA:                   0.000
REMARK UNBOUND:                 0.000
REMARK SMILES O=c1ccc2ccc(O)cc2o1
REMARK SMILES IDX 6 1 7 2 8 3 10 4 11 5 5 6 4 7 3 8 2 9 1 10 12 11 9 12
REMARK H PARENT 9 13
REMARK Flexibility Score: inf
ROOT
ATOM      1  C   UNL     1      73.666  42.353  22.463  1.00  0.00     0.016 A 
ATOM      2  C   UNL     1      72.657  43.015  23.169  1.00  0.00     0.047 A 
ATOM      3  C   UNL     1      71.403  42.416  23.342  1.00  0.00     0.119 A 
ATOM      4  C   UNL     1      71.155  41.145  22.804  1.00  0.00     0.094 A 
ATOM      5  C   UNL     1      72.158  40.474  22.095  1.00  0.00     0.142 A 
ATOM      6  C   UNL     1      73.422  41.082  21.924  1.00  0.00     0.018 A 
ATOM      7  C   UNL     1      74.404  40.387  21.211  1.00  0.00     0.019 A 
ATOM      8  C   UNL     1      74.111  39.125  20.695  1.00  0.00     0.094 A 
ATOM      9  C   UNL     1      72.837  38.586  20.904  1.00  0.00     0.336 A 
ATOM     10  O   UNL     1      72.554  37.448  20.446  1.00  0.00    -0.246 OA
ATOM     11  O   UNL     1      71.921  39.268  21.586  1.00  0.00    -0.423 OA
ENDROOT
BRANCH   3  12
ATOM     12  O   UNL     1      70.411  43.094  24.048  1.00  0.00    -0.508 OA
ATOM     13  H   UNL     1      70.545  43.369  25.014  1.00  0.00     0.293 HD
ENDBRANCH   3  12
TORSDOF 1
ENDMDL
MODEL 6
REMARK VINA RESULT:    -3.929      1.620      4.122
REMARK INTER + INTRA:          -4.043
REMARK INTER:                  -4.043
REMARK INTRA:                   0.000
REMARK UNBOUND:                 0.000
REMARK SMILES O=c1ccc2ccc(O)cc2o1
REMARK SMILES IDX 6 1 7 2 8 3 10 4 11 5 5 6 4 7 3 8 2 9 1 10 12 11 9 12
REMARK H PARENT 9 13
REMARK Flexibility Score: inf
ROOT
ATOM      1  C   UNL     1      74.378  39.741  20.545  1.00  0.00     0.016 A 
ATOM      2  C   UNL     1      74.020  38.613  19.800  1.00  0.00     0.047 A 
ATOM      3  C   UNL     1      72.723  38.090  19.886  1.00  0.00     0.119 A 
ATOM      4  C   UNL     1      71.778  38.698  20.725  1.00  0.00     0.094 A 
ATOM      5  C   UNL     1      72.127  39.827  21.474  1.00  0.00     0.142 A 
ATOM      6  C   UNL     1      73.435  40.352  21.384  1.00  0.00     0.018 A 
ATOM      7  C   UNL     1      73.754  41.481  22.145  1.00  0.00     0.019 A 
ATOM      8  C   UNL     1      72.780  42.052  22.964  1.00  0.00     0.094 A 
ATOM      9  C   UNL     1      71.506  41.477  23.003  1.00  0.00     0.336 A 
ATOM     10  O   UNL     1      70.613  41.978  23.736  1.00  0.00    -0.246 OA
ATOM     11  O   UNL     1      71.228  40.403  22.269  1.00  0.00    -0.423 OA
ENDROOT
BRANCH   3  12
ATOM     12  O   UNL     1      72.387  36.965  19.137  1.00  0.00    -0.508 OA
ATOM     13  H   UNL     1      73.086  36.445  18.620  1.00  0.00     0.293 HD
ENDBRANCH   3  12
TORSDOF 1
ENDMDL
MODEL 7
REMARK VINA RESULT:    -3.925      2.208      3.485
REMARK INTER + INTRA:          -4.040
REMARK INTER:                  -4.040
REMARK INTRA:                   0.000
REMARK UNBOUND:                 0.000
REMARK SMILES O=c1ccc2ccc(O)cc2o1
REMARK SMILES IDX 6 1 7 2 8 3 10 4 11 5 5 6 4 7 3 8 2 9 1 10 12 11 9 12
REMARK H PARENT 9 13
REMARK Flexibility Score: inf
ROOT
ATOM      1  C   UNL     1      73.933  39.607  20.852  1.00  0.00     0.016 A 
ATOM      2  C   UNL     1      75.214  40.001  20.454  1.00  0.00     0.047 A 
ATOM      3  C   UNL     1      75.712  41.260  20.813  1.00  0.00     0.119 A 
ATOM      4  C   UNL     1      74.922  42.132  21.577  1.00  0.00     0.094 A 
ATOM      5  C   UNL     1      73.639  41.747  21.981  1.00  0.00     0.142 A 
ATOM      6  C   UNL     1      73.141  40.476  21.617  1.00  0.00     0.018 A 
ATOM      7  C   UNL     1      71.855  40.119  22.035  1.00  0.00     0.019 A 
ATOM      8  C   UNL     1      71.108  41.020  22.794  1.00  0.00     0.094 A 
ATOM      9  C   UNL     1      71.666  42.261  23.116  1.00  0.00     0.336 A 
ATOM     10  O   UNL     1      71.007  43.087  23.801  1.00  0.00    -0.246 OA
ATOM     11  O   UNL     1      72.892  42.575  22.706  1.00  0.00    -0.423 OA
ENDROOT
BRANCH   3  12
ATOM     12  O   UNL     1      76.990  41.634  20.405  1.00  0.00    -0.508 OA
ATOM     13  H   UNL     1      77.467  42.427  20.819  1.00  0.00     0.293 HD
ENDBRANCH   3  12
TORSDOF 1
ENDMDL
MODEL 8
REMARK VINA RESULT:    -3.839      1.496      4.763
REMARK INTER + INTRA:          -3.952
REMARK INTER:                  -3.952
REMARK INTRA:                   0.000
REMARK UNBOUND:                 0.000
REMARK SMILES O=c1ccc2ccc(O)cc2o1
REMARK SMILES IDX 6 1 7 2 8 3 10 4 11 5 5 6 4 7 3 8 2 9 1 10 12 11 9 12
REMARK H PARENT 9 13
REMARK Flexibility Score: inf
ROOT
ATOM      1  C   UNL     1      71.341  39.324  21.267  1.00  0.00     0.016 A 
ATOM      2  C   UNL     1      71.444  38.291  20.331  1.00  0.00     0.047 A 
ATOM      3  C   UNL     1      72.692  37.929  19.810  1.00  0.00     0.119 A 
ATOM      4  C   UNL     1      73.847  38.606  20.227  1.00  0.00     0.094 A 
ATOM      5  C   UNL     1      73.755  39.641  21.164  1.00  0.00     0.142 A 
ATOM      6  C   UNL     1      72.494  40.002  21.688  1.00  0.00     0.018 A 
ATOM      7  C   UNL     1      72.433  41.041  22.623  1.00  0.00     0.019 A 
ATOM      8  C   UNL     1      73.609  41.685  23.008  1.00  0.00     0.094 A 
ATOM      9  C   UNL     1      74.822  41.273  22.447  1.00  0.00     0.336 A 
ATOM     10  O   UNL     1      75.894  41.842  22.782  1.00  0.00    -0.246 OA
ATOM     11  O   UNL     1      74.852  40.282  21.560  1.00  0.00    -0.423 OA
ENDROOT
BRANCH   3  12
ATOM     12  O   UNL     1      72.773  36.897  18.877  1.00  0.00    -0.508 OA
ATOM     13  H   UNL     1      72.238  36.919  18.016  1.00  0.00     0.293 HD
ENDBRANCH   3  12
TORSDOF 1
ENDMDL
MODEL 9
REMARK VINA RESULT:    -3.717      2.177      3.838
REMARK INTER + INTRA:          -3.825
REMARK INTER:                  -3.825
REMARK INTRA:                   0.000
REMARK UNBOUND:                 0.000
REMARK SMILES O=c1ccc2ccc(O)cc2o1
REMARK SMILES IDX 6 1 7 2 8 3 10 4 11 5 5 6 4 7 3 8 2 9 1 10 12 11 9 12
REMARK H PARENT 9 13
REMARK Flexibility Score: inf
ROOT
ATOM      1  C   UNL     1      72.606  39.633  20.166  1.00  0.00     0.016 A 
ATOM      2  C   UNL     1      71.807  39.791  21.302  1.00  0.00     0.047 A 
ATOM      3  C   UNL     1      72.211  40.640  22.340  1.00  0.00     0.119 A 
ATOM      4  C   UNL     1      73.424  41.336  22.241  1.00  0.00     0.094 A 
ATOM      5  C   UNL     1      74.231  41.185  21.109  1.00  0.00     0.142 A 
ATOM      6  C   UNL     1      73.820  40.328  20.064  1.00  0.00     0.018 A 
ATOM      7  C   UNL     1      74.648  40.197  18.944  1.00  0.00     0.019 A 
ATOM      8  C   UNL     1      75.845  40.910  18.891  1.00  0.00     0.094 A 
ATOM      9  C   UNL     1      76.188  41.740  19.963  1.00  0.00     0.336 A 
ATOM     10  O   UNL     1      77.265  42.392  19.933  1.00  0.00    -0.246 OA
ATOM     11  O   UNL     1      75.382  41.847  21.016  1.00  0.00    -0.423 OA
ENDROOT
BRANCH   3  12
ATOM     12  O   UNL     1      71.401  40.783  23.464  1.00  0.00    -0.508 OA
ATOM     13  H   UNL     1      70.403  40.611  23.422  1.00  0.00     0.293 HD
ENDBRANCH   3  12
TORSDOF 1
ENDMDL
