MODEL 1
REMARK VINA RESULT:    -5.974      0.000      0.000
REMARK INTER + INTRA:          -7.025
REMARK INTER:                  -7.197
REMARK INTRA:                   0.172
REMARK UNBOUND:                 0.172
REMARK SMILES O=c1c(O)c(-c2ccc(O)c(O)c2)oc2cc(O)cc(O)c12
REMARK SMILES IDX 5 1 3 2 2 3 1 4 22 5 20 6 19 7 17 8 16 9 15 10 14 11 6 12
REMARK SMILES IDX 7 13 8 14 9 15 13 16 11 17 10 18 12 20 4 22 21 24 18 26
REMARK H PARENT 10 19 12 21 4 23 21 25 18 27
REMARK Flexibility Score: inf
ROOT
ATOM      1  C   UNL     1     -17.076   3.319 -10.299  1.00  0.00     0.180 A 
ATOM      2  C   UNL     1     -16.031   3.981  -9.632  1.00  0.00     0.208 A 
ATOM      3  C   UNL     1     -15.846   5.356  -9.851  1.00  0.00     0.238 A 
ATOM      4  O   UNL     1     -14.875   5.931  -9.293  1.00  0.00    -0.285 OA
ATOM      5  C   UNL     1     -16.719   6.055 -10.720  1.00  0.00     0.111 A 
ATOM      6  C   UNL     1     -16.649   7.455 -10.984  1.00  0.00     0.134 A 
ATOM      7  C   UNL     1     -17.480   8.017 -11.961  1.00  0.00     0.093 A 
ATOM      8  C   UNL     1     -18.424   7.238 -12.637  1.00  0.00     0.123 A 
ATOM      9  C   UNL     1     -18.540   5.882 -12.344  1.00  0.00     0.094 A 
ATOM     10  C   UNL     1     -17.699   5.286 -11.400  1.00  0.00     0.146 A 
ATOM     11  O   UNL     1     -17.836   3.989 -11.158  1.00  0.00    -0.452 OA
ENDROOT
BRANCH   1  12
ATOM     12  C   UNL     1     -17.350   1.877 -10.100  1.00  0.00     0.025 A 
ATOM     13  C   UNL     1     -16.305   0.947  -9.965  1.00  0.00     0.016 A 
ATOM     14  C   UNL     1     -16.587  -0.406  -9.754  1.00  0.00     0.051 A 
ATOM     15  C   UNL     1     -17.914  -0.845  -9.662  1.00  0.00     0.157 A 
ATOM     16  C   UNL     1     -18.678   1.435  -9.986  1.00  0.00     0.062 A 
ATOM     17  C   UNL     1     -18.961   0.078  -9.776  1.00  0.00     0.158 A 
BRANCH  15  18
ATOM     18  O   UNL     1     -18.199  -2.193  -9.453  1.00  0.00    -0.504 OA
ATOM     19  H   UNL     1     -18.588  -2.773 -10.188  1.00  0.00     0.293 HD
ENDBRANCH  15  18
BRANCH  17  20
ATOM     20  O   UNL     1     -20.281  -0.360  -9.677  1.00  0.00    -0.504 OA
ATOM     21  H   UNL     1     -20.803  -0.661 -10.492  1.00  0.00     0.293 HD
ENDBRANCH  17  20
ENDBRANCH   1  12
BRANCH   2  22
ATOM     22  O   UNL     1     -15.168   3.268  -8.795  1.00  0.00    -0.502 OA
ATOM     23  H   UNL     1     -15.488   2.796  -7.958  1.00  0.00     0.293 HD
ENDBRANCH   2  22
BRANCH   6  24
ATOM     24  O   UNL     1     -15.807   8.337 -10.300  1.00  0.00    -0.507 OA
ATOM     25  H   UNL     1     -14.806   8.233 -10.223  1.00  0.00     0.293 HD
ENDBRANCH   6  24
BRANCH   8  26
ATOM     26  O   UNL     1     -19.258   7.808 -13.597  1.00  0.00    -0.508 OA
ATOM     27  H   UNL     1     -19.651   8.734 -13.475  1.00  0.00     0.293 HD
ENDBRANCH   8  26
TORSDOF 6
ENDMDL
MODEL 2
REMARK VINA RESULT:    -5.832      4.345     10.193
REMARK INTER + INTRA:          -6.853
REMARK INTER:                  -7.052
REMARK INTRA:                   0.199
REMARK UNBOUND:                 0.172
REMARK SMILES O=c1c(O)c(-c2ccc(O)c(O)c2)oc2cc(O)cc(O)c12
REMARK SMILES IDX 5 1 3 2 2 3 1 4 22 5 20 6 19 7 17 8 16 9 15 10 14 11 6 12
REMARK SMILES IDX 7 13 8 14 9 15 13 16 11 17 10 18 12 20 4 22 21 24 18 26
REMARK H PARENT 10 19 12 21 4 23 21 25 18 27
REMARK Flexibility Score: inf
ROOT
ATOM      1  C   UNL     1     -17.099  -3.295  -9.321  1.00  0.00     0.180 A 
ATOM      2  C   UNL     1     -16.045  -3.951  -9.979  1.00  0.00     0.208 A 
ATOM      3  C   UNL     1     -15.854  -5.325  -9.756  1.00  0.00     0.238 A 
ATOM      4  O   UNL     1     -14.875  -5.895 -10.306  1.00  0.00    -0.285 OA
ATOM      5  C   UNL     1     -16.729  -6.028  -8.893  1.00  0.00     0.111 A 
ATOM      6  C   UNL     1     -16.653  -7.427  -8.627  1.00  0.00     0.134 A 
ATOM      7  C   UNL     1     -17.489  -7.992  -7.655  1.00  0.00     0.093 A 
ATOM      8  C   UNL     1     -18.442  -7.218  -6.987  1.00  0.00     0.123 A 
ATOM      9  C   UNL     1     -18.564  -5.863  -7.284  1.00  0.00     0.094 A 
ATOM     10  C   UNL     1     -17.719  -5.263  -8.222  1.00  0.00     0.146 A 
ATOM     11  O   UNL     1     -17.862  -3.967  -8.466  1.00  0.00    -0.452 OA
ENDROOT
BRANCH   1  12
ATOM     12  C   UNL     1     -17.379  -1.855  -9.524  1.00  0.00     0.025 A 
ATOM     13  C   UNL     1     -16.340  -0.925  -9.696  1.00  0.00     0.016 A 
ATOM     14  C   UNL     1     -16.629   0.426  -9.910  1.00  0.00     0.051 A 
ATOM     15  C   UNL     1     -17.958   0.864  -9.969  1.00  0.00     0.157 A 
ATOM     16  C   UNL     1     -18.711  -1.414  -9.604  1.00  0.00     0.062 A 
ATOM     17  C   UNL     1     -19.001  -0.059  -9.819  1.00  0.00     0.158 A 
BRANCH  15  18
ATOM     18  O   UNL     1     -18.250   2.209 -10.181  1.00  0.00    -0.504 OA
ATOM     19  H   UNL     1     -18.698   2.527 -11.032  1.00  0.00     0.293 HD
ENDBRANCH  15  18
BRANCH  17  20
ATOM     20  O   UNL     1     -20.324   0.377  -9.884  1.00  0.00    -0.504 OA
ATOM     21  H   UNL     1     -20.877   0.270 -10.726  1.00  0.00     0.293 HD
ENDBRANCH  17  20
ENDBRANCH   1  12
BRANCH   2  22
ATOM     22  O   UNL     1     -15.180  -3.235 -10.810  1.00  0.00    -0.502 OA
ATOM     23  H   UNL     1     -14.825  -3.612 -11.681  1.00  0.00     0.293 HD
ENDBRANCH   2  22
BRANCH   6  24
ATOM     24  O   UNL     1     -15.801  -8.305  -9.302  1.00  0.00    -0.507 OA
ATOM     25  H   UNL     1     -14.823  -8.132  -9.485  1.00  0.00     0.293 HD
ENDBRANCH   6  24
BRANCH   8  26
ATOM     26  O   UNL     1     -19.280  -7.792  -6.033  1.00  0.00    -0.508 OA
ATOM     27  H   UNL     1     -20.038  -7.269  -5.611  1.00  0.00     0.293 HD
ENDBRANCH   8  26
TORSDOF 6
ENDMDL
MODEL 3
REMARK VINA RESULT:    -5.092      1.505      6.590
REMARK INTER + INTRA:          -5.963
REMARK INTER:                  -6.041
REMARK INTRA:                   0.078
REMARK UNBOUND:                 0.172
REMARK SMILES O=c1c(O)c(-c2ccc(O)c(O)c2)oc2cc(O)cc(O)c12
REMARK SMILES IDX 5 1 3 2 2 3 1 4 22 5 20 6 19 7 17 8 16 9 15 10 14 11 6 12
REMARK SMILES IDX 7 13 8 14 9 15 13 16 11 17 10 18 12 20 4 22 21 24 18 26
REMARK H PARENT 10 19 12 21 4 23 21 25 18 27
REMARK Flexibility Score: inf
ROOT
ATOM      1  C   UNL     1     -16.684   3.647 -10.038  1.00  0.00     0.180 A 
ATOM      2  C   UNL     1     -15.809   3.607  -8.938  1.00  0.00     0.208 A 
ATOM      3  C   UNL     1     -15.617   2.388  -8.266  1.00  0.00     0.238 A 
ATOM      4  O   UNL     1     -14.875   2.370  -7.249  1.00  0.00    -0.285 OA
ATOM      5  C   UNL     1     -16.289   1.224  -8.711  1.00  0.00     0.111 A 
ATOM      6  C   UNL     1     -16.138  -0.070  -8.130  1.00  0.00     0.134 A 
ATOM      7  C   UNL     1     -16.950  -1.123  -8.567  1.00  0.00     0.093 A 
ATOM      8  C   UNL     1     -17.863  -0.943  -9.610  1.00  0.00     0.123 A 
ATOM      9  C   UNL     1     -17.975   0.302 -10.224  1.00  0.00     0.094 A 
ATOM     10  C   UNL     1     -17.205   1.381  -9.784  1.00  0.00     0.146 A 
ATOM     11  O   UNL     1     -17.350   2.553 -10.389  1.00  0.00    -0.452 OA
ENDROOT
BRANCH   1  12
ATOM     12  C   UNL     1     -16.919   4.887 -10.812  1.00  0.00     0.025 A 
ATOM     13  C   UNL     1     -15.860   5.742 -11.163  1.00  0.00     0.016 A 
ATOM     14  C   UNL     1     -16.102   6.896 -11.915  1.00  0.00     0.051 A 
ATOM     15  C   UNL     1     -17.401   7.203 -12.339  1.00  0.00     0.157 A 
ATOM     16  C   UNL     1     -18.217   5.189 -11.257  1.00  0.00     0.062 A 
ATOM     17  C   UNL     1     -18.460   6.346 -12.011  1.00  0.00     0.158 A 
BRANCH  15  18
ATOM     18  O   UNL     1     -17.647   8.352 -13.087  1.00  0.00    -0.504 OA
ATOM     19  H   UNL     1     -17.928   8.302 -14.059  1.00  0.00     0.293 HD
ENDBRANCH  15  18
BRANCH  17  20
ATOM     20  O   UNL     1     -19.751   6.650 -12.440  1.00  0.00    -0.504 OA
ATOM     21  H   UNL     1     -20.082   7.606 -12.493  1.00  0.00     0.293 HD
ENDBRANCH  17  20
ENDBRANCH   1  12
BRANCH   2  22
ATOM     22  O   UNL     1     -15.173   4.772  -8.502  1.00  0.00    -0.502 OA
ATOM     23  H   UNL     1     -14.375   4.755  -7.878  1.00  0.00     0.293 HD
ENDBRANCH   2  22
BRANCH   6  24
ATOM     24  O   UNL     1     -15.193  -0.379  -7.147  1.00  0.00    -0.507 OA
ATOM     25  H   UNL     1     -15.010   0.182  -6.328  1.00  0.00     0.293 HD
ENDBRANCH   6  24
BRANCH   8  26
ATOM     26  O   UNL     1     -18.657  -2.000 -10.050  1.00  0.00    -0.508 OA
ATOM     27  H   UNL     1     -19.067  -2.006 -10.977  1.00  0.00     0.293 HD
ENDBRANCH   8  26
TORSDOF 6
ENDMDL
MODEL 4
REMARK VINA RESULT:    -4.993     11.676     12.797
REMARK INTER + INTRA:          -5.843
REMARK INTER:                  -6.314
REMARK INTRA:                   0.471
REMARK UNBOUND:                 0.172
REMARK SMILES O=c1c(O)c(-c2ccc(O)c(O)c2)oc2cc(O)cc(O)c12
REMARK SMILES IDX 5 1 3 2 2 3 1 4 22 5 20 6 19 7 17 8 16 9 15 10 14 11 6 12
REMARK SMILES IDX 7 13 8 14 9 15 13 16 11 17 10 18 12 20 4 22 21 24 18 26
REMARK H PARENT 10 19 12 21 4 23 21 25 18 27
REMARK Flexibility Score: inf
ROOT
ATOM      1  C   UNL     1     -16.706  -8.132 -14.452  1.00  0.00     0.180 A 
ATOM      2  C   UNL     1     -15.770  -8.696 -15.337  1.00  0.00     0.208 A 
ATOM      3  C   UNL     1     -15.777  -8.293 -16.682  1.00  0.00     0.238 A 
ATOM      4  O   UNL     1     -14.973  -8.842 -17.481  1.00  0.00    -0.285 OA
ATOM      5  C   UNL     1     -16.707  -7.321 -17.123  1.00  0.00     0.111 A 
ATOM      6  C   UNL     1     -16.776  -6.810 -18.453  1.00  0.00     0.134 A 
ATOM      7  C   UNL     1     -17.820  -5.947 -18.809  1.00  0.00     0.093 A 
ATOM      8  C   UNL     1     -18.760  -5.526 -17.863  1.00  0.00     0.123 A 
ATOM      9  C   UNL     1     -18.665  -5.972 -16.548  1.00  0.00     0.094 A 
ATOM     10  C   UNL     1     -17.656  -6.862 -16.171  1.00  0.00     0.146 A 
ATOM     11  O   UNL     1     -17.608  -7.271 -14.910  1.00  0.00    -0.452 OA
ENDROOT
BRANCH   1  12
ATOM     12  C   UNL     1     -16.744  -8.486 -13.015  1.00  0.00     0.025 A 
ATOM     13  C   UNL     1     -15.839  -9.410 -12.465  1.00  0.00     0.016 A 
ATOM     14  C   UNL     1     -15.878  -9.712 -11.101  1.00  0.00     0.051 A 
ATOM     15  C   UNL     1     -16.813  -9.085 -10.265  1.00  0.00     0.157 A 
ATOM     16  C   UNL     1     -17.666  -7.846 -12.169  1.00  0.00     0.062 A 
ATOM     17  C   UNL     1     -17.706  -8.148 -10.801  1.00  0.00     0.158 A 
BRANCH  15  18
ATOM     18  O   UNL     1     -16.857  -9.384  -8.905  1.00  0.00    -0.504 OA
ATOM     19  H   UNL     1     -16.024  -9.355  -8.329  1.00  0.00     0.293 HD
ENDBRANCH  15  18
BRANCH  17  20
ATOM     20  O   UNL     1     -18.631  -7.521  -9.967  1.00  0.00    -0.504 OA
ATOM     21  H   UNL     1     -19.628  -7.638 -10.098  1.00  0.00     0.293 HD
ENDBRANCH  17  20
ENDBRANCH   1  12
BRANCH   2  22
ATOM     22  O   UNL     1     -14.875  -9.670 -14.886  1.00  0.00    -0.502 OA
ATOM     23  H   UNL     1     -14.776  -9.906 -13.906  1.00  0.00     0.293 HD
ENDBRANCH   2  22
BRANCH   6  24
ATOM     24  O   UNL     1     -15.837  -7.096 -19.449  1.00  0.00    -0.507 OA
ATOM     25  H   UNL     1     -15.946  -6.865 -20.425  1.00  0.00     0.293 HD
ENDBRANCH   6  24
BRANCH   8  26
ATOM     26  O   UNL     1     -19.786  -4.655 -18.222  1.00  0.00    -0.508 OA
ATOM     27  H   UNL     1     -19.667  -3.649 -18.181  1.00  0.00     0.293 HD
ENDBRANCH   8  26
TORSDOF 6
ENDMDL
MODEL 5
REMARK VINA RESULT:    -4.872      4.468      7.112
REMARK INTER + INTRA:          -5.697
REMARK INTER:                  -6.023
REMARK INTRA:                   0.326
REMARK UNBOUND:                 0.172
REMARK SMILES O=c1c(O)c(-c2ccc(O)c(O)c2)oc2cc(O)cc(O)c12
REMARK SMILES IDX 5 1 3 2 2 3 1 4 22 5 20 6 19 7 17 8 16 9 15 10 14 11 6 12
REMARK SMILES IDX 7 13 8 14 9 15 13 16 11 17 10 18 12 20 4 22 21 24 18 26
REMARK H PARENT 10 19 12 21 4 23 21 25 18 27
REMARK Flexibility Score: inf
ROOT
ATOM      1  C   UNL     1     -16.930   8.271  -8.618  1.00  0.00     0.180 A 
ATOM      2  C   UNL     1     -15.911   9.125  -8.161  1.00  0.00     0.208 A 
ATOM      3  C   UNL     1     -15.753   9.316  -6.779  1.00  0.00     0.238 A 
ATOM      4  O   UNL     1     -14.875  10.124  -6.377  1.00  0.00    -0.285 OA
ATOM      5  C   UNL     1     -16.603   8.639  -5.871  1.00  0.00     0.111 A 
ATOM      6  C   UNL     1     -16.506   8.727  -4.450  1.00  0.00     0.134 A 
ATOM      7  C   UNL     1     -17.481   8.117  -3.652  1.00  0.00     0.093 A 
ATOM      8  C   UNL     1     -18.514   7.368  -4.223  1.00  0.00     0.123 A 
ATOM      9  C   UNL     1     -18.582   7.226  -5.607  1.00  0.00     0.094 A 
ATOM     10  C   UNL     1     -17.645   7.854  -6.431  1.00  0.00     0.146 A 
ATOM     11  O   UNL     1     -17.753   7.702  -7.745  1.00  0.00    -0.452 OA
ENDROOT
BRANCH   1  12
ATOM     12  C   UNL     1     -17.143   8.000 -10.059  1.00  0.00     0.025 A 
ATOM     13  C   UNL     1     -16.756   8.926 -11.042  1.00  0.00     0.016 A 
ATOM     14  C   UNL     1     -16.945   8.638 -12.397  1.00  0.00     0.051 A 
ATOM     15  C   UNL     1     -17.510   7.417 -12.788  1.00  0.00     0.157 A 
ATOM     16  C   UNL     1     -17.690   6.768 -10.457  1.00  0.00     0.062 A 
ATOM     17  C   UNL     1     -17.880   6.479 -11.815  1.00  0.00     0.158 A 
BRANCH  15  18
ATOM     18  O   UNL     1     -17.702   7.127 -14.137  1.00  0.00    -0.504 OA
ATOM     19  H   UNL     1     -17.548   7.824 -14.856  1.00  0.00     0.293 HD
ENDBRANCH  15  18
BRANCH  17  20
ATOM     20  O   UNL     1     -18.435   5.262 -12.206  1.00  0.00    -0.504 OA
ATOM     21  H   UNL     1     -19.025   5.187 -13.027  1.00  0.00     0.293 HD
ENDBRANCH  17  20
ENDBRANCH   1  12
BRANCH   2  22
ATOM     22  O   UNL     1     -15.097   9.801  -9.074  1.00  0.00    -0.502 OA
ATOM     23  H   UNL     1     -15.004   9.509 -10.040  1.00  0.00     0.293 HD
ENDBRANCH   2  22
BRANCH   6  24
ATOM     24  O   UNL     1     -15.465   9.373  -3.778  1.00  0.00    -0.507 OA
ATOM     25  H   UNL     1     -15.094   9.090  -2.883  1.00  0.00     0.293 HD
ENDBRANCH   6  24
BRANCH   8  26
ATOM     26  O   UNL     1     -19.472   6.751  -3.421  1.00  0.00    -0.508 OA
ATOM     27  H   UNL     1     -19.956   5.914  -3.722  1.00  0.00     0.293 HD
ENDBRANCH   8  26
TORSDOF 6
ENDMDL
MODEL 6
REMARK VINA RESULT:    -4.798     11.923     12.862
REMARK INTER + INTRA:          -5.608
REMARK INTER:                  -5.973
REMARK INTRA:                   0.365
REMARK UNBOUND:                 0.172
REMARK SMILES O=c1c(O)c(-c2ccc(O)c(O)c2)oc2cc(O)cc(O)c12
REMARK SMILES IDX 5 1 3 2 2 3 1 4 22 5 20 6 19 7 17 8 16 9 15 10 14 11 6 12
REMARK SMILES IDX 7 13 8 14 9 15 13 16 11 17 10 18 12 20 4 22 21 24 18 26
REMARK H PARENT 10 19 12 21 4 23 21 25 18 27
REMARK Flexibility Score: inf
ROOT
ATOM      1  C   UNL     1     -17.261  -7.876 -14.278  1.00  0.00     0.180 A 
ATOM      2  C   UNL     1     -18.502  -7.238 -14.448  1.00  0.00     0.208 A 
ATOM      3  C   UNL     1     -18.825  -6.701 -15.706  1.00  0.00     0.238 A 
ATOM      4  O   UNL     1     -19.914  -6.083 -15.837  1.00  0.00    -0.285 OA
ATOM      5  C   UNL     1     -17.911  -6.823 -16.780  1.00  0.00     0.111 A 
ATOM      6  C   UNL     1     -18.151  -6.353 -18.106  1.00  0.00     0.134 A 
ATOM      7  C   UNL     1     -17.124  -6.411 -19.056  1.00  0.00     0.093 A 
ATOM      8  C   UNL     1     -15.887  -6.982 -18.745  1.00  0.00     0.123 A 
ATOM      9  C   UNL     1     -15.664  -7.498 -17.471  1.00  0.00     0.094 A 
ATOM     10  C   UNL     1     -16.656  -7.422 -16.491  1.00  0.00     0.146 A 
ATOM     11  O   UNL     1     -16.399  -7.916 -15.287  1.00  0.00    -0.452 OA
ENDROOT
BRANCH   1  12
ATOM     12  C   UNL     1     -16.861  -8.488 -12.991  1.00  0.00     0.025 A 
ATOM     13  C   UNL     1     -15.933  -9.542 -12.939  1.00  0.00     0.016 A 
ATOM     14  C   UNL     1     -15.551 -10.089 -11.711  1.00  0.00     0.051 A 
ATOM     15  C   UNL     1     -16.080  -9.581 -10.517  1.00  0.00     0.157 A 
ATOM     16  C   UNL     1     -17.372  -7.969 -11.789  1.00  0.00     0.062 A 
ATOM     17  C   UNL     1     -16.990  -8.517 -10.557  1.00  0.00     0.158 A 
BRANCH  15  18
ATOM     18  O   UNL     1     -15.703 -10.124  -9.290  1.00  0.00    -0.504 OA
ATOM     19  H   UNL     1     -16.388 -10.357  -8.581  1.00  0.00     0.293 HD
ENDBRANCH  15  18
BRANCH  17  20
ATOM     20  O   UNL     1     -17.510  -8.009  -9.368  1.00  0.00    -0.504 OA
ATOM     21  H   UNL     1     -18.053  -8.586  -8.736  1.00  0.00     0.293 HD
ENDBRANCH  17  20
ENDBRANCH   1  12
BRANCH   2  22
ATOM     22  O   UNL     1     -19.381  -7.109 -13.369  1.00  0.00    -0.502 OA
ATOM     23  H   UNL     1     -19.331  -7.706 -12.553  1.00  0.00     0.293 HD
ENDBRANCH   2  22
BRANCH   6  24
ATOM     24  O   UNL     1     -19.378  -5.848 -18.544  1.00  0.00    -0.507 OA
ATOM     25  H   UNL     1     -20.027  -6.346 -19.136  1.00  0.00     0.293 HD
ENDBRANCH   6  24
BRANCH   8  26
ATOM     26  O   UNL     1     -14.876  -7.050 -19.702  1.00  0.00    -0.508 OA
ATOM     27  H   UNL     1     -13.954  -6.666 -19.527  1.00  0.00     0.293 HD
ENDBRANCH   8  26
TORSDOF 6
ENDMDL
MODEL 7
REMARK VINA RESULT:    -4.640     12.164     13.551
REMARK INTER + INTRA:          -5.417
REMARK INTER:                  -5.805
REMARK INTRA:                   0.387
REMARK UNBOUND:                 0.172
REMARK SMILES O=c1c(O)c(-c2ccc(O)c(O)c2)oc2cc(O)cc(O)c12
REMARK SMILES IDX 5 1 3 2 2 3 1 4 22 5 20 6 19 7 17 8 16 9 15 10 14 11 6 12
REMARK SMILES IDX 7 13 8 14 9 15 13 16 11 17 10 18 12 20 4 22 21 24 18 26
REMARK H PARENT 10 19 12 21 4 23 21 25 18 27
REMARK Flexibility Score: inf
ROOT
ATOM      1  C   UNL     1     -17.095  -7.719 -14.790  1.00  0.00     0.180 A 
ATOM      2  C   UNL     1     -18.469  -7.624 -14.508  1.00  0.00     0.208 A 
ATOM      3  C   UNL     1     -18.897  -7.712 -13.174  1.00  0.00     0.238 A 
ATOM      4  O   UNL     1     -20.133  -7.681 -12.933  1.00  0.00    -0.285 OA
ATOM      5  C   UNL     1     -17.947  -7.877 -12.137  1.00  0.00     0.111 A 
ATOM      6  C   UNL     1     -18.266  -7.938 -10.748  1.00  0.00     0.134 A 
ATOM      7  C   UNL     1     -17.260  -8.234  -9.820  1.00  0.00     0.093 A 
ATOM      8  C   UNL     1     -15.934  -8.408 -10.227  1.00  0.00     0.123 A 
ATOM      9  C   UNL     1     -15.603  -8.291 -11.575  1.00  0.00     0.094 A 
ATOM     10  C   UNL     1     -16.591  -8.033 -12.528  1.00  0.00     0.146 A 
ATOM     11  O   UNL     1     -16.235  -7.940 -13.803  1.00  0.00    -0.452 OA
ENDROOT
BRANCH   1  12
ATOM     12  C   UNL     1     -16.564  -7.610 -16.168  1.00  0.00     0.025 A 
ATOM     13  C   UNL     1     -15.348  -8.211 -16.534  1.00  0.00     0.016 A 
ATOM     14  C   UNL     1     -14.878  -8.116 -17.847  1.00  0.00     0.051 A 
ATOM     15  C   UNL     1     -15.623  -7.430 -18.815  1.00  0.00     0.157 A 
ATOM     16  C   UNL     1     -17.317  -6.941 -17.148  1.00  0.00     0.062 A 
ATOM     17  C   UNL     1     -16.846  -6.844 -18.465  1.00  0.00     0.158 A 
BRANCH  15  18
ATOM     18  O   UNL     1     -15.157  -7.331 -20.124  1.00  0.00    -0.504 OA
ATOM     19  H   UNL     1     -14.166  -7.304 -20.335  1.00  0.00     0.293 HD
ENDBRANCH  15  18
BRANCH  17  20
ATOM     20  O   UNL     1     -17.589  -6.168 -19.432  1.00  0.00    -0.504 OA
ATOM     21  H   UNL     1     -18.197  -6.662 -20.075  1.00  0.00     0.293 HD
ENDBRANCH  17  20
ENDBRANCH   1  12
BRANCH   2  22
ATOM     22  O   UNL     1     -19.392  -7.483 -15.548  1.00  0.00    -0.502 OA
ATOM     23  H   UNL     1     -19.555  -6.598 -16.014  1.00  0.00     0.293 HD
ENDBRANCH   2  22
BRANCH   6  24
ATOM     24  O   UNL     1     -19.539  -7.690 -10.228  1.00  0.00    -0.507 OA
ATOM     25  H   UNL     1     -20.401  -7.794 -10.743  1.00  0.00     0.293 HD
ENDBRANCH   6  24
BRANCH   8  26
ATOM     26  O   UNL     1     -14.936  -8.687  -9.296  1.00  0.00    -0.508 OA
ATOM     27  H   UNL     1     -14.848  -8.157  -8.437  1.00  0.00     0.293 HD
ENDBRANCH   8  26
TORSDOF 6
ENDMDL
MODEL 8
REMARK VINA RESULT:    -4.480      5.622     11.287
REMARK INTER + INTRA:          -5.226
REMARK INTER:                  -5.731
REMARK INTRA:                   0.505
REMARK UNBOUND:                 0.172
REMARK SMILES O=c1c(O)c(-c2ccc(O)c(O)c2)oc2cc(O)cc(O)c12
REMARK SMILES IDX 5 1 3 2 2 3 1 4 22 5 20 6 19 7 17 8 16 9 15 10 14 11 6 12
REMARK SMILES IDX 7 13 8 14 9 15 13 16 11 17 10 18 12 20 4 22 21 24 18 26
REMARK H PARENT 10 19 12 21 4 23 21 25 18 27
REMARK Flexibility Score: inf
ROOT
ATOM      1  C   UNL     1     -16.010  -4.639  -9.989  1.00  0.00     0.180 A 
ATOM      2  C   UNL     1     -16.789  -4.998  -8.876  1.00  0.00     0.208 A 
ATOM      3  C   UNL     1     -17.009  -6.360  -8.610  1.00  0.00     0.238 A 
ATOM      4  O   UNL     1     -17.752  -6.674  -7.643  1.00  0.00    -0.285 OA
ATOM      5  C   UNL     1     -16.435  -7.344  -9.450  1.00  0.00     0.111 A 
ATOM      6  C   UNL     1     -16.559  -8.752  -9.251  1.00  0.00     0.134 A 
ATOM      7  C   UNL     1     -16.059  -9.633 -10.218  1.00  0.00     0.093 A 
ATOM      8  C   UNL     1     -15.383  -9.157 -11.345  1.00  0.00     0.123 A 
ATOM      9  C   UNL     1     -15.204  -7.787 -11.517  1.00  0.00     0.094 A 
ATOM     10  C   UNL     1     -15.723  -6.882 -10.588  1.00  0.00     0.146 A 
ATOM     11  O   UNL     1     -15.540  -5.584 -10.796  1.00  0.00    -0.452 OA
ENDROOT
BRANCH   1  12
ATOM     12  C   UNL     1     -15.713  -3.226 -10.320  1.00  0.00     0.025 A 
ATOM     13  C   UNL     1     -15.204  -2.861 -11.578  1.00  0.00     0.016 A 
ATOM     14  C   UNL     1     -14.954  -1.519 -11.877  1.00  0.00     0.051 A 
ATOM     15  C   UNL     1     -15.220  -0.523 -10.928  1.00  0.00     0.157 A 
ATOM     16  C   UNL     1     -15.997  -2.222  -9.380  1.00  0.00     0.062 A 
ATOM     17  C   UNL     1     -15.746  -0.875  -9.678  1.00  0.00     0.158 A 
BRANCH  15  18
ATOM     18  O   UNL     1     -14.970   0.816 -11.221  1.00  0.00    -0.504 OA
ATOM     19  H   UNL     1     -15.622   1.547 -10.961  1.00  0.00     0.293 HD
ENDBRANCH  15  18
BRANCH  17  20
ATOM     20  O   UNL     1     -16.016   0.118  -8.739  1.00  0.00    -0.504 OA
ATOM     21  H   UNL     1     -16.965   0.361  -8.482  1.00  0.00     0.293 HD
ENDBRANCH  17  20
ENDBRANCH   1  12
BRANCH   2  22
ATOM     22  O   UNL     1     -17.364  -4.010  -8.072  1.00  0.00    -0.502 OA
ATOM     23  H   UNL     1     -16.813  -3.412  -7.468  1.00  0.00     0.293 HD
ENDBRANCH   2  22
BRANCH   6  24
ATOM     24  O   UNL     1     -17.135  -9.332  -8.118  1.00  0.00    -0.507 OA
ATOM     25  H   UNL     1     -17.759  -8.856  -7.482  1.00  0.00     0.293 HD
ENDBRANCH   6  24
BRANCH   8  26
ATOM     26  O   UNL     1     -14.875 -10.042 -12.294  1.00  0.00    -0.508 OA
ATOM     27  H   UNL     1     -14.636  -9.735 -13.230  1.00  0.00     0.293 HD
ENDBRANCH   8  26
TORSDOF 6
ENDMDL
