MODEL 1
REMARK VINA RESULT:    -6.997      0.000      0.000
REMARK INTER + INTRA:         -14.192
REMARK INTER:                 -11.497
REMARK INTRA:                  -2.696
REMARK UNBOUND:                -2.696
REMARK SMILES C[C@H]1O[C@H](OC[C@@H]2O[C@H](Oc3c(-c4ccc(O)c(O)c4)oc4cc(O)cc(O)c4c3=O)[C@@H](O)[C@H](O)[C@H]2O)[C@@H](O)[C@@H](O)[C@@H]1O
REMARK SMILES IDX 7 1 36 2 34 3 32 4 9 5 8 6 6 7 5 8 4 9 1 10 2 11 42 12 3 13
REMARK SMILES IDX 40 14 38 15 43 16 41 18 39 20 37 22 35 24 10 26 11 27 12 28
REMARK SMILES IDX 30 29 21 30 29 31 31 32 22 33 27 34 23 35 26 36 24 37 13 38
REMARK SMILES IDX 20 39 14 40 18 41 15 42 16 43 19 44 17 46 28 48 25 50 33 52
REMARK H PARENT 43 17 41 19 39 21 37 23 35 25 19 45 17 47 28 49 25 51 33 53
REMARK Flexibility Score: inf
ROOT
ATOM      1  C   UNL     1     -20.048 -21.750  16.515  1.00  0.00     0.180 C 
ATOM      2  C   UNL     1     -21.366 -22.507  16.181  1.00  0.00     0.177 C 
ATOM      3  C   UNL     1     -21.060 -23.864  15.487  1.00  0.00     0.180 C 
ATOM      4  C   UNL     1     -19.732 -24.449  16.006  1.00  0.00     0.214 C 
ATOM      5  C   UNL     1     -18.574 -23.409  15.828  1.00  0.00     0.339 C 
ATOM      6  O   UNL     1     -19.039 -22.092  15.586  1.00  0.00    -0.332 OA
ENDROOT
BRANCH   1   7
ATOM      7  C   UNL     1     -20.217 -20.225  16.557  1.00  0.00     0.198 C 
BRANCH   7   8
ATOM      8  O   UNL     1     -18.993 -19.572  16.282  1.00  0.00    -0.347 OA
BRANCH   8   9
ATOM      9  C   UNL     1     -18.114 -19.526  17.406  1.00  0.00     0.281 C 
ATOM     10  C   UNL     1     -14.933 -18.931  15.670  1.00  0.00     0.041 C 
ATOM     11  C   UNL     1     -16.449 -18.893  15.884  1.00  0.00     0.150 C 
ATOM     12  C   UNL     1     -16.943 -17.410  16.064  1.00  0.00     0.174 C 
ATOM     13  O   UNL     1     -16.790 -19.756  16.970  1.00  0.00    -0.344 OA
ATOM     14  C   UNL     1     -17.331 -17.066  17.530  1.00  0.00     0.179 C 
ATOM     15  C   UNL     1     -18.121 -18.208  18.240  1.00  0.00     0.202 C 
BRANCH  12  16
ATOM     16  O   UNL     1     -18.064 -17.182  15.247  1.00  0.00    -0.388 OA
ATOM     17  H   UNL     1     -18.269 -16.215  15.299  1.00  0.00     0.211 HD
ENDBRANCH  12  16
BRANCH  14  18
ATOM     18  O   UNL     1     -16.202 -16.662  18.277  1.00  0.00    -0.387 OA
ATOM     19  H   UNL     1     -16.334 -15.719  18.545  1.00  0.00     0.211 HD
ENDBRANCH  14  18
BRANCH  15  20
ATOM     20  O   UNL     1     -17.608 -18.454  19.535  1.00  0.00    -0.385 OA
ATOM     21  H   UNL     1     -16.683 -18.799  19.432  1.00  0.00     0.211 HD
ENDBRANCH  15  20
ENDBRANCH   8   9
ENDBRANCH   7   8
ENDBRANCH   1   7
BRANCH   2  22
ATOM     22  O   UNL     1     -22.080 -22.717  17.374  1.00  0.00    -0.387 OA
ATOM     23  H   UNL     1     -22.854 -23.302  17.147  1.00  0.00     0.211 HD
ENDBRANCH   2  22
BRANCH   3  24
ATOM     24  O   UNL     1     -20.987 -23.664  14.099  1.00  0.00    -0.387 OA
ATOM     25  H   UNL     1     -21.757 -24.143  13.690  1.00  0.00     0.211 HD
ENDBRANCH   3  24
BRANCH   5  26
ATOM     26  O   UNL     1     -17.753 -23.825  14.732  1.00  0.00    -0.454 OA
BRANCH  26  27
ATOM     27  C   UNL     1     -16.654 -23.104  14.250  1.00  0.00     0.214 A 
ATOM     28  C   UNL     1     -16.752 -22.427  13.023  1.00  0.00     0.180 A 
ATOM     29  C   UNL     1     -15.438 -23.044  14.955  1.00  0.00     0.239 A 
ATOM     30  O   UNL     1     -15.704 -21.771  12.535  1.00  0.00    -0.452 OA
ATOM     31  C   UNL     1     -14.347 -22.333  14.405  1.00  0.00     0.111 A 
ATOM     32  O   UNL     1     -15.327 -23.631  16.060  1.00  0.00    -0.285 OA
ATOM     33  C   UNL     1     -14.537 -21.700  13.158  1.00  0.00     0.146 A 
ATOM     34  C   UNL     1     -13.089 -22.225  15.048  1.00  0.00     0.134 A 
ATOM     35  C   UNL     1     -13.504 -20.978  12.561  1.00  0.00     0.094 A 
ATOM     36  C   UNL     1     -12.059 -21.494  14.437  1.00  0.00     0.093 A 
ATOM     37  C   UNL     1     -12.269 -20.876  13.194  1.00  0.00     0.123 A 
BRANCH  28  38
ATOM     38  C   UNL     1     -17.983 -22.445  12.206  1.00  0.00     0.025 A 
ATOM     39  C   UNL     1     -18.999 -21.494  12.386  1.00  0.00     0.062 A 
ATOM     40  C   UNL     1     -18.117 -23.397  11.179  1.00  0.00     0.016 A 
ATOM     41  C   UNL     1     -20.149 -21.508  11.583  1.00  0.00     0.158 A 
ATOM     42  C   UNL     1     -19.254 -23.400  10.362  1.00  0.00     0.051 A 
ATOM     43  C   UNL     1     -20.272 -22.464  10.559  1.00  0.00     0.157 A 
BRANCH  41  44
ATOM     44  O   UNL     1     -21.153 -20.572  11.790  1.00  0.00    -0.504 OA
ATOM     45  H   UNL     1     -21.058 -19.835  12.483  1.00  0.00     0.293 HD
ENDBRANCH  41  44
BRANCH  43  46
ATOM     46  O   UNL     1     -21.386 -22.485   9.725  1.00  0.00    -0.504 OA
ATOM     47  H   UNL     1     -21.420 -21.963   8.859  1.00  0.00     0.293 HD
ENDBRANCH  43  46
ENDBRANCH  28  38
BRANCH  34  48
ATOM     48  O   UNL     1     -12.851 -22.840  16.277  1.00  0.00    -0.507 OA
ATOM     49  H   UNL     1     -11.989 -23.340  16.465  1.00  0.00     0.293 HD
ENDBRANCH  34  48
BRANCH  37  50
ATOM     50  O   UNL     1     -11.241 -20.153  12.584  1.00  0.00    -0.508 OA
ATOM     51  H   UNL     1     -10.908 -19.275  12.964  1.00  0.00     0.293 HD
ENDBRANCH  37  50
ENDBRANCH  26  27
ENDBRANCH   5  26
BRANCH   4  52
ATOM     52  O   UNL     1     -19.885 -24.784  17.366  1.00  0.00    -0.384 OA
ATOM     53  H   UNL     1     -19.982 -25.774  17.418  1.00  0.00     0.211 HD
ENDBRANCH   4  52
TORSDOF 16
ENDMDL
MODEL 2
REMARK VINA RESULT:    -6.933      2.158      7.031
REMARK INTER + INTRA:         -14.086
REMARK INTER:                 -13.276
REMARK INTRA:                  -0.811
REMARK UNBOUND:                -2.696
REMARK SMILES C[C@H]1O[C@H](OC[C@@H]2O[C@H](Oc3c(-c4ccc(O)c(O)c4)oc4cc(O)cc(O)c4c3=O)[C@@H](O)[C@H](O)[C@H]2O)[C@@H](O)[C@@H](O)[C@@H]1O
REMARK SMILES IDX 7 1 36 2 34 3 32 4 9 5 8 6 6 7 5 8 4 9 1 10 2 11 42 12 3 13
REMARK SMILES IDX 40 14 38 15 43 16 41 18 39 20 37 22 35 24 10 26 11 27 12 28
REMARK SMILES IDX 30 29 21 30 29 31 31 32 22 33 27 34 23 35 26 36 24 37 13 38
REMARK SMILES IDX 20 39 14 40 18 41 15 42 16 43 19 44 17 46 28 48 25 50 33 52
REMARK H PARENT 43 17 41 19 39 21 37 23 35 25 19 45 17 47 28 49 25 51 33 53
REMARK Flexibility Score: inf
ROOT
ATOM      1  C   UNL     1     -15.779 -18.871  16.476  1.00  0.00     0.180 C 
ATOM      2  C   UNL     1     -16.439 -17.480  16.251  1.00  0.00     0.177 C 
ATOM      3  C   UNL     1     -17.909 -17.479  16.762  1.00  0.00     0.180 C 
ATOM      4  C   UNL     1     -18.060 -18.420  17.974  1.00  0.00     0.214 C 
ATOM      5  C   UNL     1     -17.550 -19.857  17.613  1.00  0.00     0.339 C 
ATOM      6  O   UNL     1     -16.760 -19.890  16.436  1.00  0.00    -0.332 OA
ENDROOT
BRANCH   1   7
ATOM      7  C   UNL     1     -14.666 -19.186  15.468  1.00  0.00     0.198 C 
BRANCH   7   8
ATOM      8  O   UNL     1     -13.727 -20.091  16.015  1.00  0.00    -0.347 OA
BRANCH   8   9
ATOM      9  C   UNL     1     -12.507 -20.152  15.275  1.00  0.00     0.281 C 
ATOM     10  C   UNL     1     -11.182 -23.333  16.549  1.00  0.00     0.041 C 
ATOM     11  C   UNL     1     -12.251 -22.301  16.174  1.00  0.00     0.150 C 
ATOM     12  C   UNL     1     -13.134 -22.831  14.985  1.00  0.00     0.174 C 
ATOM     13  O   UNL     1     -11.620 -21.046  15.917  1.00  0.00    -0.344 OA
ATOM     14  C   UNL     1     -12.833 -22.122  13.634  1.00  0.00     0.179 C 
ATOM     15  C   UNL     1     -12.623 -20.583  13.781  1.00  0.00     0.202 C 
BRANCH  12  16
ATOM     16  O   UNL     1     -14.494 -22.644  15.286  1.00  0.00    -0.388 OA
ATOM     17  H   UNL     1     -14.905 -23.544  15.342  1.00  0.00     0.211 HD
ENDBRANCH  12  16
BRANCH  14  18
ATOM     18  O   UNL     1     -11.755 -22.739  12.961  1.00  0.00    -0.387 OA
ATOM     19  H   UNL     1     -10.915 -22.419  13.371  1.00  0.00     0.211 HD
ENDBRANCH  14  18
BRANCH  15  20
ATOM     20  O   UNL     1     -11.480 -20.154  13.066  1.00  0.00    -0.385 OA
ATOM     21  H   UNL     1     -11.732 -19.342  12.556  1.00  0.00     0.211 HD
ENDBRANCH  15  20
ENDBRANCH   8   9
ENDBRANCH   7   8
ENDBRANCH   1   7
BRANCH   2  22
ATOM     22  O   UNL     1     -15.685 -16.508  16.930  1.00  0.00    -0.387 OA
ATOM     23  H   UNL     1     -16.189 -16.278  17.758  1.00  0.00     0.211 HD
ENDBRANCH   2  22
BRANCH   3  24
ATOM     24  O   UNL     1     -18.757 -17.895  15.722  1.00  0.00    -0.387 OA
ATOM     25  H   UNL     1     -19.628 -17.431  15.849  1.00  0.00     0.211 HD
ENDBRANCH   3  24
BRANCH   5  26
ATOM     26  O   UNL     1     -18.685 -20.712  17.439  1.00  0.00    -0.454 OA
BRANCH  26  27
ATOM     27  C   UNL     1     -19.329 -20.930  16.216  1.00  0.00     0.214 A 
ATOM     28  C   UNL     1     -20.598 -20.371  15.991  1.00  0.00     0.180 A 
ATOM     29  C   UNL     1     -18.748 -21.709  15.199  1.00  0.00     0.239 A 
ATOM     30  O   UNL     1     -21.238 -20.602  14.849  1.00  0.00    -0.452 OA
ATOM     31  C   UNL     1     -19.458 -21.930  13.997  1.00  0.00     0.111 A 
ATOM     32  O   UNL     1     -17.609 -22.212  15.370  1.00  0.00    -0.285 OA
ATOM     33  C   UNL     1     -20.734 -21.340  13.870  1.00  0.00     0.146 A 
ATOM     34  C   UNL     1     -18.946 -22.702  12.925  1.00  0.00     0.134 A 
ATOM     35  C   UNL     1     -21.487 -21.513  12.709  1.00  0.00     0.094 A 
ATOM     36  C   UNL     1     -19.713 -22.866  11.762  1.00  0.00     0.093 A 
ATOM     37  C   UNL     1     -20.982 -22.274  11.659  1.00  0.00     0.123 A 
BRANCH  28  38
ATOM     38  C   UNL     1     -21.293 -19.551  17.005  1.00  0.00     0.025 A 
ATOM     39  C   UNL     1     -21.884 -18.322  16.677  1.00  0.00     0.062 A 
ATOM     40  C   UNL     1     -21.422 -20.041  18.317  1.00  0.00     0.016 A 
ATOM     41  C   UNL     1     -22.564 -17.570  17.646  1.00  0.00     0.158 A 
ATOM     42  C   UNL     1     -22.118 -19.301  19.281  1.00  0.00     0.051 A 
ATOM     43  C   UNL     1     -22.688 -18.068  18.955  1.00  0.00     0.157 A 
BRANCH  41  44
ATOM     44  O   UNL     1     -23.126 -16.346  17.308  1.00  0.00    -0.504 OA
ATOM     45  H   UNL     1     -23.564 -15.752  18.005  1.00  0.00     0.293 HD
ENDBRANCH  41  44
BRANCH  43  46
ATOM     46  O   UNL     1     -23.383 -17.361  19.931  1.00  0.00    -0.504 OA
ATOM     47  H   UNL     1     -23.945 -17.823  20.634  1.00  0.00     0.293 HD
ENDBRANCH  43  46
ENDBRANCH  28  38
BRANCH  34  48
ATOM     48  O   UNL     1     -17.694 -23.311  13.006  1.00  0.00    -0.507 OA
ATOM     49  H   UNL     1     -16.922 -23.024  12.415  1.00  0.00     0.293 HD
ENDBRANCH  34  48
BRANCH  37  50
ATOM     50  O   UNL     1     -21.747 -22.444  10.502  1.00  0.00    -0.508 OA
ATOM     51  H   UNL     1     -22.725 -22.183  10.467  1.00  0.00     0.293 HD
ENDBRANCH  37  50
ENDBRANCH  26  27
ENDBRANCH   5  26
BRANCH   4  52
ATOM     52  O   UNL     1     -17.319 -17.894  19.051  1.00  0.00    -0.384 OA
ATOM     53  H   UNL     1     -17.964 -17.442  19.661  1.00  0.00     0.211 HD
ENDBRANCH   4  52
TORSDOF 16
ENDMDL
MODEL 3
REMARK VINA RESULT:    -6.799      2.174      7.078
REMARK INTER + INTRA:         -13.867
REMARK INTER:                 -12.906
REMARK INTRA:                  -0.960
REMARK UNBOUND:                -2.696
REMARK SMILES C[C@H]1O[C@H](OC[C@@H]2O[C@H](Oc3c(-c4ccc(O)c(O)c4)oc4cc(O)cc(O)c4c3=O)[C@@H](O)[C@H](O)[C@H]2O)[C@@H](O)[C@@H](O)[C@@H]1O
REMARK SMILES IDX 7 1 36 2 34 3 32 4 9 5 8 6 6 7 5 8 4 9 1 10 2 11 42 12 3 13
REMARK SMILES IDX 40 14 38 15 43 16 41 18 39 20 37 22 35 24 10 26 11 27 12 28
REMARK SMILES IDX 30 29 21 30 29 31 31 32 22 33 27 34 23 35 26 36 24 37 13 38
REMARK SMILES IDX 20 39 14 40 18 41 15 42 16 43 19 44 17 46 28 48 25 50 33 52
REMARK H PARENT 43 17 41 19 39 21 37 23 35 25 19 45 17 47 28 49 25 51 33 53
REMARK Flexibility Score: inf
ROOT
ATOM      1  C   UNL     1     -15.768 -19.130  16.187  1.00  0.00     0.180 C 
ATOM      2  C   UNL     1     -16.294 -17.667  16.105  1.00  0.00     0.177 C 
ATOM      3  C   UNL     1     -17.691 -17.547  16.777  1.00  0.00     0.180 C 
ATOM      4  C   UNL     1     -17.814 -18.539  17.951  1.00  0.00     0.214 C 
ATOM      5  C   UNL     1     -17.504 -19.996  17.466  1.00  0.00     0.339 C 
ATOM      6  O   UNL     1     -16.851 -20.039  16.207  1.00  0.00    -0.332 OA
ENDROOT
BRANCH   1   7
ATOM      7  C   UNL     1     -14.809 -19.495  15.046  1.00  0.00     0.198 C 
BRANCH   7   8
ATOM      8  O   UNL     1     -14.046 -20.641  15.372  1.00  0.00    -0.347 OA
BRANCH   8   9
ATOM      9  C   UNL     1     -14.418 -21.797  14.620  1.00  0.00     0.281 C 
ATOM     10  C   UNL     1     -11.145 -22.681  13.205  1.00  0.00     0.041 C 
ATOM     11  C   UNL     1     -12.127 -22.080  14.216  1.00  0.00     0.150 C 
ATOM     12  C   UNL     1     -12.050 -22.854  15.584  1.00  0.00     0.174 C 
ATOM     13  O   UNL     1     -13.433 -22.048  13.638  1.00  0.00    -0.344 OA
ATOM     14  C   UNL     1     -13.280 -23.770  15.841  1.00  0.00     0.179 C 
ATOM     15  C   UNL     1     -14.633 -23.112  15.429  1.00  0.00     0.202 C 
BRANCH  12  16
ATOM     16  O   UNL     1     -11.959 -21.934  16.643  1.00  0.00    -0.388 OA
ATOM     17  H   UNL     1     -12.293 -22.392  17.455  1.00  0.00     0.211 HD
ENDBRANCH  12  16
BRANCH  14  18
ATOM     18  O   UNL     1     -13.107 -25.038  15.243  1.00  0.00    -0.387 OA
ATOM     19  H   UNL     1     -13.788 -25.138  14.534  1.00  0.00     0.211 HD
ENDBRANCH  14  18
BRANCH  15  20
ATOM     20  O   UNL     1     -15.431 -24.012  14.684  1.00  0.00    -0.385 OA
ATOM     21  H   UNL     1     -16.210 -24.259  15.245  1.00  0.00     0.211 HD
ENDBRANCH  15  20
ENDBRANCH   8   9
ENDBRANCH   7   8
ENDBRANCH   1   7
BRANCH   2  22
ATOM     22  O   UNL     1     -15.371 -16.820  16.742  1.00  0.00    -0.387 OA
ATOM     23  H   UNL     1     -14.900 -16.315  16.023  1.00  0.00     0.211 HD
ENDBRANCH   2  22
BRANCH   3  24
ATOM     24  O   UNL     1     -18.685 -17.810  15.820  1.00  0.00    -0.387 OA
ATOM     25  H   UNL     1     -18.821 -18.796  15.799  1.00  0.00     0.211 HD
ENDBRANCH   3  24
BRANCH   5  26
ATOM     26  O   UNL     1     -18.736 -20.719  17.378  1.00  0.00    -0.454 OA
BRANCH  26  27
ATOM     27  C   UNL     1     -19.431 -20.955  16.186  1.00  0.00     0.214 A 
ATOM     28  C   UNL     1     -20.704 -20.391  16.001  1.00  0.00     0.180 A 
ATOM     29  C   UNL     1     -18.896 -21.757  15.162  1.00  0.00     0.239 A 
ATOM     30  O   UNL     1     -21.391 -20.640  14.891  1.00  0.00    -0.452 OA
ATOM     31  C   UNL     1     -19.654 -21.995  13.993  1.00  0.00     0.111 A 
ATOM     32  O   UNL     1     -17.754 -22.264  15.297  1.00  0.00    -0.285 OA
ATOM     33  C   UNL     1     -20.931 -21.399  13.906  1.00  0.00     0.146 A 
ATOM     34  C   UNL     1     -19.191 -22.791  12.916  1.00  0.00     0.134 A 
ATOM     35  C   UNL     1     -21.731 -21.588  12.780  1.00  0.00     0.094 A 
ATOM     36  C   UNL     1     -20.006 -22.971  11.789  1.00  0.00     0.093 A 
ATOM     37  C   UNL     1     -21.274 -22.372  11.725  1.00  0.00     0.123 A 
BRANCH  28  38
ATOM     38  C   UNL     1     -21.352 -19.548  17.027  1.00  0.00     0.025 A 
ATOM     39  C   UNL     1     -21.954 -18.324  16.699  1.00  0.00     0.062 A 
ATOM     40  C   UNL     1     -21.426 -20.009  18.353  1.00  0.00     0.016 A 
ATOM     41  C   UNL     1     -22.589 -17.549  17.680  1.00  0.00     0.158 A 
ATOM     42  C   UNL     1     -22.078 -19.247  19.331  1.00  0.00     0.051 A 
ATOM     43  C   UNL     1     -22.658 -18.019  19.003  1.00  0.00     0.157 A 
BRANCH  41  44
ATOM     44  O   UNL     1     -23.162 -16.331  17.341  1.00  0.00    -0.504 OA
ATOM     45  H   UNL     1     -23.370 -16.091  16.376  1.00  0.00     0.293 HD
ENDBRANCH  41  44
BRANCH  43  46
ATOM     46  O   UNL     1     -23.309 -17.289  19.993  1.00  0.00    -0.504 OA
ATOM     47  H   UNL     1     -22.854 -16.538  20.495  1.00  0.00     0.293 HD
ENDBRANCH  43  46
ENDBRANCH  28  38
BRANCH  34  48
ATOM     48  O   UNL     1     -17.941 -23.407  12.959  1.00  0.00    -0.507 OA
ATOM     49  H   UNL     1     -17.087 -22.873  13.079  1.00  0.00     0.293 HD
ENDBRANCH  34  48
BRANCH  37  50
ATOM     50  O   UNL     1     -22.086 -22.558  10.604  1.00  0.00    -0.508 OA
ATOM     51  H   UNL     1     -23.038 -22.214  10.572  1.00  0.00     0.293 HD
ENDBRANCH  37  50
ENDBRANCH  26  27
ENDBRANCH   5  26
BRANCH   4  52
ATOM     52  O   UNL     1     -16.910 -18.157  18.962  1.00  0.00    -0.384 OA
ATOM     53  H   UNL     1     -16.959 -18.848  19.679  1.00  0.00     0.211 HD
ENDBRANCH   4  52
TORSDOF 16
ENDMDL
MODEL 4
REMARK VINA RESULT:    -6.615      1.777      7.815
REMARK INTER + INTRA:         -13.564
REMARK INTER:                 -10.315
REMARK INTRA:                  -3.249
REMARK UNBOUND:                -2.696
REMARK SMILES C[C@H]1O[C@H](OC[C@@H]2O[C@H](Oc3c(-c4ccc(O)c(O)c4)oc4cc(O)cc(O)c4c3=O)[C@@H](O)[C@H](O)[C@H]2O)[C@@H](O)[C@@H](O)[C@@H]1O
REMARK SMILES IDX 7 1 36 2 34 3 32 4 9 5 8 6 6 7 5 8 4 9 1 10 2 11 42 12 3 13
REMARK SMILES IDX 40 14 38 15 43 16 41 18 39 20 37 22 35 24 10 26 11 27 12 28
REMARK SMILES IDX 30 29 21 30 29 31 31 32 22 33 27 34 23 35 26 36 24 37 13 38
REMARK SMILES IDX 20 39 14 40 18 41 15 42 16 43 19 44 17 46 28 48 25 50 33 52
REMARK H PARENT 43 17 41 19 39 21 37 23 35 25 19 45 17 47 28 49 25 51 33 53
REMARK Flexibility Score: inf
ROOT
ATOM      1  C   UNL     1     -16.493 -21.786  13.351  1.00  0.00     0.180 C 
ATOM      2  C   UNL     1     -15.094 -21.120  13.491  1.00  0.00     0.177 C 
ATOM      3  C   UNL     1     -14.670 -21.040  14.986  1.00  0.00     0.180 C 
ATOM      4  C   UNL     1     -15.238 -22.237  15.773  1.00  0.00     0.214 C 
ATOM      5  C   UNL     1     -16.792 -22.318  15.593  1.00  0.00     0.339 C 
ATOM      6  O   UNL     1     -17.270 -21.541  14.507  1.00  0.00    -0.332 OA
ENDROOT
BRANCH   1   7
ATOM      7  C   UNL     1     -17.263 -21.326  12.105  1.00  0.00     0.198 C 
BRANCH   7   8
ATOM      8  O   UNL     1     -18.655 -21.289  12.354  1.00  0.00    -0.347 OA
BRANCH   8   9
ATOM      9  C   UNL     1     -19.407 -22.120  11.471  1.00  0.00     0.281 C 
ATOM     10  C   UNL     1     -20.679 -24.581  13.884  1.00  0.00     0.041 C 
ATOM     11  C   UNL     1     -20.156 -23.226  13.396  1.00  0.00     0.150 C 
ATOM     12  C   UNL     1     -21.280 -22.130  13.507  1.00  0.00     0.174 C 
ATOM     13  O   UNL     1     -19.617 -23.377  12.083  1.00  0.00    -0.344 OA
ATOM     14  C   UNL     1     -21.874 -21.719  12.130  1.00  0.00     0.179 C 
ATOM     15  C   UNL     1     -20.794 -21.573  11.014  1.00  0.00     0.202 C 
BRANCH  12  16
ATOM     16  O   UNL     1     -20.758 -20.978  14.121  1.00  0.00    -0.388 OA
ATOM     17  H   UNL     1     -21.469 -20.289  14.097  1.00  0.00     0.211 HD
ENDBRANCH  12  16
BRANCH  14  18
ATOM     18  O   UNL     1     -22.917 -22.590  11.743  1.00  0.00    -0.387 OA
ATOM     19  H   UNL     1     -23.422 -22.843  12.555  1.00  0.00     0.211 HD
ENDBRANCH  14  18
BRANCH  15  20
ATOM     20  O   UNL     1     -21.200 -22.221   9.824  1.00  0.00    -0.385 OA
ATOM     21  H   UNL     1     -20.691 -21.819   9.073  1.00  0.00     0.211 HD
ENDBRANCH  15  20
ENDBRANCH   8   9
ENDBRANCH   7   8
ENDBRANCH   1   7
BRANCH   2  22
ATOM     22  O   UNL     1     -14.161 -21.873  12.758  1.00  0.00    -0.387 OA
ATOM     23  H   UNL     1     -14.649 -22.257  11.979  1.00  0.00     0.211 HD
ENDBRANCH   2  22
BRANCH   3  24
ATOM     24  O   UNL     1     -15.143 -19.836  15.534  1.00  0.00    -0.387 OA
ATOM     25  H   UNL     1     -15.952 -19.574  15.016  1.00  0.00     0.211 HD
ENDBRANCH   3  24
BRANCH   5  26
ATOM     26  O   UNL     1     -17.415 -21.867  16.801  1.00  0.00    -0.454 OA
BRANCH  26  27
ATOM     27  C   UNL     1     -18.798 -21.753  16.982  1.00  0.00     0.214 A 
ATOM     28  C   UNL     1     -19.380 -20.480  17.100  1.00  0.00     0.180 A 
ATOM     29  C   UNL     1     -19.632 -22.883  17.063  1.00  0.00     0.239 A 
ATOM     30  O   UNL     1     -20.686 -20.359  17.311  1.00  0.00    -0.452 OA
ATOM     31  C   UNL     1     -21.017 -22.714  17.285  1.00  0.00     0.111 A 
ATOM     32  O   UNL     1     -19.139 -24.033  16.949  1.00  0.00    -0.285 OA
ATOM     33  C   UNL     1     -21.506 -21.396  17.407  1.00  0.00     0.146 A 
ATOM     34  C   UNL     1     -21.926 -23.797  17.381  1.00  0.00     0.134 A 
ATOM     35  C   UNL     1     -22.863 -21.156  17.622  1.00  0.00     0.094 A 
ATOM     36  C   UNL     1     -23.288 -23.541  17.595  1.00  0.00     0.093 A 
ATOM     37  C   UNL     1     -23.752 -22.222  17.718  1.00  0.00     0.123 A 
BRANCH  28  38
ATOM     38  C   UNL     1     -18.582 -19.238  17.042  1.00  0.00     0.025 A 
ATOM     39  C   UNL     1     -17.912 -18.741  18.169  1.00  0.00     0.062 A 
ATOM     40  C   UNL     1     -18.437 -18.568  15.814  1.00  0.00     0.016 A 
ATOM     41  C   UNL     1     -17.137 -17.575  18.090  1.00  0.00     0.158 A 
ATOM     42  C   UNL     1     -17.647 -17.415  15.727  1.00  0.00     0.051 A 
ATOM     43  C   UNL     1     -16.998 -16.913  16.857  1.00  0.00     0.157 A 
BRANCH  41  44
ATOM     44  O   UNL     1     -16.496 -17.087  19.221  1.00  0.00    -0.504 OA
ATOM     45  H   UNL     1     -16.337 -17.673  20.035  1.00  0.00     0.293 HD
ENDBRANCH  41  44
BRANCH  43  46
ATOM     46  O   UNL     1     -16.210 -15.772  16.739  1.00  0.00    -0.504 OA
ATOM     47  H   UNL     1     -15.925 -15.405  15.840  1.00  0.00     0.293 HD
ENDBRANCH  43  46
ENDBRANCH  28  38
BRANCH  34  48
ATOM     48  O   UNL     1     -21.489 -25.117  17.274  1.00  0.00    -0.507 OA
ATOM     49  H   UNL     1     -21.744 -25.820  17.959  1.00  0.00     0.293 HD
ENDBRANCH  34  48
BRANCH  37  50
ATOM     50  O   UNL     1     -25.108 -21.970  17.938  1.00  0.00    -0.508 OA
ATOM     51  H   UNL     1     -25.446 -21.046  18.181  1.00  0.00     0.293 HD
ENDBRANCH  37  50
ENDBRANCH  26  27
ENDBRANCH   5  26
BRANCH   4  52
ATOM     52  O   UNL     1     -14.629 -23.418  15.305  1.00  0.00    -0.384 OA
ATOM     53  H   UNL     1     -15.241 -23.819  14.629  1.00  0.00     0.211 HD
ENDBRANCH   4  52
TORSDOF 16
ENDMDL
MODEL 5
REMARK VINA RESULT:    -6.602      2.565      7.650
REMARK INTER + INTRA:         -13.542
REMARK INTER:                 -12.002
REMARK INTRA:                  -1.540
REMARK UNBOUND:                -2.696
REMARK SMILES C[C@H]1O[C@H](OC[C@@H]2O[C@H](Oc3c(-c4ccc(O)c(O)c4)oc4cc(O)cc(O)c4c3=O)[C@@H](O)[C@H](O)[C@H]2O)[C@@H](O)[C@@H](O)[C@@H]1O
REMARK SMILES IDX 7 1 36 2 34 3 32 4 9 5 8 6 6 7 5 8 4 9 1 10 2 11 42 12 3 13
REMARK SMILES IDX 40 14 38 15 43 16 41 18 39 20 37 22 35 24 10 26 11 27 12 28
REMARK SMILES IDX 30 29 21 30 29 31 31 32 22 33 27 34 23 35 26 36 24 37 13 38
REMARK SMILES IDX 20 39 14 40 18 41 15 42 16 43 19 44 17 46 28 48 25 50 33 52
REMARK H PARENT 43 17 41 19 39 21 37 23 35 25 19 45 17 47 28 49 25 51 33 53
REMARK Flexibility Score: inf
ROOT
ATOM      1  C   UNL     1     -16.390 -23.139  15.704  1.00  0.00     0.180 C 
ATOM      2  C   UNL     1     -16.819 -24.633  15.629  1.00  0.00     0.177 C 
ATOM      3  C   UNL     1     -18.327 -24.791  15.978  1.00  0.00     0.180 C 
ATOM      4  C   UNL     1     -19.119 -23.549  15.525  1.00  0.00     0.214 C 
ATOM      5  C   UNL     1     -18.493 -22.250  16.139  1.00  0.00     0.339 C 
ATOM      6  O   UNL     1     -17.184 -22.449  16.649  1.00  0.00    -0.332 OA
ENDROOT
BRANCH   1   7
ATOM      7  C   UNL     1     -14.905 -22.949  16.041  1.00  0.00     0.198 C 
BRANCH   7   8
ATOM      8  O   UNL     1     -14.155 -22.656  14.878  1.00  0.00    -0.347 OA
BRANCH   8   9
ATOM      9  C   UNL     1     -12.959 -21.925  15.150  1.00  0.00     0.281 C 
ATOM     10  C   UNL     1     -10.503 -24.176  13.604  1.00  0.00     0.041 C 
ATOM     11  C   UNL     1     -11.868 -23.514  13.819  1.00  0.00     0.150 C 
ATOM     12  C   UNL     1     -12.257 -22.638  12.571  1.00  0.00     0.174 C 
ATOM     13  O   UNL     1     -11.850 -22.796  15.053  1.00  0.00    -0.344 OA
ATOM     14  C   UNL     1     -12.146 -21.110  12.835  1.00  0.00     0.179 C 
ATOM     15  C   UNL     1     -12.679 -20.689  14.240  1.00  0.00     0.202 C 
BRANCH  12  16
ATOM     16  O   UNL     1     -13.579 -22.923  12.187  1.00  0.00    -0.388 OA
ATOM     17  H   UNL     1     -14.017 -23.364  12.959  1.00  0.00     0.211 HD
ENDBRANCH  12  16
BRANCH  14  18
ATOM     18  O   UNL     1     -10.831 -20.646  12.610  1.00  0.00    -0.387 OA
ATOM     19  H   UNL     1     -10.216 -21.415  12.697  1.00  0.00     0.211 HD
ENDBRANCH  14  18
BRANCH  15  20
ATOM     20  O   UNL     1     -11.778 -19.810  14.885  1.00  0.00    -0.385 OA
ATOM     21  H   UNL     1     -12.312 -19.183  15.437  1.00  0.00     0.211 HD
ENDBRANCH  15  20
ENDBRANCH   8   9
ENDBRANCH   7   8
ENDBRANCH   1   7
BRANCH   2  22
ATOM     22  O   UNL     1     -16.566 -25.111  14.332  1.00  0.00    -0.387 OA
ATOM     23  H   UNL     1     -16.425 -26.094  14.409  1.00  0.00     0.211 HD
ENDBRANCH   2  22
BRANCH   3  24
ATOM     24  O   UNL     1     -18.461 -24.966  17.365  1.00  0.00    -0.387 OA
ATOM     25  H   UNL     1     -17.622 -24.636  17.787  1.00  0.00     0.211 HD
ENDBRANCH   3  24
BRANCH   5  26
ATOM     26  O   UNL     1     -19.342 -21.791  17.195  1.00  0.00    -0.454 OA
BRANCH  26  27
ATOM     27  C   UNL     1     -20.239 -20.723  17.080  1.00  0.00     0.214 A 
ATOM     28  C   UNL     1     -19.756 -19.440  16.773  1.00  0.00     0.180 A 
ATOM     29  C   UNL     1     -21.622 -20.891  17.275  1.00  0.00     0.239 A 
ATOM     30  O   UNL     1     -20.592 -18.410  16.699  1.00  0.00    -0.452 OA
ATOM     31  C   UNL     1     -22.481 -19.772  17.184  1.00  0.00     0.111 A 
ATOM     32  O   UNL     1     -22.083 -22.029  17.539  1.00  0.00    -0.285 OA
ATOM     33  C   UNL     1     -21.900 -18.520  16.888  1.00  0.00     0.146 A 
ATOM     34  C   UNL     1     -23.883 -19.853  17.368  1.00  0.00     0.134 A 
ATOM     35  C   UNL     1     -22.689 -17.375  16.779  1.00  0.00     0.094 A 
ATOM     36  C   UNL     1     -24.665 -18.694  17.254  1.00  0.00     0.093 A 
ATOM     37  C   UNL     1     -24.065 -17.458  16.963  1.00  0.00     0.123 A 
BRANCH  28  38
ATOM     38  C   UNL     1     -18.319 -19.165  16.566  1.00  0.00     0.025 A 
ATOM     39  C   UNL     1     -17.702 -19.375  15.324  1.00  0.00     0.062 A 
ATOM     40  C   UNL     1     -17.562 -18.620  17.618  1.00  0.00     0.016 A 
ATOM     41  C   UNL     1     -16.344 -19.083  15.136  1.00  0.00     0.158 A 
ATOM     42  C   UNL     1     -16.210 -18.307  17.427  1.00  0.00     0.051 A 
ATOM     43  C   UNL     1     -15.596 -18.537  16.194  1.00  0.00     0.157 A 
BRANCH  41  44
ATOM     44  O   UNL     1     -15.746 -19.316  13.905  1.00  0.00    -0.504 OA
ATOM     45  H   UNL     1     -14.974 -19.969  13.804  1.00  0.00     0.293 HD
ENDBRANCH  41  44
BRANCH  43  46
ATOM     46  O   UNL     1     -14.254 -18.207  16.031  1.00  0.00    -0.504 OA
ATOM     47  H   UNL     1     -13.507 -18.819  16.335  1.00  0.00     0.293 HD
ENDBRANCH  43  46
ENDBRANCH  28  38
BRANCH  34  48
ATOM     48  O   UNL     1     -24.503 -21.066  17.670  1.00  0.00    -0.507 OA
ATOM     49  H   UNL     1     -25.274 -21.122  18.325  1.00  0.00     0.293 HD
ENDBRANCH  34  48
BRANCH  37  50
ATOM     50  O   UNL     1     -24.845 -16.304  16.855  1.00  0.00    -0.508 OA
ATOM     51  H   UNL     1     -25.768 -16.245  17.268  1.00  0.00     0.293 HD
ENDBRANCH  37  50
ENDBRANCH  26  27
ENDBRANCH   5  26
BRANCH   4  52
ATOM     52  O   UNL     1     -19.096 -23.485  14.118  1.00  0.00    -0.384 OA
ATOM     53  H   UNL     1     -19.954 -23.073  13.825  1.00  0.00     0.211 HD
ENDBRANCH   4  52
TORSDOF 16
ENDMDL
MODEL 6
REMARK VINA RESULT:    -6.478      2.095      6.363
REMARK INTER + INTRA:         -13.339
REMARK INTER:                 -10.522
REMARK INTRA:                  -2.817
REMARK UNBOUND:                -2.696
REMARK SMILES C[C@H]1O[C@H](OC[C@@H]2O[C@H](Oc3c(-c4ccc(O)c(O)c4)oc4cc(O)cc(O)c4c3=O)[C@@H](O)[C@H](O)[C@H]2O)[C@@H](O)[C@@H](O)[C@@H]1O
REMARK SMILES IDX 7 1 36 2 34 3 32 4 9 5 8 6 6 7 5 8 4 9 1 10 2 11 42 12 3 13
REMARK SMILES IDX 40 14 38 15 43 16 41 18 39 20 37 22 35 24 10 26 11 27 12 28
REMARK SMILES IDX 30 29 21 30 29 31 31 32 22 33 27 34 23 35 26 36 24 37 13 38
REMARK SMILES IDX 20 39 14 40 18 41 15 42 16 43 19 44 17 46 28 48 25 50 33 52
REMARK H PARENT 43 17 41 19 39 21 37 23 35 25 19 45 17 47 28 49 25 51 33 53
REMARK Flexibility Score: inf
ROOT
ATOM      1  C   UNL     1     -14.119 -19.398  15.326  1.00  0.00     0.180 C 
ATOM      2  C   UNL     1     -12.792 -19.993  15.879  1.00  0.00     0.177 C 
ATOM      3  C   UNL     1     -12.526 -21.402  15.275  1.00  0.00     0.180 C 
ATOM      4  C   UNL     1     -13.082 -21.487  13.840  1.00  0.00     0.214 C 
ATOM      5  C   UNL     1     -14.601 -21.103  13.822  1.00  0.00     0.339 C 
ATOM      6  O   UNL     1     -15.022 -20.437  15.001  1.00  0.00    -0.332 OA
ENDROOT
BRANCH   1   7
ATOM      7  C   UNL     1     -14.792 -18.412  16.290  1.00  0.00     0.198 C 
BRANCH   7   8
ATOM      8  O   UNL     1     -16.195 -18.402  16.109  1.00  0.00    -0.347 OA
BRANCH   8   9
ATOM      9  C   UNL     1     -16.889 -17.687  17.131  1.00  0.00     0.281 C 
ATOM     10  C   UNL     1     -20.299 -18.910  16.520  1.00  0.00     0.041 C 
ATOM     11  C   UNL     1     -18.767 -18.949  16.523  1.00  0.00     0.150 C 
ATOM     12  C   UNL     1     -18.247 -20.069  17.499  1.00  0.00     0.174 C 
ATOM     13  O   UNL     1     -18.266 -17.644  16.813  1.00  0.00    -0.344 OA
ATOM     14  C   UNL     1     -17.636 -19.503  18.811  1.00  0.00     0.179 C 
ATOM     15  C   UNL     1     -16.750 -18.240  18.582  1.00  0.00     0.202 C 
BRANCH  12  16
ATOM     16  O   UNL     1     -17.264 -20.840  16.853  1.00  0.00    -0.388 OA
ATOM     17  H   UNL     1     -16.407 -20.353  16.945  1.00  0.00     0.211 HD
ENDBRANCH  12  16
BRANCH  14  18
ATOM     18  O   UNL     1     -18.635 -19.276  19.784  1.00  0.00    -0.387 OA
ATOM     19  H   UNL     1     -18.342 -18.522  20.354  1.00  0.00     0.211 HD
ENDBRANCH  14  18
BRANCH  15  20
ATOM     20  O   UNL     1     -17.058 -17.224  19.517  1.00  0.00    -0.385 OA
ATOM     21  H   UNL     1     -16.612 -17.456  20.372  1.00  0.00     0.211 HD
ENDBRANCH  15  20
ENDBRANCH   8   9
ENDBRANCH   7   8
ENDBRANCH   1   7
BRANCH   2  22
ATOM     22  O   UNL     1     -11.739 -19.118  15.562  1.00  0.00    -0.387 OA
ATOM     23  H   UNL     1     -10.891 -19.607  15.749  1.00  0.00     0.211 HD
ENDBRANCH   2  22
BRANCH   3  24
ATOM     24  O   UNL     1     -13.136 -22.372  16.086  1.00  0.00    -0.387 OA
ATOM     25  H   UNL     1     -14.120 -22.271  15.978  1.00  0.00     0.211 HD
ENDBRANCH   3  24
BRANCH   5  26
ATOM     26  O   UNL     1     -15.372 -22.299  13.660  1.00  0.00    -0.454 OA
BRANCH  26  27
ATOM     27  C   UNL     1     -16.401 -22.454  12.725  1.00  0.00     0.214 A 
ATOM     28  C   UNL     1     -16.118 -23.011  11.466  1.00  0.00     0.180 A 
ATOM     29  C   UNL     1     -17.722 -22.059  13.002  1.00  0.00     0.239 A 
ATOM     30  O   UNL     1     -17.079 -23.129  10.556  1.00  0.00    -0.452 OA
ATOM     31  C   UNL     1     -18.718 -22.203  12.009  1.00  0.00     0.111 A 
ATOM     32  O   UNL     1     -18.006 -21.569  14.124  1.00  0.00    -0.285 OA
ATOM     33  C   UNL     1     -18.333 -22.756  10.770  1.00  0.00     0.146 A 
ATOM     34  C   UNL     1     -20.070 -21.828  12.206  1.00  0.00     0.134 A 
ATOM     35  C   UNL     1     -19.265 -22.932   9.747  1.00  0.00     0.094 A 
ATOM     36  C   UNL     1     -20.997 -22.012  11.170  1.00  0.00     0.093 A 
ATOM     37  C   UNL     1     -20.591 -22.560   9.942  1.00  0.00     0.123 A 
BRANCH  28  38
ATOM     38  C   UNL     1     -14.759 -23.443  11.081  1.00  0.00     0.025 A 
ATOM     39  C   UNL     1     -13.886 -22.591  10.389  1.00  0.00     0.062 A 
ATOM     40  C   UNL     1     -14.303 -24.715  11.469  1.00  0.00     0.016 A 
ATOM     41  C   UNL     1     -12.589 -23.007  10.055  1.00  0.00     0.158 A 
ATOM     42  C   UNL     1     -13.001 -25.125  11.156  1.00  0.00     0.051 A 
ATOM     43  C   UNL     1     -12.142 -24.280  10.448  1.00  0.00     0.157 A 
BRANCH  41  44
ATOM     44  O   UNL     1     -11.745 -22.157   9.352  1.00  0.00    -0.504 OA
ATOM     45  H   UNL     1     -11.355 -22.419   8.452  1.00  0.00     0.293 HD
ENDBRANCH  41  44
BRANCH  43  46
ATOM     46  O   UNL     1     -10.851 -24.711  10.160  1.00  0.00    -0.504 OA
ATOM     47  H   UNL     1     -10.033 -24.172  10.415  1.00  0.00     0.293 HD
ENDBRANCH  43  46
ENDBRANCH  28  38
BRANCH  34  48
ATOM     48  O   UNL     1     -20.497 -21.270  13.411  1.00  0.00    -0.507 OA
ATOM     49  H   UNL     1     -20.078 -21.530  14.296  1.00  0.00     0.293 HD
ENDBRANCH  34  48
BRANCH  37  50
ATOM     50  O   UNL     1     -21.515 -22.737   8.910  1.00  0.00    -0.508 OA
ATOM     51  H   UNL     1     -22.363 -23.276   9.039  1.00  0.00     0.293 HD
ENDBRANCH  37  50
ENDBRANCH  26  27
ENDBRANCH   5  26
BRANCH   4  52
ATOM     52  O   UNL     1     -12.347 -20.614  13.016  1.00  0.00    -0.384 OA
ATOM     53  H   UNL     1     -11.547 -20.322  13.532  1.00  0.00     0.211 HD
ENDBRANCH   4  52
TORSDOF 16
ENDMDL
MODEL 7
REMARK VINA RESULT:    -6.435      2.632      6.364
REMARK INTER + INTRA:         -13.269
REMARK INTER:                 -11.336
REMARK INTRA:                  -1.933
REMARK UNBOUND:                -2.696
REMARK SMILES C[C@H]1O[C@H](OC[C@@H]2O[C@H](Oc3c(-c4ccc(O)c(O)c4)oc4cc(O)cc(O)c4c3=O)[C@@H](O)[C@H](O)[C@H]2O)[C@@H](O)[C@@H](O)[C@@H]1O
REMARK SMILES IDX 7 1 36 2 34 3 32 4 9 5 8 6 6 7 5 8 4 9 1 10 2 11 42 12 3 13
REMARK SMILES IDX 40 14 38 15 43 16 41 18 39 20 37 22 35 24 10 26 11 27 12 28
REMARK SMILES IDX 30 29 21 30 29 31 31 32 22 33 27 34 23 35 26 36 24 37 13 38
REMARK SMILES IDX 20 39 14 40 18 41 15 42 16 43 19 44 17 46 28 48 25 50 33 52
REMARK H PARENT 43 17 41 19 39 21 37 23 35 25 19 45 17 47 28 49 25 51 33 53
REMARK Flexibility Score: inf
ROOT
ATOM      1  C   UNL     1     -17.966 -19.792  17.006  1.00  0.00     0.180 C 
ATOM      2  C   UNL     1     -17.257 -18.423  16.797  1.00  0.00     0.177 C 
ATOM      3  C   UNL     1     -16.012 -18.582  15.879  1.00  0.00     0.180 C 
ATOM      4  C   UNL     1     -16.244 -19.701  14.844  1.00  0.00     0.214 C 
ATOM      5  C   UNL     1     -16.632 -21.037  15.566  1.00  0.00     0.339 C 
ATOM      6  O   UNL     1     -17.029 -20.847  16.915  1.00  0.00    -0.332 OA
ENDROOT
BRANCH   1   7
ATOM      7  C   UNL     1     -18.725 -19.888  18.337  1.00  0.00     0.198 C 
BRANCH   7   8
ATOM      8  O   UNL     1     -19.919 -19.132  18.295  1.00  0.00    -0.347 OA
BRANCH   8   9
ATOM      9  C   UNL     1     -21.092 -19.922  18.494  1.00  0.00     0.281 C 
ATOM     10  C   UNL     1     -23.657 -17.338  18.007  1.00  0.00     0.041 C 
ATOM     11  C   UNL     1     -22.296 -18.022  17.840  1.00  0.00     0.150 C 
ATOM     12  C   UNL     1     -22.094 -18.489  16.351  1.00  0.00     0.174 C 
ATOM     13  O   UNL     1     -22.178 -19.071  18.801  1.00  0.00    -0.344 OA
ATOM     14  C   UNL     1     -22.216 -20.028  16.169  1.00  0.00     0.179 C 
ATOM     15  C   UNL     1     -21.522 -20.838  17.307  1.00  0.00     0.202 C 
BRANCH  12  16
ATOM     16  O   UNL     1     -20.824 -18.092  15.898  1.00  0.00    -0.388 OA
ATOM     17  H   UNL     1     -20.168 -18.387  16.580  1.00  0.00     0.211 HD
ENDBRANCH  12  16
BRANCH  14  18
ATOM     18  O   UNL     1     -23.562 -20.417  15.991  1.00  0.00    -0.387 OA
ATOM     19  H   UNL     1     -23.922 -20.688  16.871  1.00  0.00     0.211 HD
ENDBRANCH  14  18
BRANCH  15  20
ATOM     20  O   UNL     1     -22.360 -21.876  17.779  1.00  0.00    -0.385 OA
ATOM     21  H   UNL     1     -22.227 -21.948  18.759  1.00  0.00     0.211 HD
ENDBRANCH  15  20
ENDBRANCH   8   9
ENDBRANCH   7   8
ENDBRANCH   1   7
BRANCH   2  22
ATOM     22  O   UNL     1     -18.173 -17.522  16.227  1.00  0.00    -0.387 OA
ATOM     23  H   UNL     1     -17.640 -16.858  15.709  1.00  0.00     0.211 HD
ENDBRANCH   2  22
BRANCH   3  24
ATOM     24  O   UNL     1     -14.892 -18.884  16.671  1.00  0.00    -0.387 OA
ATOM     25  H   UNL     1     -14.104 -18.449  16.247  1.00  0.00     0.211 HD
ENDBRANCH   3  24
BRANCH   5  26
ATOM     26  O   UNL     1     -15.506 -21.919  15.530  1.00  0.00    -0.454 OA
BRANCH  26  27
ATOM     27  C   UNL     1     -14.972 -22.471  14.360  1.00  0.00     0.214 A 
ATOM     28  C   UNL     1     -13.590 -22.387  14.120  1.00  0.00     0.180 A 
ATOM     29  C   UNL     1     -15.783 -23.104  13.400  1.00  0.00     0.239 A 
ATOM     30  O   UNL     1     -13.075 -22.873  12.995  1.00  0.00    -0.452 OA
ATOM     31  C   UNL     1     -15.198 -23.612  12.218  1.00  0.00     0.111 A 
ATOM     32  O   UNL     1     -17.020 -23.203  13.595  1.00  0.00    -0.285 OA
ATOM     33  C   UNL     1     -13.804 -23.465  12.059  1.00  0.00     0.146 A 
ATOM     34  C   UNL     1     -15.942 -24.261  11.201  1.00  0.00     0.134 A 
ATOM     35  C   UNL     1     -13.161 -23.947  10.919  1.00  0.00     0.094 A 
ATOM     36  C   UNL     1     -15.283 -24.743  10.061  1.00  0.00     0.093 A 
ATOM     37  C   UNL     1     -13.895 -24.581   9.922  1.00  0.00     0.123 A 
BRANCH  28  38
ATOM     38  C   UNL     1     -12.663 -21.729  15.063  1.00  0.00     0.025 A 
ATOM     39  C   UNL     1     -12.491 -20.337  15.074  1.00  0.00     0.062 A 
ATOM     40  C   UNL     1     -11.981 -22.507  16.017  1.00  0.00     0.016 A 
ATOM     41  C   UNL     1     -11.627 -19.726  15.995  1.00  0.00     0.158 A 
ATOM     42  C   UNL     1     -11.135 -21.897  16.951  1.00  0.00     0.051 A 
ATOM     43  C   UNL     1     -10.951 -20.512  16.945  1.00  0.00     0.157 A 
BRANCH  41  44
ATOM     44  O   UNL     1     -11.455 -18.348  15.978  1.00  0.00    -0.504 OA
ATOM     45  H   UNL     1     -10.923 -17.870  16.700  1.00  0.00     0.293 HD
ENDBRANCH  41  44
BRANCH  43  46
ATOM     46  O   UNL     1     -10.112 -19.933  17.891  1.00  0.00    -0.504 OA
ATOM     47  H   UNL     1     -10.058 -20.272  18.843  1.00  0.00     0.293 HD
ENDBRANCH  43  46
ENDBRANCH  28  38
BRANCH  34  48
ATOM     48  O   UNL     1     -17.323 -24.423  11.309  1.00  0.00    -0.507 OA
ATOM     49  H   UNL     1     -17.923 -24.444  10.492  1.00  0.00     0.293 HD
ENDBRANCH  34  48
BRANCH  37  50
ATOM     50  O   UNL     1     -13.241 -25.056   8.783  1.00  0.00    -0.508 OA
ATOM     51  H   UNL     1     -12.301 -24.764   8.546  1.00  0.00     0.293 HD
ENDBRANCH  37  50
ENDBRANCH  26  27
ENDBRANCH   5  26
BRANCH   4  52
ATOM     52  O   UNL     1     -17.271 -19.302  13.967  1.00  0.00    -0.384 OA
ATOM     53  H   UNL     1     -16.951 -19.474  13.039  1.00  0.00     0.211 HD
ENDBRANCH   4  52
TORSDOF 16
ENDMDL
MODEL 8
REMARK VINA RESULT:    -6.359      2.393      8.379
REMARK INTER + INTRA:         -13.143
REMARK INTER:                 -11.750
REMARK INTRA:                  -1.393
REMARK UNBOUND:                -2.696
REMARK SMILES C[C@H]1O[C@H](OC[C@@H]2O[C@H](Oc3c(-c4ccc(O)c(O)c4)oc4cc(O)cc(O)c4c3=O)[C@@H](O)[C@H](O)[C@H]2O)[C@@H](O)[C@@H](O)[C@@H]1O
REMARK SMILES IDX 7 1 36 2 34 3 32 4 9 5 8 6 6 7 5 8 4 9 1 10 2 11 42 12 3 13
REMARK SMILES IDX 40 14 38 15 43 16 41 18 39 20 37 22 35 24 10 26 11 27 12 28
REMARK SMILES IDX 30 29 21 30 29 31 31 32 22 33 27 34 23 35 26 36 24 37 13 38
REMARK SMILES IDX 20 39 14 40 18 41 15 42 16 43 19 44 17 46 28 48 25 50 33 52
REMARK H PARENT 43 17 41 19 39 21 37 23 35 25 19 45 17 47 28 49 25 51 33 53
REMARK Flexibility Score: inf
ROOT
ATOM      1  C   UNL     1     -14.611 -22.271  15.188  1.00  0.00     0.180 C 
ATOM      2  C   UNL     1     -13.666 -21.204  14.564  1.00  0.00     0.177 C 
ATOM      3  C   UNL     1     -14.434 -19.877  14.299  1.00  0.00     0.180 C 
ATOM      4  C   UNL     1     -15.536 -19.670  15.356  1.00  0.00     0.214 C 
ATOM      5  C   UNL     1     -16.487 -20.915  15.400  1.00  0.00     0.339 C 
ATOM      6  O   UNL     1     -15.942 -22.057  14.759  1.00  0.00    -0.332 OA
ENDROOT
BRANCH   1   7
ATOM      7  C   UNL     1     -14.193 -23.713  14.872  1.00  0.00     0.198 C 
BRANCH   7   8
ATOM      8  O   UNL     1     -13.628 -23.806  13.579  1.00  0.00    -0.347 OA
BRANCH   8   9
ATOM      9  C   UNL     1     -12.406 -24.543  13.549  1.00  0.00     0.281 C 
ATOM     10  C   UNL     1     -11.895 -24.732   9.917  1.00  0.00     0.041 C 
ATOM     11  C   UNL     1     -12.403 -24.150  11.240  1.00  0.00     0.150 C 
ATOM     12  C   UNL     1     -11.701 -22.775  11.542  1.00  0.00     0.174 C 
ATOM     13  O   UNL     1     -12.246 -25.125  12.271  1.00  0.00    -0.344 OA
ATOM     14  C   UNL     1     -10.645 -22.863  12.680  1.00  0.00     0.179 C 
ATOM     15  C   UNL     1     -11.107 -23.747  13.880  1.00  0.00     0.202 C 
BRANCH  12  16
ATOM     16  O   UNL     1     -12.666 -21.822  11.911  1.00  0.00    -0.388 OA
ATOM     17  H   UNL     1     -13.005 -21.414  11.075  1.00  0.00     0.211 HD
ENDBRANCH  12  16
BRANCH  14  18
ATOM     18  O   UNL     1      -9.387 -23.268  12.181  1.00  0.00    -0.387 OA
ATOM     19  H   UNL     1      -9.048 -22.553  11.588  1.00  0.00     0.211 HD
ENDBRANCH  14  18
BRANCH  15  20
ATOM     20  O   UNL     1     -10.084 -24.638  14.280  1.00  0.00    -0.385 OA
ATOM     21  H   UNL     1     -10.182 -25.468  13.746  1.00  0.00     0.211 HD
ENDBRANCH  15  20
ENDBRANCH   8   9
ENDBRANCH   7   8
ENDBRANCH   1   7
BRANCH   2  22
ATOM     22  O   UNL     1     -12.594 -20.981  15.444  1.00  0.00    -0.387 OA
ATOM     23  H   UNL     1     -12.943 -20.417  16.187  1.00  0.00     0.211 HD
ENDBRANCH   2  22
BRANCH   3  24
ATOM     24  O   UNL     1     -15.001 -19.924  13.015  1.00  0.00    -0.387 OA
ATOM     25  H   UNL     1     -14.274 -19.728  12.363  1.00  0.00     0.211 HD
ENDBRANCH   3  24
BRANCH   5  26
ATOM     26  O   UNL     1     -17.722 -20.567  14.766  1.00  0.00    -0.454 OA
BRANCH  26  27
ATOM     27  C   UNL     1     -18.987 -20.802  15.318  1.00  0.00     0.214 A 
ATOM     28  C   UNL     1     -19.394 -20.079  16.452  1.00  0.00     0.180 A 
ATOM     29  C   UNL     1     -19.869 -21.754  14.776  1.00  0.00     0.239 A 
ATOM     30  O   UNL     1     -20.576 -20.319  17.010  1.00  0.00    -0.452 OA
ATOM     31  C   UNL     1     -21.120 -21.978  15.394  1.00  0.00     0.111 A 
ATOM     32  O   UNL     1     -19.535 -22.406  13.755  1.00  0.00    -0.285 OA
ATOM     33  C   UNL     1     -21.432 -21.216  16.540  1.00  0.00     0.146 A 
ATOM     34  C   UNL     1     -22.064 -22.919  14.915  1.00  0.00     0.134 A 
ATOM     35  C   UNL     1     -22.651 -21.383  17.197  1.00  0.00     0.094 A 
ATOM     36  C   UNL     1     -23.287 -23.076  15.584  1.00  0.00     0.093 A 
ATOM     37  C   UNL     1     -23.575 -22.309  16.725  1.00  0.00     0.123 A 
BRANCH  28  38
ATOM     38  C   UNL     1     -18.530 -19.070  17.099  1.00  0.00     0.025 A 
ATOM     39  C   UNL     1     -18.164 -17.886  16.441  1.00  0.00     0.062 A 
ATOM     40  C   UNL     1     -18.115 -19.266  18.428  1.00  0.00     0.016 A 
ATOM     41  C   UNL     1     -17.367 -16.925  17.080  1.00  0.00     0.158 A 
ATOM     42  C   UNL     1     -17.337 -18.298  19.075  1.00  0.00     0.051 A 
ATOM     43  C   UNL     1     -16.958 -17.130  18.409  1.00  0.00     0.157 A 
BRANCH  41  44
ATOM     44  O   UNL     1     -16.999 -15.768  16.406  1.00  0.00    -0.504 OA
ATOM     45  H   UNL     1     -16.846 -14.892  16.897  1.00  0.00     0.293 HD
ENDBRANCH  41  44
BRANCH  43  46
ATOM     46  O   UNL     1     -16.192 -16.182  19.080  1.00  0.00    -0.504 OA
ATOM     47  H   UNL     1     -15.432 -15.688  18.632  1.00  0.00     0.293 HD
ENDBRANCH  43  46
ENDBRANCH  28  38
BRANCH  34  48
ATOM     48  O   UNL     1     -21.798 -23.702  13.791  1.00  0.00    -0.507 OA
ATOM     49  H   UNL     1     -22.542 -24.081  13.217  1.00  0.00     0.293 HD
ENDBRANCH  34  48
BRANCH  37  50
ATOM     50  O   UNL     1     -24.791 -22.471  17.393  1.00  0.00    -0.508 OA
ATOM     51  H   UNL     1     -24.836 -22.834  18.338  1.00  0.00     0.293 HD
ENDBRANCH  37  50
ENDBRANCH  26  27
ENDBRANCH   5  26
BRANCH   4  52
ATOM     52  O   UNL     1     -14.929 -19.473  16.611  1.00  0.00    -0.384 OA
ATOM     53  H   UNL     1     -15.516 -19.899  17.294  1.00  0.00     0.211 HD
ENDBRANCH   4  52
TORSDOF 16
ENDMDL
MODEL 9
REMARK VINA RESULT:    -6.356      2.518      6.618
REMARK INTER + INTRA:         -13.139
REMARK INTER:                 -10.490
REMARK INTRA:                  -2.649
REMARK UNBOUND:                -2.696
REMARK SMILES C[C@H]1O[C@H](OC[C@@H]2O[C@H](Oc3c(-c4ccc(O)c(O)c4)oc4cc(O)cc(O)c4c3=O)[C@@H](O)[C@H](O)[C@H]2O)[C@@H](O)[C@@H](O)[C@@H]1O
REMARK SMILES IDX 7 1 36 2 34 3 32 4 9 5 8 6 6 7 5 8 4 9 1 10 2 11 42 12 3 13
REMARK SMILES IDX 40 14 38 15 43 16 41 18 39 20 37 22 35 24 10 26 11 27 12 28
REMARK SMILES IDX 30 29 21 30 29 31 31 32 22 33 27 34 23 35 26 36 24 37 13 38
REMARK SMILES IDX 20 39 14 40 18 41 15 42 16 43 19 44 17 46 28 48 25 50 33 52
REMARK H PARENT 43 17 41 19 39 21 37 23 35 25 19 45 17 47 28 49 25 51 33 53
REMARK Flexibility Score: inf
ROOT
ATOM      1  C   UNL     1     -22.721 -23.318  14.495  1.00  0.00     0.180 C 
ATOM      2  C   UNL     1     -23.964 -23.681  15.359  1.00  0.00     0.177 C 
ATOM      3  C   UNL     1     -23.926 -22.929  16.720  1.00  0.00     0.180 C 
ATOM      4  C   UNL     1     -23.247 -21.554  16.559  1.00  0.00     0.214 C 
ATOM      5  C   UNL     1     -21.823 -21.722  15.926  1.00  0.00     0.339 C 
ATOM      6  O   UNL     1     -21.625 -22.993  15.327  1.00  0.00    -0.332 OA
ENDROOT
BRANCH   1   7
ATOM      7  C   UNL     1     -22.315 -24.429  13.517  1.00  0.00     0.198 C 
BRANCH   7   8
ATOM      8  O   UNL     1     -21.067 -24.144  12.916  1.00  0.00    -0.347 OA
BRANCH   8   9
ATOM      9  C   UNL     1     -21.146 -23.144  11.901  1.00  0.00     0.281 C 
ATOM     10  C   UNL     1     -17.989 -21.378  12.536  1.00  0.00     0.041 C 
ATOM     11  C   UNL     1     -18.964 -22.559  12.521  1.00  0.00     0.150 C 
ATOM     12  C   UNL     1     -18.457 -23.679  11.539  1.00  0.00     0.174 C 
ATOM     13  O   UNL     1     -20.277 -22.079  12.229  1.00  0.00    -0.344 OA
ATOM     14  C   UNL     1     -19.279 -23.760  10.223  1.00  0.00     0.179 C 
ATOM     15  C   UNL     1     -20.815 -23.602  10.447  1.00  0.00     0.202 C 
BRANCH  12  16
ATOM     16  O   UNL     1     -18.522 -24.932  12.175  1.00  0.00    -0.388 OA
ATOM     17  H   UNL     1     -18.730 -24.762  13.129  1.00  0.00     0.211 HD
ENDBRANCH  12  16
BRANCH  14  18
ATOM     18  O   UNL     1     -18.792 -22.850   9.258  1.00  0.00    -0.387 OA
ATOM     19  H   UNL     1     -19.153 -23.116   8.377  1.00  0.00     0.211 HD
ENDBRANCH  14  18
BRANCH  15  20
ATOM     20  O   UNL     1     -21.376 -22.696   9.517  1.00  0.00    -0.385 OA
ATOM     21  H   UNL     1     -21.493 -23.180   8.659  1.00  0.00     0.211 HD
ENDBRANCH  15  20
ENDBRANCH   8   9
ENDBRANCH   7   8
ENDBRANCH   1   7
BRANCH   2  22
ATOM     22  O   UNL     1     -25.125 -23.340  14.644  1.00  0.00    -0.387 OA
ATOM     23  H   UNL     1     -25.780 -24.076  14.792  1.00  0.00     0.211 HD
ENDBRANCH   2  22
BRANCH   3  24
ATOM     24  O   UNL     1     -23.223 -23.706  17.655  1.00  0.00    -0.387 OA
ATOM     25  H   UNL     1     -22.377 -23.997  17.220  1.00  0.00     0.211 HD
ENDBRANCH   3  24
BRANCH   5  26
ATOM     26  O   UNL     1     -20.844 -21.531  16.952  1.00  0.00    -0.454 OA
BRANCH  26  27
ATOM     27  C   UNL     1     -19.724 -20.700  16.830  1.00  0.00     0.214 A 
ATOM     28  C   UNL     1     -19.837 -19.334  17.139  1.00  0.00     0.180 A 
ATOM     29  C   UNL     1     -18.480 -21.189  16.393  1.00  0.00     0.239 A 
ATOM     30  O   UNL     1     -18.791 -18.526  16.990  1.00  0.00    -0.452 OA
ATOM     31  C   UNL     1     -17.390 -20.300  16.251  1.00  0.00     0.111 A 
ATOM     32  O   UNL     1     -18.349 -22.409  16.121  1.00  0.00    -0.285 OA
ATOM     33  C   UNL     1     -17.605 -18.942  16.569  1.00  0.00     0.146 A 
ATOM     34  C   UNL     1     -16.106 -20.710  15.815  1.00  0.00     0.134 A 
ATOM     35  C   UNL     1     -16.573 -18.011  16.456  1.00  0.00     0.094 A 
ATOM     36  C   UNL     1     -15.076 -19.764  15.708  1.00  0.00     0.093 A 
ATOM     37  C   UNL     1     -15.314 -18.417  16.026  1.00  0.00     0.123 A 
BRANCH  28  38
ATOM     38  C   UNL     1     -21.105 -18.727  17.592  1.00  0.00     0.025 A 
ATOM     39  C   UNL     1     -21.956 -18.053  16.704  1.00  0.00     0.062 A 
ATOM     40  C   UNL     1     -21.504 -18.882  18.932  1.00  0.00     0.016 A 
ATOM     41  C   UNL     1     -23.170 -17.507  17.145  1.00  0.00     0.158 A 
ATOM     42  C   UNL     1     -22.726 -18.356  19.370  1.00  0.00     0.051 A 
ATOM     43  C   UNL     1     -23.560 -17.667  18.486  1.00  0.00     0.157 A 
BRANCH  41  44
ATOM     44  O   UNL     1     -23.990 -16.826  16.255  1.00  0.00    -0.504 OA
ATOM     45  H   UNL     1     -24.245 -15.854  16.405  1.00  0.00     0.293 HD
ENDBRANCH  41  44
BRANCH  43  46
ATOM     46  O   UNL     1     -24.773 -17.165  18.947  1.00  0.00    -0.504 OA
ATOM     47  H   UNL     1     -25.639 -17.680  18.857  1.00  0.00     0.293 HD
ENDBRANCH  43  46
ENDBRANCH  28  38
BRANCH  34  48
ATOM     48  O   UNL     1     -15.847 -22.040  15.482  1.00  0.00    -0.507 OA
ATOM     49  H   UNL     1     -15.455 -22.691  16.152  1.00  0.00     0.293 HD
ENDBRANCH  34  48
BRANCH  37  50
ATOM     50  O   UNL     1     -14.288 -17.475  15.913  1.00  0.00    -0.508 OA
ATOM     51  H   UNL     1     -14.095 -17.000  15.039  1.00  0.00     0.293 HD
ENDBRANCH  37  50
ENDBRANCH  26  27
ENDBRANCH   5  26
BRANCH   4  52
ATOM     52  O   UNL     1     -24.055 -20.743  15.738  1.00  0.00    -0.384 OA
ATOM     53  H   UNL     1     -23.586 -19.871  15.631  1.00  0.00     0.211 HD
ENDBRANCH   4  52
TORSDOF 16
ENDMDL
