MODEL 1
REMARK VINA RESULT:     4.123      0.000      0.000
REMARK INTER + INTRA:           4.552
REMARK INTER:                   4.846
REMARK INTRA:                  -0.294
REMARK UNBOUND:                -0.294
REMARK SMILES O=c1cc(-c2ccc(O)c(O)c2)oc2cc(O)cc(O)c12
REMARK SMILES IDX 4 1 3 2 2 3 1 4 21 5 19 6 18 7 16 8 15 9 14 10 13 11 5 12
REMARK SMILES IDX 6 13 7 14 8 15 12 16 10 17 9 18 11 20 20 22 17 24
REMARK H PARENT 9 19 11 21 20 23 17 25
REMARK Flexibility Score: inf
ROOT
ATOM      1  C   UNL     1     -26.331   7.531  -5.209  1.00  0.00     0.138 A 
ATOM      2  C   UNL     1     -26.244   6.311  -5.895  1.00  0.00     0.100 A 
ATOM      3  C   UNL     1     -24.991   5.774  -6.189  1.00  0.00     0.197 A 
ATOM      4  O   UNL     1     -24.943   4.710  -6.861  1.00  0.00    -0.289 OA
ATOM      5  C   UNL     1     -23.819   6.447  -5.769  1.00  0.00     0.107 A 
ATOM      6  C   UNL     1     -22.490   5.973  -5.978  1.00  0.00     0.134 A 
ATOM      7  C   UNL     1     -21.404   6.783  -5.619  1.00  0.00     0.093 A 
ATOM      8  C   UNL     1     -21.599   8.020  -5.005  1.00  0.00     0.123 A 
ATOM      9  C   UNL     1     -22.894   8.469  -4.746  1.00  0.00     0.094 A 
ATOM     10  C   UNL     1     -23.998   7.700  -5.123  1.00  0.00     0.146 A 
ATOM     11  O   UNL     1     -25.215   8.170  -4.872  1.00  0.00    -0.456 OA
ENDROOT
BRANCH   1  12
ATOM     12  C   UNL     1     -27.638   8.147  -4.868  1.00  0.00     0.021 A 
ATOM     13  C   UNL     1     -27.721   9.370  -4.175  1.00  0.00     0.016 A 
ATOM     14  C   UNL     1     -28.964   9.933  -3.875  1.00  0.00     0.051 A 
ATOM     15  C   UNL     1     -30.143   9.292  -4.266  1.00  0.00     0.157 A 
ATOM     16  C   UNL     1     -28.828   7.515  -5.270  1.00  0.00     0.062 A 
ATOM     17  C   UNL     1     -30.077   8.079  -4.969  1.00  0.00     0.158 A 
BRANCH  15  18
ATOM     18  O   UNL     1     -31.369   9.878  -3.951  1.00  0.00    -0.504 OA
ATOM     19  H   UNL     1     -32.156   9.334  -3.620  1.00  0.00     0.293 HD
ENDBRANCH  15  18
BRANCH  17  20
ATOM     20  O   UNL     1     -31.248   7.437  -5.365  1.00  0.00    -0.504 OA
ATOM     21  H   UNL     1     -31.231   6.533  -5.822  1.00  0.00     0.293 HD
ENDBRANCH  17  20
ENDBRANCH   1  12
BRANCH   6  22
ATOM     22  O   UNL     1     -22.182   4.716  -6.507  1.00  0.00    -0.507 OA
ATOM     23  H   UNL     1     -22.361   3.838  -6.045  1.00  0.00     0.293 HD
ENDBRANCH   6  22
BRANCH   8  24
ATOM     24  O   UNL     1     -20.494   8.791  -4.648  1.00  0.00    -0.508 OA
ATOM     25  H   UNL     1     -19.669   8.836  -5.235  1.00  0.00     0.293 HD
ENDBRANCH   8  24
TORSDOF 5
ENDMDL
MODEL 2
REMARK VINA RESULT:     4.534      1.806      2.203
REMARK INTER + INTRA:           5.035
REMARK INTER:                   5.300
REMARK INTRA:                  -0.265
REMARK UNBOUND:                -0.294
REMARK SMILES O=c1cc(-c2ccc(O)c(O)c2)oc2cc(O)cc(O)c12
REMARK SMILES IDX 4 1 3 2 2 3 1 4 21 5 19 6 18 7 16 8 15 9 14 10 13 11 5 12
REMARK SMILES IDX 6 13 7 14 8 15 12 16 10 17 9 18 11 20 20 22 17 24
REMARK H PARENT 9 19 11 21 20 23 17 25
REMARK Flexibility Score: inf
ROOT
ATOM      1  C   UNL     1     -27.587   8.280  -5.383  1.00  0.00     0.138 A 
ATOM      2  C   UNL     1     -27.061   7.032  -5.746  1.00  0.00     0.100 A 
ATOM      3  C   UNL     1     -25.690   6.804  -5.639  1.00  0.00     0.197 A 
ATOM      4  O   UNL     1     -25.239   5.696  -6.031  1.00  0.00    -0.289 OA
ATOM      5  C   UNL     1     -24.844   7.821  -5.136  1.00  0.00     0.107 A 
ATOM      6  C   UNL     1     -23.436   7.687  -4.945  1.00  0.00     0.134 A 
ATOM      7  C   UNL     1     -22.685   8.802  -4.550  1.00  0.00     0.093 A 
ATOM      8  C   UNL     1     -23.296  10.025  -4.281  1.00  0.00     0.123 A 
ATOM      9  C   UNL     1     -24.679  10.153  -4.413  1.00  0.00     0.094 A 
ATOM     10  C   UNL     1     -25.452   9.069  -4.838  1.00  0.00     0.146 A 
ATOM     11  O   UNL     1     -26.764   9.236  -4.964  1.00  0.00    -0.456 OA
ENDROOT
BRANCH   1  12
ATOM     12  C   UNL     1     -29.039   8.576  -5.475  1.00  0.00     0.021 A 
ATOM     13  C   UNL     1     -29.806   8.881  -4.334  1.00  0.00     0.016 A 
ATOM     14  C   UNL     1     -31.169   9.166  -4.451  1.00  0.00     0.051 A 
ATOM     15  C   UNL     1     -31.788   9.160  -5.703  1.00  0.00     0.157 A 
ATOM     16  C   UNL     1     -29.666   8.585  -6.734  1.00  0.00     0.062 A 
ATOM     17  C   UNL     1     -31.035   8.870  -6.852  1.00  0.00     0.158 A 
BRANCH  15  18
ATOM     18  O   UNL     1     -33.151   9.447  -5.788  1.00  0.00    -0.504 OA
ATOM     19  H   UNL     1     -33.522  10.361  -5.559  1.00  0.00     0.293 HD
ENDBRANCH  15  18
BRANCH  17  20
ATOM     20  O   UNL     1     -31.645   8.865  -8.104  1.00  0.00    -0.504 OA
ATOM     21  H   UNL     1     -31.663   9.692  -8.690  1.00  0.00     0.293 HD
ENDBRANCH  17  20
ENDBRANCH   1  12
BRANCH   6  22
ATOM     22  O   UNL     1     -22.737   6.487  -5.103  1.00  0.00    -0.507 OA
ATOM     23  H   UNL     1     -22.418   6.118  -5.986  1.00  0.00     0.293 HD
ENDBRANCH   6  22
BRANCH   8  24
ATOM     24  O   UNL     1     -22.518  11.108  -3.876  1.00  0.00    -0.508 OA
ATOM     25  H   UNL     1     -21.720  11.419  -4.418  1.00  0.00     0.293 HD
ENDBRANCH   8  24
TORSDOF 5
ENDMDL
