MODEL 1
REMARK VINA RESULT:     5.371      0.000      0.000
REMARK INTER + INTRA:          14.058
REMARK INTER:                  12.279
REMARK INTRA:                   1.778
REMARK UNBOUND:                 1.778
REMARK SMILES CCCCCCCCCCCCCCCCCCCCCCCC(=O)[O-]
REMARK SMILES IDX 13 1 14 2 15 3 16 4 17 5 18 6 19 7 20 8 21 9 22 10 23 11
REMARK SMILES IDX 24 12 25 13 26 14 12 15 11 16 10 17 9 18 8 19 7 20 6 21 5 22
REMARK SMILES IDX 4 23 3 24 2 25 1 26
REMARK H PARENT
REMARK Flexibility Score: inf
ROOT
ATOM      1  C   UNL     1      35.979 106.677 265.162  1.00  0.00     0.000 C 
ENDROOT
BRANCH   1   2
ATOM      2  C   UNL     1      36.611 106.210 263.840  1.00  0.00     0.000 C 
BRANCH   2   3
ATOM      3  C   UNL     1      35.577 105.635 262.855  1.00  0.00     0.000 C 
BRANCH   3   4
ATOM      4  C   UNL     1      36.044 105.541 261.388  1.00  0.00     0.000 C 
BRANCH   4   5
ATOM      5  C   UNL     1      36.275 106.893 260.689  1.00  0.00     0.000 C 
BRANCH   5   6
ATOM      6  C   UNL     1      36.287 106.780 259.158  1.00  0.00     0.000 C 
BRANCH   6   7
ATOM      7  C   UNL     1      36.113 105.321 258.714  1.00  0.00     0.000 C 
BRANCH   7   8
ATOM      8  C   UNL     1      37.447 104.646 258.357  1.00  0.00     0.000 C 
BRANCH   8   9
ATOM      9  C   UNL     1      38.229 104.187 259.596  1.00  0.00     0.000 C 
BRANCH   9  10
ATOM     10  C   UNL     1      39.042 105.346 260.193  1.00  0.00     0.006 C 
BRANCH  10  11
ATOM     11  C   UNL     1      39.067 105.311 261.727  1.00  0.00     0.053 C 
BRANCH  11  12
ATOM     12  C   UNL     1      39.787 106.493 262.297  1.00  0.00     0.041 C 
ATOM     13  O   UNL     1      39.140 107.441 262.816  1.00  0.00    -0.550 OA
ATOM     14  O   UNL     1      41.173 106.563 262.227  1.00  0.00    -0.550 OA
ENDBRANCH  11  12
ENDBRANCH  10  11
ENDBRANCH   9  10
ENDBRANCH   8   9
ENDBRANCH   7   8
ENDBRANCH   6   7
ENDBRANCH   5   6
ENDBRANCH   4   5
ENDBRANCH   3   4
ENDBRANCH   2   3
ENDBRANCH   1   2
BRANCH   1  15
ATOM     15  C   UNL     1      34.904 105.707 265.686  1.00  0.00     0.000 C 
BRANCH  15  16
ATOM     16  C   UNL     1      35.351 104.237 265.824  1.00  0.00     0.000 C 
BRANCH  16  17
ATOM     17  C   UNL     1      35.428 103.705 267.267  1.00  0.00     0.000 C 
BRANCH  17  18
ATOM     18  C   UNL     1      34.888 104.707 268.302  1.00  0.00    -0.000 C 
BRANCH  18  19
ATOM     19  C   UNL     1      35.879 104.962 269.449  1.00  0.00    -0.000 C 
BRANCH  19  20
ATOM     20  C   UNL     1      35.522 106.205 270.279  1.00  0.00    -0.000 C 
BRANCH  20  21
ATOM     21  C   UNL     1      34.877 107.284 269.400  1.00  0.00    -0.000 C 
BRANCH  21  22
ATOM     22  C   UNL     1      35.918 107.937 268.478  1.00  0.00    -0.000 C 
BRANCH  22  23
ATOM     23  C   UNL     1      35.353 108.262 267.086  1.00  0.00    -0.000 C 
BRANCH  23  24
ATOM     24  C   UNL     1      34.879 109.721 266.966  1.00  0.00    -0.000 C 
BRANCH  24  25
ATOM     25  C   UNL     1      35.311 110.581 268.163  1.00  0.00    -0.003 C 
ATOM     26  C   UNL     1      35.093 112.075 267.925  1.00  0.00     0.004 C 
ENDBRANCH  24  25
ENDBRANCH  23  24
ENDBRANCH  22  23
ENDBRANCH  21  22
ENDBRANCH  20  21
ENDBRANCH  19  20
ENDBRANCH  18  19
ENDBRANCH  17  18
ENDBRANCH  16  17
ENDBRANCH  15  16
ENDBRANCH   1  15
TORSDOF 22
ENDMDL
MODEL 2
REMARK VINA RESULT:     5.570      2.639      4.866
REMARK INTER + INTRA:          14.512
REMARK INTER:                  14.027
REMARK INTRA:                   0.486
REMARK UNBOUND:                 1.778
REMARK SMILES CCCCCCCCCCCCCCCCCCCCCCCC(=O)[O-]
REMARK SMILES IDX 13 1 14 2 15 3 16 4 17 5 18 6 19 7 20 8 21 9 22 10 23 11
REMARK SMILES IDX 24 12 25 13 26 14 12 15 11 16 10 17 9 18 8 19 7 20 6 21 5 22
REMARK SMILES IDX 4 23 3 24 2 25 1 26
REMARK H PARENT
REMARK Flexibility Score: inf
ROOT
ATOM      1  C   UNL     1      35.425 105.152 264.581  1.00  0.00     0.000 C 
ENDROOT
BRANCH   1   2
ATOM      2  C   UNL     1      35.281 105.101 263.050  1.00  0.00     0.000 C 
BRANCH   2   3
ATOM      3  C   UNL     1      36.570 105.516 262.316  1.00  0.00     0.000 C 
BRANCH   3   4
ATOM      4  C   UNL     1      37.770 105.844 263.226  1.00  0.00     0.000 C 
BRANCH   4   5
ATOM      5  C   UNL     1      38.752 106.887 262.661  1.00  0.00     0.000 C 
BRANCH   5   6
ATOM      6  C   UNL     1      39.188 106.577 261.221  1.00  0.00     0.000 C 
BRANCH   6   7
ATOM      7  C   UNL     1      38.237 105.566 260.565  1.00  0.00     0.000 C 
BRANCH   7   8
ATOM      8  C   UNL     1      38.835 104.921 259.304  1.00  0.00     0.000 C 
BRANCH   8   9
ATOM      9  C   UNL     1      37.780 104.644 258.223  1.00  0.00     0.000 C 
BRANCH   9  10
ATOM     10  C   UNL     1      36.367 104.946 258.744  1.00  0.00     0.006 C 
BRANCH  10  11
ATOM     11  C   UNL     1      35.634 105.978 257.876  1.00  0.00     0.053 C 
BRANCH  11  12
ATOM     12  C   UNL     1      35.804 107.368 258.405  1.00  0.00     0.041 C 
ATOM     13  O   UNL     1      36.772 107.645 259.161  1.00  0.00    -0.550 OA
ATOM     14  O   UNL     1      34.875 108.351 258.089  1.00  0.00    -0.550 OA
ENDBRANCH  11  12
ENDBRANCH  10  11
ENDBRANCH   9  10
ENDBRANCH   8   9
ENDBRANCH   7   8
ENDBRANCH   6   7
ENDBRANCH   5   6
ENDBRANCH   4   5
ENDBRANCH   3   4
ENDBRANCH   2   3
ENDBRANCH   1   2
BRANCH   1  15
ATOM     15  C   UNL     1      35.068 106.530 265.169  1.00  0.00     0.000 C 
BRANCH  15  16
ATOM     16  C   UNL     1      34.876 106.566 266.699  1.00  0.00     0.000 C 
BRANCH  16  17
ATOM     17  C   UNL     1      35.140 107.930 267.364  1.00  0.00     0.000 C 
BRANCH  17  18
ATOM     18  C   UNL     1      35.150 107.852 268.900  1.00  0.00    -0.000 C 
BRANCH  18  19
ATOM     19  C   UNL     1      34.915 106.425 269.420  1.00  0.00    -0.000 C 
BRANCH  19  20
ATOM     20  C   UNL     1      36.208 105.742 269.892  1.00  0.00    -0.000 C 
BRANCH  20  21
ATOM     21  C   UNL     1      36.877 106.551 271.010  1.00  0.00    -0.000 C 
BRANCH  21  22
ATOM     22  C   UNL     1      38.168 105.867 271.486  1.00  0.00    -0.000 C 
BRANCH  22  23
ATOM     23  C   UNL     1      38.107 104.336 271.363  1.00  0.00    -0.000 C 
BRANCH  23  24
ATOM     24  C   UNL     1      39.143 103.630 272.255  1.00  0.00    -0.000 C 
BRANCH  24  25
ATOM     25  C   UNL     1      38.491 102.803 273.373  1.00  0.00    -0.003 C 
ATOM     26  C   UNL     1      38.483 103.531 274.717  1.00  0.00     0.004 C 
ENDBRANCH  24  25
ENDBRANCH  23  24
ENDBRANCH  22  23
ENDBRANCH  21  22
ENDBRANCH  20  21
ENDBRANCH  19  20
ENDBRANCH  18  19
ENDBRANCH  17  18
ENDBRANCH  16  17
ENDBRANCH  15  16
ENDBRANCH   1  15
TORSDOF 22
ENDMDL
MODEL 3
REMARK VINA RESULT:     6.389      1.851      3.208
REMARK INTER + INTRA:          16.385
REMARK INTER:                  13.652
REMARK INTRA:                   2.733
REMARK UNBOUND:                 1.778
REMARK SMILES CCCCCCCCCCCCCCCCCCCCCCCC(=O)[O-]
REMARK SMILES IDX 13 1 14 2 15 3 16 4 17 5 18 6 19 7 20 8 21 9 22 10 23 11
REMARK SMILES IDX 24 12 25 13 26 14 12 15 11 16 10 17 9 18 8 19 7 20 6 21 5 22
REMARK SMILES IDX 4 23 3 24 2 25 1 26
REMARK H PARENT
REMARK Flexibility Score: inf
ROOT
ATOM      1  C   UNL     1      36.251 103.481 265.807  1.00  0.00     0.000 C 
ENDROOT
BRANCH   1   2
ATOM      2  C   UNL     1      36.734 104.065 264.468  1.00  0.00     0.000 C 
BRANCH   2   3
ATOM      3  C   UNL     1      35.577 104.556 263.580  1.00  0.00     0.000 C 
BRANCH   3   4
ATOM      4  C   UNL     1      35.013 103.512 262.594  1.00  0.00     0.000 C 
BRANCH   4   5
ATOM      5  C   UNL     1      35.578 103.592 261.164  1.00  0.00     0.000 C 
BRANCH   5   6
ATOM      6  C   UNL     1      36.470 104.823 260.943  1.00  0.00     0.000 C 
BRANCH   6   7
ATOM      7  C   UNL     1      35.979 105.648 259.745  1.00  0.00     0.000 C 
BRANCH   7   8
ATOM      8  C   UNL     1      37.036 105.769 258.635  1.00  0.00     0.000 C 
BRANCH   8   9
ATOM      9  C   UNL     1      38.283 104.915 258.908  1.00  0.00     0.000 C 
BRANCH   9  10
ATOM     10  C   UNL     1      38.616 104.893 260.408  1.00  0.00     0.006 C 
BRANCH  10  11
ATOM     11  C   UNL     1      39.377 106.148 260.854  1.00  0.00     0.053 C 
BRANCH  11  12
ATOM     12  C   UNL     1      39.164 106.438 262.308  1.00  0.00     0.041 C 
ATOM     13  O   UNL     1      38.167 107.111 262.680  1.00  0.00    -0.550 OA
ATOM     14  O   UNL     1      40.084 105.992 263.248  1.00  0.00    -0.550 OA
ENDBRANCH  11  12
ENDBRANCH  10  11
ENDBRANCH   9  10
ENDBRANCH   8   9
ENDBRANCH   7   8
ENDBRANCH   6   7
ENDBRANCH   5   6
ENDBRANCH   4   5
ENDBRANCH   3   4
ENDBRANCH   2   3
ENDBRANCH   1   2
BRANCH   1  15
ATOM     15  C   UNL     1      34.876 104.026 266.235  1.00  0.00     0.000 C 
BRANCH  15  16
ATOM     16  C   UNL     1      34.896 105.407 266.922  1.00  0.00     0.000 C 
BRANCH  16  17
ATOM     17  C   UNL     1      34.891 106.617 265.970  1.00  0.00     0.000 C 
BRANCH  17  18
ATOM     18  C   UNL     1      36.035 107.605 266.255  1.00  0.00    -0.000 C 
BRANCH  18  19
ATOM     19  C   UNL     1      36.038 108.100 267.711  1.00  0.00    -0.000 C 
BRANCH  19  20
ATOM     20  C   UNL     1      34.876 107.527 268.537  1.00  0.00    -0.000 C 
BRANCH  20  21
ATOM     21  C   UNL     1      35.355 106.379 269.433  1.00  0.00    -0.000 C 
BRANCH  21  22
ATOM     22  C   UNL     1      36.665 106.747 270.147  1.00  0.00    -0.000 C 
BRANCH  22  23
ATOM     23  C   UNL     1      37.300 105.549 270.871  1.00  0.00    -0.000 C 
BRANCH  23  24
ATOM     24  C   UNL     1      38.792 105.769 271.180  1.00  0.00    -0.000 C 
BRANCH  24  25
ATOM     25  C   UNL     1      39.345 107.048 270.533  1.00  0.00    -0.003 C 
ATOM     26  C   UNL     1      39.893 108.039 271.561  1.00  0.00     0.004 C 
ENDBRANCH  24  25
ENDBRANCH  23  24
ENDBRANCH  22  23
ENDBRANCH  21  22
ENDBRANCH  20  21
ENDBRANCH  19  20
ENDBRANCH  18  19
ENDBRANCH  17  18
ENDBRANCH  16  17
ENDBRANCH  15  16
ENDBRANCH   1  15
TORSDOF 22
ENDMDL
MODEL 4
REMARK VINA RESULT:     6.614      2.213      4.150
REMARK INTER + INTRA:          16.897
REMARK INTER:                  15.185
REMARK INTRA:                   1.712
REMARK UNBOUND:                 1.778
REMARK SMILES CCCCCCCCCCCCCCCCCCCCCCCC(=O)[O-]
REMARK SMILES IDX 13 1 14 2 15 3 16 4 17 5 18 6 19 7 20 8 21 9 22 10 23 11
REMARK SMILES IDX 24 12 25 13 26 14 12 15 11 16 10 17 9 18 8 19 7 20 6 21 5 22
REMARK SMILES IDX 4 23 3 24 2 25 1 26
REMARK H PARENT
REMARK Flexibility Score: inf
ROOT
ATOM      1  C   UNL     1      36.389 104.194 265.624  1.00  0.00     0.000 C 
ENDROOT
BRANCH   1   2
ATOM      2  C   UNL     1      36.160 105.025 264.349  1.00  0.00     0.000 C 
BRANCH   2   3
ATOM      3  C   UNL     1      34.880 104.619 263.596  1.00  0.00     0.000 C 
BRANCH   3   4
ATOM      4  C   UNL     1      34.877 103.186 263.026  1.00  0.00     0.000 C 
BRANCH   4   5
ATOM      5  C   UNL     1      35.379 103.059 261.576  1.00  0.00     0.000 C 
BRANCH   5   6
ATOM      6  C   UNL     1      36.241 104.251 261.136  1.00  0.00     0.000 C 
BRANCH   6   7
ATOM      7  C   UNL     1      35.846 104.725 259.730  1.00  0.00     0.000 C 
BRANCH   7   8
ATOM      8  C   UNL     1      37.062 105.090 258.863  1.00  0.00     0.000 C 
BRANCH   8   9
ATOM      9  C   UNL     1      38.355 105.221 259.681  1.00  0.00     0.000 C 
BRANCH   9  10
ATOM     10  C   UNL     1      38.085 105.905 261.030  1.00  0.00     0.006 C 
BRANCH  10  11
ATOM     11  C   UNL     1      39.205 106.877 261.424  1.00  0.00     0.053 C 
BRANCH  11  12
ATOM     12  C   UNL     1      40.015 106.353 262.570  1.00  0.00     0.041 C 
ATOM     13  O   UNL     1      39.443 105.881 263.588  1.00  0.00    -0.550 OA
ATOM     14  O   UNL     1      41.402 106.417 262.528  1.00  0.00    -0.550 OA
ENDBRANCH  11  12
ENDBRANCH  10  11
ENDBRANCH   9  10
ENDBRANCH   8   9
ENDBRANCH   7   8
ENDBRANCH   6   7
ENDBRANCH   5   6
ENDBRANCH   4   5
ENDBRANCH   3   4
ENDBRANCH   2   3
ENDBRANCH   1   2
BRANCH   1  15
ATOM     15  C   UNL     1      35.130 104.091 266.504  1.00  0.00     0.000 C 
BRANCH  15  16
ATOM     16  C   UNL     1      34.875 105.292 267.437  1.00  0.00     0.000 C 
BRANCH  16  17
ATOM     17  C   UNL     1      34.900 106.673 266.755  1.00  0.00     0.000 C 
BRANCH  17  18
ATOM     18  C   UNL     1      35.656 107.730 267.578  1.00  0.00    -0.000 C 
BRANCH  18  19
ATOM     19  C   UNL     1      35.168 107.805 269.034  1.00  0.00    -0.000 C 
BRANCH  19  20
ATOM     20  C   UNL     1      35.218 106.447 269.749  1.00  0.00    -0.000 C 
BRANCH  20  21
ATOM     21  C   UNL     1      36.639 105.870 269.732  1.00  0.00    -0.000 C 
BRANCH  21  22
ATOM     22  C   UNL     1      37.409 106.265 271.001  1.00  0.00    -0.000 C 
BRANCH  22  23
ATOM     23  C   UNL     1      38.506 105.253 271.367  1.00  0.00    -0.000 C 
BRANCH  23  24
ATOM     24  C   UNL     1      38.011 104.169 272.339  1.00  0.00    -0.000 C 
BRANCH  24  25
ATOM     25  C   UNL     1      39.159 103.493 273.103  1.00  0.00    -0.003 C 
ATOM     26  C   UNL     1      38.680 102.744 274.347  1.00  0.00     0.004 C 
ENDBRANCH  24  25
ENDBRANCH  23  24
ENDBRANCH  22  23
ENDBRANCH  21  22
ENDBRANCH  20  21
ENDBRANCH  19  20
ENDBRANCH  18  19
ENDBRANCH  17  18
ENDBRANCH  16  17
ENDBRANCH  15  16
ENDBRANCH   1  15
TORSDOF 22
ENDMDL
MODEL 5
REMARK VINA RESULT:     6.992      3.737      9.268
REMARK INTER + INTRA:          17.764
REMARK INTER:                  17.911
REMARK INTRA:                  -0.147
REMARK UNBOUND:                 1.778
REMARK SMILES CCCCCCCCCCCCCCCCCCCCCCCC(=O)[O-]
REMARK SMILES IDX 13 1 14 2 15 3 16 4 17 5 18 6 19 7 20 8 21 9 22 10 23 11
REMARK SMILES IDX 24 12 25 13 26 14 12 15 11 16 10 17 9 18 8 19 7 20 6 21 5 22
REMARK SMILES IDX 4 23 3 24 2 25 1 26
REMARK H PARENT
REMARK Flexibility Score: inf
ROOT
ATOM      1  C   UNL     1      36.053 106.780 264.097  1.00  0.00     0.000 C 
ENDROOT
BRANCH   1   2
ATOM      2  C   UNL     1      35.206 106.377 265.316  1.00  0.00     0.000 C 
BRANCH   2   3
ATOM      3  C   UNL     1      34.876 107.569 266.233  1.00  0.00     0.000 C 
BRANCH   3   4
ATOM      4  C   UNL     1      34.875 107.258 267.744  1.00  0.00     0.000 C 
BRANCH   4   5
ATOM      5  C   UNL     1      34.912 105.762 268.102  1.00  0.00     0.000 C 
BRANCH   5   6
ATOM      6  C   UNL     1      35.298 105.507 269.567  1.00  0.00     0.000 C 
BRANCH   6   7
ATOM      7  C   UNL     1      35.729 106.810 270.255  1.00  0.00     0.000 C 
BRANCH   7   8
ATOM      8  C   UNL     1      36.833 106.590 271.302  1.00  0.00     0.000 C 
BRANCH   8   9
ATOM      9  C   UNL     1      38.166 106.154 270.675  1.00  0.00     0.000 C 
BRANCH   9  10
ATOM     10  C   UNL     1      38.963 105.266 271.643  1.00  0.00     0.006 C 
BRANCH  10  11
ATOM     11  C   UNL     1      38.229 103.958 271.972  1.00  0.00     0.053 C 
BRANCH  11  12
ATOM     12  C   UNL     1      38.680 103.384 273.279  1.00  0.00     0.041 C 
ATOM     13  O   UNL     1      37.859 103.229 274.221  1.00  0.00    -0.550 OA
ATOM     14  O   UNL     1      40.015 103.050 273.468  1.00  0.00    -0.550 OA
ENDBRANCH  11  12
ENDBRANCH  10  11
ENDBRANCH   9  10
ENDBRANCH   8   9
ENDBRANCH   7   8
ENDBRANCH   6   7
ENDBRANCH   5   6
ENDBRANCH   4   5
ENDBRANCH   3   4
ENDBRANCH   2   3
ENDBRANCH   1   2
BRANCH   1  15
ATOM     15  C   UNL     1      35.400 106.386 262.759  1.00  0.00     0.000 C 
BRANCH  15  16
ATOM     16  C   UNL     1      35.478 104.888 262.401  1.00  0.00     0.000 C 
BRANCH  16  17
ATOM     17  C   UNL     1      35.901 104.578 260.953  1.00  0.00     0.000 C 
BRANCH  17  18
ATOM     18  C   UNL     1      35.843 105.812 260.038  1.00  0.00    -0.000 C 
BRANCH  18  19
ATOM     19  C   UNL     1      36.156 105.475 258.571  1.00  0.00    -0.000 C 
BRANCH  19  20
ATOM     20  C   UNL     1      37.653 105.579 258.243  1.00  0.00    -0.000 C 
BRANCH  20  21
ATOM     21  C   UNL     1      38.411 104.344 258.744  1.00  0.00    -0.000 C 
BRANCH  21  22
ATOM     22  C   UNL     1      38.978 104.581 260.152  1.00  0.00    -0.000 C 
BRANCH  22  23
ATOM     23  C   UNL     1      39.029 106.070 260.527  1.00  0.00    -0.000 C 
BRANCH  23  24
ATOM     24  C   UNL     1      38.575 106.332 261.973  1.00  0.00    -0.000 C 
BRANCH  24  25
ATOM     25  C   UNL     1      39.757 106.504 262.940  1.00  0.00    -0.003 C 
ATOM     26  C   UNL     1      41.065 105.948 262.377  1.00  0.00     0.004 C 
ENDBRANCH  24  25
ENDBRANCH  23  24
ENDBRANCH  22  23
ENDBRANCH  21  22
ENDBRANCH  20  21
ENDBRANCH  19  20
ENDBRANCH  18  19
ENDBRANCH  17  18
ENDBRANCH  16  17
ENDBRANCH  15  16
ENDBRANCH   1  15
TORSDOF 22
ENDMDL
