MODEL 1
REMARK VINA RESULT:    -4.967      0.000      0.000
REMARK INTER + INTRA:         -11.573
REMARK INTER:                  -9.322
REMARK INTRA:                  -2.250
REMARK UNBOUND:                -2.250
REMARK SMILES CCCCCCCCC=CCCCCCCCC(=O)[O-]
REMARK SMILES IDX 10 1 9 2 11 3 12 4 13 5 14 6 15 7 16 8 17 9 18 10 19 11
REMARK SMILES IDX 20 12 8 13 7 14 6 15 5 16 4 17 3 18 2 19 1 20
REMARK H PARENT
REMARK Flexibility Score: inf
ROOT
ATOM      1  C   UNL     1      24.174   8.816  10.032  1.00  0.00    -0.031 C 
ATOM      2  C   UNL     1      22.950   8.290  10.177  1.00  0.00    -0.031 C 
ENDROOT
BRANCH   1   3
ATOM      3  C   UNL     1      25.347   7.977   9.605  1.00  0.00     0.027 C 
BRANCH   3   4
ATOM      4  C   UNL     1      25.184   6.524  10.073  1.00  0.00     0.004 C 
BRANCH   4   5
ATOM      5  C   UNL     1      25.683   6.298  11.511  1.00  0.00     0.000 C 
BRANCH   5   6
ATOM      6  C   UNL     1      24.663   5.638  12.460  1.00  0.00     0.000 C 
BRANCH   6   7
ATOM      7  C   UNL     1      23.838   6.616  13.319  1.00  0.00     0.000 C 
BRANCH   7   8
ATOM      8  C   UNL     1      24.542   7.948  13.646  1.00  0.00     0.006 C 
BRANCH   8   9
ATOM      9  C   UNL     1      23.667   8.961  14.401  1.00  0.00     0.053 C 
BRANCH   9  10
ATOM     10  C   UNL     1      24.183  10.359  14.262  1.00  0.00     0.041 C 
ATOM     11  O   UNL     1      23.892  11.231  15.121  1.00  0.00    -0.550 OA
ATOM     12  O   UNL     1      25.013  10.692  13.199  1.00  0.00    -0.550 OA
ENDBRANCH   9  10
ENDBRANCH   8   9
ENDBRANCH   7   8
ENDBRANCH   6   7
ENDBRANCH   5   6
ENDBRANCH   4   5
ENDBRANCH   3   4
ENDBRANCH   1   3
BRANCH   2  13
ATOM     13  C   UNL     1      21.775   9.133  10.593  1.00  0.00     0.027 C 
BRANCH  13  14
ATOM     14  C   UNL     1      20.893   8.387  11.606  1.00  0.00     0.004 C 
BRANCH  14  15
ATOM     15  C   UNL     1      19.545   7.956  11.009  1.00  0.00     0.000 C 
BRANCH  15  16
ATOM     16  C   UNL     1      19.350   6.430  11.034  1.00  0.00     0.000 C 
BRANCH  16  17
ATOM     17  C   UNL     1      19.259   5.822   9.626  1.00  0.00    -0.000 C 
BRANCH  17  18
ATOM     18  C   UNL     1      20.098   6.593   8.596  1.00  0.00    -0.000 C 
BRANCH  18  19
ATOM     19  C   UNL     1      19.227   7.073   7.429  1.00  0.00    -0.003 C 
ATOM     20  C   UNL     1      19.692   8.433   6.917  1.00  0.00     0.004 C 
ENDBRANCH  18  19
ENDBRANCH  17  18
ENDBRANCH  16  17
ENDBRANCH  15  16
ENDBRANCH  14  15
ENDBRANCH  13  14
ENDBRANCH   2  13
TORSDOF 15
ENDMDL
MODEL 2
REMARK VINA RESULT:    -4.951      1.989      2.878
REMARK INTER + INTRA:         -11.544
REMARK INTER:                  -9.214
REMARK INTRA:                  -2.330
REMARK UNBOUND:                -2.250
REMARK SMILES CCCCCCCCC=CCCCCCCCC(=O)[O-]
REMARK SMILES IDX 10 1 9 2 11 3 12 4 13 5 14 6 15 7 16 8 17 9 18 10 19 11
REMARK SMILES IDX 20 12 8 13 7 14 6 15 5 16 4 17 3 18 2 19 1 20
REMARK H PARENT
REMARK Flexibility Score: inf
ROOT
ATOM      1  C   UNL     1      22.199   9.239  10.248  1.00  0.00    -0.031 C 
ATOM      2  C   UNL     1      21.874   8.256  11.099  1.00  0.00    -0.031 C 
ENDROOT
BRANCH   1   3
ATOM      3  C   UNL     1      23.488   9.217   9.475  1.00  0.00     0.027 C 
BRANCH   3   4
ATOM      4  C   UNL     1      24.687   8.993  10.407  1.00  0.00     0.004 C 
BRANCH   4   5
ATOM      5  C   UNL     1      25.027  10.232  11.254  1.00  0.00     0.000 C 
BRANCH   5   6
ATOM      6  C   UNL     1      25.263   9.953  12.752  1.00  0.00     0.000 C 
BRANCH   6   7
ATOM      7  C   UNL     1      23.992   9.649  13.570  1.00  0.00     0.000 C 
BRANCH   7   8
ATOM      8  C   UNL     1      23.984   8.278  14.276  1.00  0.00     0.006 C 
BRANCH   8   9
ATOM      9  C   UNL     1      25.075   7.310  13.795  1.00  0.00     0.053 C 
BRANCH   9  10
ATOM     10  C   UNL     1      24.517   6.222  12.931  1.00  0.00     0.041 C 
ATOM     11  O   UNL     1      23.402   5.705  13.202  1.00  0.00    -0.550 OA
ATOM     12  O   UNL     1      25.216   5.801  11.807  1.00  0.00    -0.550 OA
ENDBRANCH   9  10
ENDBRANCH   8   9
ENDBRANCH   7   8
ENDBRANCH   6   7
ENDBRANCH   5   6
ENDBRANCH   4   5
ENDBRANCH   3   4
ENDBRANCH   1   3
BRANCH   2  13
ATOM     13  C   UNL     1      20.579   8.273  11.864  1.00  0.00     0.027 C 
BRANCH  13  14
ATOM     14  C   UNL     1      19.397   7.911  10.952  1.00  0.00     0.004 C 
BRANCH  14  15
ATOM     15  C   UNL     1      19.035   6.420  11.017  1.00  0.00     0.000 C 
BRANCH  15  16
ATOM     16  C   UNL     1      19.438   5.659   9.741  1.00  0.00     0.000 C 
BRANCH  16  17
ATOM     17  C   UNL     1      20.030   6.582   8.664  1.00  0.00    -0.000 C 
BRANCH  17  18
ATOM     18  C   UNL     1      19.053   6.844   7.509  1.00  0.00    -0.000 C 
BRANCH  18  19
ATOM     19  C   UNL     1      19.050   8.326   7.118  1.00  0.00    -0.003 C 
ATOM     20  C   UNL     1      20.465   8.824   6.834  1.00  0.00     0.004 C 
ENDBRANCH  18  19
ENDBRANCH  17  18
ENDBRANCH  16  17
ENDBRANCH  15  16
ENDBRANCH  14  15
ENDBRANCH  13  14
ENDBRANCH   2  13
TORSDOF 15
ENDMDL
MODEL 3
REMARK VINA RESULT:    -4.701      2.850      6.516
REMARK INTER + INTRA:         -11.073
REMARK INTER:                  -8.661
REMARK INTRA:                  -2.412
REMARK UNBOUND:                -2.250
REMARK SMILES CCCCCCCCC=CCCCCCCCC(=O)[O-]
REMARK SMILES IDX 10 1 9 2 11 3 12 4 13 5 14 6 15 7 16 8 17 9 18 10 19 11
REMARK SMILES IDX 20 12 8 13 7 14 6 15 5 16 4 17 3 18 2 19 1 20
REMARK H PARENT
REMARK Flexibility Score: inf
ROOT
ATOM      1  C   UNL     1      22.829   8.881  10.218  1.00  0.00    -0.031 C 
ATOM      2  C   UNL     1      23.323   7.650  10.018  1.00  0.00    -0.031 C 
ENDROOT
BRANCH   1   3
ATOM      3  C   UNL     1      21.360   9.114  10.438  1.00  0.00     0.027 C 
BRANCH   3   4
ATOM      4  C   UNL     1      20.805   8.166  11.511  1.00  0.00     0.004 C 
BRANCH   4   5
ATOM      5  C   UNL     1      19.354   7.735  11.236  1.00  0.00     0.000 C 
BRANCH   5   6
ATOM      6  C   UNL     1      19.138   6.213  11.116  1.00  0.00     0.000 C 
BRANCH   6   7
ATOM      7  C   UNL     1      19.400   5.623   9.716  1.00  0.00     0.000 C 
BRANCH   7   8
ATOM      8  C   UNL     1      18.998   6.535   8.539  1.00  0.00     0.006 C 
BRANCH   8   9
ATOM      9  C   UNL     1      20.182   7.172   7.797  1.00  0.00     0.053 C 
BRANCH   9  10
ATOM     10  C   UNL     1      19.768   8.380   7.014  1.00  0.00     0.041 C 
ATOM     11  O   UNL     1      18.549   8.646   6.856  1.00  0.00    -0.550 OA
ATOM     12  O   UNL     1      20.732   9.229   6.485  1.00  0.00    -0.550 OA
ENDBRANCH   9  10
ENDBRANCH   8   9
ENDBRANCH   7   8
ENDBRANCH   6   7
ENDBRANCH   5   6
ENDBRANCH   4   5
ENDBRANCH   3   4
ENDBRANCH   1   3
BRANCH   2  13
ATOM     13  C   UNL     1      24.794   7.417   9.810  1.00  0.00     0.027 C 
BRANCH  13  14
ATOM     14  C   UNL     1      25.498   7.116  11.142  1.00  0.00     0.004 C 
BRANCH  14  15
ATOM     15  C   UNL     1      24.860   5.938  11.893  1.00  0.00     0.000 C 
BRANCH  15  16
ATOM     16  C   UNL     1      23.986   6.396  13.075  1.00  0.00     0.000 C 
BRANCH  16  17
ATOM     17  C   UNL     1      24.533   7.658  13.759  1.00  0.00    -0.000 C 
BRANCH  17  18
ATOM     18  C   UNL     1      23.437   8.695  14.046  1.00  0.00    -0.000 C 
BRANCH  18  19
ATOM     19  C   UNL     1      24.028  10.107  14.128  1.00  0.00    -0.003 C 
ATOM     20  C   UNL     1      24.990  10.371  12.973  1.00  0.00     0.004 C 
ENDBRANCH  18  19
ENDBRANCH  17  18
ENDBRANCH  16  17
ENDBRANCH  15  16
ENDBRANCH  14  15
ENDBRANCH  13  14
ENDBRANCH   2  13
TORSDOF 15
ENDMDL
MODEL 4
REMARK VINA RESULT:    -4.557      3.122      6.695
REMARK INTER + INTRA:         -10.804
REMARK INTER:                  -8.969
REMARK INTRA:                  -1.835
REMARK UNBOUND:                -2.250
REMARK SMILES CCCCCCCCC=CCCCCCCCC(=O)[O-]
REMARK SMILES IDX 10 1 9 2 11 3 12 4 13 5 14 6 15 7 16 8 17 9 18 10 19 11
REMARK SMILES IDX 20 12 8 13 7 14 6 15 5 16 4 17 3 18 2 19 1 20
REMARK H PARENT
REMARK Flexibility Score: inf
ROOT
ATOM      1  C   UNL     1      22.761   9.122  10.202  1.00  0.00    -0.031 C 
ATOM      2  C   UNL     1      23.444   7.978  10.048  1.00  0.00    -0.031 C 
ENDROOT
BRANCH   1   3
ATOM      3  C   UNL     1      21.284   9.126  10.482  1.00  0.00     0.027 C 
BRANCH   3   4
ATOM      4  C   UNL     1      20.881   7.913  11.332  1.00  0.00     0.004 C 
BRANCH   4   5
ATOM      5  C   UNL     1      19.365   7.647  11.313  1.00  0.00     0.000 C 
BRANCH   5   6
ATOM      6  C   UNL     1      18.965   6.175  11.085  1.00  0.00     0.000 C 
BRANCH   6   7
ATOM      7  C   UNL     1      19.430   5.569   9.745  1.00  0.00     0.000 C 
BRANCH   7   8
ATOM      8  C   UNL     1      19.050   6.387   8.494  1.00  0.00     0.006 C 
BRANCH   8   9
ATOM      9  C   UNL     1      20.239   7.056   7.787  1.00  0.00     0.053 C 
BRANCH   9  10
ATOM     10  C   UNL     1      19.830   8.301   7.063  1.00  0.00     0.041 C 
ATOM     11  O   UNL     1      18.619   8.637   7.011  1.00  0.00    -0.550 OA
ATOM     12  O   UNL     1      20.794   9.107   6.470  1.00  0.00    -0.550 OA
ENDBRANCH   9  10
ENDBRANCH   8   9
ENDBRANCH   7   8
ENDBRANCH   6   7
ENDBRANCH   5   6
ENDBRANCH   4   5
ENDBRANCH   3   4
ENDBRANCH   1   3
BRANCH   2  13
ATOM     13  C   UNL     1      24.924   7.975   9.778  1.00  0.00     0.027 C 
BRANCH  13  14
ATOM     14  C   UNL     1      25.436   6.547   9.538  1.00  0.00     0.004 C 
BRANCH  14  15
ATOM     15  C   UNL     1      25.769   5.812  10.844  1.00  0.00     0.000 C 
BRANCH  15  16
ATOM     16  C   UNL     1      26.043   6.777  12.012  1.00  0.00     0.000 C 
BRANCH  16  17
ATOM     17  C   UNL     1      25.409   6.304  13.329  1.00  0.00    -0.000 C 
BRANCH  17  18
ATOM     18  C   UNL     1      23.915   5.978  13.183  1.00  0.00    -0.000 C 
BRANCH  18  19
ATOM     19  C   UNL     1      23.617   4.550  13.651  1.00  0.00    -0.003 C 
ATOM     20  C   UNL     1      24.762   3.996  14.497  1.00  0.00     0.004 C 
ENDBRANCH  18  19
ENDBRANCH  17  18
ENDBRANCH  16  17
ENDBRANCH  15  16
ENDBRANCH  14  15
ENDBRANCH  13  14
ENDBRANCH   2  13
TORSDOF 15
ENDMDL
MODEL 5
REMARK VINA RESULT:    -4.551      1.642      3.056
REMARK INTER + INTRA:         -10.792
REMARK INTER:                  -9.298
REMARK INTRA:                  -1.494
REMARK UNBOUND:                -2.250
REMARK SMILES CCCCCCCCC=CCCCCCCCC(=O)[O-]
REMARK SMILES IDX 10 1 9 2 11 3 12 4 13 5 14 6 15 7 16 8 17 9 18 10 19 11
REMARK SMILES IDX 20 12 8 13 7 14 6 15 5 16 4 17 3 18 2 19 1 20
REMARK H PARENT
REMARK Flexibility Score: inf
ROOT
ATOM      1  C   UNL     1      23.217   6.112  12.936  1.00  0.00    -0.031 C 
ATOM      2  C   UNL     1      23.040   7.432  13.095  1.00  0.00    -0.031 C 
ENDROOT
BRANCH   1   3
ATOM      3  C   UNL     1      24.401   5.400  13.529  1.00  0.00     0.027 C 
BRANCH   3   4
ATOM      4  C   UNL     1      25.626   6.324  13.594  1.00  0.00     0.004 C 
BRANCH   4   5
ATOM      5  C   UNL     1      26.125   6.753  12.203  1.00  0.00     0.000 C 
BRANCH   5   6
ATOM      6  C   UNL     1      26.124   5.638  11.137  1.00  0.00     0.000 C 
BRANCH   6   7
ATOM      7  C   UNL     1      25.614   6.063   9.745  1.00  0.00     0.000 C 
BRANCH   7   8
ATOM      8  C   UNL     1      24.521   7.150   9.756  1.00  0.00     0.006 C 
BRANCH   8   9
ATOM      9  C   UNL     1      25.056   8.589   9.704  1.00  0.00     0.053 C 
BRANCH   9  10
ATOM     10  C   UNL     1      24.045   9.580  10.191  1.00  0.00     0.041 C 
ATOM     11  O   UNL     1      22.945   9.710   9.595  1.00  0.00    -0.550 OA
ATOM     12  O   UNL     1      24.307  10.340  11.325  1.00  0.00    -0.550 OA
ENDBRANCH   9  10
ENDBRANCH   8   9
ENDBRANCH   7   8
ENDBRANCH   6   7
ENDBRANCH   5   6
ENDBRANCH   4   5
ENDBRANCH   3   4
ENDBRANCH   1   3
BRANCH   2  13
ATOM     13  C   UNL     1      21.849   8.142  12.510  1.00  0.00     0.027 C 
BRANCH  13  14
ATOM     14  C   UNL     1      21.178   7.288  11.424  1.00  0.00     0.004 C 
BRANCH  14  15
ATOM     15  C   UNL     1      19.648   7.422  11.429  1.00  0.00     0.000 C 
BRANCH  15  16
ATOM     16  C   UNL     1      18.941   6.123  11.005  1.00  0.00     0.000 C 
BRANCH  16  17
ATOM     17  C   UNL     1      19.413   5.613   9.634  1.00  0.00    -0.000 C 
BRANCH  17  18
ATOM     18  C   UNL     1      18.865   6.454   8.471  1.00  0.00    -0.000 C 
BRANCH  18  19
ATOM     19  C   UNL     1      19.953   7.367   7.895  1.00  0.00    -0.003 C 
ATOM     20  C   UNL     1      19.387   8.286   6.815  1.00  0.00     0.004 C 
ENDBRANCH  18  19
ENDBRANCH  17  18
ENDBRANCH  16  17
ENDBRANCH  15  16
ENDBRANCH  14  15
ENDBRANCH  13  14
ENDBRANCH   2  13
TORSDOF 15
ENDMDL
MODEL 6
REMARK VINA RESULT:    -4.479      1.200      4.779
REMARK INTER + INTRA:         -10.656
REMARK INTER:                  -8.058
REMARK INTRA:                  -2.598
REMARK UNBOUND:                -2.250
REMARK SMILES CCCCCCCCC=CCCCCCCCC(=O)[O-]
REMARK SMILES IDX 10 1 9 2 11 3 12 4 13 5 14 6 15 7 16 8 17 9 18 10 19 11
REMARK SMILES IDX 20 12 8 13 7 14 6 15 5 16 4 17 3 18 2 19 1 20
REMARK H PARENT
REMARK Flexibility Score: inf
ROOT
ATOM      1  C   UNL     1      18.928   6.570   8.760  1.00  0.00    -0.031 C 
ATOM      2  C   UNL     1      19.917   6.905   7.919  1.00  0.00    -0.031 C 
ENDROOT
BRANCH   1   3
ATOM      3  C   UNL     1      19.039   5.379   9.671  1.00  0.00     0.027 C 
BRANCH   3   4
ATOM      4  C   UNL     1      19.224   5.816  11.131  1.00  0.00     0.004 C 
BRANCH   4   5
ATOM      5  C   UNL     1      19.191   7.345  11.307  1.00  0.00     0.000 C 
BRANCH   5   6
ATOM      6  C   UNL     1      20.516   7.975  11.783  1.00  0.00     0.000 C 
BRANCH   6   7
ATOM      7  C   UNL     1      21.745   7.046  11.714  1.00  0.00     0.000 C 
BRANCH   7   8
ATOM      8  C   UNL     1      22.770   7.238  12.850  1.00  0.00     0.006 C 
BRANCH   8   9
ATOM      9  C   UNL     1      22.866   8.676  13.382  1.00  0.00     0.053 C 
BRANCH   9  10
ATOM     10  C   UNL     1      24.287   9.106  13.580  1.00  0.00     0.041 C 
ATOM     11  O   UNL     1      25.151   8.280  13.973  1.00  0.00    -0.550 OA
ATOM     12  O   UNL     1      24.662  10.414  13.300  1.00  0.00    -0.550 OA
ENDBRANCH   9  10
ENDBRANCH   8   9
ENDBRANCH   7   8
ENDBRANCH   6   7
ENDBRANCH   5   6
ENDBRANCH   4   5
ENDBRANCH   3   4
ENDBRANCH   1   3
BRANCH   2  13
ATOM     13  C   UNL     1      19.809   8.103   7.016  1.00  0.00     0.027 C 
BRANCH  13  14
ATOM     14  C   UNL     1      20.877   9.152   7.363  1.00  0.00     0.004 C 
BRANCH  14  15
ATOM     15  C   UNL     1      21.783   8.711   8.521  1.00  0.00     0.000 C 
BRANCH  15  16
ATOM     16  C   UNL     1      22.311   9.899   9.344  1.00  0.00     0.000 C 
BRANCH  16  17
ATOM     17  C   UNL     1      23.687   9.620   9.969  1.00  0.00    -0.000 C 
BRANCH  17  18
ATOM     18  C   UNL     1      24.312   8.313   9.462  1.00  0.00    -0.000 C 
BRANCH  18  19
ATOM     19  C   UNL     1      25.589   7.978  10.240  1.00  0.00    -0.003 C 
ATOM     20  C   UNL     1      25.604   6.514  10.672  1.00  0.00     0.004 C 
ENDBRANCH  18  19
ENDBRANCH  17  18
ENDBRANCH  16  17
ENDBRANCH  15  16
ENDBRANCH  14  15
ENDBRANCH  13  14
ENDBRANCH   2  13
TORSDOF 15
ENDMDL
MODEL 7
REMARK VINA RESULT:    -4.450      2.829      6.262
REMARK INTER + INTRA:         -10.602
REMARK INTER:                  -8.354
REMARK INTRA:                  -2.248
REMARK UNBOUND:                -2.250
REMARK SMILES CCCCCCCCC=CCCCCCCCC(=O)[O-]
REMARK SMILES IDX 10 1 9 2 11 3 12 4 13 5 14 6 15 7 16 8 17 9 18 10 19 11
REMARK SMILES IDX 20 12 8 13 7 14 6 15 5 16 4 17 3 18 2 19 1 20
REMARK H PARENT
REMARK Flexibility Score: inf
ROOT
ATOM      1  C   UNL     1      23.010   8.374  13.433  1.00  0.00    -0.031 C 
ATOM      2  C   UNL     1      23.944   8.563  14.377  1.00  0.00    -0.031 C 
ENDROOT
BRANCH   1   3
ATOM      3  C   UNL     1      22.715   7.007  12.880  1.00  0.00     0.027 C 
BRANCH   3   4
ATOM      4  C   UNL     1      21.827   7.097  11.631  1.00  0.00     0.004 C 
BRANCH   4   5
ATOM      5  C   UNL     1      20.747   8.187  11.742  1.00  0.00     0.000 C 
BRANCH   5   6
ATOM      6  C   UNL     1      19.343   7.764  11.263  1.00  0.00     0.000 C 
BRANCH   6   7
ATOM      7  C   UNL     1      19.118   6.243  11.157  1.00  0.00     0.000 C 
BRANCH   7   8
ATOM      8  C   UNL     1      19.256   5.662   9.735  1.00  0.00     0.006 C 
BRANCH   8   9
ATOM      9  C   UNL     1      18.868   6.636   8.612  1.00  0.00     0.053 C 
BRANCH   9  10
ATOM     10  C   UNL     1      20.070   7.213   7.931  1.00  0.00     0.041 C 
ATOM     11  O   UNL     1      21.227   6.907   8.318  1.00  0.00    -0.550 OA
ATOM     12  O   UNL     1      19.911   8.066   6.846  1.00  0.00    -0.550 OA
ENDBRANCH   9  10
ENDBRANCH   8   9
ENDBRANCH   7   8
ENDBRANCH   6   7
ENDBRANCH   5   6
ENDBRANCH   4   5
ENDBRANCH   3   4
ENDBRANCH   1   3
BRANCH   2  13
ATOM     13  C   UNL     1      24.231   9.929  14.937  1.00  0.00     0.027 C 
BRANCH  13  14
ATOM     14  C   UNL     1      24.622  10.911  13.822  1.00  0.00     0.004 C 
BRANCH  14  15
ATOM     15  C   UNL     1      26.027  10.642  13.265  1.00  0.00     0.000 C 
BRANCH  15  16
ATOM     16  C   UNL     1      26.038  10.499  11.733  1.00  0.00     0.000 C 
BRANCH  16  17
ATOM     17  C   UNL     1      25.954   9.034  11.276  1.00  0.00    -0.000 C 
BRANCH  17  18
ATOM     18  C   UNL     1      24.878   8.811  10.204  1.00  0.00    -0.000 C 
BRANCH  18  19
ATOM     19  C   UNL     1      23.743   9.831  10.346  1.00  0.00    -0.003 C 
ATOM     20  C   UNL     1      22.768   9.739   9.175  1.00  0.00     0.004 C 
ENDBRANCH  18  19
ENDBRANCH  17  18
ENDBRANCH  16  17
ENDBRANCH  15  16
ENDBRANCH  14  15
ENDBRANCH  13  14
ENDBRANCH   2  13
TORSDOF 15
ENDMDL
MODEL 8
REMARK VINA RESULT:    -4.406      2.568      3.913
REMARK INTER + INTRA:         -10.521
REMARK INTER:                  -8.113
REMARK INTRA:                  -2.407
REMARK UNBOUND:                -2.250
REMARK SMILES CCCCCCCCC=CCCCCCCCC(=O)[O-]
REMARK SMILES IDX 10 1 9 2 11 3 12 4 13 5 14 6 15 7 16 8 17 9 18 10 19 11
REMARK SMILES IDX 20 12 8 13 7 14 6 15 5 16 4 17 3 18 2 19 1 20
REMARK H PARENT
REMARK Flexibility Score: inf
ROOT
ATOM      1  C   UNL     1      24.497  10.233  11.371  1.00  0.00    -0.031 C 
ATOM      2  C   UNL     1      25.053   9.243  10.658  1.00  0.00    -0.031 C 
ENDROOT
BRANCH   1   3
ATOM      3  C   UNL     1      25.303  11.054  12.340  1.00  0.00     0.027 C 
BRANCH   3   4
ATOM      4  C   UNL     1      25.340  10.394  13.725  1.00  0.00     0.004 C 
BRANCH   4   5
ATOM      5  C   UNL     1      23.987   9.787  14.135  1.00  0.00     0.000 C 
BRANCH   5   6
ATOM      6  C   UNL     1      23.993   8.259  14.342  1.00  0.00     0.000 C 
BRANCH   6   7
ATOM      7  C   UNL     1      25.295   7.546  13.924  1.00  0.00     0.000 C 
BRANCH   7   8
ATOM      8  C   UNL     1      25.100   6.304  13.031  1.00  0.00     0.006 C 
BRANCH   8   9
ATOM      9  C   UNL     1      23.842   5.483  13.352  1.00  0.00     0.053 C 
BRANCH   9  10
ATOM     10  C   UNL     1      24.181   4.137  13.914  1.00  0.00     0.041 C 
ATOM     11  O   UNL     1      23.948   3.877  15.123  1.00  0.00    -0.550 OA
ATOM     12  O   UNL     1      24.727   3.159  13.093  1.00  0.00    -0.550 OA
ENDBRANCH   9  10
ENDBRANCH   8   9
ENDBRANCH   7   8
ENDBRANCH   6   7
ENDBRANCH   5   6
ENDBRANCH   4   5
ENDBRANCH   3   4
ENDBRANCH   1   3
BRANCH   2  13
ATOM     13  C   UNL     1      24.249   8.429   9.681  1.00  0.00     0.027 C 
BRANCH  13  14
ATOM     14  C   UNL     1      22.742   8.608   9.925  1.00  0.00     0.004 C 
BRANCH  14  15
ATOM     15  C   UNL     1      22.186   7.601  10.942  1.00  0.00     0.000 C 
BRANCH  15  16
ATOM     16  C   UNL     1      20.949   8.137  11.686  1.00  0.00     0.000 C 
BRANCH  16  17
ATOM     17  C   UNL     1      19.640   7.864  10.928  1.00  0.00    -0.000 C 
BRANCH  17  18
ATOM     18  C   UNL     1      19.277   6.372  10.894  1.00  0.00    -0.000 C 
BRANCH  18  19
ATOM     19  C   UNL     1      19.316   5.831   9.460  1.00  0.00    -0.003 C 
ATOM     20  C   UNL     1      19.486   6.962   8.449  1.00  0.00     0.004 C 
ENDBRANCH  18  19
ENDBRANCH  17  18
ENDBRANCH  16  17
ENDBRANCH  15  16
ENDBRANCH  14  15
ENDBRANCH  13  14
ENDBRANCH   2  13
TORSDOF 15
ENDMDL
MODEL 9
REMARK VINA RESULT:    -4.276      1.190      2.493
REMARK INTER + INTRA:         -10.276
REMARK INTER:                  -8.070
REMARK INTRA:                  -2.206
REMARK UNBOUND:                -2.250
REMARK SMILES CCCCCCCCC=CCCCCCCCC(=O)[O-]
REMARK SMILES IDX 10 1 9 2 11 3 12 4 13 5 14 6 15 7 16 8 17 9 18 10 19 11
REMARK SMILES IDX 20 12 8 13 7 14 6 15 5 16 4 17 3 18 2 19 1 20
REMARK H PARENT
REMARK Flexibility Score: inf
ROOT
ATOM      1  C   UNL     1      25.871   6.642  11.187  1.00  0.00    -0.031 C 
ATOM      2  C   UNL     1      24.973   6.942  10.237  1.00  0.00    -0.031 C 
ENDROOT
BRANCH   1   3
ATOM      3  C   UNL     1      25.876   5.303  11.871  1.00  0.00     0.027 C 
BRANCH   3   4
ATOM      4  C   UNL     1      24.720   5.192  12.876  1.00  0.00     0.004 C 
BRANCH   4   5
ATOM      5  C   UNL     1      24.515   6.478  13.696  1.00  0.00     0.000 C 
BRANCH   5   6
ATOM      6  C   UNL     1      23.190   7.220  13.424  1.00  0.00     0.000 C 
BRANCH   6   7
ATOM      7  C   UNL     1      23.296   8.757  13.380  1.00  0.00     0.000 C 
BRANCH   7   8
ATOM      8  C   UNL     1      24.702   9.321  13.671  1.00  0.00     0.006 C 
BRANCH   8   9
ATOM      9  C   UNL     1      24.730  10.823  13.992  1.00  0.00     0.053 C 
BRANCH   9  10
ATOM     10  C   UNL     1      25.236  11.633  12.838  1.00  0.00     0.041 C 
ATOM     11  O   UNL     1      25.246  12.889  12.900  1.00  0.00    -0.550 OA
ATOM     12  O   UNL     1      25.724  10.996  11.704  1.00  0.00    -0.550 OA
ENDBRANCH   9  10
ENDBRANCH   8   9
ENDBRANCH   7   8
ENDBRANCH   6   7
ENDBRANCH   5   6
ENDBRANCH   4   5
ENDBRANCH   3   4
ENDBRANCH   1   3
BRANCH   2  13
ATOM     13  C   UNL     1      24.976   8.277   9.546  1.00  0.00     0.027 C 
BRANCH  13  14
ATOM     14  C   UNL     1      23.608   8.965   9.670  1.00  0.00     0.004 C 
BRANCH  14  15
ATOM     15  C   UNL     1      22.455   7.962   9.827  1.00  0.00     0.000 C 
BRANCH  15  16
ATOM     16  C   UNL     1      21.161   8.625  10.331  1.00  0.00     0.000 C 
BRANCH  16  17
ATOM     17  C   UNL     1      19.907   7.802   9.998  1.00  0.00    -0.000 C 
BRANCH  17  18
ATOM     18  C   UNL     1      20.120   6.858   8.805  1.00  0.00    -0.000 C 
BRANCH  18  19
ATOM     19  C   UNL     1      19.184   7.220   7.646  1.00  0.00    -0.003 C 
ATOM     20  C   UNL     1      19.758   8.358   6.808  1.00  0.00     0.004 C 
ENDBRANCH  18  19
ENDBRANCH  17  18
ENDBRANCH  16  17
ENDBRANCH  15  16
ENDBRANCH  14  15
ENDBRANCH  13  14
ENDBRANCH   2  13
TORSDOF 15
ENDMDL
