MODEL 1
REMARK VINA RESULT:    -4.447      0.000      0.000
REMARK INTER + INTRA:          -9.044
REMARK INTER:                  -8.087
REMARK INTRA:                  -0.957
REMARK UNBOUND:                -0.957
REMARK SMILES CCCCCCCCCCCCCCCC(=O)[O-]
REMARK SMILES IDX 9 1 10 2 11 3 12 4 13 5 14 6 15 7 16 8 17 9 18 10 8 11 7 12
REMARK SMILES IDX 6 13 5 14 4 15 3 16 2 17 1 18
REMARK H PARENT
REMARK Flexibility Score: inf
ROOT
ATOM      1  C   UNL     1      25.583 -16.250  26.495  1.00  0.00     0.000 C 
ENDROOT
BRANCH   1   2
ATOM      2  C   UNL     1      24.715 -14.982  26.508  1.00  0.00     0.000 C 
BRANCH   2   3
ATOM      3  C   UNL     1      23.229 -15.283  26.246  1.00  0.00     0.000 C 
BRANCH   3   4
ATOM      4  C   UNL     1      22.386 -15.285  27.534  1.00  0.00     0.000 C 
BRANCH   4   5
ATOM      5  C   UNL     1      21.970 -16.683  28.039  1.00  0.00     0.000 C 
BRANCH   5   6
ATOM      6  C   UNL     1      20.950 -16.683  29.192  1.00  0.00     0.006 C 
BRANCH   6   7
ATOM      7  C   UNL     1      20.542 -15.270  29.626  1.00  0.00     0.053 C 
BRANCH   7   8
ATOM      8  C   UNL     1      19.238 -15.306  30.357  1.00  0.00     0.041 C 
ATOM      9  O   UNL     1      19.218 -15.373  31.615  1.00  0.00    -0.550 OA
ATOM     10  O   UNL     1      18.044 -15.214  29.654  1.00  0.00    -0.550 OA
ENDBRANCH   7   8
ENDBRANCH   6   7
ENDBRANCH   5   6
ENDBRANCH   4   5
ENDBRANCH   3   4
ENDBRANCH   2   3
ENDBRANCH   1   2
BRANCH   1  11
ATOM     11  C   UNL     1      26.621 -16.241  25.359  1.00  0.00     0.000 C 
BRANCH  11  12
ATOM     12  C   UNL     1      26.515 -17.477  24.455  1.00  0.00    -0.000 C 
BRANCH  12  13
ATOM     13  C   UNL     1      26.413 -18.787  25.256  1.00  0.00    -0.000 C 
BRANCH  13  14
ATOM     14  C   UNL     1      27.584 -19.742  24.976  1.00  0.00    -0.000 C 
BRANCH  14  15
ATOM     15  C   UNL     1      28.719 -19.068  24.185  1.00  0.00    -0.000 C 
BRANCH  15  16
ATOM     16  C   UNL     1      29.941 -18.750  25.061  1.00  0.00    -0.000 C 
BRANCH  16  17
ATOM     17  C   UNL     1      30.018 -19.637  26.312  1.00  0.00    -0.003 C 
ATOM     18  C   UNL     1      30.030 -18.794  27.583  1.00  0.00     0.004 C 
ENDBRANCH  16  17
ENDBRANCH  15  16
ENDBRANCH  14  15
ENDBRANCH  13  14
ENDBRANCH  12  13
ENDBRANCH  11  12
ENDBRANCH   1  11
TORSDOF 14
ENDMDL
MODEL 2
REMARK VINA RESULT:    -4.433      2.545      5.074
REMARK INTER + INTRA:          -9.018
REMARK INTER:                  -7.154
REMARK INTRA:                  -1.864
REMARK UNBOUND:                -0.957
REMARK SMILES CCCCCCCCCCCCCCCC(=O)[O-]
REMARK SMILES IDX 9 1 10 2 11 3 12 4 13 5 14 6 15 7 16 8 17 9 18 10 8 11 7 12
REMARK SMILES IDX 6 13 5 14 4 15 3 16 2 17 1 18
REMARK H PARENT
REMARK Flexibility Score: inf
ROOT
ATOM      1  C   UNL     1      28.885 -18.996  24.327  1.00  0.00     0.000 C 
ENDROOT
BRANCH   1   2
ATOM      2  C   UNL     1      27.700 -19.773  24.922  1.00  0.00     0.000 C 
BRANCH   2   3
ATOM      3  C   UNL     1      26.496 -18.867  25.229  1.00  0.00     0.000 C 
BRANCH   3   4
ATOM      4  C   UNL     1      26.572 -17.510  24.506  1.00  0.00     0.000 C 
BRANCH   4   5
ATOM      5  C   UNL     1      26.540 -16.276  25.432  1.00  0.00     0.000 C 
BRANCH   5   6
ATOM      6  C   UNL     1      25.438 -16.295  26.506  1.00  0.00     0.006 C 
BRANCH   6   7
ATOM      7  C   UNL     1      24.617 -14.999  26.538  1.00  0.00     0.053 C 
BRANCH   7   8
ATOM      8  C   UNL     1      23.156 -15.310  26.622  1.00  0.00     0.041 C 
ATOM      9  O   UNL     1      22.653 -16.193  25.878  1.00  0.00    -0.550 OA
ATOM     10  O   UNL     1      22.359 -14.661  27.556  1.00  0.00    -0.550 OA
ENDBRANCH   7   8
ENDBRANCH   6   7
ENDBRANCH   5   6
ENDBRANCH   4   5
ENDBRANCH   3   4
ENDBRANCH   2   3
ENDBRANCH   1   2
BRANCH   1  11
ATOM     11  C   UNL     1      29.927 -18.606  25.390  1.00  0.00     0.000 C 
BRANCH  11  12
ATOM     12  C   UNL     1      30.368 -19.801  26.248  1.00  0.00    -0.000 C 
BRANCH  12  13
ATOM     13  C   UNL     1      30.255 -19.517  27.757  1.00  0.00    -0.000 C 
BRANCH  13  14
ATOM     14  C   UNL     1      29.256 -18.394  28.072  1.00  0.00    -0.000 C 
BRANCH  14  15
ATOM     15  C   UNL     1      27.914 -18.929  28.603  1.00  0.00    -0.000 C 
BRANCH  15  16
ATOM     16  C   UNL     1      27.096 -17.852  29.333  1.00  0.00    -0.000 C 
BRANCH  16  17
ATOM     17  C   UNL     1      27.980 -16.766  29.963  1.00  0.00    -0.003 C 
ATOM     18  C   UNL     1      28.203 -17.034  31.449  1.00  0.00     0.004 C 
ENDBRANCH  16  17
ENDBRANCH  15  16
ENDBRANCH  14  15
ENDBRANCH  13  14
ENDBRANCH  12  13
ENDBRANCH  11  12
ENDBRANCH   1  11
TORSDOF 14
ENDMDL
MODEL 3
REMARK VINA RESULT:    -4.393      1.461      2.326
REMARK INTER + INTRA:          -8.946
REMARK INTER:                  -7.320
REMARK INTRA:                  -1.626
REMARK UNBOUND:                -0.957
REMARK SMILES CCCCCCCCCCCCCCCC(=O)[O-]
REMARK SMILES IDX 9 1 10 2 11 3 12 4 13 5 14 6 15 7 16 8 17 9 18 10 8 11 7 12
REMARK SMILES IDX 6 13 5 14 4 15 3 16 2 17 1 18
REMARK H PARENT
REMARK Flexibility Score: inf
ROOT
ATOM      1  C   UNL     1      26.647 -16.270  25.253  1.00  0.00     0.000 C 
ENDROOT
BRANCH   1   2
ATOM      2  C   UNL     1      25.494 -16.182  26.265  1.00  0.00     0.000 C 
BRANCH   2   3
ATOM      3  C   UNL     1      24.513 -17.361  26.145  1.00  0.00     0.000 C 
BRANCH   3   4
ATOM      4  C   UNL     1      23.040 -16.920  26.216  1.00  0.00     0.000 C 
BRANCH   4   5
ATOM      5  C   UNL     1      22.820 -15.398  26.329  1.00  0.00     0.000 C 
BRANCH   5   6
ATOM      6  C   UNL     1      22.154 -14.930  27.636  1.00  0.00     0.006 C 
BRANCH   6   7
ATOM      7  C   UNL     1      21.678 -16.096  28.511  1.00  0.00     0.053 C 
BRANCH   7   8
ATOM      8  C   UNL     1      20.727 -15.608  29.557  1.00  0.00     0.041 C 
ATOM      9  O   UNL     1      20.114 -14.519  29.398  1.00  0.00    -0.550 OA
ATOM     10  O   UNL     1      20.479 -16.378  30.687  1.00  0.00    -0.550 OA
ENDBRANCH   7   8
ENDBRANCH   6   7
ENDBRANCH   5   6
ENDBRANCH   4   5
ENDBRANCH   3   4
ENDBRANCH   2   3
ENDBRANCH   1   2
BRANCH   1  11
ATOM     11  C   UNL     1      26.551 -17.518  24.358  1.00  0.00     0.000 C 
BRANCH  11  12
ATOM     12  C   UNL     1      27.866 -18.309  24.307  1.00  0.00    -0.000 C 
BRANCH  12  13
ATOM     13  C   UNL     1      27.713 -19.744  24.842  1.00  0.00    -0.000 C 
BRANCH  13  14
ATOM     14  C   UNL     1      28.726 -20.071  25.950  1.00  0.00    -0.000 C 
BRANCH  14  15
ATOM     15  C   UNL     1      29.437 -18.818  26.489  1.00  0.00    -0.000 C 
BRANCH  15  16
ATOM     16  C   UNL     1      29.150 -18.571  27.978  1.00  0.00    -0.000 C 
BRANCH  16  17
ATOM     17  C   UNL     1      27.685 -18.195  28.242  1.00  0.00    -0.003 C 
ATOM     18  C   UNL     1      27.529 -17.509  29.596  1.00  0.00     0.004 C 
ENDBRANCH  16  17
ENDBRANCH  15  16
ENDBRANCH  14  15
ENDBRANCH  13  14
ENDBRANCH  12  13
ENDBRANCH  11  12
ENDBRANCH   1  11
TORSDOF 14
ENDMDL
MODEL 4
REMARK VINA RESULT:    -4.373      3.873      6.732
REMARK INTER + INTRA:          -8.909
REMARK INTER:                  -7.040
REMARK INTRA:                  -1.869
REMARK UNBOUND:                -0.957
REMARK SMILES CCCCCCCCCCCCCCCC(=O)[O-]
REMARK SMILES IDX 9 1 10 2 11 3 12 4 13 5 14 6 15 7 16 8 17 9 18 10 8 11 7 12
REMARK SMILES IDX 6 13 5 14 4 15 3 16 2 17 1 18
REMARK H PARENT
REMARK Flexibility Score: inf
ROOT
ATOM      1  C   UNL     1      29.826 -18.574  25.200  1.00  0.00     0.000 C 
ENDROOT
BRANCH   1   2
ATOM      2  C   UNL     1      30.364 -19.773  25.995  1.00  0.00     0.000 C 
BRANCH   2   3
ATOM      3  C   UNL     1      29.977 -19.715  27.482  1.00  0.00     0.000 C 
BRANCH   3   4
ATOM      4  C   UNL     1      29.324 -18.378  27.876  1.00  0.00     0.000 C 
BRANCH   4   5
ATOM      5  C   UNL     1      27.976 -18.503  28.615  1.00  0.00     0.000 C 
BRANCH   5   6
ATOM      6  C   UNL     1      27.620 -17.316  29.528  1.00  0.00     0.006 C 
BRANCH   6   7
ATOM      7  C   UNL     1      28.849 -16.695  30.204  1.00  0.00     0.053 C 
BRANCH   7   8
ATOM      8  C   UNL     1      28.443 -15.537  31.060  1.00  0.00     0.041 C 
ATOM      9  O   UNL     1      28.289 -14.395  30.551  1.00  0.00    -0.550 OA
ATOM     10  O   UNL     1      28.185 -15.728  32.412  1.00  0.00    -0.550 OA
ENDBRANCH   7   8
ENDBRANCH   6   7
ENDBRANCH   5   6
ENDBRANCH   4   5
ENDBRANCH   3   4
ENDBRANCH   2   3
ENDBRANCH   1   2
BRANCH   1  11
ATOM     11  C   UNL     1      28.752 -18.980  24.176  1.00  0.00     0.000 C 
BRANCH  11  12
ATOM     12  C   UNL     1      27.607 -19.784  24.811  1.00  0.00    -0.000 C 
BRANCH  12  13
ATOM     13  C   UNL     1      26.410 -18.898  25.199  1.00  0.00    -0.000 C 
BRANCH  13  14
ATOM     14  C   UNL     1      26.464 -17.512  24.540  1.00  0.00    -0.000 C 
BRANCH  14  15
ATOM     15  C   UNL     1      26.489 -16.369  25.570  1.00  0.00    -0.000 C 
BRANCH  15  16
ATOM     16  C   UNL     1      25.406 -16.523  26.650  1.00  0.00    -0.000 C 
BRANCH  16  17
ATOM     17  C   UNL     1      24.094 -15.819  26.274  1.00  0.00    -0.003 C 
ATOM     18  C   UNL     1      22.967 -16.829  26.075  1.00  0.00     0.004 C 
ENDBRANCH  16  17
ENDBRANCH  15  16
ENDBRANCH  14  15
ENDBRANCH  13  14
ENDBRANCH  12  13
ENDBRANCH  11  12
ENDBRANCH   1  11
TORSDOF 14
ENDMDL
MODEL 5
REMARK VINA RESULT:    -4.360      2.965      5.216
REMARK INTER + INTRA:          -8.884
REMARK INTER:                  -6.510
REMARK INTRA:                  -2.374
REMARK UNBOUND:                -0.957
REMARK SMILES CCCCCCCCCCCCCCCC(=O)[O-]
REMARK SMILES IDX 9 1 10 2 11 3 12 4 13 5 14 6 15 7 16 8 17 9 18 10 8 11 7 12
REMARK SMILES IDX 6 13 5 14 4 15 3 16 2 17 1 18
REMARK H PARENT
REMARK Flexibility Score: inf
ROOT
ATOM      1  C   UNL     1      29.361 -18.796  24.779  1.00  0.00     0.000 C 
ENDROOT
BRANCH   1   2
ATOM      2  C   UNL     1      28.122 -19.698  24.888  1.00  0.00     0.000 C 
BRANCH   2   3
ATOM      3  C   UNL     1      26.813 -18.893  24.965  1.00  0.00     0.000 C 
BRANCH   3   4
ATOM      4  C   UNL     1      27.024 -17.387  24.725  1.00  0.00     0.000 C 
BRANCH   4   5
ATOM      5  C   UNL     1      26.190 -16.460  25.633  1.00  0.00     0.000 C 
BRANCH   5   6
ATOM      6  C   UNL     1      24.751 -16.933  25.903  1.00  0.00     0.006 C 
BRANCH   6   7
ATOM      7  C   UNL     1      24.110 -16.232  27.108  1.00  0.00     0.053 C 
BRANCH   7   8
ATOM      8  C   UNL     1      23.528 -14.918  26.696  1.00  0.00     0.041 C 
ATOM      9  O   UNL     1      24.027 -13.842  27.122  1.00  0.00    -0.550 OA
ATOM     10  O   UNL     1      22.466 -14.876  25.801  1.00  0.00    -0.550 OA
ENDBRANCH   7   8
ENDBRANCH   6   7
ENDBRANCH   5   6
ENDBRANCH   4   5
ENDBRANCH   3   4
ENDBRANCH   2   3
ENDBRANCH   1   2
BRANCH   1  11
ATOM     11  C   UNL     1      30.528 -19.291  25.651  1.00  0.00     0.000 C 
BRANCH  11  12
ATOM     12  C   UNL     1      30.692 -18.468  26.938  1.00  0.00    -0.000 C 
BRANCH  12  13
ATOM     13  C   UNL     1      30.493 -19.313  28.208  1.00  0.00    -0.000 C 
BRANCH  13  14
ATOM     14  C   UNL     1      29.017 -19.411  28.626  1.00  0.00    -0.000 C 
BRANCH  14  15
ATOM     15  C   UNL     1      28.233 -18.120  28.331  1.00  0.00    -0.000 C 
BRANCH  15  16
ATOM     16  C   UNL     1      26.829 -18.127  28.955  1.00  0.00    -0.000 C 
BRANCH  16  17
ATOM     17  C   UNL     1      25.988 -19.329  28.501  1.00  0.00    -0.003 C 
ATOM     18  C   UNL     1      24.643 -19.362  29.223  1.00  0.00     0.004 C 
ENDBRANCH  16  17
ENDBRANCH  15  16
ENDBRANCH  14  15
ENDBRANCH  13  14
ENDBRANCH  12  13
ENDBRANCH  11  12
ENDBRANCH   1  11
TORSDOF 14
ENDMDL
MODEL 6
REMARK VINA RESULT:    -4.357      3.065      3.942
REMARK INTER + INTRA:          -8.880
REMARK INTER:                  -6.621
REMARK INTRA:                  -2.259
REMARK UNBOUND:                -0.957
REMARK SMILES CCCCCCCCCCCCCCCC(=O)[O-]
REMARK SMILES IDX 9 1 10 2 11 3 12 4 13 5 14 6 15 7 16 8 17 9 18 10 8 11 7 12
REMARK SMILES IDX 6 13 5 14 4 15 3 16 2 17 1 18
REMARK H PARENT
REMARK Flexibility Score: inf
ROOT
ATOM      1  C   UNL     1      26.646 -16.706  25.652  1.00  0.00     0.000 C 
ENDROOT
BRANCH   1   2
ATOM      2  C   UNL     1      26.050 -16.775  27.067  1.00  0.00     0.000 C 
BRANCH   2   3
ATOM      3  C   UNL     1      24.908 -17.800  27.176  1.00  0.00     0.000 C 
BRANCH   3   4
ATOM      4  C   UNL     1      23.529 -17.140  27.354  1.00  0.00     0.000 C 
BRANCH   4   5
ATOM      5  C   UNL     1      22.895 -16.594  26.058  1.00  0.00     0.000 C 
BRANCH   5   6
ATOM      6  C   UNL     1      22.719 -15.066  26.010  1.00  0.00     0.006 C 
BRANCH   6   7
ATOM      7  C   UNL     1      23.157 -14.376  27.309  1.00  0.00     0.053 C 
BRANCH   7   8
ATOM      8  C   UNL     1      24.257 -13.401  27.035  1.00  0.00     0.041 C 
ATOM      9  O   UNL     1      24.433 -12.413  27.796  1.00  0.00    -0.550 OA
ATOM     10  O   UNL     1      25.122 -13.610  25.968  1.00  0.00    -0.550 OA
ENDBRANCH   7   8
ENDBRANCH   6   7
ENDBRANCH   5   6
ENDBRANCH   4   5
ENDBRANCH   3   4
ENDBRANCH   2   3
ENDBRANCH   1   2
BRANCH   1  11
ATOM     11  C   UNL     1      26.439 -18.011  24.862  1.00  0.00     0.000 C 
BRANCH  11  12
ATOM     12  C   UNL     1      27.760 -18.607  24.354  1.00  0.00    -0.000 C 
BRANCH  12  13
ATOM     13  C   UNL     1      28.821 -18.719  25.463  1.00  0.00    -0.000 C 
BRANCH  13  14
ATOM     14  C   UNL     1      28.648 -19.984  26.318  1.00  0.00    -0.000 C 
BRANCH  14  15
ATOM     15  C   UNL     1      28.499 -19.667  27.817  1.00  0.00    -0.000 C 
BRANCH  15  16
ATOM     16  C   UNL     1      29.268 -18.403  28.233  1.00  0.00    -0.000 C 
BRANCH  16  17
ATOM     17  C   UNL     1      28.632 -17.696  29.439  1.00  0.00    -0.003 C 
ATOM     18  C   UNL     1      27.475 -18.513  30.007  1.00  0.00     0.004 C 
ENDBRANCH  16  17
ENDBRANCH  15  16
ENDBRANCH  14  15
ENDBRANCH  13  14
ENDBRANCH  12  13
ENDBRANCH  11  12
ENDBRANCH   1  11
TORSDOF 14
ENDMDL
MODEL 7
REMARK VINA RESULT:    -4.357      3.512      5.338
REMARK INTER + INTRA:          -8.880
REMARK INTER:                  -7.429
REMARK INTRA:                  -1.450
REMARK UNBOUND:                -0.957
REMARK SMILES CCCCCCCCCCCCCCCC(=O)[O-]
REMARK SMILES IDX 9 1 10 2 11 3 12 4 13 5 14 6 15 7 16 8 17 9 18 10 8 11 7 12
REMARK SMILES IDX 6 13 5 14 4 15 3 16 2 17 1 18
REMARK H PARENT
REMARK Flexibility Score: inf
ROOT
ATOM      1  C   UNL     1      28.610 -18.273  25.771  1.00  0.00     0.000 C 
ENDROOT
BRANCH   1   2
ATOM      2  C   UNL     1      27.788 -18.423  24.482  1.00  0.00     0.000 C 
BRANCH   2   3
ATOM      3  C   UNL     1      26.523 -17.548  24.485  1.00  0.00     0.000 C 
BRANCH   3   4
ATOM      4  C   UNL     1      26.639 -16.337  25.428  1.00  0.00     0.000 C 
BRANCH   4   5
ATOM      5  C   UNL     1      25.434 -16.124  26.367  1.00  0.00     0.000 C 
BRANCH   5   6
ATOM      6  C   UNL     1      24.472 -17.320  26.477  1.00  0.00     0.006 C 
BRANCH   6   7
ATOM      7  C   UNL     1      23.067 -17.005  25.950  1.00  0.00     0.053 C 
BRANCH   7   8
ATOM      8  C   UNL     1      22.583 -15.703  26.504  1.00  0.00     0.041 C 
ATOM      9  O   UNL     1      22.346 -14.735  25.734  1.00  0.00    -0.550 OA
ATOM     10  O   UNL     1      22.347 -15.571  27.867  1.00  0.00    -0.550 OA
ENDBRANCH   7   8
ENDBRANCH   6   7
ENDBRANCH   5   6
ENDBRANCH   4   5
ENDBRANCH   3   4
ENDBRANCH   2   3
ENDBRANCH   1   2
BRANCH   1  11
ATOM     11  C   UNL     1      28.471 -19.489  26.704  1.00  0.00     0.000 C 
BRANCH  11  12
ATOM     12  C   UNL     1      27.614 -19.185  27.942  1.00  0.00    -0.000 C 
BRANCH  12  13
ATOM     13  C   UNL     1      28.383 -18.388  29.010  1.00  0.00    -0.000 C 
BRANCH  13  14
ATOM     14  C   UNL     1      27.763 -17.007  29.275  1.00  0.00    -0.000 C 
BRANCH  14  15
ATOM     15  C   UNL     1      28.070 -16.484  30.690  1.00  0.00    -0.000 C 
BRANCH  15  16
ATOM     16  C   UNL     1      29.042 -15.293  30.681  1.00  0.00    -0.000 C 
BRANCH  16  17
ATOM     17  C   UNL     1      28.625 -14.184  31.657  1.00  0.00    -0.003 C 
ATOM     18  C   UNL     1      29.600 -13.012  31.605  1.00  0.00     0.004 C 
ENDBRANCH  16  17
ENDBRANCH  15  16
ENDBRANCH  14  15
ENDBRANCH  13  14
ENDBRANCH  12  13
ENDBRANCH  11  12
ENDBRANCH   1  11
TORSDOF 14
ENDMDL
MODEL 8
REMARK VINA RESULT:    -4.316      3.411      6.053
REMARK INTER + INTRA:          -8.805
REMARK INTER:                  -7.198
REMARK INTRA:                  -1.606
REMARK UNBOUND:                -0.957
REMARK SMILES CCCCCCCCCCCCCCCC(=O)[O-]
REMARK SMILES IDX 9 1 10 2 11 3 12 4 13 5 14 6 15 7 16 8 17 9 18 10 8 11 7 12
REMARK SMILES IDX 6 13 5 14 4 15 3 16 2 17 1 18
REMARK H PARENT
REMARK Flexibility Score: inf
ROOT
ATOM      1  C   UNL     1      30.255 -18.446  25.624  1.00  0.00     0.000 C 
ENDROOT
BRANCH   1   2
ATOM      2  C   UNL     1      29.383 -18.778  24.403  1.00  0.00     0.000 C 
BRANCH   2   3
ATOM      3  C   UNL     1      28.111 -19.555  24.782  1.00  0.00     0.000 C 
BRANCH   3   4
ATOM      4  C   UNL     1      27.018 -18.652  25.382  1.00  0.00     0.000 C 
BRANCH   4   5
ATOM      5  C   UNL     1      26.633 -17.433  24.519  1.00  0.00     0.000 C 
BRANCH   5   6
ATOM      6  C   UNL     1      26.587 -16.090  25.270  1.00  0.00     0.006 C 
BRANCH   6   7
ATOM      7  C   UNL     1      25.668 -16.126  26.498  1.00  0.00     0.053 C 
BRANCH   7   8
ATOM      8  C   UNL     1      24.721 -14.968  26.473  1.00  0.00     0.041 C 
ATOM      9  O   UNL     1      25.149 -13.796  26.649  1.00  0.00    -0.550 OA
ATOM     10  O   UNL     1      23.374 -15.175  26.205  1.00  0.00    -0.550 OA
ENDBRANCH   7   8
ENDBRANCH   6   7
ENDBRANCH   5   6
ENDBRANCH   4   5
ENDBRANCH   3   4
ENDBRANCH   2   3
ENDBRANCH   1   2
BRANCH   1  11
ATOM     11  C   UNL     1      30.632 -19.697  26.436  1.00  0.00     0.000 C 
BRANCH  11  12
ATOM     12  C   UNL     1      30.050 -19.675  27.857  1.00  0.00    -0.000 C 
BRANCH  12  13
ATOM     13  C   UNL     1      29.674 -18.256  28.319  1.00  0.00    -0.000 C 
BRANCH  13  14
ATOM     14  C   UNL     1      28.258 -18.184  28.910  1.00  0.00    -0.000 C 
BRANCH  14  15
ATOM     15  C   UNL     1      27.999 -16.869  29.665  1.00  0.00    -0.000 C 
BRANCH  15  16
ATOM     16  C   UNL     1      28.942 -16.682  30.865  1.00  0.00    -0.000 C 
BRANCH  16  17
ATOM     17  C   UNL     1      29.743 -15.375  30.788  1.00  0.00    -0.003 C 
ATOM     18  C   UNL     1      28.820 -14.161  30.854  1.00  0.00     0.004 C 
ENDBRANCH  16  17
ENDBRANCH  15  16
ENDBRANCH  14  15
ENDBRANCH  13  14
ENDBRANCH  12  13
ENDBRANCH  11  12
ENDBRANCH   1  11
TORSDOF 14
ENDMDL
MODEL 9
REMARK VINA RESULT:    -4.253      2.759      3.779
REMARK INTER + INTRA:          -8.691
REMARK INTER:                  -6.587
REMARK INTRA:                  -2.104
REMARK UNBOUND:                -0.957
REMARK SMILES CCCCCCCCCCCCCCCC(=O)[O-]
REMARK SMILES IDX 9 1 10 2 11 3 12 4 13 5 14 6 15 7 16 8 17 9 18 10 8 11 7 12
REMARK SMILES IDX 6 13 5 14 4 15 3 16 2 17 1 18
REMARK H PARENT
REMARK Flexibility Score: inf
ROOT
ATOM      1  C   UNL     1      26.719 -16.856  25.662  1.00  0.00     0.000 C 
ENDROOT
BRANCH   1   2
ATOM      2  C   UNL     1      26.676 -17.032  27.188  1.00  0.00     0.000 C 
BRANCH   2   3
ATOM      3  C   UNL     1      26.224 -18.442  27.605  1.00  0.00     0.000 C 
BRANCH   3   4
ATOM      4  C   UNL     1      24.985 -18.424  28.519  1.00  0.00     0.000 C 
BRANCH   4   5
ATOM      5  C   UNL     1      23.633 -18.539  27.787  1.00  0.00     0.000 C 
BRANCH   5   6
ATOM      6  C   UNL     1      22.885 -17.209  27.584  1.00  0.00     0.006 C 
BRANCH   6   7
ATOM      7  C   UNL     1      23.050 -16.643  26.168  1.00  0.00     0.053 C 
BRANCH   7   8
ATOM      8  C   UNL     1      23.122 -15.150  26.209  1.00  0.00     0.041 C 
ATOM      9  O   UNL     1      22.179 -14.457  25.742  1.00  0.00    -0.550 OA
ATOM     10  O   UNL     1      24.206 -14.521  26.808  1.00  0.00    -0.550 OA
ENDBRANCH   7   8
ENDBRANCH   6   7
ENDBRANCH   5   6
ENDBRANCH   4   5
ENDBRANCH   3   4
ENDBRANCH   2   3
ENDBRANCH   1   2
BRANCH   1  11
ATOM     11  C   UNL     1      26.529 -18.186  24.910  1.00  0.00     0.000 C 
BRANCH  11  12
ATOM     12  C   UNL     1      27.794 -18.621  24.155  1.00  0.00    -0.000 C 
BRANCH  12  13
ATOM     13  C   UNL     1      28.843 -19.260  25.081  1.00  0.00    -0.000 C 
BRANCH  13  14
ATOM     14  C   UNL     1      30.232 -18.621  24.928  1.00  0.00    -0.000 C 
BRANCH  14  15
ATOM     15  C   UNL     1      30.868 -18.260  26.282  1.00  0.00    -0.000 C 
BRANCH  15  16
ATOM     16  C   UNL     1      30.008 -18.703  27.476  1.00  0.00    -0.000 C 
BRANCH  16  17
ATOM     17  C   UNL     1      30.480 -18.091  28.802  1.00  0.00    -0.003 C 
ATOM     18  C   UNL     1      29.296 -17.769  29.710  1.00  0.00     0.004 C 
ENDBRANCH  16  17
ENDBRANCH  15  16
ENDBRANCH  14  15
ENDBRANCH  13  14
ENDBRANCH  12  13
ENDBRANCH  11  12
ENDBRANCH   1  11
TORSDOF 14
ENDMDL
