MODEL 1
REMARK VINA RESULT:     3.833      0.000      0.000
REMARK INTER + INTRA:           7.499
REMARK INTER:                   8.763
REMARK INTRA:                  -1.263
REMARK UNBOUND:                -1.263
REMARK SMILES CCCCCCCCCCCCCCCCCCCCCCCC(=O)[O-]
REMARK SMILES IDX 13 1 14 2 15 3 16 4 17 5 18 6 19 7 20 8 21 9 22 10 23 11
REMARK SMILES IDX 24 12 25 13 26 14 12 15 11 16 10 17 9 18 8 19 7 20 6 21 5 22
REMARK SMILES IDX 4 23 3 24 2 25 1 26
REMARK H PARENT
REMARK Flexibility Score: inf
ROOT
ATOM      1  C   UNL     1       2.387  62.769  -6.544  1.00  0.00     0.000 C 
ENDROOT
BRANCH   1   2
ATOM      2  C   UNL     1       2.817  64.107  -7.185  1.00  0.00     0.000 C 
BRANCH   2   3
ATOM      3  C   UNL     1       2.110  65.350  -6.607  1.00  0.00     0.000 C 
BRANCH   3   4
ATOM      4  C   UNL     1       2.870  66.075  -5.477  1.00  0.00     0.000 C 
BRANCH   4   5
ATOM      5  C   UNL     1       2.577  67.582  -5.417  1.00  0.00     0.000 C 
BRANCH   5   6
ATOM      6  C   UNL     1       1.070  67.841  -5.256  1.00  0.00     0.000 C 
BRANCH   6   7
ATOM      7  C   UNL     1       0.341  67.946  -6.605  1.00  0.00     0.000 C 
BRANCH   7   8
ATOM      8  C   UNL     1      -0.781  68.995  -6.591  1.00  0.00     0.000 C 
BRANCH   8   9
ATOM      9  C   UNL     1      -0.696  69.869  -5.330  1.00  0.00     0.000 C 
BRANCH   9  10
ATOM     10  C   UNL     1      -2.042  69.980  -4.591  1.00  0.00     0.006 C 
BRANCH  10  11
ATOM     11  C   UNL     1      -3.216  69.299  -5.315  1.00  0.00     0.053 C 
BRANCH  11  12
ATOM     12  C   UNL     1      -4.002  70.270  -6.140  1.00  0.00     0.041 C 
ATOM     13  O   UNL     1      -4.581  69.887  -7.191  1.00  0.00    -0.550 OA
ATOM     14  O   UNL     1      -4.056  71.609  -5.775  1.00  0.00    -0.550 OA
ENDBRANCH  11  12
ENDBRANCH  10  11
ENDBRANCH   9  10
ENDBRANCH   8   9
ENDBRANCH   7   8
ENDBRANCH   6   7
ENDBRANCH   5   6
ENDBRANCH   4   5
ENDBRANCH   3   4
ENDBRANCH   2   3
ENDBRANCH   1   2
BRANCH   1  15
ATOM     15  C   UNL     1       2.736  61.529  -7.390  1.00  0.00     0.000 C 
BRANCH  15  16
ATOM     16  C   UNL     1       3.447  60.399  -6.625  1.00  0.00     0.000 C 
BRANCH  16  17
ATOM     17  C   UNL     1       2.467  59.471  -5.888  1.00  0.00     0.000 C 
BRANCH  17  18
ATOM     18  C   UNL     1       1.173  59.217  -6.681  1.00  0.00    -0.000 C 
BRANCH  18  19
ATOM     19  C   UNL     1      -0.126  59.236  -5.849  1.00  0.00    -0.000 C 
BRANCH  19  20
ATOM     20  C   UNL     1      -0.141  60.238  -4.680  1.00  0.00    -0.000 C 
BRANCH  20  21
ATOM     21  C   UNL     1      -1.424  60.157  -3.839  1.00  0.00    -0.000 C 
BRANCH  21  22
ATOM     22  C   UNL     1      -2.299  58.977  -4.287  1.00  0.00    -0.000 C 
BRANCH  22  23
ATOM     23  C   UNL     1      -3.805  59.286  -4.210  1.00  0.00    -0.000 C 
BRANCH  23  24
ATOM     24  C   UNL     1      -4.502  59.486  -5.572  1.00  0.00    -0.000 C 
BRANCH  24  25
ATOM     25  C   UNL     1      -3.745  60.387  -6.562  1.00  0.00    -0.003 C 
ATOM     26  C   UNL     1      -4.338  60.353  -7.971  1.00  0.00     0.004 C 
ENDBRANCH  24  25
ENDBRANCH  23  24
ENDBRANCH  22  23
ENDBRANCH  21  22
ENDBRANCH  20  21
ENDBRANCH  19  20
ENDBRANCH  18  19
ENDBRANCH  17  18
ENDBRANCH  16  17
ENDBRANCH  15  16
ENDBRANCH   1  15
TORSDOF 22
ENDMDL
MODEL 2
REMARK VINA RESULT:     4.306      2.926      8.979
REMARK INTER + INTRA:           8.581
REMARK INTER:                   9.997
REMARK INTRA:                  -1.416
REMARK UNBOUND:                -1.263
REMARK SMILES CCCCCCCCCCCCCCCCCCCCCCCC(=O)[O-]
REMARK SMILES IDX 13 1 14 2 15 3 16 4 17 5 18 6 19 7 20 8 21 9 22 10 23 11
REMARK SMILES IDX 24 12 25 13 26 14 12 15 11 16 10 17 9 18 8 19 7 20 6 21 5 22
REMARK SMILES IDX 4 23 3 24 2 25 1 26
REMARK H PARENT
REMARK Flexibility Score: inf
ROOT
ATOM      1  C   UNL     1       2.288  62.863  -7.216  1.00  0.00     0.000 C 
ENDROOT
BRANCH   1   2
ATOM      2  C   UNL     1       3.057  61.870  -8.115  1.00  0.00     0.000 C 
BRANCH   2   3
ATOM      3  C   UNL     1       3.492  60.570  -7.408  1.00  0.00     0.000 C 
BRANCH   3   4
ATOM      4  C   UNL     1       2.934  60.375  -5.984  1.00  0.00     0.000 C 
BRANCH   4   5
ATOM      5  C   UNL     1       2.314  58.987  -5.759  1.00  0.00     0.000 C 
BRANCH   5   6
ATOM      6  C   UNL     1       0.779  59.066  -5.760  1.00  0.00     0.000 C 
BRANCH   6   7
ATOM      7  C   UNL     1       0.252  60.341  -5.082  1.00  0.00     0.000 C 
BRANCH   7   8
ATOM      8  C   UNL     1      -0.880  60.056  -4.084  1.00  0.00     0.000 C 
BRANCH   8   9
ATOM      9  C   UNL     1      -1.809  58.953  -4.613  1.00  0.00     0.000 C 
BRANCH   9  10
ATOM     10  C   UNL     1      -3.141  58.875  -3.844  1.00  0.00     0.006 C 
BRANCH  10  11
ATOM     11  C   UNL     1      -4.106  60.035  -4.138  1.00  0.00     0.053 C 
BRANCH  11  12
ATOM     12  C   UNL     1      -4.446  60.123  -5.594  1.00  0.00     0.041 C 
ATOM     13  O   UNL     1      -4.352  61.223  -6.202  1.00  0.00    -0.550 OA
ATOM     14  O   UNL     1      -4.910  59.002  -6.269  1.00  0.00    -0.550 OA
ENDBRANCH  11  12
ENDBRANCH  10  11
ENDBRANCH   9  10
ENDBRANCH   8   9
ENDBRANCH   7   8
ENDBRANCH   6   7
ENDBRANCH   5   6
ENDBRANCH   4   5
ENDBRANCH   3   4
ENDBRANCH   2   3
ENDBRANCH   1   2
BRANCH   1  15
ATOM     15  C   UNL     1       2.651  64.340  -7.460  1.00  0.00     0.000 C 
BRANCH  15  16
ATOM     16  C   UNL     1       2.031  65.336  -6.465  1.00  0.00     0.000 C 
BRANCH  16  17
ATOM     17  C   UNL     1       1.063  66.325  -7.136  1.00  0.00     0.000 C 
BRANCH  17  18
ATOM     18  C   UNL     1       0.666  67.491  -6.213  1.00  0.00    -0.000 C 
BRANCH  18  19
ATOM     19  C   UNL     1       0.167  68.761  -6.933  1.00  0.00    -0.000 C 
BRANCH  19  20
ATOM     20  C   UNL     1      -1.355  68.992  -6.877  1.00  0.00    -0.000 C 
BRANCH  20  21
ATOM     21  C   UNL     1      -1.843  69.425  -5.487  1.00  0.00    -0.000 C 
BRANCH  21  22
ATOM     22  C   UNL     1      -3.376  69.382  -5.407  1.00  0.00    -0.000 C 
BRANCH  22  23
ATOM     23  C   UNL     1      -4.051  69.500  -6.785  1.00  0.00    -0.000 C 
BRANCH  23  24
ATOM     24  C   UNL     1      -5.080  70.643  -6.915  1.00  0.00    -0.000 C 
BRANCH  24  25
ATOM     25  C   UNL     1      -5.125  71.613  -5.723  1.00  0.00    -0.003 C 
ATOM     26  C   UNL     1      -5.060  73.081  -6.146  1.00  0.00     0.004 C 
ENDBRANCH  24  25
ENDBRANCH  23  24
ENDBRANCH  22  23
ENDBRANCH  21  22
ENDBRANCH  20  21
ENDBRANCH  19  20
ENDBRANCH  18  19
ENDBRANCH  17  18
ENDBRANCH  16  17
ENDBRANCH  15  16
ENDBRANCH   1  15
TORSDOF 22
ENDMDL
MODEL 3
REMARK VINA RESULT:     4.921      0.949      2.065
REMARK INTER + INTRA:           9.987
REMARK INTER:                  11.476
REMARK INTRA:                  -1.489
REMARK UNBOUND:                -1.263
REMARK SMILES CCCCCCCCCCCCCCCCCCCCCCCC(=O)[O-]
REMARK SMILES IDX 13 1 14 2 15 3 16 4 17 5 18 6 19 7 20 8 21 9 22 10 23 11
REMARK SMILES IDX 24 12 25 13 26 14 12 15 11 16 10 17 9 18 8 19 7 20 6 21 5 22
REMARK SMILES IDX 4 23 3 24 2 25 1 26
REMARK H PARENT
REMARK Flexibility Score: inf
ROOT
ATOM      1  C   UNL     1       2.745  62.165  -7.933  1.00  0.00     0.000 C 
ENDROOT
BRANCH   1   2
ATOM      2  C   UNL     1       2.270  63.154  -6.845  1.00  0.00     0.000 C 
BRANCH   2   3
ATOM      3  C   UNL     1       2.803  64.592  -7.009  1.00  0.00     0.000 C 
BRANCH   3   4
ATOM      4  C   UNL     1       1.747  65.707  -6.866  1.00  0.00     0.000 C 
BRANCH   4   5
ATOM      5  C   UNL     1       2.100  66.744  -5.790  1.00  0.00     0.000 C 
BRANCH   5   6
ATOM      6  C   UNL     1       0.952  67.749  -5.599  1.00  0.00     0.000 C 
BRANCH   6   7
ATOM      7  C   UNL     1       0.101  67.920  -6.867  1.00  0.00     0.000 C 
BRANCH   7   8
ATOM      8  C   UNL     1      -1.227  68.646  -6.596  1.00  0.00     0.000 C 
BRANCH   8   9
ATOM      9  C   UNL     1      -0.988  69.945  -5.813  1.00  0.00     0.000 C 
BRANCH   9  10
ATOM     10  C   UNL     1      -1.975  70.127  -4.645  1.00  0.00     0.006 C 
BRANCH  10  11
ATOM     11  C   UNL     1      -3.412  69.680  -4.961  1.00  0.00     0.053 C 
BRANCH  11  12
ATOM     12  C   UNL     1      -4.022  70.496  -6.058  1.00  0.00     0.041 C 
ATOM     13  O   UNL     1      -4.429  69.938  -7.112  1.00  0.00    -0.550 OA
ATOM     14  O   UNL     1      -4.100  71.877  -5.937  1.00  0.00    -0.550 OA
ENDBRANCH  11  12
ENDBRANCH  10  11
ENDBRANCH   9  10
ENDBRANCH   8   9
ENDBRANCH   7   8
ENDBRANCH   6   7
ENDBRANCH   5   6
ENDBRANCH   4   5
ENDBRANCH   3   4
ENDBRANCH   2   3
ENDBRANCH   1   2
BRANCH   1  15
ATOM     15  C   UNL     1       3.856  61.206  -7.464  1.00  0.00     0.000 C 
BRANCH  15  16
ATOM     16  C   UNL     1       3.486  59.713  -7.507  1.00  0.00     0.000 C 
BRANCH  16  17
ATOM     17  C   UNL     1       2.095  59.461  -8.113  1.00  0.00     0.000 C 
BRANCH  17  18
ATOM     18  C   UNL     1       1.087  58.914  -7.086  1.00  0.00    -0.000 C 
BRANCH  18  19
ATOM     19  C   UNL     1      -0.251  59.680  -7.004  1.00  0.00    -0.000 C 
BRANCH  19  20
ATOM     20  C   UNL     1      -1.493  58.877  -7.433  1.00  0.00    -0.000 C 
BRANCH  20  21
ATOM     21  C   UNL     1      -2.811  59.588  -7.092  1.00  0.00    -0.000 C 
BRANCH  21  22
ATOM     22  C   UNL     1      -3.472  58.954  -5.859  1.00  0.00    -0.000 C 
BRANCH  22  23
ATOM     23  C   UNL     1      -3.541  59.912  -4.657  1.00  0.00    -0.000 C 
BRANCH  23  24
ATOM     24  C   UNL     1      -2.299  60.807  -4.461  1.00  0.00    -0.000 C 
BRANCH  24  25
ATOM     25  C   UNL     1      -1.377  60.392  -3.302  1.00  0.00    -0.003 C 
ATOM     26  C   UNL     1       0.097  60.340  -3.704  1.00  0.00     0.004 C 
ENDBRANCH  24  25
ENDBRANCH  23  24
ENDBRANCH  22  23
ENDBRANCH  21  22
ENDBRANCH  20  21
ENDBRANCH  19  20
ENDBRANCH  18  19
ENDBRANCH  17  18
ENDBRANCH  16  17
ENDBRANCH  15  16
ENDBRANCH   1  15
TORSDOF 22
ENDMDL
MODEL 4
REMARK VINA RESULT:     4.995      2.862      8.779
REMARK INTER + INTRA:          10.155
REMARK INTER:                  11.121
REMARK INTRA:                  -0.966
REMARK UNBOUND:                -1.263
REMARK SMILES CCCCCCCCCCCCCCCCCCCCCCCC(=O)[O-]
REMARK SMILES IDX 13 1 14 2 15 3 16 4 17 5 18 6 19 7 20 8 21 9 22 10 23 11
REMARK SMILES IDX 24 12 25 13 26 14 12 15 11 16 10 17 9 18 8 19 7 20 6 21 5 22
REMARK SMILES IDX 4 23 3 24 2 25 1 26
REMARK H PARENT
REMARK Flexibility Score: inf
ROOT
ATOM      1  C   UNL     1       2.704  64.085  -6.977  1.00  0.00     0.000 C 
ENDROOT
BRANCH   1   2
ATOM      2  C   UNL     1       2.282  62.632  -6.665  1.00  0.00     0.000 C 
BRANCH   2   3
ATOM      3  C   UNL     1       3.328  61.565  -7.048  1.00  0.00     0.000 C 
BRANCH   3   4
ATOM      4  C   UNL     1       2.754  60.259  -7.634  1.00  0.00     0.000 C 
BRANCH   4   5
ATOM      5  C   UNL     1       2.362  59.232  -6.562  1.00  0.00     0.000 C 
BRANCH   5   6
ATOM      6  C   UNL     1       1.016  59.601  -5.916  1.00  0.00     0.000 C 
BRANCH   6   7
ATOM      7  C   UNL     1       1.186  60.333  -4.575  1.00  0.00     0.000 C 
BRANCH   7   8
ATOM      8  C   UNL     1      -0.105  60.349  -3.742  1.00  0.00     0.000 C 
BRANCH   8   9
ATOM      9  C   UNL     1      -1.283  59.784  -4.551  1.00  0.00     0.000 C 
BRANCH   9  10
ATOM     10  C   UNL     1      -2.551  59.589  -3.699  1.00  0.00     0.006 C 
BRANCH  10  11
ATOM     11  C   UNL     1      -3.735  58.976  -4.465  1.00  0.00     0.053 C 
BRANCH  11  12
ATOM     12  C   UNL     1      -4.076  59.765  -5.691  1.00  0.00     0.041 C 
ATOM     13  O   UNL     1      -4.036  59.221  -6.827  1.00  0.00    -0.550 OA
ATOM     14  O   UNL     1      -4.392  61.113  -5.585  1.00  0.00    -0.550 OA
ENDBRANCH  11  12
ENDBRANCH  10  11
ENDBRANCH   9  10
ENDBRANCH   8   9
ENDBRANCH   7   8
ENDBRANCH   6   7
ENDBRANCH   5   6
ENDBRANCH   4   5
ENDBRANCH   3   4
ENDBRANCH   2   3
ENDBRANCH   1   2
BRANCH   1  15
ATOM     15  C   UNL     1       3.522  64.753  -5.855  1.00  0.00     0.000 C 
BRANCH  15  16
ATOM     16  C   UNL     1       2.749  65.782  -5.011  1.00  0.00     0.000 C 
BRANCH  16  17
ATOM     17  C   UNL     1       3.387  67.180  -5.044  1.00  0.00     0.000 C 
BRANCH  17  18
ATOM     18  C   UNL     1       2.353  68.304  -5.239  1.00  0.00    -0.000 C 
BRANCH  18  19
ATOM     19  C   UNL     1       0.883  67.841  -5.318  1.00  0.00    -0.000 C 
BRANCH  19  20
ATOM     20  C   UNL     1       0.023  68.566  -6.369  1.00  0.00    -0.000 C 
BRANCH  20  21
ATOM     21  C   UNL     1      -0.745  69.764  -5.791  1.00  0.00    -0.000 C 
BRANCH  21  22
ATOM     22  C   UNL     1      -1.651  69.326  -4.632  1.00  0.00    -0.000 C 
BRANCH  22  23
ATOM     23  C   UNL     1      -3.145  69.338  -5.002  1.00  0.00    -0.000 C 
BRANCH  23  24
ATOM     24  C   UNL     1      -3.478  69.993  -6.359  1.00  0.00    -0.000 C 
BRANCH  24  25
ATOM     25  C   UNL     1      -4.895  70.580  -6.465  1.00  0.00    -0.003 C 
ATOM     26  C   UNL     1      -4.954  72.062  -6.094  1.00  0.00     0.004 C 
ENDBRANCH  24  25
ENDBRANCH  23  24
ENDBRANCH  22  23
ENDBRANCH  21  22
ENDBRANCH  20  21
ENDBRANCH  19  20
ENDBRANCH  18  19
ENDBRANCH  17  18
ENDBRANCH  16  17
ENDBRANCH  15  16
ENDBRANCH   1  15
TORSDOF 22
ENDMDL
MODEL 5
REMARK VINA RESULT:     5.157      1.023      2.636
REMARK INTER + INTRA:          10.526
REMARK INTER:                  11.698
REMARK INTRA:                  -1.172
REMARK UNBOUND:                -1.263
REMARK SMILES CCCCCCCCCCCCCCCCCCCCCCCC(=O)[O-]
REMARK SMILES IDX 13 1 14 2 15 3 16 4 17 5 18 6 19 7 20 8 21 9 22 10 23 11
REMARK SMILES IDX 24 12 25 13 26 14 12 15 11 16 10 17 9 18 8 19 7 20 6 21 5 22
REMARK SMILES IDX 4 23 3 24 2 25 1 26
REMARK H PARENT
REMARK Flexibility Score: inf
ROOT
ATOM      1  C   UNL     1       3.662  61.588  -6.890  1.00  0.00     0.000 C 
ENDROOT
BRANCH   1   2
ATOM      2  C   UNL     1       2.469  62.552  -7.075  1.00  0.00     0.000 C 
BRANCH   2   3
ATOM      3  C   UNL     1       2.322  63.610  -5.962  1.00  0.00     0.000 C 
BRANCH   3   4
ATOM      4  C   UNL     1       2.910  64.998  -6.289  1.00  0.00     0.000 C 
BRANCH   4   5
ATOM      5  C   UNL     1       3.448  65.736  -5.054  1.00  0.00     0.000 C 
BRANCH   5   6
ATOM      6  C   UNL     1       3.171  67.245  -5.154  1.00  0.00     0.000 C 
BRANCH   6   7
ATOM      7  C   UNL     1       1.711  67.600  -4.830  1.00  0.00     0.000 C 
BRANCH   7   8
ATOM      8  C   UNL     1       1.115  68.616  -5.818  1.00  0.00     0.000 C 
BRANCH   8   9
ATOM      9  C   UNL     1      -0.007  67.976  -6.648  1.00  0.00     0.000 C 
BRANCH   9  10
ATOM     10  C   UNL     1      -1.228  68.900  -6.811  1.00  0.00     0.006 C 
BRANCH  10  11
ATOM     11  C   UNL     1      -2.121  68.989  -5.562  1.00  0.00     0.053 C 
BRANCH  11  12
ATOM     12  C   UNL     1      -3.253  69.951  -5.753  1.00  0.00     0.041 C 
ATOM     13  O   UNL     1      -3.222  71.083  -5.202  1.00  0.00    -0.550 OA
ATOM     14  O   UNL     1      -4.363  69.580  -6.500  1.00  0.00    -0.550 OA
ENDBRANCH  11  12
ENDBRANCH  10  11
ENDBRANCH   9  10
ENDBRANCH   8   9
ENDBRANCH   7   8
ENDBRANCH   6   7
ENDBRANCH   5   6
ENDBRANCH   4   5
ENDBRANCH   3   4
ENDBRANCH   2   3
ENDBRANCH   1   2
BRANCH   1  15
ATOM     15  C   UNL     1       3.252  60.120  -6.663  1.00  0.00     0.000 C 
BRANCH  15  16
ATOM     16  C   UNL     1       1.809  59.918  -6.167  1.00  0.00     0.000 C 
BRANCH  16  17
ATOM     17  C   UNL     1       1.011  58.937  -7.042  1.00  0.00     0.000 C 
BRANCH  17  18
ATOM     18  C   UNL     1      -0.480  58.875  -6.662  1.00  0.00    -0.000 C 
BRANCH  18  19
ATOM     19  C   UNL     1      -1.455  59.420  -7.727  1.00  0.00    -0.000 C 
BRANCH  19  20
ATOM     20  C   UNL     1      -2.893  58.876  -7.638  1.00  0.00    -0.000 C 
BRANCH  20  21
ATOM     21  C   UNL     1      -3.953  59.929  -7.995  1.00  0.00    -0.000 C 
BRANCH  21  22
ATOM     22  C   UNL     1      -4.749  60.349  -6.751  1.00  0.00    -0.000 C 
BRANCH  22  23
ATOM     23  C   UNL     1      -4.219  59.707  -5.456  1.00  0.00    -0.000 C 
BRANCH  23  24
ATOM     24  C   UNL     1      -3.010  60.422  -4.818  1.00  0.00    -0.000 C 
BRANCH  24  25
ATOM     25  C   UNL     1      -2.311  59.638  -3.695  1.00  0.00    -0.003 C 
ATOM     26  C   UNL     1      -1.169  60.419  -3.045  1.00  0.00     0.004 C 
ENDBRANCH  24  25
ENDBRANCH  23  24
ENDBRANCH  22  23
ENDBRANCH  21  22
ENDBRANCH  20  21
ENDBRANCH  19  20
ENDBRANCH  18  19
ENDBRANCH  17  18
ENDBRANCH  16  17
ENDBRANCH  15  16
ENDBRANCH   1  15
TORSDOF 22
ENDMDL
MODEL 6
REMARK VINA RESULT:     5.830      1.414      3.806
REMARK INTER + INTRA:          12.065
REMARK INTER:                  13.129
REMARK INTRA:                  -1.063
REMARK UNBOUND:                -1.263
REMARK SMILES CCCCCCCCCCCCCCCCCCCCCCCC(=O)[O-]
REMARK SMILES IDX 13 1 14 2 15 3 16 4 17 5 18 6 19 7 20 8 21 9 22 10 23 11
REMARK SMILES IDX 24 12 25 13 26 14 12 15 11 16 10 17 9 18 8 19 7 20 6 21 5 22
REMARK SMILES IDX 4 23 3 24 2 25 1 26
REMARK H PARENT
REMARK Flexibility Score: inf
ROOT
ATOM      1  C   UNL     1       1.724  59.422  -6.337  1.00  0.00     0.000 C 
ENDROOT
BRANCH   1   2
ATOM      2  C   UNL     1       2.051  60.891  -5.991  1.00  0.00     0.000 C 
BRANCH   2   3
ATOM      3  C   UNL     1       3.050  61.569  -6.952  1.00  0.00     0.000 C 
BRANCH   3   4
ATOM      4  C   UNL     1       2.573  62.897  -7.571  1.00  0.00     0.000 C 
BRANCH   4   5
ATOM      5  C   UNL     1       2.489  64.047  -6.556  1.00  0.00     0.000 C 
BRANCH   5   6
ATOM      6  C   UNL     1       1.936  65.321  -7.214  1.00  0.00     0.000 C 
BRANCH   6   7
ATOM      7  C   UNL     1       1.707  66.456  -6.203  1.00  0.00     0.000 C 
BRANCH   7   8
ATOM      8  C   UNL     1       0.831  67.585  -6.768  1.00  0.00     0.000 C 
BRANCH   8   9
ATOM      9  C   UNL     1      -0.125  68.124  -5.694  1.00  0.00     0.000 C 
BRANCH   9  10
ATOM     10  C   UNL     1      -1.170  69.102  -6.263  1.00  0.00     0.006 C 
BRANCH  10  11
ATOM     11  C   UNL     1      -2.119  69.693  -5.207  1.00  0.00     0.053 C 
BRANCH  11  12
ATOM     12  C   UNL     1      -3.332  70.312  -5.831  1.00  0.00     0.041 C 
ATOM     13  O   UNL     1      -3.561  71.542  -5.688  1.00  0.00    -0.550 OA
ATOM     14  O   UNL     1      -4.234  69.521  -6.531  1.00  0.00    -0.550 OA
ENDBRANCH  11  12
ENDBRANCH  10  11
ENDBRANCH   9  10
ENDBRANCH   8   9
ENDBRANCH   7   8
ENDBRANCH   6   7
ENDBRANCH   5   6
ENDBRANCH   4   5
ENDBRANCH   3   4
ENDBRANCH   2   3
ENDBRANCH   1   2
BRANCH   1  15
ATOM     15  C   UNL     1       0.458  59.248  -7.197  1.00  0.00     0.000 C 
BRANCH  15  16
ATOM     16  C   UNL     1      -0.857  59.143  -6.405  1.00  0.00     0.000 C 
BRANCH  16  17
ATOM     17  C   UNL     1      -2.075  58.878  -7.304  1.00  0.00     0.000 C 
BRANCH  17  18
ATOM     18  C   UNL     1      -3.184  59.932  -7.135  1.00  0.00    -0.000 C 
BRANCH  18  19
ATOM     19  C   UNL     1      -3.193  60.667  -5.778  1.00  0.00    -0.000 C 
BRANCH  19  20
ATOM     20  C   UNL     1      -4.095  60.040  -4.699  1.00  0.00    -0.000 C 
BRANCH  20  21
ATOM     21  C   UNL     1      -3.419  58.876  -3.958  1.00  0.00    -0.000 C 
BRANCH  21  22
ATOM     22  C   UNL     1      -2.539  59.394  -2.812  1.00  0.00    -0.000 C 
BRANCH  22  23
ATOM     23  C   UNL     1      -1.167  59.900  -3.292  1.00  0.00    -0.000 C 
BRANCH  23  24
ATOM     24  C   UNL     1      -0.497  60.945  -2.375  1.00  0.00    -0.000 C 
BRANCH  24  25
ATOM     25  C   UNL     1       0.511  60.372  -1.366  1.00  0.00    -0.003 C 
ATOM     26  C   UNL     1      -0.160  59.632  -0.209  1.00  0.00     0.004 C 
ENDBRANCH  24  25
ENDBRANCH  23  24
ENDBRANCH  22  23
ENDBRANCH  21  22
ENDBRANCH  20  21
ENDBRANCH  19  20
ENDBRANCH  18  19
ENDBRANCH  17  18
ENDBRANCH  16  17
ENDBRANCH  15  16
ENDBRANCH   1  15
TORSDOF 22
ENDMDL
MODEL 7
REMARK VINA RESULT:     5.835      1.278      2.693
REMARK INTER + INTRA:          12.075
REMARK INTER:                  12.839
REMARK INTRA:                  -0.764
REMARK UNBOUND:                -1.263
REMARK SMILES CCCCCCCCCCCCCCCCCCCCCCCC(=O)[O-]
REMARK SMILES IDX 13 1 14 2 15 3 16 4 17 5 18 6 19 7 20 8 21 9 22 10 23 11
REMARK SMILES IDX 24 12 25 13 26 14 12 15 11 16 10 17 9 18 8 19 7 20 6 21 5 22
REMARK SMILES IDX 4 23 3 24 2 25 1 26
REMARK H PARENT
REMARK Flexibility Score: inf
ROOT
ATOM      1  C   UNL     1       2.329  64.802  -5.828  1.00  0.00     0.000 C 
ENDROOT
BRANCH   1   2
ATOM      2  C   UNL     1       3.336  65.948  -5.582  1.00  0.00     0.000 C 
BRANCH   2   3
ATOM      3  C   UNL     1       2.762  67.147  -4.798  1.00  0.00     0.000 C 
BRANCH   3   4
ATOM      4  C   UNL     1       1.618  67.907  -5.498  1.00  0.00     0.000 C 
BRANCH   4   5
ATOM      5  C   UNL     1       0.372  68.077  -4.616  1.00  0.00     0.000 C 
BRANCH   5   6
ATOM      6  C   UNL     1      -0.857  68.434  -5.467  1.00  0.00     0.000 C 
BRANCH   6   7
ATOM      7  C   UNL     1      -1.510  69.758  -5.036  1.00  0.00     0.000 C 
BRANCH   7   8
ATOM      8  C   UNL     1      -2.593  70.231  -6.017  1.00  0.00     0.000 C 
BRANCH   8   9
ATOM      9  C   UNL     1      -3.709  69.183  -6.144  1.00  0.00     0.000 C 
BRANCH   9  10
ATOM     10  C   UNL     1      -5.088  69.813  -6.415  1.00  0.00     0.006 C 
BRANCH  10  11
ATOM     11  C   UNL     1      -5.041  71.083  -7.280  1.00  0.00     0.053 C 
BRANCH  11  12
ATOM     12  C   UNL     1      -5.096  72.327  -6.449  1.00  0.00     0.041 C 
ATOM     13  O   UNL     1      -5.075  73.460  -7.000  1.00  0.00    -0.550 OA
ATOM     14  O   UNL     1      -5.125  72.237  -5.063  1.00  0.00    -0.550 OA
ENDBRANCH  11  12
ENDBRANCH  10  11
ENDBRANCH   9  10
ENDBRANCH   8   9
ENDBRANCH   7   8
ENDBRANCH   6   7
ENDBRANCH   5   6
ENDBRANCH   4   5
ENDBRANCH   3   4
ENDBRANCH   2   3
ENDBRANCH   1   2
BRANCH   1  15
ATOM     15  C   UNL     1       2.698  63.890  -7.014  1.00  0.00     0.000 C 
BRANCH  15  16
ATOM     16  C   UNL     1       2.736  62.386  -6.690  1.00  0.00     0.000 C 
BRANCH  16  17
ATOM     17  C   UNL     1       3.793  61.627  -7.510  1.00  0.00     0.000 C 
BRANCH  17  18
ATOM     18  C   UNL     1       3.515  60.115  -7.587  1.00  0.00    -0.000 C 
BRANCH  18  19
ATOM     19  C   UNL     1       2.521  59.573  -6.539  1.00  0.00    -0.000 C 
BRANCH  19  20
ATOM     20  C   UNL     1       1.119  59.234  -7.080  1.00  0.00    -0.000 C 
BRANCH  20  21
ATOM     21  C   UNL     1       0.104  58.937  -5.965  1.00  0.00    -0.000 C 
BRANCH  21  22
ATOM     22  C   UNL     1      -0.485  60.238  -5.401  1.00  0.00    -0.000 C 
BRANCH  22  23
ATOM     23  C   UNL     1      -1.162  60.044  -4.032  1.00  0.00    -0.000 C 
BRANCH  23  24
ATOM     24  C   UNL     1      -2.369  59.083  -4.028  1.00  0.00    -0.000 C 
BRANCH  24  25
ATOM     25  C   UNL     1      -3.744  59.769  -4.071  1.00  0.00    -0.003 C 
ATOM     26  C   UNL     1      -3.764  61.005  -4.971  1.00  0.00     0.004 C 
ENDBRANCH  24  25
ENDBRANCH  23  24
ENDBRANCH  22  23
ENDBRANCH  21  22
ENDBRANCH  20  21
ENDBRANCH  19  20
ENDBRANCH  18  19
ENDBRANCH  17  18
ENDBRANCH  16  17
ENDBRANCH  15  16
ENDBRANCH   1  15
TORSDOF 22
ENDMDL
