MODEL 1
REMARK VINA RESULT:    68.853      0.000      0.000
REMARK INTER + INTRA:          89.970
REMARK INTER:                  90.991
REMARK INTRA:                  -1.021
REMARK UNBOUND:                -1.021
REMARK SMILES CC[C@H](C=C[C@@H](C)[C@@H]1CC[C@@H]2C3=CC[C@H]4C[C@H](O)CC[C@]4(C)[C@H]3CC[C@@]21C)C(C)C
REMARK SMILES IDX 6 1 7 2 5 3 4 4 3 5 2 6 1 7 28 8 29 9 30 10 8 11 9 12 26 13
REMARK SMILES IDX 10 14 11 15 25 16 27 17 12 18 24 19 23 20 13 21 21 22 14 23
REMARK SMILES IDX 15 24 20 25 22 26 16 27 19 28 17 29 18 30
REMARK H PARENT 18 31
REMARK Flexibility Score: inf
ROOT
ATOM      1  C   UNL     1      36.868 -24.644   2.570  1.00  0.00     0.012 C 
ATOM      2  C   UNL     1      35.492 -23.973   2.490  1.00  0.00     0.012 C 
ENDROOT
BRANCH   1   3
ATOM      3  C   UNL     1      37.899 -23.637   3.066  1.00  0.00    -0.028 C 
ATOM      4  C   UNL     1      38.309 -23.470   4.343  1.00  0.00    -0.027 C 
BRANCH   4   5
ATOM      5  C   UNL     1      37.838 -24.255   5.561  1.00  0.00     0.014 C 
BRANCH   5   6
ATOM      6  C   UNL     1      39.080 -24.741   6.357  1.00  0.00     0.004 C 
ATOM      7  C   UNL     1      39.124 -26.257   6.555  1.00  0.00     0.004 C 
ENDBRANCH   5   6
BRANCH   5   8
ATOM      8  C   UNL     1      36.923 -23.361   6.464  1.00  0.00    -0.011 C 
ATOM      9  C   UNL     1      35.517 -23.958   6.666  1.00  0.00     0.008 C 
ATOM     10  C   UNL     1      37.546 -23.105   7.850  1.00  0.00     0.008 C 
ENDBRANCH   5   8
ENDBRANCH   4   5
ENDBRANCH   1   3
BRANCH   1  11
ATOM     11  C   UNL     1      37.248 -25.407   1.255  1.00  0.00     0.002 C 
ATOM     12  C   UNL     1      36.839 -24.647  -0.011  1.00  0.00     0.005 C 
ATOM     13  C   UNL     1      36.799 -26.883   1.005  1.00  0.00    -0.023 C 
ATOM     14  C   UNL     1      36.807 -25.665  -1.146  1.00  0.00     0.009 C 
ATOM     15  C   UNL     1      37.073 -27.036  -0.514  1.00  0.00     0.021 C 
ATOM     16  C   UNL     1      35.293 -27.102   1.324  1.00  0.00     0.008 C 
ATOM     17  C   UNL     1      37.676 -27.901   1.783  1.00  0.00     0.012 C 
ATOM     18  C   UNL     1      36.298 -28.143  -1.214  1.00  0.00    -0.067 C 
ATOM     19  C   UNL     1      34.749 -28.410   0.749  1.00  0.00     0.009 C 
ATOM     20  C   UNL     1      34.860 -28.435  -0.790  1.00  0.00     0.021 C 
ATOM     21  C   UNL     1      36.816 -28.653  -2.356  1.00  0.00    -0.027 C 
ATOM     22  C   UNL     1      34.271 -29.744  -1.443  1.00  0.00    -0.023 C 
ATOM     23  C   UNL     1      36.114 -29.675  -3.208  1.00  0.00     0.031 C 
ATOM     24  C   UNL     1      34.597 -29.678  -2.970  1.00  0.00     0.002 C 
ATOM     25  C   UNL     1      32.722 -29.765  -1.274  1.00  0.00     0.010 C 
ATOM     26  C   UNL     1      34.885 -31.011  -0.775  1.00  0.00     0.012 C 
ATOM     27  C   UNL     1      33.920 -30.792  -3.799  1.00  0.00     0.036 C 
ATOM     28  C   UNL     1      32.043 -30.895  -2.065  1.00  0.00     0.032 C 
ATOM     29  C   UNL     1      32.400 -30.874  -3.561  1.00  0.00     0.114 C 
BRANCH  29  30
ATOM     30  O   UNL     1      31.709 -29.856  -4.245  1.00  0.00    -0.393 OA
ATOM     31  H   UNL     1      32.166 -28.995  -4.073  1.00  0.00     0.210 HD
ENDBRANCH  29  30
ENDBRANCH   1  11
TORSDOF 6
ENDMDL
MODEL 2
REMARK VINA RESULT:    70.743      6.310     10.437
REMARK INTER + INTRA:          92.467
REMARK INTER:                  92.754
REMARK INTRA:                  -0.286
REMARK UNBOUND:                -1.021
REMARK SMILES CC[C@H](C=C[C@@H](C)[C@@H]1CC[C@@H]2C3=CC[C@H]4C[C@H](O)CC[C@]4(C)[C@H]3CC[C@@]21C)C(C)C
REMARK SMILES IDX 6 1 7 2 5 3 4 4 3 5 2 6 1 7 28 8 29 9 30 10 8 11 9 12 26 13
REMARK SMILES IDX 10 14 11 15 25 16 27 17 12 18 24 19 23 20 13 21 21 22 14 23
REMARK SMILES IDX 15 24 20 25 22 26 16 27 19 28 17 29 18 30
REMARK H PARENT 18 31
REMARK Flexibility Score: inf
ROOT
ATOM      1  C   UNL     1      29.656 -24.517   5.745  1.00  0.00     0.012 C 
ATOM      2  C   UNL     1      29.958 -23.271   4.904  1.00  0.00     0.012 C 
ENDROOT
BRANCH   1   3
ATOM      3  C   UNL     1      28.509 -24.221   6.703  1.00  0.00    -0.028 C 
ATOM      4  C   UNL     1      27.590 -25.104   7.153  1.00  0.00    -0.027 C 
BRANCH   4   5
ATOM      5  C   UNL     1      27.505 -26.585   6.808  1.00  0.00     0.014 C 
BRANCH   5   6
ATOM      6  C   UNL     1      27.485 -27.408   8.125  1.00  0.00     0.004 C 
ATOM      7  C   UNL     1      28.064 -28.815   7.976  1.00  0.00     0.004 C 
ENDBRANCH   5   6
BRANCH   5   8
ATOM      8  C   UNL     1      26.220 -26.874   5.960  1.00  0.00    -0.011 C 
ATOM      9  C   UNL     1      25.597 -25.598   5.365  1.00  0.00     0.008 C 
ATOM     10  C   UNL     1      26.494 -27.864   4.810  1.00  0.00     0.008 C 
ENDBRANCH   5   8
ENDBRANCH   4   5
ENDBRANCH   1   3
BRANCH   1  11
ATOM     11  C   UNL     1      30.942 -25.131   6.400  1.00  0.00     0.002 C 
ATOM     12  C   UNL     1      31.201 -24.595   7.812  1.00  0.00     0.005 C 
ATOM     13  C   UNL     1      32.330 -25.080   5.685  1.00  0.00    -0.023 C 
ATOM     14  C   UNL     1      32.669 -24.869   8.124  1.00  0.00     0.009 C 
ATOM     15  C   UNL     1      33.289 -25.446   6.848  1.00  0.00     0.021 C 
ATOM     16  C   UNL     1      32.651 -23.667   5.122  1.00  0.00     0.008 C 
ATOM     17  C   UNL     1      32.453 -26.153   4.570  1.00  0.00     0.012 C 
ATOM     18  C   UNL     1      34.735 -25.006   6.671  1.00  0.00    -0.067 C 
ATOM     19  C   UNL     1      34.125 -23.495   4.755  1.00  0.00     0.009 C 
ATOM     20  C   UNL     1      35.035 -23.672   5.989  1.00  0.00     0.021 C 
ATOM     21  C   UNL     1      35.690 -25.682   7.351  1.00  0.00    -0.027 C 
ATOM     22  C   UNL     1      36.566 -23.461   5.679  1.00  0.00    -0.023 C 
ATOM     23  C   UNL     1      37.144 -25.297   7.354  1.00  0.00     0.031 C 
ATOM     24  C   UNL     1      37.350 -23.822   6.981  1.00  0.00     0.002 C 
ATOM     25  C   UNL     1      36.833 -21.961   5.347  1.00  0.00     0.010 C 
ATOM     26  C   UNL     1      37.007 -24.347   4.475  1.00  0.00     0.012 C 
ATOM     27  C   UNL     1      38.855 -23.483   6.915  1.00  0.00     0.036 C 
ATOM     28  C   UNL     1      38.329 -21.623   5.241  1.00  0.00     0.032 C 
ATOM     29  C   UNL     1      39.123 -22.025   6.496  1.00  0.00     0.114 C 
BRANCH  29  30
ATOM     30  O   UNL     1      38.901 -21.127   7.558  1.00  0.00    -0.393 OA
ATOM     31  H   UNL     1      38.064 -21.387   8.021  1.00  0.00     0.210 HD
ENDBRANCH  29  30
ENDBRANCH   1  11
TORSDOF 6
ENDMDL
