MODEL 1
REMARK VINA RESULT:    -5.290      0.000      0.000
REMARK INTER + INTRA:         -11.094
REMARK INTER:                  -9.000
REMARK INTRA:                  -2.093
REMARK UNBOUND:                -2.093
REMARK SMILES CCCCCCCCCCCCCC(=O)[O-]
REMARK SMILES IDX 8 1 9 2 10 3 11 4 12 5 13 6 14 7 15 8 16 9 7 10 6 11 5 12
REMARK SMILES IDX 4 13 3 14 2 15 1 16
REMARK H PARENT
REMARK Flexibility Score: inf
ROOT
ATOM      1  C   UNL     1      21.289  16.023   1.323  1.00  0.00     0.000 C 
ENDROOT
BRANCH   1   2
ATOM      2  C   UNL     1      22.717  15.652   0.892  1.00  0.00     0.000 C 
BRANCH   2   3
ATOM      3  C   UNL     1      22.780  14.302   0.158  1.00  0.00     0.000 C 
BRANCH   3   4
ATOM      4  C   UNL     1      23.594  13.242   0.924  1.00  0.00     0.000 C 
BRANCH   4   5
ATOM      5  C   UNL     1      22.756  12.117   1.557  1.00  0.00     0.006 C 
BRANCH   5   6
ATOM      6  C   UNL     1      21.825  12.617   2.669  1.00  0.00     0.053 C 
BRANCH   6   7
ATOM      7  C   UNL     1      22.619  13.077   3.849  1.00  0.00     0.041 C 
ATOM      8  O   UNL     1      22.602  14.289   4.190  1.00  0.00    -0.550 OA
ATOM      9  O   UNL     1      23.418  12.177   4.544  1.00  0.00    -0.550 OA
ENDBRANCH   6   7
ENDBRANCH   5   6
ENDBRANCH   4   5
ENDBRANCH   3   4
ENDBRANCH   2   3
ENDBRANCH   1   2
BRANCH   1  10
ATOM     10  C   UNL     1      20.255  15.771   0.215  1.00  0.00     0.000 C 
BRANCH  10  11
ATOM     11  C   UNL     1      19.277  14.658   0.620  1.00  0.00    -0.000 C 
BRANCH  11  12
ATOM     12  C   UNL     1      18.950  13.711  -0.544  1.00  0.00    -0.000 C 
BRANCH  12  13
ATOM     13  C   UNL     1      19.471  12.282  -0.309  1.00  0.00    -0.000 C 
BRANCH  13  14
ATOM     14  C   UNL     1      20.513  11.860  -1.365  1.00  0.00    -0.000 C 
BRANCH  14  15
ATOM     15  C   UNL     1      20.554  12.786  -2.592  1.00  0.00    -0.003 C 
ATOM     16  C   UNL     1      21.939  12.875  -3.230  1.00  0.00     0.004 C 
ENDBRANCH  14  15
ENDBRANCH  13  14
ENDBRANCH  12  13
ENDBRANCH  11  12
ENDBRANCH  10  11
ENDBRANCH   1  10
TORSDOF 12
ENDMDL
MODEL 2
REMARK VINA RESULT:    -5.219      1.327      2.686
REMARK INTER + INTRA:         -10.973
REMARK INTER:                  -9.173
REMARK INTRA:                  -1.800
REMARK UNBOUND:                -2.093
REMARK SMILES CCCCCCCCCCCCCC(=O)[O-]
REMARK SMILES IDX 8 1 9 2 10 3 11 4 12 5 13 6 14 7 15 8 16 9 7 10 6 11 5 12
REMARK SMILES IDX 4 13 3 14 2 15 1 16
REMARK H PARENT
REMARK Flexibility Score: inf
ROOT
ATOM      1  C   UNL     1      19.561  14.379  -0.411  1.00  0.00     0.000 C 
ENDROOT
BRANCH   1   2
ATOM      2  C   UNL     1      19.888  15.310   0.767  1.00  0.00     0.000 C 
BRANCH   2   3
ATOM      3  C   UNL     1      21.162  16.138   0.531  1.00  0.00     0.000 C 
BRANCH   3   4
ATOM      4  C   UNL     1      22.252  15.873   1.587  1.00  0.00     0.000 C 
BRANCH   4   5
ATOM      5  C   UNL     1      21.742  15.254   2.901  1.00  0.00     0.006 C 
BRANCH   5   6
ATOM      6  C   UNL     1      22.877  14.836   3.845  1.00  0.00     0.053 C 
BRANCH   6   7
ATOM      7  C   UNL     1      23.355  13.458   3.509  1.00  0.00     0.041 C 
ATOM      8  O   UNL     1      24.366  13.300   2.777  1.00  0.00    -0.550 OA
ATOM      9  O   UNL     1      22.653  12.349   3.965  1.00  0.00    -0.550 OA
ENDBRANCH   6   7
ENDBRANCH   5   6
ENDBRANCH   4   5
ENDBRANCH   3   4
ENDBRANCH   2   3
ENDBRANCH   1   2
BRANCH   1  10
ATOM     10  C   UNL     1      19.140  12.974   0.047  1.00  0.00     0.000 C 
BRANCH  10  11
ATOM     11  C   UNL     1      20.226  11.940  -0.286  1.00  0.00    -0.000 C 
BRANCH  11  12
ATOM     12  C   UNL     1      21.436  12.035   0.656  1.00  0.00    -0.000 C 
BRANCH  12  13
ATOM     13  C   UNL     1      22.775  12.065  -0.102  1.00  0.00    -0.000 C 
BRANCH  13  14
ATOM     14  C   UNL     1      22.893  13.294  -1.028  1.00  0.00    -0.000 C 
BRANCH  14  15
ATOM     15  C   UNL     1      23.335  12.946  -2.459  1.00  0.00    -0.003 C 
ATOM     16  C   UNL     1      22.165  12.784  -3.425  1.00  0.00     0.004 C 
ENDBRANCH  14  15
ENDBRANCH  13  14
ENDBRANCH  12  13
ENDBRANCH  11  12
ENDBRANCH  10  11
ENDBRANCH   1  10
TORSDOF 12
ENDMDL
MODEL 3
REMARK VINA RESULT:    -5.157      2.060      4.446
REMARK INTER + INTRA:         -10.868
REMARK INTER:                  -8.785
REMARK INTRA:                  -2.083
REMARK UNBOUND:                -2.093
REMARK SMILES CCCCCCCCCCCCCC(=O)[O-]
REMARK SMILES IDX 8 1 9 2 10 3 11 4 12 5 13 6 14 7 15 8 16 9 7 10 6 11 5 12
REMARK SMILES IDX 4 13 3 14 2 15 1 16
REMARK H PARENT
REMARK Flexibility Score: inf
ROOT
ATOM      1  C   UNL     1      20.284  12.247  -3.095  1.00  0.00     0.000 C 
ENDROOT
BRANCH   1   2
ATOM      2  C   UNL     1      20.016  13.372  -2.082  1.00  0.00     0.000 C 
BRANCH   2   3
ATOM      3  C   UNL     1      18.927  13.001  -1.061  1.00  0.00     0.000 C 
BRANCH   3   4
ATOM      4  C   UNL     1      19.201  13.576   0.341  1.00  0.00     0.000 C 
BRANCH   4   5
ATOM      5  C   UNL     1      20.146  14.790   0.369  1.00  0.00     0.006 C 
BRANCH   5   6
ATOM      6  C   UNL     1      20.966  14.882   1.663  1.00  0.00     0.053 C 
BRANCH   6   7
ATOM      7  C   UNL     1      21.791  16.129   1.672  1.00  0.00     0.041 C 
ATOM      8  O   UNL     1      21.837  16.850   2.703  1.00  0.00    -0.550 OA
ATOM      9  O   UNL     1      22.471  16.521   0.525  1.00  0.00    -0.550 OA
ENDBRANCH   6   7
ENDBRANCH   5   6
ENDBRANCH   4   5
ENDBRANCH   3   4
ENDBRANCH   2   3
ENDBRANCH   1   2
BRANCH   1  10
ATOM     10  C   UNL     1      21.764  12.157  -3.496  1.00  0.00     0.000 C 
BRANCH  10  11
ATOM     11  C   UNL     1      22.551  13.365  -2.964  1.00  0.00    -0.000 C 
BRANCH  11  12
ATOM     12  C   UNL     1      23.684  12.954  -2.011  1.00  0.00    -0.000 C 
BRANCH  12  13
ATOM     13  C   UNL     1      23.390  13.326  -0.547  1.00  0.00    -0.000 C 
BRANCH  13  14
ATOM     14  C   UNL     1      23.574  12.126   0.407  1.00  0.00    -0.000 C 
BRANCH  14  15
ATOM     15  C   UNL     1      22.254  11.440   0.793  1.00  0.00    -0.003 C 
ATOM     16  C   UNL     1      21.820  10.370  -0.207  1.00  0.00     0.004 C 
ENDBRANCH  14  15
ENDBRANCH  13  14
ENDBRANCH  12  13
ENDBRANCH  11  12
ENDBRANCH  10  11
ENDBRANCH   1  10
TORSDOF 12
ENDMDL
MODEL 4
REMARK VINA RESULT:    -5.144      1.356      3.064
REMARK INTER + INTRA:         -10.846
REMARK INTER:                  -9.062
REMARK INTRA:                  -1.784
REMARK UNBOUND:                -2.093
REMARK SMILES CCCCCCCCCCCCCC(=O)[O-]
REMARK SMILES IDX 8 1 9 2 10 3 11 4 12 5 13 6 14 7 15 8 16 9 7 10 6 11 5 12
REMARK SMILES IDX 4 13 3 14 2 15 1 16
REMARK H PARENT
REMARK Flexibility Score: inf
ROOT
ATOM      1  C   UNL     1      23.315  13.440   0.143  1.00  0.00     0.000 C 
ENDROOT
BRANCH   1   2
ATOM      2  C   UNL     1      22.527  14.750  -0.013  1.00  0.00     0.000 C 
BRANCH   2   3
ATOM      3  C   UNL     1      21.518  14.972   1.126  1.00  0.00     0.000 C 
BRANCH   3   4
ATOM      4  C   UNL     1      22.036  15.945   2.202  1.00  0.00     0.000 C 
BRANCH   4   5
ATOM      5  C   UNL     1      22.122  15.355   3.621  1.00  0.00     0.006 C 
BRANCH   5   6
ATOM      6  C   UNL     1      23.248  14.323   3.772  1.00  0.00     0.053 C 
BRANCH   6   7
ATOM      7  C   UNL     1      22.692  13.002   4.201  1.00  0.00     0.041 C 
ATOM      8  O   UNL     1      21.987  12.325   3.409  1.00  0.00    -0.550 OA
ATOM      9  O   UNL     1      22.912  12.543   5.494  1.00  0.00    -0.550 OA
ENDBRANCH   6   7
ENDBRANCH   5   6
ENDBRANCH   4   5
ENDBRANCH   3   4
ENDBRANCH   2   3
ENDBRANCH   1   2
BRANCH   1  10
ATOM     10  C   UNL     1      23.431  12.662  -1.177  1.00  0.00     0.000 C 
BRANCH  10  11
ATOM     11  C   UNL     1      22.863  13.479  -2.346  1.00  0.00    -0.000 C 
BRANCH  11  12
ATOM     12  C   UNL     1      22.164  12.598  -3.394  1.00  0.00    -0.000 C 
BRANCH  12  13
ATOM     13  C   UNL     1      20.794  12.085  -2.917  1.00  0.00    -0.000 C 
BRANCH  13  14
ATOM     14  C   UNL     1      19.861  13.234  -2.482  1.00  0.00    -0.000 C 
BRANCH  14  15
ATOM     15  C   UNL     1      19.240  13.028  -1.091  1.00  0.00    -0.003 C 
ATOM     16  C   UNL     1      19.864  11.866  -0.321  1.00  0.00     0.004 C 
ENDBRANCH  14  15
ENDBRANCH  13  14
ENDBRANCH  12  13
ENDBRANCH  11  12
ENDBRANCH  10  11
ENDBRANCH   1  10
TORSDOF 12
ENDMDL
MODEL 5
REMARK VINA RESULT:    -5.086      2.898      4.590
REMARK INTER + INTRA:         -10.747
REMARK INTER:                  -8.606
REMARK INTRA:                  -2.141
REMARK UNBOUND:                -2.093
REMARK SMILES CCCCCCCCCCCCCC(=O)[O-]
REMARK SMILES IDX 8 1 9 2 10 3 11 4 12 5 13 6 14 7 15 8 16 9 7 10 6 11 5 12
REMARK SMILES IDX 4 13 3 14 2 15 1 16
REMARK H PARENT
REMARK Flexibility Score: inf
ROOT
ATOM      1  C   UNL     1      22.417  13.291   3.684  1.00  0.00     0.000 C 
ENDROOT
BRANCH   1   2
ATOM      2  C   UNL     1      22.999  12.585   2.449  1.00  0.00     0.000 C 
BRANCH   2   3
ATOM      3  C   UNL     1      24.272  13.270   1.922  1.00  0.00     0.000 C 
BRANCH   3   4
ATOM      4  C   UNL     1      24.366  13.256   0.385  1.00  0.00     0.000 C 
BRANCH   4   5
ATOM      5  C   UNL     1      23.248  12.472  -0.325  1.00  0.00     0.006 C 
BRANCH   5   6
ATOM      6  C   UNL     1      22.952  12.997  -1.736  1.00  0.00     0.053 C 
BRANCH   6   7
ATOM      7  C   UNL     1      22.019  12.072  -2.452  1.00  0.00     0.041 C 
ATOM      8  O   UNL     1      21.749  10.943  -1.966  1.00  0.00    -0.550 OA
ATOM      9  O   UNL     1      21.488  12.438  -3.684  1.00  0.00    -0.550 OA
ENDBRANCH   6   7
ENDBRANCH   5   6
ENDBRANCH   4   5
ENDBRANCH   3   4
ENDBRANCH   2   3
ENDBRANCH   1   2
BRANCH   1  10
ATOM     10  C   UNL     1      22.814  14.773   3.757  1.00  0.00     0.000 C 
BRANCH  10  11
ATOM     11  C   UNL     1      21.730  15.663   3.131  1.00  0.00    -0.000 C 
BRANCH  11  12
ATOM     12  C   UNL     1      22.206  16.352   1.844  1.00  0.00    -0.000 C 
BRANCH  12  13
ATOM     13  C   UNL     1      21.621  15.708   0.575  1.00  0.00    -0.000 C 
BRANCH  13  14
ATOM     14  C   UNL     1      20.161  15.251   0.774  1.00  0.00    -0.000 C 
BRANCH  14  15
ATOM     15  C   UNL     1      19.702  14.196  -0.246  1.00  0.00    -0.003 C 
ATOM     16  C   UNL     1      19.605  12.792   0.346  1.00  0.00     0.004 C 
ENDBRANCH  14  15
ENDBRANCH  13  14
ENDBRANCH  12  13
ENDBRANCH  11  12
ENDBRANCH  10  11
ENDBRANCH   1  10
TORSDOF 12
ENDMDL
MODEL 6
REMARK VINA RESULT:    -5.020      0.955      3.178
REMARK INTER + INTRA:         -10.636
REMARK INTER:                  -8.974
REMARK INTRA:                  -1.661
REMARK UNBOUND:                -2.093
REMARK SMILES CCCCCCCCCCCCCC(=O)[O-]
REMARK SMILES IDX 8 1 9 2 10 3 11 4 12 5 13 6 14 7 15 8 16 9 7 10 6 11 5 12
REMARK SMILES IDX 4 13 3 14 2 15 1 16
REMARK H PARENT
REMARK Flexibility Score: inf
ROOT
ATOM      1  C   UNL     1      22.097  12.618  -3.044  1.00  0.00     0.000 C 
ENDROOT
BRANCH   1   2
ATOM      2  C   UNL     1      23.229  13.229  -2.203  1.00  0.00     0.000 C 
BRANCH   2   3
ATOM      3  C   UNL     1      23.004  13.055  -0.692  1.00  0.00     0.000 C 
BRANCH   3   4
ATOM      4  C   UNL     1      24.316  12.867   0.091  1.00  0.00     0.000 C 
BRANCH   4   5
ATOM      5  C   UNL     1      24.259  13.308   1.564  1.00  0.00     0.006 C 
BRANCH   5   6
ATOM      6  C   UNL     1      23.026  12.771   2.303  1.00  0.00     0.053 C 
BRANCH   6   7
ATOM      7  C   UNL     1      22.994  13.281   3.708  1.00  0.00     0.041 C 
ATOM      8  O   UNL     1      22.867  12.479   4.670  1.00  0.00    -0.550 OA
ATOM      9  O   UNL     1      23.055  14.648   3.954  1.00  0.00    -0.550 OA
ENDBRANCH   6   7
ENDBRANCH   5   6
ENDBRANCH   4   5
ENDBRANCH   3   4
ENDBRANCH   2   3
ENDBRANCH   1   2
BRANCH   1  10
ATOM     10  C   UNL     1      20.916  12.143  -2.184  1.00  0.00     0.000 C 
BRANCH  10  11
ATOM     11  C   UNL     1      19.715  13.090  -2.330  1.00  0.00    -0.000 C 
BRANCH  11  12
ATOM     12  C   UNL     1      18.797  13.069  -1.097  1.00  0.00    -0.000 C 
BRANCH  12  13
ATOM     13  C   UNL     1      19.500  13.579   0.173  1.00  0.00    -0.000 C 
BRANCH  13  14
ATOM     14  C   UNL     1      19.945  15.050   0.042  1.00  0.00    -0.000 C 
BRANCH  14  15
ATOM     15  C   UNL     1      20.816  15.536   1.212  1.00  0.00    -0.003 C 
ATOM     16  C   UNL     1      22.090  16.244   0.757  1.00  0.00     0.004 C 
ENDBRANCH  14  15
ENDBRANCH  13  14
ENDBRANCH  12  13
ENDBRANCH  11  12
ENDBRANCH  10  11
ENDBRANCH   1  10
TORSDOF 12
ENDMDL
MODEL 7
REMARK VINA RESULT:    -5.009      1.669      3.308
REMARK INTER + INTRA:         -10.616
REMARK INTER:                  -8.604
REMARK INTRA:                  -2.012
REMARK UNBOUND:                -2.093
REMARK SMILES CCCCCCCCCCCCCC(=O)[O-]
REMARK SMILES IDX 8 1 9 2 10 3 11 4 12 5 13 6 14 7 15 8 16 9 7 10 6 11 5 12
REMARK SMILES IDX 4 13 3 14 2 15 1 16
REMARK H PARENT
REMARK Flexibility Score: inf
ROOT
ATOM      1  C   UNL     1      23.308  13.287  -1.979  1.00  0.00     0.000 C 
ENDROOT
BRANCH   1   2
ATOM      2  C   UNL     1      23.420  12.913  -0.493  1.00  0.00     0.000 C 
BRANCH   2   3
ATOM      3  C   UNL     1      22.507  11.737  -0.109  1.00  0.00     0.000 C 
BRANCH   3   4
ATOM      4  C   UNL     1      22.273  11.633   1.410  1.00  0.00     0.000 C 
BRANCH   4   5
ATOM      5  C   UNL     1      23.020  12.682   2.253  1.00  0.00     0.006 C 
BRANCH   5   6
ATOM      6  C   UNL     1      22.080  13.545   3.104  1.00  0.00     0.053 C 
BRANCH   6   7
ATOM      7  C   UNL     1      22.359  14.998   2.880  1.00  0.00     0.041 C 
ATOM      8  O   UNL     1      21.754  15.870   3.558  1.00  0.00    -0.550 OA
ATOM      9  O   UNL     1      23.250  15.390   1.889  1.00  0.00    -0.550 OA
ENDBRANCH   6   7
ENDBRANCH   5   6
ENDBRANCH   4   5
ENDBRANCH   3   4
ENDBRANCH   2   3
ENDBRANCH   1   2
BRANCH   1  10
ATOM     10  C   UNL     1      22.760  12.136  -2.837  1.00  0.00     0.000 C 
BRANCH  10  11
ATOM     11  C   UNL     1      21.557  12.599  -3.672  1.00  0.00    -0.000 C 
BRANCH  11  12
ATOM     12  C   UNL     1      20.215  12.195  -3.044  1.00  0.00    -0.000 C 
BRANCH  12  13
ATOM     13  C   UNL     1      19.617  13.303  -2.160  1.00  0.00    -0.000 C 
BRANCH  13  14
ATOM     14  C   UNL     1      19.091  12.757  -0.816  1.00  0.00    -0.000 C 
BRANCH  14  15
ATOM     15  C   UNL     1      19.249  13.743   0.353  1.00  0.00    -0.003 C 
ATOM     16  C   UNL     1      20.143  14.934   0.016  1.00  0.00     0.004 C 
ENDBRANCH  14  15
ENDBRANCH  13  14
ENDBRANCH  12  13
ENDBRANCH  11  12
ENDBRANCH  10  11
ENDBRANCH   1  10
TORSDOF 12
ENDMDL
MODEL 8
REMARK VINA RESULT:    -5.008      2.672      5.141
REMARK INTER + INTRA:         -10.615
REMARK INTER:                  -8.829
REMARK INTRA:                  -1.786
REMARK UNBOUND:                -2.093
REMARK SMILES CCCCCCCCCCCCCC(=O)[O-]
REMARK SMILES IDX 8 1 9 2 10 3 11 4 12 5 13 6 14 7 15 8 16 9 7 10 6 11 5 12
REMARK SMILES IDX 4 13 3 14 2 15 1 16
REMARK H PARENT
REMARK Flexibility Score: inf
ROOT
ATOM      1  C   UNL     1      22.518  11.586   0.867  1.00  0.00     0.000 C 
ENDROOT
BRANCH   1   2
ATOM      2  C   UNL     1      23.576  12.461   0.174  1.00  0.00     0.000 C 
BRANCH   2   3
ATOM      3  C   UNL     1      22.995  13.278  -0.992  1.00  0.00     0.000 C 
BRANCH   3   4
ATOM      4  C   UNL     1      22.800  12.441  -2.270  1.00  0.00     0.000 C 
BRANCH   4   5
ATOM      5  C   UNL     1      21.353  11.984  -2.529  1.00  0.00     0.006 C 
BRANCH   5   6
ATOM      6  C   UNL     1      20.354  13.147  -2.554  1.00  0.00     0.053 C 
BRANCH   6   7
ATOM      7  C   UNL     1      19.213  12.876  -1.625  1.00  0.00     0.041 C 
ATOM      8  O   UNL     1      18.073  13.354  -1.866  1.00  0.00    -0.550 OA
ATOM      9  O   UNL     1      19.420  12.138  -0.466  1.00  0.00    -0.550 OA
ENDBRANCH   6   7
ENDBRANCH   5   6
ENDBRANCH   4   5
ENDBRANCH   3   4
ENDBRANCH   2   3
ENDBRANCH   1   2
BRANCH   1  10
ATOM     10  C   UNL     1      22.162  12.095   2.272  1.00  0.00     0.000 C 
BRANCH  10  11
ATOM     11  C   UNL     1      23.181  13.138   2.753  1.00  0.00    -0.000 C 
BRANCH  11  12
ATOM     12  C   UNL     1      22.613  14.054   3.848  1.00  0.00    -0.000 C 
BRANCH  12  13
ATOM     13  C   UNL     1      22.182  15.427   3.307  1.00  0.00    -0.000 C 
BRANCH  13  14
ATOM     14  C   UNL     1      22.730  15.693   1.889  1.00  0.00    -0.000 C 
BRANCH  14  15
ATOM     15  C   UNL     1      21.663  16.191   0.900  1.00  0.00    -0.003 C 
ATOM     16  C   UNL     1      20.415  15.312   0.872  1.00  0.00     0.004 C 
ENDBRANCH  14  15
ENDBRANCH  13  14
ENDBRANCH  12  13
ENDBRANCH  11  12
ENDBRANCH  10  11
ENDBRANCH   1  10
TORSDOF 12
ENDMDL
MODEL 9
REMARK VINA RESULT:    -5.002      1.398      2.673
REMARK INTER + INTRA:         -10.605
REMARK INTER:                  -9.055
REMARK INTRA:                  -1.550
REMARK UNBOUND:                -2.093
REMARK SMILES CCCCCCCCCCCCCC(=O)[O-]
REMARK SMILES IDX 8 1 9 2 10 3 11 4 12 5 13 6 14 7 15 8 16 9 7 10 6 11 5 12
REMARK SMILES IDX 4 13 3 14 2 15 1 16
REMARK H PARENT
REMARK Flexibility Score: inf
ROOT
ATOM      1  C   UNL     1      20.343  13.352   0.797  1.00  0.00     0.000 C 
ENDROOT
BRANCH   1   2
ATOM      2  C   UNL     1      20.352  14.876   0.596  1.00  0.00     0.000 C 
BRANCH   2   3
ATOM      3  C   UNL     1      21.772  15.465   0.604  1.00  0.00     0.000 C 
BRANCH   3   4
ATOM      4  C   UNL     1      22.099  16.220   1.907  1.00  0.00     0.000 C 
BRANCH   4   5
ATOM      5  C   UNL     1      21.787  15.444   3.199  1.00  0.00     0.006 C 
BRANCH   5   6
ATOM      6  C   UNL     1      23.042  14.879   3.876  1.00  0.00     0.053 C 
BRANCH   6   7
ATOM      7  C   UNL     1      23.329  13.498   3.376  1.00  0.00     0.041 C 
ATOM      8  O   UNL     1      24.356  13.276   2.684  1.00  0.00    -0.550 OA
ATOM      9  O   UNL     1      22.434  12.466   3.634  1.00  0.00    -0.550 OA
ENDBRANCH   6   7
ENDBRANCH   5   6
ENDBRANCH   4   5
ENDBRANCH   3   4
ENDBRANCH   2   3
ENDBRANCH   1   2
BRANCH   1  10
ATOM     10  C   UNL     1      19.537  12.620  -0.288  1.00  0.00     0.000 C 
BRANCH  10  11
ATOM     11  C   UNL     1      19.373  13.500  -1.536  1.00  0.00    -0.000 C 
BRANCH  11  12
ATOM     12  C   UNL     1      20.008  12.871  -2.786  1.00  0.00    -0.000 C 
BRANCH  12  13
ATOM     13  C   UNL     1      21.057  11.799  -2.442  1.00  0.00    -0.000 C 
BRANCH  13  14
ATOM     14  C   UNL     1      22.461  12.168  -2.965  1.00  0.00    -0.000 C 
BRANCH  14  15
ATOM     15  C   UNL     1      23.144  13.284  -2.159  1.00  0.00    -0.003 C 
ATOM     16  C   UNL     1      23.578  12.838  -0.764  1.00  0.00     0.004 C 
ENDBRANCH  14  15
ENDBRANCH  13  14
ENDBRANCH  12  13
ENDBRANCH  11  12
ENDBRANCH  10  11
ENDBRANCH   1  10
TORSDOF 12
ENDMDL
