MODEL 1
REMARK VINA RESULT:    -3.482      0.000      0.000
REMARK INTER + INTRA:          -8.053
REMARK INTER:                  -6.333
REMARK INTRA:                  -1.720
REMARK UNBOUND:                -1.720
REMARK SMILES CCCCCCCCCCCCCCCC(=O)[O-]
REMARK SMILES IDX 9 1 10 2 11 3 12 4 13 5 14 6 15 7 16 8 17 9 18 10 8 11 7 12
REMARK SMILES IDX 6 13 5 14 4 15 3 16 2 17 1 18
REMARK H PARENT
REMARK Flexibility Score: inf
ROOT
ATOM      1  C   UNL     1      57.852  28.872  50.437  1.00  0.00     0.000 C 
ENDROOT
BRANCH   1   2
ATOM      2  C   UNL     1      59.167  29.028  49.660  1.00  0.00     0.000 C 
BRANCH   2   3
ATOM      3  C   UNL     1      59.918  27.690  49.577  1.00  0.00     0.000 C 
BRANCH   3   4
ATOM      4  C   UNL     1      61.392  27.814  49.994  1.00  0.00     0.000 C 
BRANCH   4   5
ATOM      5  C   UNL     1      61.963  26.495  50.543  1.00  0.00     0.000 C 
BRANCH   5   6
ATOM      6  C   UNL     1      60.878  25.590  51.149  1.00  0.00     0.006 C 
BRANCH   6   7
ATOM      7  C   UNL     1      61.451  24.292  51.733  1.00  0.00     0.053 C 
BRANCH   7   8
ATOM      8  C   UNL     1      60.887  23.105  51.019  1.00  0.00     0.041 C 
ATOM      9  O   UNL     1      61.165  22.901  49.809  1.00  0.00    -0.550 OA
ATOM     10  O   UNL     1      60.014  22.248  51.680  1.00  0.00    -0.550 OA
ENDBRANCH   7   8
ENDBRANCH   6   7
ENDBRANCH   5   6
ENDBRANCH   4   5
ENDBRANCH   3   4
ENDBRANCH   2   3
ENDBRANCH   1   2
BRANCH   1  11
ATOM     11  C   UNL     1      58.015  28.057  51.732  1.00  0.00     0.000 C 
BRANCH  11  12
ATOM     12  C   UNL     1      57.202  26.748  51.784  1.00  0.00    -0.000 C 
BRANCH  12  13
ATOM     13  C   UNL     1      56.567  26.318  50.446  1.00  0.00    -0.000 C 
BRANCH  13  14
ATOM     14  C   UNL     1      55.081  25.924  50.524  1.00  0.00    -0.000 C 
BRANCH  14  15
ATOM     15  C   UNL     1      54.145  27.007  49.963  1.00  0.00    -0.000 C 
BRANCH  15  16
ATOM     16  C   UNL     1      53.729  28.036  51.027  1.00  0.00    -0.000 C 
BRANCH  16  17
ATOM     17  C   UNL     1      54.305  29.434  50.755  1.00  0.00    -0.003 C 
ATOM     18  C   UNL     1      54.320  30.277  52.027  1.00  0.00     0.004 C 
ENDBRANCH  16  17
ENDBRANCH  15  16
ENDBRANCH  14  15
ENDBRANCH  13  14
ENDBRANCH  12  13
ENDBRANCH  11  12
ENDBRANCH   1  11
TORSDOF 14
ENDMDL
MODEL 2
REMARK VINA RESULT:    -3.478     11.240     12.556
REMARK INTER + INTRA:          -8.045
REMARK INTER:                  -6.098
REMARK INTRA:                  -1.947
REMARK UNBOUND:                -1.720
REMARK SMILES CCCCCCCCCCCCCCCC(=O)[O-]
REMARK SMILES IDX 9 1 10 2 11 3 12 4 13 5 14 6 15 7 16 8 17 9 18 10 8 11 7 12
REMARK SMILES IDX 6 13 5 14 4 15 3 16 2 17 1 18
REMARK H PARENT
REMARK Flexibility Score: inf
ROOT
ATOM      1  C   UNL     1      61.557  31.799  59.460  1.00  0.00     0.000 C 
ENDROOT
BRANCH   1   2
ATOM      2  C   UNL     1      60.957  31.883  60.871  1.00  0.00     0.000 C 
BRANCH   2   3
ATOM      3  C   UNL     1      60.856  30.488  61.508  1.00  0.00     0.000 C 
BRANCH   3   4
ATOM      4  C   UNL     1      62.218  29.779  61.596  1.00  0.00     0.000 C 
BRANCH   4   5
ATOM      5  C   UNL     1      62.135  28.292  61.209  1.00  0.00     0.000 C 
BRANCH   5   6
ATOM      6  C   UNL     1      63.196  27.893  60.171  1.00  0.00     0.006 C 
BRANCH   6   7
ATOM      7  C   UNL     1      64.014  29.092  59.673  1.00  0.00     0.053 C 
BRANCH   7   8
ATOM      8  C   UNL     1      65.445  28.954  60.085  1.00  0.00     0.041 C 
ATOM      9  O   UNL     1      66.290  29.820  59.739  1.00  0.00    -0.550 OA
ATOM     10  O   UNL     1      65.853  27.845  60.815  1.00  0.00    -0.550 OA
ENDBRANCH   7   8
ENDBRANCH   6   7
ENDBRANCH   5   6
ENDBRANCH   4   5
ENDBRANCH   3   4
ENDBRANCH   2   3
ENDBRANCH   1   2
BRANCH   1  11
ATOM     11  C   UNL     1      62.766  32.731  59.268  1.00  0.00     0.000 C 
BRANCH  11  12
ATOM     12  C   UNL     1      63.643  32.925  60.521  1.00  0.00    -0.000 C 
BRANCH  12  13
ATOM     13  C   UNL     1      64.494  34.210  60.534  1.00  0.00    -0.000 C 
BRANCH  13  14
ATOM     14  C   UNL     1      63.751  35.490  60.111  1.00  0.00    -0.000 C 
BRANCH  14  15
ATOM     15  C   UNL     1      62.971  36.137  61.268  1.00  0.00    -0.000 C 
BRANCH  15  16
ATOM     16  C   UNL     1      61.585  36.641  60.836  1.00  0.00    -0.000 C 
BRANCH  16  17
ATOM     17  C   UNL     1      60.630  35.498  60.459  1.00  0.00    -0.003 C 
ATOM     18  C   UNL     1      60.181  35.616  59.006  1.00  0.00     0.004 C 
ENDBRANCH  16  17
ENDBRANCH  15  16
ENDBRANCH  14  15
ENDBRANCH  13  14
ENDBRANCH  12  13
ENDBRANCH  11  12
ENDBRANCH   1  11
TORSDOF 14
ENDMDL
MODEL 3
REMARK VINA RESULT:    -3.471     11.810     13.622
REMARK INTER + INTRA:          -8.032
REMARK INTER:                  -5.879
REMARK INTRA:                  -2.153
REMARK UNBOUND:                -1.720
REMARK SMILES CCCCCCCCCCCCCCCC(=O)[O-]
REMARK SMILES IDX 9 1 10 2 11 3 12 4 13 5 14 6 15 7 16 8 17 9 18 10 8 11 7 12
REMARK SMILES IDX 6 13 5 14 4 15 3 16 2 17 1 18
REMARK H PARENT
REMARK Flexibility Score: inf
ROOT
ATOM      1  C   UNL     1      61.901  32.805  59.058  1.00  0.00     0.000 C 
ENDROOT
BRANCH   1   2
ATOM      2  C   UNL     1      63.424  32.783  58.865  1.00  0.00     0.000 C 
BRANCH   2   3
ATOM      3  C   UNL     1      64.148  33.087  60.185  1.00  0.00     0.000 C 
BRANCH   3   4
ATOM      4  C   UNL     1      64.570  34.561  60.301  1.00  0.00     0.000 C 
BRANCH   4   5
ATOM      5  C   UNL     1      63.844  35.294  61.442  1.00  0.00     0.000 C 
BRANCH   5   6
ATOM      6  C   UNL     1      63.010  36.484  60.941  1.00  0.00     0.006 C 
BRANCH   6   7
ATOM      7  C   UNL     1      61.507  36.180  60.912  1.00  0.00     0.053 C 
BRANCH   7   8
ATOM      8  C   UNL     1      60.988  36.250  59.511  1.00  0.00     0.041 C 
ATOM      9  O   UNL     1      59.751  36.184  59.288  1.00  0.00    -0.550 OA
ATOM     10  O   UNL     1      61.876  36.341  58.446  1.00  0.00    -0.550 OA
ENDBRANCH   7   8
ENDBRANCH   6   7
ENDBRANCH   5   6
ENDBRANCH   4   5
ENDBRANCH   3   4
ENDBRANCH   2   3
ENDBRANCH   1   2
BRANCH   1  11
ATOM     11  C   UNL     1      61.474  32.454  60.495  1.00  0.00     0.000 C 
BRANCH  11  12
ATOM     12  C   UNL     1      60.759  31.097  60.647  1.00  0.00    -0.000 C 
BRANCH  12  13
ATOM     13  C   UNL     1      61.399  30.129  61.662  1.00  0.00    -0.000 C 
BRANCH  13  14
ATOM     14  C   UNL     1      62.909  29.893  61.477  1.00  0.00    -0.000 C 
BRANCH  14  15
ATOM     15  C   UNL     1      63.220  28.797  60.444  1.00  0.00    -0.000 C 
BRANCH  15  16
ATOM     16  C   UNL     1      64.245  29.251  59.393  1.00  0.00    -0.000 C 
BRANCH  16  17
ATOM     17  C   UNL     1      65.613  29.587  60.005  1.00  0.00    -0.003 C 
ATOM     18  C   UNL     1      66.210  28.373  60.712  1.00  0.00     0.004 C 
ENDBRANCH  16  17
ENDBRANCH  15  16
ENDBRANCH  14  15
ENDBRANCH  13  14
ENDBRANCH  12  13
ENDBRANCH  11  12
ENDBRANCH   1  11
TORSDOF 14
ENDMDL
MODEL 4
REMARK VINA RESULT:    -3.465      2.723      6.234
REMARK INTER + INTRA:          -8.021
REMARK INTER:                  -5.962
REMARK INTRA:                  -2.059
REMARK UNBOUND:                -1.720
REMARK SMILES CCCCCCCCCCCCCCCC(=O)[O-]
REMARK SMILES IDX 9 1 10 2 11 3 12 4 13 5 14 6 15 7 16 8 17 9 18 10 8 11 7 12
REMARK SMILES IDX 6 13 5 14 4 15 3 16 2 17 1 18
REMARK H PARENT
REMARK Flexibility Score: inf
ROOT
ATOM      1  C   UNL     1      56.267  28.079  50.754  1.00  0.00     0.000 C 
ENDROOT
BRANCH   1   2
ATOM      2  C   UNL     1      54.829  28.617  50.718  1.00  0.00     0.000 C 
BRANCH   2   3
ATOM      3  C   UNL     1      53.862  27.561  50.162  1.00  0.00     0.000 C 
BRANCH   3   4
ATOM      4  C   UNL     1      54.577  26.267  49.743  1.00  0.00     0.000 C 
BRANCH   4   5
ATOM      5  C   UNL     1      53.800  25.003  50.153  1.00  0.00     0.000 C 
BRANCH   5   6
ATOM      6  C   UNL     1      53.084  25.164  51.504  1.00  0.00     0.006 C 
BRANCH   6   7
ATOM      7  C   UNL     1      53.925  24.651  52.681  1.00  0.00     0.053 C 
BRANCH   7   8
ATOM      8  C   UNL     1      54.621  25.788  53.359  1.00  0.00     0.041 C 
ATOM      9  O   UNL     1      53.986  26.833  53.657  1.00  0.00    -0.550 OA
ATOM     10  O   UNL     1      55.983  25.711  53.620  1.00  0.00    -0.550 OA
ENDBRANCH   7   8
ENDBRANCH   6   7
ENDBRANCH   5   6
ENDBRANCH   4   5
ENDBRANCH   3   4
ENDBRANCH   2   3
ENDBRANCH   1   2
BRANCH   1  11
ATOM     11  C   UNL     1      57.089  28.646  51.925  1.00  0.00     0.000 C 
BRANCH  11  12
ATOM     12  C   UNL     1      58.516  29.100  51.556  1.00  0.00    -0.000 C 
BRANCH  12  13
ATOM     13  C   UNL     1      58.758  29.348  50.054  1.00  0.00    -0.000 C 
BRANCH  13  14
ATOM     14  C   UNL     1      59.662  28.314  49.358  1.00  0.00    -0.000 C 
BRANCH  14  15
ATOM     15  C   UNL     1      60.717  27.713  50.302  1.00  0.00    -0.000 C 
BRANCH  15  16
ATOM     16  C   UNL     1      60.657  26.178  50.353  1.00  0.00    -0.000 C 
BRANCH  16  17
ATOM     17  C   UNL     1      59.898  25.656  51.582  1.00  0.00    -0.003 C 
ATOM     18  C   UNL     1      58.499  25.179  51.202  1.00  0.00     0.004 C 
ENDBRANCH  16  17
ENDBRANCH  15  16
ENDBRANCH  14  15
ENDBRANCH  13  14
ENDBRANCH  12  13
ENDBRANCH  11  12
ENDBRANCH   1  11
TORSDOF 14
ENDMDL
MODEL 5
REMARK VINA RESULT:    -3.370     10.613     12.005
REMARK INTER + INTRA:          -7.849
REMARK INTER:                  -5.441
REMARK INTRA:                  -2.408
REMARK UNBOUND:                -1.720
REMARK SMILES CCCCCCCCCCCCCCCC(=O)[O-]
REMARK SMILES IDX 9 1 10 2 11 3 12 4 13 5 14 6 15 7 16 8 17 9 18 10 8 11 7 12
REMARK SMILES IDX 6 13 5 14 4 15 3 16 2 17 1 18
REMARK H PARENT
REMARK Flexibility Score: inf
ROOT
ATOM      1  C   UNL     1      60.834  31.127  60.978  1.00  0.00     0.000 C 
ENDROOT
BRANCH   1   2
ATOM      2  C   UNL     1      61.796  30.133  61.644  1.00  0.00     0.000 C 
BRANCH   2   3
ATOM      3  C   UNL     1      61.603  28.718  61.078  1.00  0.00     0.000 C 
BRANCH   3   4
ATOM      4  C   UNL     1      62.937  28.007  60.796  1.00  0.00     0.000 C 
BRANCH   4   5
ATOM      5  C   UNL     1      64.141  28.963  60.860  1.00  0.00     0.000 C 
BRANCH   5   6
ATOM      6  C   UNL     1      65.415  28.347  60.259  1.00  0.00     0.006 C 
BRANCH   6   7
ATOM      7  C   UNL     1      66.461  29.405  59.884  1.00  0.00     0.053 C 
BRANCH   7   8
ATOM      8  C   UNL     1      66.278  29.839  58.465  1.00  0.00     0.041 C 
ATOM      9  O   UNL     1      66.763  30.931  58.068  1.00  0.00    -0.550 OA
ATOM     10  O   UNL     1      65.533  29.058  57.591  1.00  0.00    -0.550 OA
ENDBRANCH   7   8
ENDBRANCH   6   7
ENDBRANCH   5   6
ENDBRANCH   4   5
ENDBRANCH   3   4
ENDBRANCH   2   3
ENDBRANCH   1   2
BRANCH   1  11
ATOM     11  C   UNL     1      60.476  30.736  59.532  1.00  0.00     0.000 C 
BRANCH  11  12
ATOM     12  C   UNL     1      61.205  31.547  58.442  1.00  0.00    -0.000 C 
BRANCH  12  13
ATOM     13  C   UNL     1      62.736  31.370  58.407  1.00  0.00    -0.000 C 
BRANCH  13  14
ATOM     14  C   UNL     1      63.548  32.640  58.722  1.00  0.00    -0.000 C 
BRANCH  14  15
ATOM     15  C   UNL     1      64.281  32.560  60.071  1.00  0.00    -0.000 C 
BRANCH  15  16
ATOM     16  C   UNL     1      63.887  33.699  61.025  1.00  0.00    -0.000 C 
BRANCH  16  17
ATOM     17  C   UNL     1      62.587  34.401  60.605  1.00  0.00    -0.003 C 
ATOM     18  C   UNL     1      62.591  35.865  61.032  1.00  0.00     0.004 C 
ENDBRANCH  16  17
ENDBRANCH  15  16
ENDBRANCH  14  15
ENDBRANCH  13  14
ENDBRANCH  12  13
ENDBRANCH  11  12
ENDBRANCH   1  11
TORSDOF 14
ENDMDL
MODEL 6
REMARK VINA RESULT:    -3.347      2.044      2.820
REMARK INTER + INTRA:          -7.807
REMARK INTER:                  -5.371
REMARK INTRA:                  -2.436
REMARK UNBOUND:                -1.720
REMARK SMILES CCCCCCCCCCCCCCCC(=O)[O-]
REMARK SMILES IDX 9 1 10 2 11 3 12 4 13 5 14 6 15 7 16 8 17 9 18 10 8 11 7 12
REMARK SMILES IDX 6 13 5 14 4 15 3 16 2 17 1 18
REMARK H PARENT
REMARK Flexibility Score: inf
ROOT
ATOM      1  C   UNL     1      57.423  28.249  53.336  1.00  0.00     0.000 C 
ENDROOT
BRANCH   1   2
ATOM      2  C   UNL     1      57.728  29.608  52.689  1.00  0.00     0.000 C 
BRANCH   2   3
ATOM      3  C   UNL     1      58.940  29.509  51.750  1.00  0.00     0.000 C 
BRANCH   3   4
ATOM      4  C   UNL     1      58.534  29.333  50.278  1.00  0.00     0.000 C 
BRANCH   4   5
ATOM      5  C   UNL     1      59.458  28.362  49.523  1.00  0.00     0.000 C 
BRANCH   5   6
ATOM      6  C   UNL     1      60.765  28.082  50.281  1.00  0.00     0.006 C 
BRANCH   6   7
ATOM      7  C   UNL     1      61.173  26.604  50.228  1.00  0.00     0.053 C 
BRANCH   7   8
ATOM      8  C   UNL     1      62.304  26.341  51.170  1.00  0.00     0.041 C 
ATOM      9  O   UNL     1      63.420  25.959  50.730  1.00  0.00    -0.550 OA
ATOM     10  O   UNL     1      62.113  26.474  52.539  1.00  0.00    -0.550 OA
ENDBRANCH   7   8
ENDBRANCH   6   7
ENDBRANCH   5   6
ENDBRANCH   4   5
ENDBRANCH   3   4
ENDBRANCH   2   3
ENDBRANCH   1   2
BRANCH   1  11
ATOM     11  C   UNL     1      58.665  27.345  53.442  1.00  0.00     0.000 C 
BRANCH  11  12
ATOM     12  C   UNL     1      58.554  25.999  52.698  1.00  0.00    -0.000 C 
BRANCH  12  13
ATOM     13  C   UNL     1      57.154  25.671  52.141  1.00  0.00    -0.000 C 
BRANCH  13  14
ATOM     14  C   UNL     1      56.965  25.952  50.640  1.00  0.00    -0.000 C 
BRANCH  14  15
ATOM     15  C   UNL     1      55.514  26.307  50.276  1.00  0.00    -0.000 C 
BRANCH  15  16
ATOM     16  C   UNL     1      55.225  27.811  50.403  1.00  0.00    -0.000 C 
BRANCH  16  17
ATOM     17  C   UNL     1      54.004  28.107  51.287  1.00  0.00    -0.003 C 
ATOM     18  C   UNL     1      53.031  29.047  50.583  1.00  0.00     0.004 C 
ENDBRANCH  16  17
ENDBRANCH  15  16
ENDBRANCH  14  15
ENDBRANCH  13  14
ENDBRANCH  12  13
ENDBRANCH  11  12
ENDBRANCH   1  11
TORSDOF 14
ENDMDL
MODEL 7
REMARK VINA RESULT:    -3.342      2.162      4.520
REMARK INTER + INTRA:          -7.797
REMARK INTER:                  -5.412
REMARK INTRA:                  -2.385
REMARK UNBOUND:                -1.720
REMARK SMILES CCCCCCCCCCCCCCCC(=O)[O-]
REMARK SMILES IDX 9 1 10 2 11 3 12 4 13 5 14 6 15 7 16 8 17 9 18 10 8 11 7 12
REMARK SMILES IDX 6 13 5 14 4 15 3 16 2 17 1 18
REMARK H PARENT
REMARK Flexibility Score: inf
ROOT
ATOM      1  C   UNL     1      54.559  26.314  51.694  1.00  0.00     0.000 C 
ENDROOT
BRANCH   1   2
ATOM      2  C   UNL     1      55.272  25.934  50.388  1.00  0.00     0.000 C 
BRANCH   2   3
ATOM      3  C   UNL     1      56.756  26.329  50.439  1.00  0.00     0.000 C 
BRANCH   3   4
ATOM      4  C   UNL     1      57.028  27.483  51.419  1.00  0.00     0.000 C 
BRANCH   4   5
ATOM      5  C   UNL     1      57.305  28.814  50.700  1.00  0.00     0.000 C 
BRANCH   5   6
ATOM      6  C   UNL     1      58.801  29.171  50.678  1.00  0.00     0.006 C 
BRANCH   6   7
ATOM      7  C   UNL     1      59.539  28.543  49.489  1.00  0.00     0.053 C 
BRANCH   7   8
ATOM      8  C   UNL     1      60.510  27.510  49.964  1.00  0.00     0.041 C 
ATOM      9  O   UNL     1      60.250  26.286  49.830  1.00  0.00    -0.550 OA
ATOM     10  O   UNL     1      61.683  27.900  50.598  1.00  0.00    -0.550 OA
ENDBRANCH   7   8
ENDBRANCH   6   7
ENDBRANCH   5   6
ENDBRANCH   4   5
ENDBRANCH   3   4
ENDBRANCH   2   3
ENDBRANCH   1   2
BRANCH   1  11
ATOM     11  C   UNL     1      53.287  27.149  51.460  1.00  0.00     0.000 C 
BRANCH  11  12
ATOM     12  C   UNL     1      53.378  28.162  50.301  1.00  0.00    -0.000 C 
BRANCH  12  13
ATOM     13  C   UNL     1      53.821  29.582  50.707  1.00  0.00    -0.000 C 
BRANCH  13  14
ATOM     14  C   UNL     1      53.346  30.043  52.097  1.00  0.00    -0.000 C 
BRANCH  14  15
ATOM     15  C   UNL     1      54.394  30.893  52.834  1.00  0.00    -0.000 C 
BRANCH  15  16
ATOM     16  C   UNL     1      55.389  30.039  53.636  1.00  0.00    -0.000 C 
BRANCH  16  17
ATOM     17  C   UNL     1      54.701  28.923  54.436  1.00  0.00    -0.003 C 
ATOM     18  C   UNL     1      55.707  27.864  54.877  1.00  0.00     0.004 C 
ENDBRANCH  16  17
ENDBRANCH  15  16
ENDBRANCH  14  15
ENDBRANCH  13  14
ENDBRANCH  12  13
ENDBRANCH  11  12
ENDBRANCH   1  11
TORSDOF 14
ENDMDL
MODEL 8
REMARK VINA RESULT:    -3.312      3.415      6.006
REMARK INTER + INTRA:          -7.742
REMARK INTER:                  -5.611
REMARK INTRA:                  -2.131
REMARK UNBOUND:                -1.720
REMARK SMILES CCCCCCCCCCCCCCCC(=O)[O-]
REMARK SMILES IDX 9 1 10 2 11 3 12 4 13 5 14 6 15 7 16 8 17 9 18 10 8 11 7 12
REMARK SMILES IDX 6 13 5 14 4 15 3 16 2 17 1 18
REMARK H PARENT
REMARK Flexibility Score: inf
ROOT
ATOM      1  C   UNL     1      59.724  25.844  51.281  1.00  0.00     0.000 C 
ENDROOT
BRANCH   1   2
ATOM      2  C   UNL     1      58.263  25.480  50.978  1.00  0.00     0.000 C 
BRANCH   2   3
ATOM      3  C   UNL     1      57.449  25.356  52.274  1.00  0.00     0.000 C 
BRANCH   3   4
ATOM      4  C   UNL     1      55.986  25.795  52.098  1.00  0.00     0.000 C 
BRANCH   4   5
ATOM      5  C   UNL     1      55.667  26.220  50.654  1.00  0.00     0.000 C 
BRANCH   5   6
ATOM      6  C   UNL     1      54.291  25.721  50.183  1.00  0.00     0.006 C 
BRANCH   6   7
ATOM      7  C   UNL     1      53.388  26.860  49.692  1.00  0.00     0.053 C 
BRANCH   7   8
ATOM      8  C   UNL     1      53.305  27.941  50.722  1.00  0.00     0.041 C 
ATOM      9  O   UNL     1      53.623  29.123  50.429  1.00  0.00    -0.550 OA
ATOM     10  O   UNL     1      52.921  27.633  52.022  1.00  0.00    -0.550 OA
ENDBRANCH   7   8
ENDBRANCH   6   7
ENDBRANCH   5   6
ENDBRANCH   4   5
ENDBRANCH   3   4
ENDBRANCH   2   3
ENDBRANCH   1   2
BRANCH   1  11
ATOM     11  C   UNL     1      60.513  26.250  50.023  1.00  0.00     0.000 C 
BRANCH  11  12
ATOM     12  C   UNL     1      61.345  27.540  50.166  1.00  0.00    -0.000 C 
BRANCH  12  13
ATOM     13  C   UNL     1      60.526  28.827  50.391  1.00  0.00    -0.000 C 
BRANCH  13  14
ATOM     14  C   UNL     1      59.193  28.896  49.625  1.00  0.00    -0.000 C 
BRANCH  14  15
ATOM     15  C   UNL     1      57.995  29.202  50.538  1.00  0.00    -0.000 C 
BRANCH  15  16
ATOM     16  C   UNL     1      58.422  29.610  51.956  1.00  0.00    -0.000 C 
BRANCH  16  17
ATOM     17  C   UNL     1      57.586  28.925  53.048  1.00  0.00    -0.003 C 
ATOM     18  C   UNL     1      56.137  29.403  53.010  1.00  0.00     0.004 C 
ENDBRANCH  16  17
ENDBRANCH  15  16
ENDBRANCH  14  15
ENDBRANCH  13  14
ENDBRANCH  12  13
ENDBRANCH  11  12
ENDBRANCH   1  11
TORSDOF 14
ENDMDL
MODEL 9
REMARK VINA RESULT:    -3.290      2.872      4.258
REMARK INTER + INTRA:          -7.703
REMARK INTER:                  -5.601
REMARK INTRA:                  -2.102
REMARK UNBOUND:                -1.720
REMARK SMILES CCCCCCCCCCCCCCCC(=O)[O-]
REMARK SMILES IDX 9 1 10 2 11 3 12 4 13 5 14 6 15 7 16 8 17 9 18 10 8 11 7 12
REMARK SMILES IDX 6 13 5 14 4 15 3 16 2 17 1 18
REMARK H PARENT
REMARK Flexibility Score: inf
ROOT
ATOM      1  C   UNL     1      57.927  26.324  52.970  1.00  0.00     0.000 C 
ENDROOT
BRANCH   1   2
ATOM      2  C   UNL     1      57.317  25.685  51.715  1.00  0.00     0.000 C 
BRANCH   2   3
ATOM      3  C   UNL     1      57.794  26.406  50.445  1.00  0.00     0.000 C 
BRANCH   3   4
ATOM      4  C   UNL     1      59.326  26.432  50.320  1.00  0.00     0.000 C 
BRANCH   4   5
ATOM      5  C   UNL     1      59.846  27.740  49.698  1.00  0.00     0.000 C 
BRANCH   5   6
ATOM      6  C   UNL     1      59.026  28.966  50.133  1.00  0.00     0.006 C 
BRANCH   6   7
ATOM      7  C   UNL     1      59.455  29.506  51.503  1.00  0.00     0.053 C 
BRANCH   7   8
ATOM      8  C   UNL     1      60.935  29.711  51.543  1.00  0.00     0.041 C 
ATOM      9  O   UNL     1      61.493  30.471  50.708  1.00  0.00    -0.550 OA
ATOM     10  O   UNL     1      61.707  29.027  52.474  1.00  0.00    -0.550 OA
ENDBRANCH   7   8
ENDBRANCH   6   7
ENDBRANCH   5   6
ENDBRANCH   4   5
ENDBRANCH   3   4
ENDBRANCH   2   3
ENDBRANCH   1   2
BRANCH   1  11
ATOM     11  C   UNL     1      57.205  27.615  53.397  1.00  0.00     0.000 C 
BRANCH  11  12
ATOM     12  C   UNL     1      55.667  27.556  53.313  1.00  0.00    -0.000 C 
BRANCH  12  13
ATOM     13  C   UNL     1      54.989  28.842  52.796  1.00  0.00    -0.000 C 
BRANCH  13  14
ATOM     14  C   UNL     1      55.275  29.184  51.323  1.00  0.00    -0.000 C 
BRANCH  14  15
ATOM     15  C   UNL     1      54.815  28.082  50.354  1.00  0.00    -0.000 C 
BRANCH  15  16
ATOM     16  C   UNL     1      53.291  27.882  50.367  1.00  0.00    -0.000 C 
BRANCH  16  17
ATOM     17  C   UNL     1      52.875  26.470  49.928  1.00  0.00    -0.003 C 
ATOM     18  C   UNL     1      54.095  25.580  49.715  1.00  0.00     0.004 C 
ENDBRANCH  16  17
ENDBRANCH  15  16
ENDBRANCH  14  15
ENDBRANCH  13  14
ENDBRANCH  12  13
ENDBRANCH  11  12
ENDBRANCH   1  11
TORSDOF 14
ENDMDL
