MODEL 1
REMARK VINA RESULT:    -4.566      0.000      0.000
REMARK INTER + INTRA:          -9.251
REMARK INTER:                  -8.303
REMARK INTRA:                  -0.948
REMARK UNBOUND:                -0.948
REMARK SMILES CCCCCCCCCCCCCCCC(=O)[O-]
REMARK SMILES IDX 9 1 10 2 11 3 12 4 13 5 14 6 15 7 16 8 17 9 18 10 8 11 7 12
REMARK SMILES IDX 6 13 5 14 4 15 3 16 2 17 1 18
REMARK H PARENT
REMARK Flexibility Score: inf
ROOT
ATOM      1  C   UNL     1       2.639   0.073   7.308  1.00  0.00     0.000 C 
ENDROOT
BRANCH   1   2
ATOM      2  C   UNL     1       2.602   1.356   8.152  1.00  0.00     0.000 C 
BRANCH   2   3
ATOM      3  C   UNL     1       1.184   1.629   8.675  1.00  0.00     0.000 C 
BRANCH   3   4
ATOM      4  C   UNL     1       0.668   3.022   8.285  1.00  0.00     0.000 C 
BRANCH   4   5
ATOM      5  C   UNL     1       1.055   3.416   6.848  1.00  0.00     0.000 C 
BRANCH   5   6
ATOM      6  C   UNL     1       1.107   4.939   6.649  1.00  0.00     0.006 C 
BRANCH   6   7
ATOM      7  C   UNL     1      -0.280   5.549   6.407  1.00  0.00     0.053 C 
BRANCH   7   8
ATOM      8  C   UNL     1      -0.460   5.879   4.959  1.00  0.00     0.041 C 
ATOM      9  O   UNL     1       0.069   5.157   4.074  1.00  0.00    -0.550 OA
ATOM     10  O   UNL     1      -1.177   7.011   4.587  1.00  0.00    -0.550 OA
ENDBRANCH   7   8
ENDBRANCH   6   7
ENDBRANCH   5   6
ENDBRANCH   4   5
ENDBRANCH   3   4
ENDBRANCH   2   3
ENDBRANCH   1   2
BRANCH   1  11
ATOM     11  C   UNL     1       1.241  -0.389   6.862  1.00  0.00     0.000 C 
BRANCH  11  12
ATOM     12  C   UNL     1       1.158  -0.914   5.414  1.00  0.00    -0.000 C 
BRANCH  12  13
ATOM     13  C   UNL     1       0.386  -2.237   5.238  1.00  0.00    -0.000 C 
BRANCH  13  14
ATOM     14  C   UNL     1      -0.984  -2.286   5.938  1.00  0.00    -0.000 C 
BRANCH  14  15
ATOM     15  C   UNL     1      -2.118  -2.714   4.996  1.00  0.00    -0.000 C 
BRANCH  15  16
ATOM     16  C   UNL     1      -2.548  -1.552   4.091  1.00  0.00    -0.000 C 
BRANCH  16  17
ATOM     17  C   UNL     1      -4.076  -1.443   4.026  1.00  0.00    -0.003 C 
ATOM     18  C   UNL     1      -4.637  -0.804   5.293  1.00  0.00     0.004 C 
ENDBRANCH  16  17
ENDBRANCH  15  16
ENDBRANCH  14  15
ENDBRANCH  13  14
ENDBRANCH  12  13
ENDBRANCH  11  12
ENDBRANCH   1  11
TORSDOF 14
ENDMDL
MODEL 2
REMARK VINA RESULT:    -4.485      1.117      2.039
REMARK INTER + INTRA:          -9.104
REMARK INTER:                  -8.401
REMARK INTRA:                  -0.702
REMARK UNBOUND:                -0.948
REMARK SMILES CCCCCCCCCCCCCCCC(=O)[O-]
REMARK SMILES IDX 9 1 10 2 11 3 12 4 13 5 14 6 15 7 16 8 17 9 18 10 8 11 7 12
REMARK SMILES IDX 6 13 5 14 4 15 3 16 2 17 1 18
REMARK H PARENT
REMARK Flexibility Score: inf
ROOT
ATOM      1  C   UNL     1       2.064  -1.671   5.638  1.00  0.00     0.000 C 
ENDROOT
BRANCH   1   2
ATOM      2  C   UNL     1       2.607  -0.614   6.612  1.00  0.00     0.000 C 
BRANCH   2   3
ATOM      3  C   UNL     1       1.493   0.344   7.061  1.00  0.00     0.000 C 
BRANCH   3   4
ATOM      4  C   UNL     1       1.714   1.781   6.566  1.00  0.00     0.000 C 
BRANCH   4   5
ATOM      5  C   UNL     1       1.070   2.831   7.490  1.00  0.00     0.000 C 
BRANCH   5   6
ATOM      6  C   UNL     1       0.723   4.132   6.751  1.00  0.00     0.006 C 
BRANCH   6   7
ATOM      7  C   UNL     1       1.412   4.236   5.384  1.00  0.00     0.053 C 
BRANCH   7   8
ATOM      8  C   UNL     1       0.714   5.239   4.522  1.00  0.00     0.041 C 
ATOM      9  O   UNL     1       1.368   5.930   3.696  1.00  0.00    -0.550 OA
ATOM     10  O   UNL     1      -0.655   5.444   4.659  1.00  0.00    -0.550 OA
ENDBRANCH   7   8
ENDBRANCH   6   7
ENDBRANCH   5   6
ENDBRANCH   4   5
ENDBRANCH   3   4
ENDBRANCH   2   3
ENDBRANCH   1   2
BRANCH   1  11
ATOM     11  C   UNL     1       0.597  -1.425   5.248  1.00  0.00     0.000 C 
BRANCH  11  12
ATOM     12  C   UNL     1      -0.355  -2.612   5.503  1.00  0.00    -0.000 C 
BRANCH  12  13
ATOM     13  C   UNL     1      -1.858  -2.278   5.424  1.00  0.00    -0.000 C 
BRANCH  13  14
ATOM     14  C   UNL     1      -2.311  -1.634   4.101  1.00  0.00    -0.000 C 
BRANCH  14  15
ATOM     15  C   UNL     1      -3.802  -1.863   3.809  1.00  0.00    -0.000 C 
BRANCH  15  16
ATOM     16  C   UNL     1      -4.661  -0.768   4.453  1.00  0.00    -0.000 C 
BRANCH  16  17
ATOM     17  C   UNL     1      -5.089  -1.166   5.870  1.00  0.00    -0.003 C 
ATOM     18  C   UNL     1      -5.689   0.021   6.618  1.00  0.00     0.004 C 
ENDBRANCH  16  17
ENDBRANCH  15  16
ENDBRANCH  14  15
ENDBRANCH  13  14
ENDBRANCH  12  13
ENDBRANCH  11  12
ENDBRANCH   1  11
TORSDOF 14
ENDMDL
MODEL 3
REMARK VINA RESULT:    -4.407      4.517      6.254
REMARK INTER + INTRA:          -8.962
REMARK INTER:                  -7.044
REMARK INTRA:                  -1.918
REMARK UNBOUND:                -0.948
REMARK SMILES CCCCCCCCCCCCCCCC(=O)[O-]
REMARK SMILES IDX 9 1 10 2 11 3 12 4 13 5 14 6 15 7 16 8 17 9 18 10 8 11 7 12
REMARK SMILES IDX 6 13 5 14 4 15 3 16 2 17 1 18
REMARK H PARENT
REMARK Flexibility Score: inf
ROOT
ATOM      1  C   UNL     1      -3.395  -4.577   5.291  1.00  0.00     0.000 C 
ENDROOT
BRANCH   1   2
ATOM      2  C   UNL     1      -2.486  -4.478   6.526  1.00  0.00     0.000 C 
BRANCH   2   3
ATOM      3  C   UNL     1      -2.532  -3.068   7.131  1.00  0.00     0.000 C 
BRANCH   3   4
ATOM      4  C   UNL     1      -1.138  -2.438   7.271  1.00  0.00     0.000 C 
BRANCH   4   5
ATOM      5  C   UNL     1      -0.147  -2.954   6.212  1.00  0.00     0.000 C 
BRANCH   5   6
ATOM      6  C   UNL     1       0.284  -1.857   5.225  1.00  0.00     0.006 C 
BRANCH   6   7
ATOM      7  C   UNL     1       1.351  -0.923   5.810  1.00  0.00     0.053 C 
BRANCH   7   8
ATOM      8  C   UNL     1       2.717  -1.495   5.602  1.00  0.00     0.041 C 
ATOM      9  O   UNL     1       2.948  -2.242   4.614  1.00  0.00    -0.550 OA
ATOM     10  O   UNL     1       3.727  -1.239   6.523  1.00  0.00    -0.550 OA
ENDBRANCH   7   8
ENDBRANCH   6   7
ENDBRANCH   5   6
ENDBRANCH   4   5
ENDBRANCH   3   4
ENDBRANCH   2   3
ENDBRANCH   1   2
BRANCH   1  11
ATOM     11  C   UNL     1      -2.612  -4.521   3.968  1.00  0.00     0.000 C 
BRANCH  11  12
ATOM     12  C   UNL     1      -3.016  -3.374   3.019  1.00  0.00    -0.000 C 
BRANCH  12  13
ATOM     13  C   UNL     1      -2.890  -1.956   3.611  1.00  0.00    -0.000 C 
BRANCH  13  14
ATOM     14  C   UNL     1      -4.222  -1.204   3.783  1.00  0.00    -0.000 C 
BRANCH  14  15
ATOM     15  C   UNL     1      -4.431  -0.684   5.213  1.00  0.00    -0.000 C 
BRANCH  15  16
ATOM     16  C   UNL     1      -5.741  -1.219   5.806  1.00  0.00    -0.000 C 
BRANCH  16  17
ATOM     17  C   UNL     1      -6.280  -0.277   6.889  1.00  0.00    -0.003 C 
ATOM     18  C   UNL     1      -5.785  -0.689   8.272  1.00  0.00     0.004 C 
ENDBRANCH  16  17
ENDBRANCH  15  16
ENDBRANCH  14  15
ENDBRANCH  13  14
ENDBRANCH  12  13
ENDBRANCH  11  12
ENDBRANCH   1  11
TORSDOF 14
ENDMDL
MODEL 4
REMARK VINA RESULT:    -4.380      4.733      6.485
REMARK INTER + INTRA:          -8.912
REMARK INTER:                  -6.555
REMARK INTRA:                  -2.357
REMARK UNBOUND:                -0.948
REMARK SMILES CCCCCCCCCCCCCCCC(=O)[O-]
REMARK SMILES IDX 9 1 10 2 11 3 12 4 13 5 14 6 15 7 16 8 17 9 18 10 8 11 7 12
REMARK SMILES IDX 6 13 5 14 4 15 3 16 2 17 1 18
REMARK H PARENT
REMARK Flexibility Score: inf
ROOT
ATOM      1  C   UNL     1      -3.718  -2.595   7.507  1.00  0.00     0.000 C 
ENDROOT
BRANCH   1   2
ATOM      2  C   UNL     1      -3.712  -4.046   7.002  1.00  0.00     0.000 C 
BRANCH   2   3
ATOM      3  C   UNL     1      -2.276  -4.548   6.790  1.00  0.00     0.000 C 
BRANCH   3   4
ATOM      4  C   UNL     1      -1.229  -3.642   7.454  1.00  0.00     0.000 C 
BRANCH   4   5
ATOM      5  C   UNL     1      -0.041  -3.331   6.526  1.00  0.00     0.000 C 
BRANCH   5   6
ATOM      6  C   UNL     1       0.340  -1.842   6.536  1.00  0.00     0.006 C 
BRANCH   6   7
ATOM      7  C   UNL     1       1.091  -1.417   5.268  1.00  0.00     0.053 C 
BRANCH   7   8
ATOM      8  C   UNL     1       2.552  -1.710   5.403  1.00  0.00     0.041 C 
ATOM      9  O   UNL     1       3.159  -2.340   4.497  1.00  0.00    -0.550 OA
ATOM     10  O   UNL     1       3.236  -1.324   6.550  1.00  0.00    -0.550 OA
ENDBRANCH   7   8
ENDBRANCH   6   7
ENDBRANCH   5   6
ENDBRANCH   4   5
ENDBRANCH   3   4
ENDBRANCH   2   3
ENDBRANCH   1   2
BRANCH   1  11
ATOM     11  C   UNL     1      -5.084  -1.910   7.334  1.00  0.00     0.000 C 
BRANCH  11  12
ATOM     12  C   UNL     1      -5.508  -1.656   5.872  1.00  0.00    -0.000 C 
BRANCH  12  13
ATOM     13  C   UNL     1      -4.600  -0.690   5.084  1.00  0.00    -0.000 C 
BRANCH  13  14
ATOM     14  C   UNL     1      -3.935  -1.299   3.836  1.00  0.00    -0.000 C 
BRANCH  14  15
ATOM     15  C   UNL     1      -2.506  -1.792   4.105  1.00  0.00    -0.000 C 
BRANCH  15  16
ATOM     16  C   UNL     1      -2.216  -3.084   3.330  1.00  0.00    -0.000 C 
BRANCH  16  17
ATOM     17  C   UNL     1      -3.517  -3.809   2.965  1.00  0.00    -0.003 C 
ATOM     18  C   UNL     1      -3.471  -5.272   3.396  1.00  0.00     0.004 C 
ENDBRANCH  16  17
ENDBRANCH  15  16
ENDBRANCH  14  15
ENDBRANCH  13  14
ENDBRANCH  12  13
ENDBRANCH  11  12
ENDBRANCH   1  11
TORSDOF 14
ENDMDL
MODEL 5
REMARK VINA RESULT:    -4.248      4.440      7.253
REMARK INTER + INTRA:          -8.673
REMARK INTER:                  -6.919
REMARK INTRA:                  -1.754
REMARK UNBOUND:                -0.948
REMARK SMILES CCCCCCCCCCCCCCCC(=O)[O-]
REMARK SMILES IDX 9 1 10 2 11 3 12 4 13 5 14 6 15 7 16 8 17 9 18 10 8 11 7 12
REMARK SMILES IDX 6 13 5 14 4 15 3 16 2 17 1 18
REMARK H PARENT
REMARK Flexibility Score: inf
ROOT
ATOM      1  C   UNL     1      -2.680  -5.072   4.732  1.00  0.00     0.000 C 
ENDROOT
BRANCH   1   2
ATOM      2  C   UNL     1      -3.293  -4.181   3.641  1.00  0.00     0.000 C 
BRANCH   2   3
ATOM      3  C   UNL     1      -2.284  -3.130   3.157  1.00  0.00     0.000 C 
BRANCH   3   4
ATOM      4  C   UNL     1      -2.581  -1.727   3.708  1.00  0.00     0.000 C 
BRANCH   4   5
ATOM      5  C   UNL     1      -4.090  -1.442   3.820  1.00  0.00     0.000 C 
BRANCH   5   6
ATOM      6  C   UNL     1      -4.452  -0.677   5.102  1.00  0.00     0.006 C 
BRANCH   6   7
ATOM      7  C   UNL     1      -5.364  -1.485   6.034  1.00  0.00     0.053 C 
BRANCH   7   8
ATOM      8  C   UNL     1      -6.514  -0.647   6.495  1.00  0.00     0.041 C 
ATOM      9  O   UNL     1      -7.692  -1.083   6.406  1.00  0.00    -0.550 OA
ATOM     10  O   UNL     1      -6.289   0.635   6.986  1.00  0.00    -0.550 OA
ENDBRANCH   7   8
ENDBRANCH   6   7
ENDBRANCH   5   6
ENDBRANCH   4   5
ENDBRANCH   3   4
ENDBRANCH   2   3
ENDBRANCH   1   2
BRANCH   1  11
ATOM     11  C   UNL     1      -2.969  -4.559   6.154  1.00  0.00     0.000 C 
BRANCH  11  12
ATOM     12  C   UNL     1      -1.719  -4.229   6.996  1.00  0.00    -0.000 C 
BRANCH  12  13
ATOM     13  C   UNL     1      -1.122  -2.827   6.765  1.00  0.00    -0.000 C 
BRANCH  13  14
ATOM     14  C   UNL     1       0.322  -2.816   6.232  1.00  0.00    -0.000 C 
BRANCH  14  15
ATOM     15  C   UNL     1       0.617  -1.603   5.338  1.00  0.00    -0.000 C 
BRANCH  15  16
ATOM     16  C   UNL     1       1.883  -0.873   5.803  1.00  0.00    -0.000 C 
BRANCH  16  17
ATOM     17  C   UNL     1       3.036  -1.860   6.024  1.00  0.00    -0.003 C 
ATOM     18  C   UNL     1       3.657  -2.287   4.697  1.00  0.00     0.004 C 
ENDBRANCH  16  17
ENDBRANCH  15  16
ENDBRANCH  14  15
ENDBRANCH  13  14
ENDBRANCH  12  13
ENDBRANCH  11  12
ENDBRANCH   1  11
TORSDOF 14
ENDMDL
MODEL 6
REMARK VINA RESULT:    -4.203      2.181      3.547
REMARK INTER + INTRA:          -8.591
REMARK INTER:                  -6.950
REMARK INTRA:                  -1.641
REMARK UNBOUND:                -0.948
REMARK SMILES CCCCCCCCCCCCCCCC(=O)[O-]
REMARK SMILES IDX 9 1 10 2 11 3 12 4 13 5 14 6 15 7 16 8 17 9 18 10 8 11 7 12
REMARK SMILES IDX 6 13 5 14 4 15 3 16 2 17 1 18
REMARK H PARENT
REMARK Flexibility Score: inf
ROOT
ATOM      1  C   UNL     1       1.901   0.641   8.233  1.00  0.00     0.000 C 
ENDROOT
BRANCH   1   2
ATOM      2  C   UNL     1       2.184   1.536   7.016  1.00  0.00     0.000 C 
BRANCH   2   3
ATOM      3  C   UNL     1       1.170   2.686   6.932  1.00  0.00     0.000 C 
BRANCH   3   4
ATOM      4  C   UNL     1       1.192   3.586   8.176  1.00  0.00     0.000 C 
BRANCH   4   5
ATOM      5  C   UNL     1      -0.025   4.525   8.248  1.00  0.00     0.000 C 
BRANCH   5   6
ATOM      6  C   UNL     1       0.122   5.752   7.334  1.00  0.00     0.006 C 
BRANCH   6   7
ATOM      7  C   UNL     1      -1.100   5.966   6.432  1.00  0.00     0.053 C 
BRANCH   7   8
ATOM      8  C   UNL     1      -0.670   6.217   5.022  1.00  0.00     0.041 C 
ATOM      9  O   UNL     1      -0.904   7.329   4.476  1.00  0.00    -0.550 OA
ATOM     10  O   UNL     1      -0.048   5.210   4.292  1.00  0.00    -0.550 OA
ENDBRANCH   7   8
ENDBRANCH   6   7
ENDBRANCH   5   6
ENDBRANCH   4   5
ENDBRANCH   3   4
ENDBRANCH   2   3
ENDBRANCH   1   2
BRANCH   1  11
ATOM     11  C   UNL     1       3.174   0.003   8.813  1.00  0.00     0.000 C 
BRANCH  11  12
ATOM     12  C   UNL     1       3.077  -1.512   9.091  1.00  0.00    -0.000 C 
BRANCH  12  13
ATOM     13  C   UNL     1       3.615  -2.421   7.967  1.00  0.00    -0.000 C 
BRANCH  13  14
ATOM     14  C   UNL     1       4.520  -1.717   6.940  1.00  0.00    -0.000 C 
BRANCH  14  15
ATOM     15  C   UNL     1       3.917  -1.703   5.528  1.00  0.00    -0.000 C 
BRANCH  15  16
ATOM     16  C   UNL     1       2.648  -2.563   5.465  1.00  0.00    -0.000 C 
BRANCH  16  17
ATOM     17  C   UNL     1       1.402  -1.690   5.278  1.00  0.00    -0.003 C 
ATOM     18  C   UNL     1       0.254  -2.173   6.160  1.00  0.00     0.004 C 
ENDBRANCH  16  17
ENDBRANCH  15  16
ENDBRANCH  14  15
ENDBRANCH  13  14
ENDBRANCH  12  13
ENDBRANCH  11  12
ENDBRANCH   1  11
TORSDOF 14
ENDMDL
MODEL 7
REMARK VINA RESULT:    -4.191      4.799      6.936
REMARK INTER + INTRA:          -8.569
REMARK INTER:                  -6.645
REMARK INTRA:                  -1.924
REMARK UNBOUND:                -0.948
REMARK SMILES CCCCCCCCCCCCCCCC(=O)[O-]
REMARK SMILES IDX 9 1 10 2 11 3 12 4 13 5 14 6 15 7 16 8 17 9 18 10 8 11 7 12
REMARK SMILES IDX 6 13 5 14 4 15 3 16 2 17 1 18
REMARK H PARENT
REMARK Flexibility Score: inf
ROOT
ATOM      1  C   UNL     1      -4.118  -1.163   4.642  1.00  0.00     0.000 C 
ENDROOT
BRANCH   1   2
ATOM      2  C   UNL     1      -3.151  -1.813   3.641  1.00  0.00     0.000 C 
BRANCH   2   3
ATOM      3  C   UNL     1      -1.713  -1.801   4.179  1.00  0.00     0.000 C 
BRANCH   3   4
ATOM      4  C   UNL     1      -1.589  -2.481   5.551  1.00  0.00     0.000 C 
BRANCH   4   5
ATOM      5  C   UNL     1      -0.224  -2.229   6.215  1.00  0.00     0.000 C 
BRANCH   5   6
ATOM      6  C   UNL     1       0.865  -1.849   5.200  1.00  0.00     0.006 C 
BRANCH   6   7
ATOM      7  C   UNL     1       2.083  -1.189   5.860  1.00  0.00     0.053 C 
BRANCH   7   8
ATOM      8  C   UNL     1       3.319  -1.986   5.588  1.00  0.00     0.041 C 
ATOM      9  O   UNL     1       4.052  -2.363   6.541  1.00  0.00    -0.550 OA
ATOM     10  O   UNL     1       3.687  -2.277   4.279  1.00  0.00    -0.550 OA
ENDBRANCH   7   8
ENDBRANCH   6   7
ENDBRANCH   5   6
ENDBRANCH   4   5
ENDBRANCH   3   4
ENDBRANCH   2   3
ENDBRANCH   1   2
BRANCH   1  11
ATOM     11  C   UNL     1      -5.516  -1.806   4.626  1.00  0.00     0.000 C 
BRANCH  11  12
ATOM     12  C   UNL     1      -5.667  -3.016   3.680  1.00  0.00    -0.000 C 
BRANCH  12  13
ATOM     13  C   UNL     1      -6.043  -4.344   4.367  1.00  0.00    -0.000 C 
BRANCH  13  14
ATOM     14  C   UNL     1      -5.097  -5.521   4.066  1.00  0.00    -0.000 C 
BRANCH  14  15
ATOM     15  C   UNL     1      -3.707  -5.341   4.693  1.00  0.00    -0.000 C 
BRANCH  15  16
ATOM     16  C   UNL     1      -2.603  -5.565   3.652  1.00  0.00    -0.000 C 
BRANCH  16  17
ATOM     17  C   UNL     1      -3.196  -5.721   2.247  1.00  0.00    -0.003 C 
ATOM     18  C   UNL     1      -2.685  -4.632   1.309  1.00  0.00     0.004 C 
ENDBRANCH  16  17
ENDBRANCH  15  16
ENDBRANCH  14  15
ENDBRANCH  13  14
ENDBRANCH  12  13
ENDBRANCH  11  12
ENDBRANCH   1  11
TORSDOF 14
ENDMDL
MODEL 8
REMARK VINA RESULT:    -4.176      4.941      6.476
REMARK INTER + INTRA:          -8.541
REMARK INTER:                  -6.735
REMARK INTRA:                  -1.806
REMARK UNBOUND:                -0.948
REMARK SMILES CCCCCCCCCCCCCCCC(=O)[O-]
REMARK SMILES IDX 9 1 10 2 11 3 12 4 13 5 14 6 15 7 16 8 17 9 18 10 8 11 7 12
REMARK SMILES IDX 6 13 5 14 4 15 3 16 2 17 1 18
REMARK H PARENT
REMARK Flexibility Score: inf
ROOT
ATOM      1  C   UNL     1      -2.340  -3.669   7.146  1.00  0.00     0.000 C 
ENDROOT
BRANCH   1   2
ATOM      2  C   UNL     1      -1.284  -2.559   7.031  1.00  0.00     0.000 C 
BRANCH   2   3
ATOM      3  C   UNL     1      -0.317  -2.839   5.871  1.00  0.00     0.000 C 
BRANCH   3   4
ATOM      4  C   UNL     1       0.254  -1.553   5.254  1.00  0.00     0.000 C 
BRANCH   4   5
ATOM      5  C   UNL     1       1.677  -1.239   5.750  1.00  0.00     0.000 C 
BRANCH   5   6
ATOM      6  C   UNL     1       2.718  -2.241   5.227  1.00  0.00     0.006 C 
BRANCH   6   7
ATOM      7  C   UNL     1       4.159  -1.777   5.473  1.00  0.00     0.053 C 
BRANCH   7   8
ATOM      8  C   UNL     1       4.547  -2.012   6.898  1.00  0.00     0.041 C 
ATOM      9  O   UNL     1       5.412  -1.280   7.449  1.00  0.00    -0.550 OA
ATOM     10  O   UNL     1       3.985  -3.068   7.608  1.00  0.00    -0.550 OA
ENDBRANCH   7   8
ENDBRANCH   6   7
ENDBRANCH   5   6
ENDBRANCH   4   5
ENDBRANCH   3   4
ENDBRANCH   2   3
ENDBRANCH   1   2
BRANCH   1  11
ATOM     11  C   UNL     1      -3.718  -3.140   7.578  1.00  0.00     0.000 C 
BRANCH  11  12
ATOM     12  C   UNL     1      -4.869  -3.436   6.595  1.00  0.00    -0.000 C 
BRANCH  12  13
ATOM     13  C   UNL     1      -5.538  -2.194   5.972  1.00  0.00    -0.000 C 
BRANCH  13  14
ATOM     14  C   UNL     1      -4.564  -1.083   5.539  1.00  0.00    -0.000 C 
BRANCH  14  15
ATOM     15  C   UNL     1      -4.294  -1.087   4.027  1.00  0.00    -0.000 C 
BRANCH  15  16
ATOM     16  C   UNL     1      -3.045  -1.913   3.695  1.00  0.00    -0.000 C 
BRANCH  16  17
ATOM     17  C   UNL     1      -3.422  -3.220   2.989  1.00  0.00    -0.003 C 
ATOM     18  C   UNL     1      -2.606  -4.392   3.527  1.00  0.00     0.004 C 
ENDBRANCH  16  17
ENDBRANCH  15  16
ENDBRANCH  14  15
ENDBRANCH  13  14
ENDBRANCH  12  13
ENDBRANCH  11  12
ENDBRANCH   1  11
TORSDOF 14
ENDMDL
MODEL 9
REMARK VINA RESULT:    -4.139      4.907      6.771
REMARK INTER + INTRA:          -8.474
REMARK INTER:                  -6.370
REMARK INTRA:                  -2.104
REMARK UNBOUND:                -0.948
REMARK SMILES CCCCCCCCCCCCCCCC(=O)[O-]
REMARK SMILES IDX 9 1 10 2 11 3 12 4 13 5 14 6 15 7 16 8 17 9 18 10 8 11 7 12
REMARK SMILES IDX 6 13 5 14 4 15 3 16 2 17 1 18
REMARK H PARENT
REMARK Flexibility Score: inf
ROOT
ATOM      1  C   UNL     1      -3.005  -1.477   4.102  1.00  0.00     0.000 C 
ENDROOT
BRANCH   1   2
ATOM      2  C   UNL     1      -2.769  -2.969   3.826  1.00  0.00     0.000 C 
BRANCH   2   3
ATOM      3  C   UNL     1      -1.648  -3.523   4.716  1.00  0.00     0.000 C 
BRANCH   3   4
ATOM      4  C   UNL     1      -1.643  -2.897   6.119  1.00  0.00     0.000 C 
BRANCH   4   5
ATOM      5  C   UNL     1      -0.290  -2.255   6.477  1.00  0.00     0.000 C 
BRANCH   5   6
ATOM      6  C   UNL     1       0.518  -1.850   5.233  1.00  0.00     0.006 C 
BRANCH   6   7
ATOM      7  C   UNL     1       1.927  -1.355   5.581  1.00  0.00     0.053 C 
BRANCH   7   8
ATOM      8  C   UNL     1       2.938  -2.424   5.313  1.00  0.00     0.041 C 
ATOM      9  O   UNL     1       3.045  -3.405   6.096  1.00  0.00    -0.550 OA
ATOM     10  O   UNL     1       3.792  -2.317   4.221  1.00  0.00    -0.550 OA
ENDBRANCH   7   8
ENDBRANCH   6   7
ENDBRANCH   5   6
ENDBRANCH   4   5
ENDBRANCH   3   4
ENDBRANCH   2   3
ENDBRANCH   1   2
BRANCH   1  11
ATOM     11  C   UNL     1      -4.498  -1.114   4.185  1.00  0.00     0.000 C 
BRANCH  11  12
ATOM     12  C   UNL     1      -4.925  -0.401   5.485  1.00  0.00    -0.000 C 
BRANCH  12  13
ATOM     13  C   UNL     1      -5.771  -1.253   6.453  1.00  0.00    -0.000 C 
BRANCH  13  14
ATOM     14  C   UNL     1      -4.978  -2.297   7.260  1.00  0.00    -0.000 C 
BRANCH  14  15
ATOM     15  C   UNL     1      -5.266  -3.737   6.813  1.00  0.00    -0.000 C 
BRANCH  15  16
ATOM     16  C   UNL     1      -6.460  -3.785   5.852  1.00  0.00    -0.000 C 
BRANCH  16  17
ATOM     17  C   UNL     1      -6.090  -4.506   4.550  1.00  0.00    -0.003 C 
ATOM     18  C   UNL     1      -6.737  -3.830   3.344  1.00  0.00     0.004 C 
ENDBRANCH  16  17
ENDBRANCH  15  16
ENDBRANCH  14  15
ENDBRANCH  13  14
ENDBRANCH  12  13
ENDBRANCH  11  12
ENDBRANCH   1  11
TORSDOF 14
ENDMDL
