MODEL 1
REMARK VINA RESULT:    -4.660      0.000      0.000
REMARK INTER + INTRA:         -10.999
REMARK INTER:                  -9.018
REMARK INTRA:                  -1.981
REMARK UNBOUND:                -1.981
REMARK SMILES CCCCCCCCCCCCCCCCCC(=O)[O-]
REMARK SMILES IDX 10 1 11 2 12 3 13 4 14 5 15 6 16 7 17 8 18 9 19 10 20 11
REMARK SMILES IDX 9 12 8 13 7 14 6 15 5 16 4 17 3 18 2 19 1 20
REMARK H PARENT
REMARK Flexibility Score: inf
ROOT
ATOM      1  C   UNL     1      62.653 -29.141  -1.086  1.00  0.00     0.000 C 
ENDROOT
BRANCH   1   2
ATOM      2  C   UNL     1      63.498 -27.873  -1.285  1.00  0.00     0.000 C 
BRANCH   2   3
ATOM      3  C   UNL     1      63.372 -27.292  -2.705  1.00  0.00     0.000 C 
BRANCH   3   4
ATOM      4  C   UNL     1      62.877 -25.835  -2.714  1.00  0.00     0.000 C 
BRANCH   4   5
ATOM      5  C   UNL     1      61.435 -25.641  -3.221  1.00  0.00     0.000 C 
BRANCH   5   6
ATOM      6  C   UNL     1      61.359 -25.408  -4.739  1.00  0.00     0.000 C 
BRANCH   6   7
ATOM      7  C   UNL     1      59.937 -25.067  -5.219  1.00  0.00     0.006 C 
BRANCH   7   8
ATOM      8  C   UNL     1      59.402 -23.718  -4.707  1.00  0.00     0.053 C 
BRANCH   8   9
ATOM      9  C   UNL     1      57.912 -23.621  -4.830  1.00  0.00     0.041 C 
ATOM     10  O   UNL     1      57.392 -23.132  -5.867  1.00  0.00    -0.550 OA
ATOM     11  O   UNL     1      57.098 -24.104  -3.814  1.00  0.00    -0.550 OA
ENDBRANCH   8   9
ENDBRANCH   7   8
ENDBRANCH   6   7
ENDBRANCH   5   6
ENDBRANCH   4   5
ENDBRANCH   3   4
ENDBRANCH   2   3
ENDBRANCH   1   2
BRANCH   1  12
ATOM     12  C   UNL     1      61.195 -28.823  -0.711  1.00  0.00     0.000 C 
BRANCH  12  13
ATOM     13  C   UNL     1      60.868 -29.184   0.748  1.00  0.00    -0.000 C 
BRANCH  13  14
ATOM     14  C   UNL     1      59.370 -29.041   1.070  1.00  0.00    -0.000 C 
BRANCH  14  15
ATOM     15  C   UNL     1      58.473 -29.847   0.112  1.00  0.00    -0.000 C 
BRANCH  15  16
ATOM     16  C   UNL     1      56.996 -29.415   0.081  1.00  0.00    -0.000 C 
BRANCH  16  17
ATOM     17  C   UNL     1      56.647 -28.558  -1.145  1.00  0.00    -0.000 C 
BRANCH  17  18
ATOM     18  C   UNL     1      57.158 -27.120  -0.972  1.00  0.00    -0.000 C 
BRANCH  18  19
ATOM     19  C   UNL     1      58.313 -26.783  -1.928  1.00  0.00    -0.003 C 
ATOM     20  C   UNL     1      58.435 -27.778  -3.082  1.00  0.00     0.004 C 
ENDBRANCH  18  19
ENDBRANCH  17  18
ENDBRANCH  16  17
ENDBRANCH  15  16
ENDBRANCH  14  15
ENDBRANCH  13  14
ENDBRANCH  12  13
ENDBRANCH   1  12
TORSDOF 16
ENDMDL
MODEL 2
REMARK VINA RESULT:    -4.644      2.377      5.487
REMARK INTER + INTRA:         -10.969
REMARK INTER:                  -8.546
REMARK INTRA:                  -2.423
REMARK UNBOUND:                -1.981
REMARK SMILES CCCCCCCCCCCCCCCCCC(=O)[O-]
REMARK SMILES IDX 10 1 11 2 12 3 13 4 14 5 15 6 16 7 17 8 18 9 19 10 20 11
REMARK SMILES IDX 9 12 8 13 7 14 6 15 5 16 4 17 3 18 2 19 1 20
REMARK H PARENT
REMARK Flexibility Score: inf
ROOT
ATOM      1  C   UNL     1      62.148 -25.633  -2.937  1.00  0.00     0.000 C 
ENDROOT
BRANCH   1   2
ATOM      2  C   UNL     1      63.012 -26.900  -3.025  1.00  0.00     0.000 C 
BRANCH   2   3
ATOM      3  C   UNL     1      63.678 -27.257  -1.684  1.00  0.00     0.000 C 
BRANCH   3   4
ATOM      4  C   UNL     1      63.500 -28.737  -1.301  1.00  0.00     0.000 C 
BRANCH   4   5
ATOM      5  C   UNL     1      62.419 -29.010  -0.239  1.00  0.00     0.000 C 
BRANCH   5   6
ATOM      6  C   UNL     1      61.024 -29.237  -0.847  1.00  0.00     0.000 C 
BRANCH   6   7
ATOM      7  C   UNL     1      59.886 -28.895   0.131  1.00  0.00     0.006 C 
BRANCH   7   8
ATOM      8  C   UNL     1      58.481 -29.262  -0.377  1.00  0.00     0.053 C 
BRANCH   8   9
ATOM      9  C   UNL     1      57.403 -28.747   0.527  1.00  0.00     0.041 C 
ATOM     10  O   UNL     1      56.941 -27.586   0.366  1.00  0.00    -0.550 OA
ATOM     11  O   UNL     1      56.883 -29.563   1.523  1.00  0.00    -0.550 OA
ENDBRANCH   8   9
ENDBRANCH   7   8
ENDBRANCH   6   7
ENDBRANCH   5   6
ENDBRANCH   4   5
ENDBRANCH   3   4
ENDBRANCH   2   3
ENDBRANCH   1   2
BRANCH   1  12
ATOM     12  C   UNL     1      60.720 -25.926  -2.443  1.00  0.00     0.000 C 
BRANCH  12  13
ATOM     13  C   UNL     1      60.040 -27.056  -3.234  1.00  0.00    -0.000 C 
BRANCH  13  14
ATOM     14  C   UNL     1      58.523 -26.844  -3.382  1.00  0.00    -0.000 C 
BRANCH  14  15
ATOM     15  C   UNL     1      58.065 -25.454  -2.902  1.00  0.00    -0.000 C 
BRANCH  15  16
ATOM     16  C   UNL     1      57.432 -24.564  -3.987  1.00  0.00    -0.000 C 
BRANCH  16  17
ATOM     17  C   UNL     1      58.474 -23.861  -4.870  1.00  0.00    -0.000 C 
BRANCH  17  18
ATOM     18  C   UNL     1      58.413 -24.383  -6.312  1.00  0.00    -0.000 C 
BRANCH  18  19
ATOM     19  C   UNL     1      59.500 -25.428  -6.611  1.00  0.00    -0.003 C 
ATOM     20  C   UNL     1      60.899 -24.954  -6.215  1.00  0.00     0.004 C 
ENDBRANCH  18  19
ENDBRANCH  17  18
ENDBRANCH  16  17
ENDBRANCH  15  16
ENDBRANCH  14  15
ENDBRANCH  13  14
ENDBRANCH  12  13
ENDBRANCH   1  12
TORSDOF 16
ENDMDL
MODEL 3
REMARK VINA RESULT:    -4.614      1.491      2.048
REMARK INTER + INTRA:         -10.911
REMARK INTER:                  -8.834
REMARK INTRA:                  -2.077
REMARK UNBOUND:                -1.981
REMARK SMILES CCCCCCCCCCCCCCCCCC(=O)[O-]
REMARK SMILES IDX 10 1 11 2 12 3 13 4 14 5 15 6 16 7 17 8 18 9 19 10 20 11
REMARK SMILES IDX 9 12 8 13 7 14 6 15 5 16 4 17 3 18 2 19 1 20
REMARK H PARENT
REMARK Flexibility Score: inf
ROOT
ATOM      1  C   UNL     1      61.055 -28.867  -0.937  1.00  0.00     0.000 C 
ENDROOT
BRANCH   1   2
ATOM      2  C   UNL     1      62.450 -29.247  -0.417  1.00  0.00     0.000 C 
BRANCH   2   3
ATOM      3  C   UNL     1      63.581 -28.537  -1.182  1.00  0.00     0.000 C 
BRANCH   3   4
ATOM      4  C   UNL     1      63.085 -27.810  -2.445  1.00  0.00     0.000 C 
BRANCH   4   5
ATOM      5  C   UNL     1      63.286 -26.283  -2.439  1.00  0.00     0.000 C 
BRANCH   5   6
ATOM      6  C   UNL     1      62.325 -25.548  -3.389  1.00  0.00     0.000 C 
BRANCH   6   7
ATOM      7  C   UNL     1      60.849 -25.704  -2.980  1.00  0.00     0.006 C 
BRANCH   7   8
ATOM      8  C   UNL     1      59.897 -26.010  -4.149  1.00  0.00     0.053 C 
BRANCH   8   9
ATOM      9  C   UNL     1      59.871 -24.903  -5.158  1.00  0.00     0.041 C 
ATOM     10  O   UNL     1      60.104 -25.146  -6.372  1.00  0.00    -0.550 OA
ATOM     11  O   UNL     1      59.552 -23.610  -4.765  1.00  0.00    -0.550 OA
ENDBRANCH   8   9
ENDBRANCH   7   8
ENDBRANCH   6   7
ENDBRANCH   5   6
ENDBRANCH   4   5
ENDBRANCH   3   4
ENDBRANCH   2   3
ENDBRANCH   1   2
BRANCH   1  12
ATOM     12  C   UNL     1      59.936 -29.239   0.053  1.00  0.00     0.000 C 
BRANCH  12  13
ATOM     13  C   UNL     1      60.426 -29.281   1.511  1.00  0.00    -0.000 C 
BRANCH  13  14
ATOM     14  C   UNL     1      59.338 -28.856   2.512  1.00  0.00    -0.000 C 
BRANCH  14  15
ATOM     15  C   UNL     1      57.917 -28.950   1.925  1.00  0.00    -0.000 C 
BRANCH  15  16
ATOM     16  C   UNL     1      57.123 -27.631   1.919  1.00  0.00    -0.000 C 
BRANCH  16  17
ATOM     17  C   UNL     1      56.204 -27.489   0.697  1.00  0.00    -0.000 C 
BRANCH  17  18
ATOM     18  C   UNL     1      56.610 -26.281  -0.159  1.00  0.00    -0.000 C 
BRANCH  18  19
ATOM     19  C   UNL     1      57.684 -26.629  -1.202  1.00  0.00    -0.003 C 
ATOM     20  C   UNL     1      57.280 -27.799  -2.098  1.00  0.00     0.004 C 
ENDBRANCH  18  19
ENDBRANCH  17  18
ENDBRANCH  16  17
ENDBRANCH  15  16
ENDBRANCH  14  15
ENDBRANCH  13  14
ENDBRANCH  12  13
ENDBRANCH   1  12
TORSDOF 16
ENDMDL
MODEL 4
REMARK VINA RESULT:    -4.611      4.187      6.917
REMARK INTER + INTRA:         -10.905
REMARK INTER:                  -8.842
REMARK INTRA:                  -2.063
REMARK UNBOUND:                -1.981
REMARK SMILES CCCCCCCCCCCCCCCCCC(=O)[O-]
REMARK SMILES IDX 10 1 11 2 12 3 13 4 14 5 15 6 16 7 17 8 18 9 19 10 20 11
REMARK SMILES IDX 9 12 8 13 7 14 6 15 5 16 4 17 3 18 2 19 1 20
REMARK H PARENT
REMARK Flexibility Score: inf
ROOT
ATOM      1  C   UNL     1      63.300 -28.792  -0.676  1.00  0.00     0.000 C 
ENDROOT
BRANCH   1   2
ATOM      2  C   UNL     1      62.042 -29.195   0.109  1.00  0.00     0.000 C 
BRANCH   2   3
ATOM      3  C   UNL     1      60.743 -28.720  -0.566  1.00  0.00     0.000 C 
BRANCH   3   4
ATOM      4  C   UNL     1      59.574 -29.702  -0.372  1.00  0.00     0.000 C 
BRANCH   4   5
ATOM      5  C   UNL     1      59.286 -30.091   1.090  1.00  0.00     0.000 C 
BRANCH   5   6
ATOM      6  C   UNL     1      58.385 -29.077   1.814  1.00  0.00     0.000 C 
BRANCH   6   7
ATOM      7  C   UNL     1      59.021 -28.532   3.106  1.00  0.00     0.006 C 
BRANCH   7   8
ATOM      8  C   UNL     1      60.483 -28.958   3.322  1.00  0.00     0.053 C 
BRANCH   8   9
ATOM      9  C   UNL     1      60.675 -29.667   4.627  1.00  0.00     0.041 C 
ATOM     10  O   UNL     1      60.443 -30.902   4.719  1.00  0.00    -0.550 OA
ATOM     11  O   UNL     1      61.145 -28.972   5.734  1.00  0.00    -0.550 OA
ENDBRANCH   8   9
ENDBRANCH   7   8
ENDBRANCH   6   7
ENDBRANCH   5   6
ENDBRANCH   4   5
ENDBRANCH   3   4
ENDBRANCH   2   3
ENDBRANCH   1   2
BRANCH   1  12
ATOM     12  C   UNL     1      62.964 -28.141  -2.031  1.00  0.00     0.000 C 
BRANCH  12  13
ATOM     13  C   UNL     1      63.768 -26.855  -2.284  1.00  0.00    -0.000 C 
BRANCH  13  14
ATOM     14  C   UNL     1      62.897 -25.713  -2.836  1.00  0.00    -0.000 C 
BRANCH  14  15
ATOM     15  C   UNL     1      61.459 -26.161  -3.158  1.00  0.00    -0.000 C 
BRANCH  15  16
ATOM     16  C   UNL     1      60.425 -25.023  -3.249  1.00  0.00    -0.000 C 
BRANCH  16  17
ATOM     17  C   UNL     1      59.070 -25.393  -2.628  1.00  0.00    -0.000 C 
BRANCH  17  18
ATOM     18  C   UNL     1      58.729 -26.866  -2.894  1.00  0.00    -0.000 C 
BRANCH  18  19
ATOM     19  C   UNL     1      57.357 -27.267  -2.329  1.00  0.00    -0.003 C 
ATOM     20  C   UNL     1      57.210 -26.938  -0.843  1.00  0.00     0.004 C 
ENDBRANCH  18  19
ENDBRANCH  17  18
ENDBRANCH  16  17
ENDBRANCH  15  16
ENDBRANCH  14  15
ENDBRANCH  13  14
ENDBRANCH  12  13
ENDBRANCH   1  12
TORSDOF 16
ENDMDL
MODEL 5
REMARK VINA RESULT:    -4.609      1.464      2.320
REMARK INTER + INTRA:         -10.901
REMARK INTER:                  -8.827
REMARK INTRA:                  -2.074
REMARK UNBOUND:                -1.981
REMARK SMILES CCCCCCCCCCCCCCCCCC(=O)[O-]
REMARK SMILES IDX 10 1 11 2 12 3 13 4 14 5 15 6 16 7 17 8 18 9 19 10 20 11
REMARK SMILES IDX 9 12 8 13 7 14 6 15 5 16 4 17 3 18 2 19 1 20
REMARK H PARENT
REMARK Flexibility Score: inf
ROOT
ATOM      1  C   UNL     1      63.611 -28.087  -1.161  1.00  0.00     0.000 C 
ENDROOT
BRANCH   1   2
ATOM      2  C   UNL     1      63.112 -27.628  -2.540  1.00  0.00     0.000 C 
BRANCH   2   3
ATOM      3  C   UNL     1      63.027 -26.095  -2.660  1.00  0.00     0.000 C 
BRANCH   3   4
ATOM      4  C   UNL     1      61.749 -25.621  -3.374  1.00  0.00     0.000 C 
BRANCH   4   5
ATOM      5  C   UNL     1      60.443 -25.842  -2.588  1.00  0.00     0.000 C 
BRANCH   5   6
ATOM      6  C   UNL     1      59.443 -26.746  -3.329  1.00  0.00     0.000 C 
BRANCH   6   7
ATOM      7  C   UNL     1      58.379 -25.947  -4.102  1.00  0.00     0.006 C 
BRANCH   7   8
ATOM      8  C   UNL     1      58.624 -25.867  -5.619  1.00  0.00     0.053 C 
BRANCH   8   9
ATOM      9  C   UNL     1      59.355 -24.618  -6.005  1.00  0.00     0.041 C 
ATOM     10  O   UNL     1      59.953 -24.549  -7.112  1.00  0.00    -0.550 OA
ATOM     11  O   UNL     1      59.344 -23.516  -5.160  1.00  0.00    -0.550 OA
ENDBRANCH   8   9
ENDBRANCH   7   8
ENDBRANCH   6   7
ENDBRANCH   5   6
ENDBRANCH   4   5
ENDBRANCH   3   4
ENDBRANCH   2   3
ENDBRANCH   1   2
BRANCH   1  12
ATOM     12  C   UNL     1      62.548 -28.886  -0.386  1.00  0.00     0.000 C 
BRANCH  12  13
ATOM     13  C   UNL     1      61.281 -29.145  -1.218  1.00  0.00    -0.000 C 
BRANCH  13  14
ATOM     14  C   UNL     1      60.009 -29.203  -0.354  1.00  0.00    -0.000 C 
BRANCH  14  15
ATOM     15  C   UNL     1      60.313 -29.253   1.155  1.00  0.00    -0.000 C 
BRANCH  15  16
ATOM     16  C   UNL     1      59.082 -29.151   2.073  1.00  0.00    -0.000 C 
BRANCH  16  17
ATOM     17  C   UNL     1      57.755 -29.138   1.299  1.00  0.00    -0.000 C 
BRANCH  17  18
ATOM     18  C   UNL     1      56.793 -28.090   1.876  1.00  0.00    -0.000 C 
BRANCH  18  19
ATOM     19  C   UNL     1      56.806 -26.774   1.082  1.00  0.00    -0.003 C 
ATOM     20  C   UNL     1      57.082 -26.985  -0.407  1.00  0.00     0.004 C 
ENDBRANCH  18  19
ENDBRANCH  17  18
ENDBRANCH  16  17
ENDBRANCH  15  16
ENDBRANCH  14  15
ENDBRANCH  13  14
ENDBRANCH  12  13
ENDBRANCH   1  12
TORSDOF 16
ENDMDL
MODEL 6
REMARK VINA RESULT:    -4.586      1.317      2.686
REMARK INTER + INTRA:         -10.856
REMARK INTER:                  -8.502
REMARK INTRA:                  -2.355
REMARK UNBOUND:                -1.981
REMARK SMILES CCCCCCCCCCCCCCCCCC(=O)[O-]
REMARK SMILES IDX 10 1 11 2 12 3 13 4 14 5 15 6 16 7 17 8 18 9 19 10 20 11
REMARK SMILES IDX 9 12 8 13 7 14 6 15 5 16 4 17 3 18 2 19 1 20
REMARK H PARENT
REMARK Flexibility Score: inf
ROOT
ATOM      1  C   UNL     1      61.472 -28.913  -0.084  1.00  0.00     0.000 C 
ENDROOT
BRANCH   1   2
ATOM      2  C   UNL     1      62.970 -28.964  -0.426  1.00  0.00     0.000 C 
BRANCH   2   3
ATOM      3  C   UNL     1      63.268 -28.487  -1.858  1.00  0.00     0.000 C 
BRANCH   3   4
ATOM      4  C   UNL     1      63.784 -27.038  -1.911  1.00  0.00     0.000 C 
BRANCH   4   5
ATOM      5  C   UNL     1      63.295 -26.215  -3.118  1.00  0.00     0.000 C 
BRANCH   5   6
ATOM      6  C   UNL     1      61.881 -25.644  -2.920  1.00  0.00     0.000 C 
BRANCH   6   7
ATOM      7  C   UNL     1      61.103 -25.510  -4.242  1.00  0.00     0.006 C 
BRANCH   7   8
ATOM      8  C   UNL     1      59.927 -24.520  -4.188  1.00  0.00     0.053 C 
BRANCH   8   9
ATOM      9  C   UNL     1      59.062 -24.606  -5.408  1.00  0.00     0.041 C 
ATOM     10  O   UNL     1      57.992 -23.944  -5.475  1.00  0.00    -0.550 OA
ATOM     11  O   UNL     1      59.457 -25.387  -6.486  1.00  0.00    -0.550 OA
ENDBRANCH   8   9
ENDBRANCH   7   8
ENDBRANCH   6   7
ENDBRANCH   5   6
ENDBRANCH   4   5
ENDBRANCH   3   4
ENDBRANCH   2   3
ENDBRANCH   1   2
BRANCH   1  12
ATOM     12  C   UNL     1      60.579 -29.032  -1.332  1.00  0.00     0.000 C 
BRANCH  12  13
ATOM     13  C   UNL     1      59.546 -27.897  -1.430  1.00  0.00    -0.000 C 
BRANCH  13  14
ATOM     14  C   UNL     1      58.815 -27.880  -2.784  1.00  0.00    -0.000 C 
BRANCH  14  15
ATOM     15  C   UNL     1      57.551 -27.000  -2.769  1.00  0.00    -0.000 C 
BRANCH  15  16
ATOM     16  C   UNL     1      57.469 -25.992  -1.608  1.00  0.00    -0.000 C 
BRANCH  16  17
ATOM     17  C   UNL     1      56.333 -26.304  -0.623  1.00  0.00    -0.000 C 
BRANCH  17  18
ATOM     18  C   UNL     1      56.880 -26.524   0.794  1.00  0.00    -0.000 C 
BRANCH  18  19
ATOM     19  C   UNL     1      56.771 -27.988   1.250  1.00  0.00    -0.003 C 
ATOM     20  C   UNL     1      58.080 -28.525   1.829  1.00  0.00     0.004 C 
ENDBRANCH  18  19
ENDBRANCH  17  18
ENDBRANCH  16  17
ENDBRANCH  15  16
ENDBRANCH  14  15
ENDBRANCH  13  14
ENDBRANCH  12  13
ENDBRANCH   1  12
TORSDOF 16
ENDMDL
MODEL 7
REMARK VINA RESULT:    -4.556      3.459      6.039
REMARK INTER + INTRA:         -10.798
REMARK INTER:                  -8.887
REMARK INTRA:                  -1.911
REMARK UNBOUND:                -1.981
REMARK SMILES CCCCCCCCCCCCCCCCCC(=O)[O-]
REMARK SMILES IDX 10 1 11 2 12 3 13 4 14 5 15 6 16 7 17 8 18 9 19 10 20 11
REMARK SMILES IDX 9 12 8 13 7 14 6 15 5 16 4 17 3 18 2 19 1 20
REMARK H PARENT
REMARK Flexibility Score: inf
ROOT
ATOM      1  C   UNL     1      63.744 -26.890  -2.059  1.00  0.00     0.000 C 
ENDROOT
BRANCH   1   2
ATOM      2  C   UNL     1      63.007 -28.235  -1.962  1.00  0.00     0.000 C 
BRANCH   2   3
ATOM      3  C   UNL     1      63.111 -28.869  -0.563  1.00  0.00     0.000 C 
BRANCH   3   4
ATOM      4  C   UNL     1      61.737 -29.140   0.075  1.00  0.00     0.000 C 
BRANCH   4   5
ATOM      5  C   UNL     1      60.550 -29.134  -0.907  1.00  0.00     0.000 C 
BRANCH   5   6
ATOM      6  C   UNL     1      59.241 -29.626  -0.268  1.00  0.00     0.000 C 
BRANCH   6   7
ATOM      7  C   UNL     1      59.346 -29.782   1.260  1.00  0.00     0.006 C 
BRANCH   7   8
ATOM      8  C   UNL     1      58.426 -28.843   2.058  1.00  0.00     0.053 C 
BRANCH   8   9
ATOM      9  C   UNL     1      58.863 -28.706   3.485  1.00  0.00     0.041 C 
ATOM     10  O   UNL     1      58.075 -29.007   4.421  1.00  0.00    -0.550 OA
ATOM     11  O   UNL     1      60.152 -28.281   3.780  1.00  0.00    -0.550 OA
ENDBRANCH   8   9
ENDBRANCH   7   8
ENDBRANCH   6   7
ENDBRANCH   5   6
ENDBRANCH   4   5
ENDBRANCH   3   4
ENDBRANCH   2   3
ENDBRANCH   1   2
BRANCH   1  12
ATOM     12  C   UNL     1      63.014 -25.882  -2.965  1.00  0.00     0.000 C 
BRANCH  12  13
ATOM     13  C   UNL     1      61.484 -26.027  -2.899  1.00  0.00    -0.000 C 
BRANCH  13  14
ATOM     14  C   UNL     1      60.799 -25.669  -4.229  1.00  0.00    -0.000 C 
BRANCH  14  15
ATOM     15  C   UNL     1      59.300 -25.359  -4.065  1.00  0.00    -0.000 C 
BRANCH  15  16
ATOM     16  C   UNL     1      58.352 -26.537  -4.354  1.00  0.00    -0.000 C 
BRANCH  16  17
ATOM     17  C   UNL     1      58.231 -27.513  -3.174  1.00  0.00    -0.000 C 
BRANCH  17  18
ATOM     18  C   UNL     1      56.971 -27.219  -2.347  1.00  0.00    -0.000 C 
BRANCH  18  19
ATOM     19  C   UNL     1      57.293 -26.609  -0.974  1.00  0.00    -0.003 C 
ATOM     20  C   UNL     1      57.264 -25.081  -0.984  1.00  0.00     0.004 C 
ENDBRANCH  18  19
ENDBRANCH  17  18
ENDBRANCH  16  17
ENDBRANCH  15  16
ENDBRANCH  14  15
ENDBRANCH  13  14
ENDBRANCH  12  13
ENDBRANCH   1  12
TORSDOF 16
ENDMDL
MODEL 8
REMARK VINA RESULT:    -4.552      4.102      6.877
REMARK INTER + INTRA:         -10.791
REMARK INTER:                  -9.220
REMARK INTRA:                  -1.571
REMARK UNBOUND:                -1.981
REMARK SMILES CCCCCCCCCCCCCCCCCC(=O)[O-]
REMARK SMILES IDX 10 1 11 2 12 3 13 4 14 5 15 6 16 7 17 8 18 9 19 10 20 11
REMARK SMILES IDX 9 12 8 13 7 14 6 15 5 16 4 17 3 18 2 19 1 20
REMARK H PARENT
REMARK Flexibility Score: inf
ROOT
ATOM      1  C   UNL     1      62.945 -28.259  -2.031  1.00  0.00     0.000 C 
ENDROOT
BRANCH   1   2
ATOM      2  C   UNL     1      63.174 -28.789  -0.607  1.00  0.00     0.000 C 
BRANCH   2   3
ATOM      3  C   UNL     1      61.862 -29.167   0.103  1.00  0.00     0.000 C 
BRANCH   3   4
ATOM      4  C   UNL     1      60.612 -28.837  -0.732  1.00  0.00     0.000 C 
BRANCH   4   5
ATOM      5  C   UNL     1      59.285 -29.366  -0.157  1.00  0.00     0.000 C 
BRANCH   5   6
ATOM      6  C   UNL     1      59.436 -29.951   1.257  1.00  0.00     0.000 C 
BRANCH   6   7
ATOM      7  C   UNL     1      59.198 -28.907   2.362  1.00  0.00     0.006 C 
BRANCH   7   8
ATOM      8  C   UNL     1      60.189 -28.989   3.537  1.00  0.00     0.053 C 
BRANCH   8   9
ATOM      9  C   UNL     1      59.786 -30.023   4.542  1.00  0.00     0.041 C 
ATOM     10  O   UNL     1      60.452 -31.086   4.661  1.00  0.00    -0.550 OA
ATOM     11  O   UNL     1      58.696 -29.797   5.373  1.00  0.00    -0.550 OA
ENDBRANCH   8   9
ENDBRANCH   7   8
ENDBRANCH   6   7
ENDBRANCH   5   6
ENDBRANCH   4   5
ENDBRANCH   3   4
ENDBRANCH   2   3
ENDBRANCH   1   2
BRANCH   1  12
ATOM     12  C   UNL     1      63.651 -26.914  -2.280  1.00  0.00     0.000 C 
BRANCH  12  13
ATOM     13  C   UNL     1      62.692 -25.831  -2.804  1.00  0.00    -0.000 C 
BRANCH  13  14
ATOM     14  C   UNL     1      61.270 -26.367  -3.044  1.00  0.00    -0.000 C 
BRANCH  14  15
ATOM     15  C   UNL     1      60.185 -25.291  -2.848  1.00  0.00    -0.000 C 
BRANCH  15  16
ATOM     16  C   UNL     1      58.736 -25.806  -2.913  1.00  0.00    -0.000 C 
BRANCH  16  17
ATOM     17  C   UNL     1      58.277 -26.129  -4.342  1.00  0.00    -0.000 C 
BRANCH  17  18
ATOM     18  C   UNL     1      58.696 -25.020  -5.317  1.00  0.00    -0.000 C 
BRANCH  18  19
ATOM     19  C   UNL     1      59.525 -25.551  -6.498  1.00  0.00    -0.003 C 
ATOM     20  C   UNL     1      60.954 -25.009  -6.509  1.00  0.00     0.004 C 
ENDBRANCH  18  19
ENDBRANCH  17  18
ENDBRANCH  16  17
ENDBRANCH  15  16
ENDBRANCH  14  15
ENDBRANCH  13  14
ENDBRANCH  12  13
ENDBRANCH   1  12
TORSDOF 16
ENDMDL
MODEL 9
REMARK VINA RESULT:    -4.550      1.653      4.634
REMARK INTER + INTRA:         -10.787
REMARK INTER:                  -8.352
REMARK INTRA:                  -2.435
REMARK UNBOUND:                -1.981
REMARK SMILES CCCCCCCCCCCCCCCCCC(=O)[O-]
REMARK SMILES IDX 10 1 11 2 12 3 13 4 14 5 15 6 16 7 17 8 18 9 19 10 20 11
REMARK SMILES IDX 9 12 8 13 7 14 6 15 5 16 4 17 3 18 2 19 1 20
REMARK H PARENT
REMARK Flexibility Score: inf
ROOT
ATOM      1  C   UNL     1      62.684 -29.022  -1.257  1.00  0.00     0.000 C 
ENDROOT
BRANCH   1   2
ATOM      2  C   UNL     1      61.330 -28.742  -0.586  1.00  0.00     0.000 C 
BRANCH   2   3
ATOM      3  C   UNL     1      60.144 -28.915  -1.551  1.00  0.00     0.000 C 
BRANCH   3   4
ATOM      4  C   UNL     1      58.870 -28.198  -1.069  1.00  0.00     0.000 C 
BRANCH   4   5
ATOM      5  C   UNL     1      57.701 -28.201  -2.072  1.00  0.00     0.000 C 
BRANCH   5   6
ATOM      6  C   UNL     1      56.796 -26.965  -1.941  1.00  0.00     0.000 C 
BRANCH   6   7
ATOM      7  C   UNL     1      57.054 -26.172  -0.646  1.00  0.00     0.006 C 
BRANCH   7   8
ATOM      8  C   UNL     1      56.822 -24.657  -0.773  1.00  0.00     0.053 C 
BRANCH   8   9
ATOM      9  C   UNL     1      55.596 -24.340  -1.574  1.00  0.00     0.041 C 
ATOM     10  O   UNL     1      55.703 -23.857  -2.732  1.00  0.00    -0.550 OA
ATOM     11  O   UNL     1      54.337 -24.613  -1.056  1.00  0.00    -0.550 OA
ENDBRANCH   8   9
ENDBRANCH   7   8
ENDBRANCH   6   7
ENDBRANCH   5   6
ENDBRANCH   4   5
ENDBRANCH   3   4
ENDBRANCH   2   3
ENDBRANCH   1   2
BRANCH   1  12
ATOM     12  C   UNL     1      63.576 -27.769  -1.330  1.00  0.00     0.000 C 
BRANCH  12  13
ATOM     13  C   UNL     1      63.561 -27.114  -2.722  1.00  0.00    -0.000 C 
BRANCH  13  14
ATOM     14  C   UNL     1      62.701 -25.838  -2.765  1.00  0.00    -0.000 C 
BRANCH  14  15
ATOM     15  C   UNL     1      61.307 -26.077  -3.374  1.00  0.00    -0.000 C 
BRANCH  15  16
ATOM     16  C   UNL     1      60.186 -25.184  -2.812  1.00  0.00    -0.000 C 
BRANCH  16  17
ATOM     17  C   UNL     1      59.074 -24.903  -3.834  1.00  0.00    -0.000 C 
BRANCH  17  18
ATOM     18  C   UNL     1      59.051 -25.978  -4.929  1.00  0.00    -0.000 C 
BRANCH  18  19
ATOM     19  C   UNL     1      59.161 -25.385  -6.343  1.00  0.00    -0.003 C 
ATOM     20  C   UNL     1      60.411 -24.524  -6.527  1.00  0.00     0.004 C 
ENDBRANCH  18  19
ENDBRANCH  17  18
ENDBRANCH  16  17
ENDBRANCH  15  16
ENDBRANCH  14  15
ENDBRANCH  13  14
ENDBRANCH  12  13
ENDBRANCH   1  12
TORSDOF 16
ENDMDL
