MODEL 1
REMARK VINA RESULT:    -6.083      0.000      0.000
REMARK INTER + INTRA:          -7.284
REMARK INTER:                  -7.150
REMARK INTRA:                  -0.134
REMARK UNBOUND:                -0.134
REMARK SMILES O=C([O-])C=Cc1ccc(O)c(O)c1
REMARK SMILES IDX 6 1 13 2 7 3 11 4 8 5 9 6 5 7 4 8 2 9 1 10 3 11 12 12 10 14
REMARK H PARENT 12 13 10 15
REMARK Flexibility Score: inf
ROOT
ATOM      1  C   UNL     1      13.220 -12.272  28.690  1.00  0.00    -0.022 A 
ATOM      2  C   UNL     1      11.888 -12.269  29.138  1.00  0.00     0.058 A 
ATOM      3  C   UNL     1      14.000 -11.113  28.872  1.00  0.00     0.012 A 
ATOM      4  C   UNL     1      11.333 -11.126  29.734  1.00  0.00     0.157 A 
ATOM      5  C   UNL     1      13.448  -9.975  29.466  1.00  0.00     0.051 A 
ATOM      6  C   UNL     1      12.118  -9.974  29.896  1.00  0.00     0.157 A 
ENDROOT
BRANCH   1   7
ATOM      7  C   UNL     1      13.760 -13.510  28.076  1.00  0.00     0.010 C 
ATOM      8  C   UNL     1      14.823 -14.173  28.549  1.00  0.00     0.025 C 
BRANCH   8   9
ATOM      9  C   UNL     1      15.332 -15.392  27.902  1.00  0.00     0.064 C 
ATOM     10  O   UNL     1      15.719 -15.346  26.705  1.00  0.00    -0.545 OA
ATOM     11  O   UNL     1      15.392 -16.599  28.591  1.00  0.00    -0.545 OA
ENDBRANCH   8   9
ENDBRANCH   1   7
BRANCH   4  12
ATOM     12  O   UNL     1      10.008 -11.135  30.165  1.00  0.00    -0.504 OA
ATOM     13  H   UNL     1       9.763 -10.957  31.133  1.00  0.00     0.293 HD
ENDBRANCH   4  12
BRANCH   6  14
ATOM     14  O   UNL     1      11.595  -8.822  30.482  1.00  0.00    -0.504 OA
ATOM     15  H   UNL     1      11.752  -8.595  31.456  1.00  0.00     0.293 HD
ENDBRANCH   6  14
TORSDOF 4
ENDMDL
MODEL 2
REMARK VINA RESULT:    -6.076      1.161      1.503
REMARK INTER + INTRA:          -7.275
REMARK INTER:                  -7.141
REMARK INTRA:                  -0.134
REMARK UNBOUND:                -0.134
REMARK SMILES O=C([O-])C=Cc1ccc(O)c(O)c1
REMARK SMILES IDX 6 1 13 2 7 3 11 4 8 5 9 6 5 7 4 8 2 9 1 10 3 11 12 12 10 14
REMARK H PARENT 12 13 10 15
REMARK Flexibility Score: inf
ROOT
ATOM      1  C   UNL     1      13.309 -12.177  28.755  1.00  0.00    -0.022 A 
ATOM      2  C   UNL     1      13.591 -11.912  30.106  1.00  0.00     0.058 A 
ATOM      3  C   UNL     1      12.529 -11.256  28.030  1.00  0.00     0.012 A 
ATOM      4  C   UNL     1      13.085 -10.762  30.732  1.00  0.00     0.157 A 
ATOM      5  C   UNL     1      12.024 -10.111  28.653  1.00  0.00     0.051 A 
ATOM      6  C   UNL     1      12.296  -9.860  30.002  1.00  0.00     0.157 A 
ENDROOT
BRANCH   1   7
ATOM      7  C   UNL     1      13.878 -13.402  28.139  1.00  0.00     0.010 C 
ATOM      8  C   UNL     1      14.789 -14.181  28.735  1.00  0.00     0.025 C 
BRANCH   8   9
ATOM      9  C   UNL     1      15.334 -15.381  28.082  1.00  0.00     0.064 C 
ATOM     10  O   UNL     1      15.748 -15.310  26.896  1.00  0.00    -0.545 OA
ATOM     11  O   UNL     1      15.400 -16.597  28.755  1.00  0.00    -0.545 OA
ENDBRANCH   8   9
ENDBRANCH   1   7
BRANCH   4  12
ATOM     12  O   UNL     1      13.364 -10.516  32.076  1.00  0.00    -0.504 OA
ATOM     13  H   UNL     1      14.295 -10.261  32.387  1.00  0.00     0.293 HD
ENDBRANCH   4  12
BRANCH   6  14
ATOM     14  O   UNL     1      11.777  -8.710  30.596  1.00  0.00    -0.504 OA
ATOM     15  H   UNL     1      12.326  -7.867  30.707  1.00  0.00     0.293 HD
ENDBRANCH   6  14
TORSDOF 4
ENDMDL
MODEL 3
REMARK VINA RESULT:    -5.961      1.458      5.876
REMARK INTER + INTRA:          -7.140
REMARK INTER:                  -7.012
REMARK INTRA:                  -0.128
REMARK UNBOUND:                -0.134
REMARK SMILES O=C([O-])C=Cc1ccc(O)c(O)c1
REMARK SMILES IDX 6 1 13 2 7 3 11 4 8 5 9 6 5 7 4 8 2 9 1 10 3 11 12 12 10 14
REMARK H PARENT 12 13 10 15
REMARK Flexibility Score: inf
ROOT
ATOM      1  C   UNL     1      14.705 -13.050  28.431  1.00  0.00    -0.022 A 
ATOM      2  C   UNL     1      14.704 -13.875  29.569  1.00  0.00     0.058 A 
ATOM      3  C   UNL     1      15.030 -13.615  27.183  1.00  0.00     0.012 A 
ATOM      4  C   UNL     1      15.044 -15.233  29.471  1.00  0.00     0.157 A 
ATOM      5  C   UNL     1      15.369 -14.968  27.085  1.00  0.00     0.051 A 
ATOM      6  C   UNL     1      15.380 -15.779  28.224  1.00  0.00     0.157 A 
ENDROOT
BRANCH   1   7
ATOM      7  C   UNL     1      14.328 -11.623  28.587  1.00  0.00     0.010 C 
ATOM      8  C   UNL     1      13.163 -11.214  29.103  1.00  0.00     0.025 C 
BRANCH   8   9
ATOM      9  C   UNL     1      12.826  -9.787  29.230  1.00  0.00     0.064 C 
ATOM     10  O   UNL     1      12.998  -9.018  28.249  1.00  0.00    -0.545 OA
ATOM     11  O   UNL     1      12.318  -9.273  30.419  1.00  0.00    -0.545 OA
ENDBRANCH   8   9
ENDBRANCH   1   7
BRANCH   4  12
ATOM     12  O   UNL     1      15.047 -16.037  30.610  1.00  0.00    -0.504 OA
ATOM     13  H   UNL     1      14.293 -16.686  30.805  1.00  0.00     0.293 HD
ENDBRANCH   4  12
BRANCH   6  14
ATOM     14  O   UNL     1      15.724 -17.125  28.094  1.00  0.00    -0.504 OA
ATOM     15  H   UNL     1      15.027 -17.860  28.084  1.00  0.00     0.293 HD
ENDBRANCH   6  14
TORSDOF 4
ENDMDL
MODEL 4
REMARK VINA RESULT:    -5.618     10.426     12.810
REMARK INTER + INTRA:          -6.737
REMARK INTER:                  -6.604
REMARK INTRA:                  -0.133
REMARK UNBOUND:                -0.134
REMARK SMILES O=C([O-])C=Cc1ccc(O)c(O)c1
REMARK SMILES IDX 6 1 13 2 7 3 11 4 8 5 9 6 5 7 4 8 2 9 1 10 3 11 12 12 10 14
REMARK H PARENT 12 13 10 15
REMARK Flexibility Score: inf
ROOT
ATOM      1  C   UNL     1      15.783  -0.611  27.198  1.00  0.00    -0.022 A 
ATOM      2  C   UNL     1      15.810   0.674  27.767  1.00  0.00     0.058 A 
ATOM      3  C   UNL     1      15.354  -0.753  25.864  1.00  0.00     0.012 A 
ATOM      4  C   UNL     1      15.396   1.794  27.032  1.00  0.00     0.157 A 
ATOM      5  C   UNL     1      14.940   0.363  25.130  1.00  0.00     0.051 A 
ATOM      6  C   UNL     1      14.956   1.636  25.708  1.00  0.00     0.157 A 
ENDROOT
BRANCH   1   7
ATOM      7  C   UNL     1      16.242  -1.760  28.016  1.00  0.00     0.010 C 
ATOM      8  C   UNL     1      16.194  -1.788  29.354  1.00  0.00     0.025 C 
BRANCH   8   9
ATOM      9  C   UNL     1      16.671  -2.946  30.126  1.00  0.00     0.064 C 
ATOM     10  O   UNL     1      17.679  -3.586  29.728  1.00  0.00    -0.545 OA
ATOM     11  O   UNL     1      16.025  -3.347  31.290  1.00  0.00    -0.545 OA
ENDBRANCH   8   9
ENDBRANCH   1   7
BRANCH   4  12
ATOM     12  O   UNL     1      15.419   3.061  27.613  1.00  0.00    -0.504 OA
ATOM     13  H   UNL     1      15.971   3.816  27.219  1.00  0.00     0.293 HD
ENDBRANCH   4  12
BRANCH   6  14
ATOM     14  O   UNL     1      14.536   2.730  24.952  1.00  0.00    -0.504 OA
ATOM     15  H   UNL     1      13.909   3.432  25.324  1.00  0.00     0.293 HD
ENDBRANCH   6  14
TORSDOF 4
ENDMDL
MODEL 5
REMARK VINA RESULT:    -5.489     11.136     14.017
REMARK INTER + INTRA:          -6.586
REMARK INTER:                  -6.460
REMARK INTRA:                  -0.125
REMARK UNBOUND:                -0.134
REMARK SMILES O=C([O-])C=Cc1ccc(O)c(O)c1
REMARK SMILES IDX 6 1 13 2 7 3 11 4 8 5 9 6 5 7 4 8 2 9 1 10 3 11 12 12 10 14
REMARK H PARENT 12 13 10 15
REMARK Flexibility Score: inf
ROOT
ATOM      1  C   UNL     1      16.934  -0.500  26.021  1.00  0.00    -0.022 A 
ATOM      2  C   UNL     1      16.642  -1.385  27.073  1.00  0.00     0.058 A 
ATOM      3  C   UNL     1      18.149  -0.650  25.324  1.00  0.00     0.012 A 
ATOM      4  C   UNL     1      17.554  -2.386  27.443  1.00  0.00     0.157 A 
ATOM      5  C   UNL     1      19.058  -1.646  25.692  1.00  0.00     0.051 A 
ATOM      6  C   UNL     1      18.768  -2.514  26.750  1.00  0.00     0.157 A 
ENDROOT
BRANCH   1   7
ATOM      7  C   UNL     1      15.931   0.533  25.663  1.00  0.00     0.010 C 
ATOM      8  C   UNL     1      15.748   1.664  26.357  1.00  0.00     0.025 C 
BRANCH   8   9
ATOM      9  C   UNL     1      14.733   2.657  25.972  1.00  0.00     0.064 C 
ATOM     10  O   UNL     1      13.958   3.125  26.846  1.00  0.00    -0.545 OA
ATOM     11  O   UNL     1      14.615   3.089  24.655  1.00  0.00    -0.545 OA
ENDBRANCH   8   9
ENDBRANCH   1   7
BRANCH   4  12
ATOM     12  O   UNL     1      17.256  -3.251  28.495  1.00  0.00    -0.504 OA
ATOM     13  H   UNL     1      16.812  -4.148  28.334  1.00  0.00     0.293 HD
ENDBRANCH   4  12
BRANCH   6  14
ATOM     14  O   UNL     1      19.695  -3.496  27.095  1.00  0.00    -0.504 OA
ATOM     15  H   UNL     1      19.695  -4.412  26.663  1.00  0.00     0.293 HD
ENDBRANCH   6  14
TORSDOF 4
ENDMDL
MODEL 6
REMARK VINA RESULT:    -5.438     11.342     13.147
REMARK INTER + INTRA:          -6.525
REMARK INTER:                  -6.397
REMARK INTRA:                  -0.129
REMARK UNBOUND:                -0.134
REMARK SMILES O=C([O-])C=Cc1ccc(O)c(O)c1
REMARK SMILES IDX 6 1 13 2 7 3 11 4 8 5 9 6 5 7 4 8 2 9 1 10 3 11 12 12 10 14
REMARK H PARENT 12 13 10 15
REMARK Flexibility Score: inf
ROOT
ATOM      1  C   UNL     1      16.220  -0.367  26.380  1.00  0.00    -0.022 A 
ATOM      2  C   UNL     1      16.202   0.735  27.253  1.00  0.00     0.058 A 
ATOM      3  C   UNL     1      15.540  -0.271  25.151  1.00  0.00     0.012 A 
ATOM      4  C   UNL     1      15.499   1.903  26.920  1.00  0.00     0.157 A 
ATOM      5  C   UNL     1      14.839   0.893  24.819  1.00  0.00     0.051 A 
ATOM      6  C   UNL     1      14.813   1.979  25.698  1.00  0.00     0.157 A 
ENDROOT
BRANCH   1   7
ATOM      7  C   UNL     1      16.988  -1.574  26.776  1.00  0.00     0.010 C 
ATOM      8  C   UNL     1      18.325  -1.640  26.771  1.00  0.00     0.025 C 
BRANCH   8   9
ATOM      9  C   UNL     1      19.045  -2.862  27.162  1.00  0.00     0.064 C 
ATOM     10  O   UNL     1      18.472  -3.978  27.068  1.00  0.00    -0.545 OA
ATOM     11  O   UNL     1      20.353  -2.805  27.633  1.00  0.00    -0.545 OA
ENDBRANCH   8   9
ENDBRANCH   1   7
BRANCH   4  12
ATOM     12  O   UNL     1      15.482   2.984  27.799  1.00  0.00    -0.504 OA
ATOM     13  H   UNL     1      16.337   3.448  28.088  1.00  0.00     0.293 HD
ENDBRANCH   4  12
BRANCH   6  14
ATOM     14  O   UNL     1      14.103   3.125  25.340  1.00  0.00    -0.504 OA
ATOM     15  H   UNL     1      14.543   3.904  24.865  1.00  0.00     0.293 HD
ENDBRANCH   6  14
TORSDOF 4
ENDMDL
MODEL 7
REMARK VINA RESULT:    -5.298      1.332      6.029
REMARK INTER + INTRA:          -6.362
REMARK INTER:                  -6.239
REMARK INTRA:                  -0.123
REMARK UNBOUND:                -0.134
REMARK SMILES O=C([O-])C=Cc1ccc(O)c(O)c1
REMARK SMILES IDX 6 1 13 2 7 3 11 4 8 5 9 6 5 7 4 8 2 9 1 10 3 11 12 12 10 14
REMARK H PARENT 12 13 10 15
REMARK Flexibility Score: inf
ROOT
ATOM      1  C   UNL     1      14.702 -13.025  28.994  1.00  0.00    -0.022 A 
ATOM      2  C   UNL     1      15.141 -13.465  27.733  1.00  0.00     0.058 A 
ATOM      3  C   UNL     1      14.683 -13.940  30.064  1.00  0.00     0.012 A 
ATOM      4  C   UNL     1      15.530 -14.798  27.534  1.00  0.00     0.157 A 
ATOM      5  C   UNL     1      15.071 -15.268  29.866  1.00  0.00     0.051 A 
ATOM      6  C   UNL     1      15.492 -15.703  28.605  1.00  0.00     0.157 A 
ENDROOT
BRANCH   1   7
ATOM      7  C   UNL     1      14.312 -11.602  29.153  1.00  0.00     0.010 C 
ATOM      8  C   UNL     1      13.083 -11.134  28.900  1.00  0.00     0.025 C 
BRANCH   8   9
ATOM      9  C   UNL     1      12.743  -9.712  29.062  1.00  0.00     0.064 C 
ATOM     10  O   UNL     1      13.039  -8.894  28.152  1.00  0.00    -0.545 OA
ATOM     11  O   UNL     1      12.096  -9.255  30.205  1.00  0.00    -0.545 OA
ENDBRANCH   8   9
ENDBRANCH   1   7
BRANCH   4  12
ATOM     12  O   UNL     1      15.954 -15.223  26.275  1.00  0.00    -0.504 OA
ATOM     13  H   UNL     1      15.356 -15.779  25.674  1.00  0.00     0.293 HD
ENDBRANCH   4  12
BRANCH   6  14
ATOM     14  O   UNL     1      15.870 -17.035  28.439  1.00  0.00    -0.504 OA
ATOM     15  H   UNL     1      15.787 -17.715  29.184  1.00  0.00     0.293 HD
ENDBRANCH   6  14
TORSDOF 4
ENDMDL
MODEL 8
REMARK VINA RESULT:    -5.263     10.581     13.120
REMARK INTER + INTRA:          -6.320
REMARK INTER:                  -6.190
REMARK INTRA:                  -0.130
REMARK UNBOUND:                -0.134
REMARK SMILES O=C([O-])C=Cc1ccc(O)c(O)c1
REMARK SMILES IDX 6 1 13 2 7 3 11 4 8 5 9 6 5 7 4 8 2 9 1 10 3 11 12 12 10 14
REMARK H PARENT 12 13 10 15
REMARK Flexibility Score: inf
ROOT
ATOM      1  C   UNL     1      16.137  -1.306  27.391  1.00  0.00    -0.022 A 
ATOM      2  C   UNL     1      17.373  -1.894  27.072  1.00  0.00     0.058 A 
ATOM      3  C   UNL     1      15.564  -1.569  28.650  1.00  0.00     0.012 A 
ATOM      4  C   UNL     1      18.016  -2.748  27.981  1.00  0.00     0.157 A 
ATOM      5  C   UNL     1      16.204  -2.420  29.555  1.00  0.00     0.051 A 
ATOM      6  C   UNL     1      17.426  -3.014  29.226  1.00  0.00     0.157 A 
ENDROOT
BRANCH   1   7
ATOM      7  C   UNL     1      15.504  -0.402  26.398  1.00  0.00     0.010 C 
ATOM      8  C   UNL     1      15.471   0.931  26.521  1.00  0.00     0.025 C 
BRANCH   8   9
ATOM      9  C   UNL     1      14.822   1.789  25.517  1.00  0.00     0.064 C 
ATOM     10  O   UNL     1      14.514   1.310  24.395  1.00  0.00    -0.545 OA
ATOM     11  O   UNL     1      14.544   3.125  25.788  1.00  0.00    -0.545 OA
ENDBRANCH   8   9
ENDBRANCH   1   7
BRANCH   4  12
ATOM     12  O   UNL     1      19.238  -3.332  27.648  1.00  0.00    -0.504 OA
ATOM     13  H   UNL     1      19.785  -3.007  26.858  1.00  0.00     0.293 HD
ENDBRANCH   4  12
BRANCH   6  14
ATOM     14  O   UNL     1      18.039  -3.860  30.149  1.00  0.00    -0.504 OA
ATOM     15  H   UNL     1      17.648  -4.028  31.068  1.00  0.00     0.293 HD
ENDBRANCH   6  14
TORSDOF 4
ENDMDL
MODEL 9
REMARK VINA RESULT:    -5.136     10.229     12.311
REMARK INTER + INTRA:          -6.170
REMARK INTER:                  -6.027
REMARK INTRA:                  -0.143
REMARK UNBOUND:                -0.134
REMARK SMILES O=C([O-])C=Cc1ccc(O)c(O)c1
REMARK SMILES IDX 6 1 13 2 7 3 11 4 8 5 9 6 5 7 4 8 2 9 1 10 3 11 12 12 10 14
REMARK H PARENT 12 13 10 15
REMARK Flexibility Score: inf
ROOT
ATOM      1  C   UNL     1      15.777  -0.893  27.601  1.00  0.00    -0.022 A 
ATOM      2  C   UNL     1      15.385  -1.106  26.268  1.00  0.00     0.058 A 
ATOM      3  C   UNL     1      15.731   0.414  28.122  1.00  0.00     0.012 A 
ATOM      4  C   UNL     1      14.979  -0.034  25.459  1.00  0.00     0.157 A 
ATOM      5  C   UNL     1      15.326   1.483  27.317  1.00  0.00     0.051 A 
ATOM      6  C   UNL     1      14.953   1.266  25.987  1.00  0.00     0.157 A 
ENDROOT
BRANCH   1   7
ATOM      7  C   UNL     1      16.188  -2.064  28.416  1.00  0.00     0.010 C 
ATOM      8  C   UNL     1      16.313  -2.035  29.749  1.00  0.00     0.025 C 
BRANCH   8   9
ATOM      9  C   UNL     1      16.734  -3.218  30.516  1.00  0.00     0.064 C 
ATOM     10  O   UNL     1      17.712  -3.902  30.117  1.00  0.00    -0.545 OA
ATOM     11  O   UNL     1      16.068  -3.594  31.678  1.00  0.00    -0.545 OA
ENDBRANCH   8   9
ENDBRANCH   1   7
BRANCH   4  12
ATOM     12  O   UNL     1      14.603  -0.258  24.136  1.00  0.00    -0.504 OA
ATOM     13  H   UNL     1      15.161  -0.834  23.515  1.00  0.00     0.293 HD
ENDBRANCH   4  12
BRANCH   6  14
ATOM     14  O   UNL     1      14.556   2.353  25.208  1.00  0.00    -0.504 OA
ATOM     15  H   UNL     1      14.724   2.391  24.211  1.00  0.00     0.293 HD
ENDBRANCH   6  14
TORSDOF 4
ENDMDL
