MODEL 1
REMARK VINA RESULT:    -4.136      0.000      0.000
REMARK INTER + INTRA:          -7.831
REMARK INTER:                  -7.038
REMARK INTRA:                  -0.794
REMARK UNBOUND:                -0.794
REMARK SMILES CCCCCCCCCCCCCC(=O)[O-]
REMARK SMILES IDX 8 1 9 2 10 3 11 4 12 5 13 6 14 7 15 8 16 9 7 10 6 11 5 12
REMARK SMILES IDX 4 13 3 14 2 15 1 16
REMARK H PARENT
REMARK Flexibility Score: inf
ROOT
ATOM      1  C   UNL     1      36.902 106.816 263.405  1.00  0.00     0.000 C 
ENDROOT
BRANCH   1   2
ATOM      2  C   UNL     1      35.978 105.583 263.303  1.00  0.00     0.000 C 
BRANCH   2   3
ATOM      3  C   UNL     1      34.978 105.506 264.470  1.00  0.00     0.000 C 
BRANCH   3   4
ATOM      4  C   UNL     1      35.557 104.792 265.701  1.00  0.00     0.000 C 
BRANCH   4   5
ATOM      5  C   UNL     1      35.166 105.482 267.019  1.00  0.00     0.006 C 
BRANCH   5   6
ATOM      6  C   UNL     1      34.893 106.980 266.830  1.00  0.00     0.053 C 
BRANCH   6   7
ATOM      7  C   UNL     1      35.069 107.742 268.108  1.00  0.00     0.041 C 
ATOM      8  O   UNL     1      35.168 108.997 268.088  1.00  0.00    -0.550 OA
ATOM      9  O   UNL     1      35.095 107.068 269.322  1.00  0.00    -0.550 OA
ENDBRANCH   6   7
ENDBRANCH   5   6
ENDBRANCH   4   5
ENDBRANCH   3   4
ENDBRANCH   2   3
ENDBRANCH   1   2
BRANCH   1  10
ATOM     10  C   UNL     1      37.510 107.246 262.057  1.00  0.00     0.000 C 
BRANCH  10  11
ATOM     11  C   UNL     1      38.676 106.371 261.568  1.00  0.00    -0.000 C 
BRANCH  11  12
ATOM     12  C   UNL     1      38.630 106.111 260.052  1.00  0.00    -0.000 C 
BRANCH  12  13
ATOM     13  C   UNL     1      37.206 105.770 259.564  1.00  0.00    -0.000 C 
BRANCH  13  14
ATOM     14  C   UNL     1      36.954 106.136 258.092  1.00  0.00    -0.000 C 
BRANCH  14  15
ATOM     15  C   UNL     1      35.613 106.850 257.875  1.00  0.00    -0.003 C 
ATOM     16  C   UNL     1      35.768 108.363 258.001  1.00  0.00     0.004 C 
ENDBRANCH  14  15
ENDBRANCH  13  14
ENDBRANCH  12  13
ENDBRANCH  11  12
ENDBRANCH  10  11
ENDBRANCH   1  10
TORSDOF 12
ENDMDL
MODEL 2
REMARK VINA RESULT:    -3.119      3.796      7.827
REMARK INTER + INTRA:          -6.100
REMARK INTER:                  -5.333
REMARK INTRA:                  -0.767
REMARK UNBOUND:                -0.794
REMARK SMILES CCCCCCCCCCCCCC(=O)[O-]
REMARK SMILES IDX 8 1 9 2 10 3 11 4 12 5 13 6 14 7 15 8 16 9 7 10 6 11 5 12
REMARK SMILES IDX 4 13 3 14 2 15 1 16
REMARK H PARENT
REMARK Flexibility Score: inf
ROOT
ATOM      1  C   UNL     1      36.190 105.080 265.071  1.00  0.00     0.000 C 
ENDROOT
BRANCH   1   2
ATOM      2  C   UNL     1      35.065 105.506 264.104  1.00  0.00     0.000 C 
BRANCH   2   3
ATOM      3  C   UNL     1      35.501 106.645 263.167  1.00  0.00     0.000 C 
BRANCH   3   4
ATOM      4  C   UNL     1      37.025 106.830 263.129  1.00  0.00     0.000 C 
BRANCH   4   5
ATOM      5  C   UNL     1      37.541 107.180 261.722  1.00  0.00     0.006 C 
BRANCH   5   6
ATOM      6  C   UNL     1      36.714 106.508 260.619  1.00  0.00     0.053 C 
BRANCH   6   7
ATOM      7  C   UNL     1      37.583 105.958 259.530  1.00  0.00     0.041 C 
ATOM      8  O   UNL     1      38.806 105.745 259.741  1.00  0.00    -0.550 OA
ATOM      9  O   UNL     1      37.037 105.655 258.290  1.00  0.00    -0.550 OA
ENDBRANCH   6   7
ENDBRANCH   5   6
ENDBRANCH   4   5
ENDBRANCH   3   4
ENDBRANCH   2   3
ENDBRANCH   1   2
BRANCH   1  10
ATOM     10  C   UNL     1      35.680 104.610 266.446  1.00  0.00     0.000 C 
BRANCH  10  11
ATOM     11  C   UNL     1      34.894 105.667 267.237  1.00  0.00    -0.000 C 
BRANCH  11  12
ATOM     12  C   UNL     1      35.263 105.691 268.731  1.00  0.00    -0.000 C 
BRANCH  12  13
ATOM     13  C   UNL     1      35.406 107.130 269.271  1.00  0.00    -0.000 C 
BRANCH  13  14
ATOM     14  C   UNL     1      35.854 108.146 268.209  1.00  0.00    -0.000 C 
BRANCH  14  15
ATOM     15  C   UNL     1      35.193 109.521 268.381  1.00  0.00    -0.003 C 
ATOM     16  C   UNL     1      34.875 110.152 267.029  1.00  0.00     0.004 C 
ENDBRANCH  14  15
ENDBRANCH  13  14
ENDBRANCH  12  13
ENDBRANCH  11  12
ENDBRANCH  10  11
ENDBRANCH   1  10
TORSDOF 12
ENDMDL
MODEL 3
REMARK VINA RESULT:    -2.935      3.843      8.038
REMARK INTER + INTRA:          -5.788
REMARK INTER:                  -5.180
REMARK INTRA:                  -0.608
REMARK UNBOUND:                -0.794
REMARK SMILES CCCCCCCCCCCCCC(=O)[O-]
REMARK SMILES IDX 8 1 9 2 10 3 11 4 12 5 13 6 14 7 15 8 16 9 7 10 6 11 5 12
REMARK SMILES IDX 4 13 3 14 2 15 1 16
REMARK H PARENT
REMARK Flexibility Score: inf
ROOT
ATOM      1  C   UNL     1      37.242 106.564 263.786  1.00  0.00     0.000 C 
ENDROOT
BRANCH   1   2
ATOM      2  C   UNL     1      37.127 106.488 262.248  1.00  0.00     0.000 C 
BRANCH   2   3
ATOM      3  C   UNL     1      38.341 107.114 261.540  1.00  0.00     0.000 C 
BRANCH   3   4
ATOM      4  C   UNL     1      38.714 106.380 260.243  1.00  0.00     0.000 C 
BRANCH   4   5
ATOM      5  C   UNL     1      37.572 105.490 259.722  1.00  0.00     0.006 C 
BRANCH   5   6
ATOM      6  C   UNL     1      37.211 105.806 258.265  1.00  0.00     0.053 C 
BRANCH   6   7
ATOM      7  C   UNL     1      36.206 106.913 258.169  1.00  0.00     0.041 C 
ATOM      8  O   UNL     1      36.567 108.111 258.311  1.00  0.00    -0.550 OA
ATOM      9  O   UNL     1      34.875 106.624 257.897  1.00  0.00    -0.550 OA
ENDBRANCH   6   7
ENDBRANCH   5   6
ENDBRANCH   4   5
ENDBRANCH   3   4
ENDBRANCH   2   3
ENDBRANCH   1   2
BRANCH   1  10
ATOM     10  C   UNL     1      36.056 107.277 264.461  1.00  0.00     0.000 C 
BRANCH  10  11
ATOM     11  C   UNL     1      34.875 106.362 264.824  1.00  0.00    -0.000 C 
BRANCH  11  12
ATOM     12  C   UNL     1      35.327 104.989 265.350  1.00  0.00    -0.000 C 
BRANCH  12  13
ATOM     13  C   UNL     1      35.048 104.825 266.860  1.00  0.00    -0.000 C 
BRANCH  13  14
ATOM     14  C   UNL     1      35.043 106.153 267.634  1.00  0.00    -0.000 C 
BRANCH  14  15
ATOM     15  C   UNL     1      35.223 105.964 269.146  1.00  0.00    -0.003 C 
ATOM     16  C   UNL     1      35.348 107.307 269.858  1.00  0.00     0.004 C 
ENDBRANCH  14  15
ENDBRANCH  13  14
ENDBRANCH  12  13
ENDBRANCH  11  12
ENDBRANCH  10  11
ENDBRANCH   1  10
TORSDOF 12
ENDMDL
MODEL 4
REMARK VINA RESULT:    -2.872      2.726      7.168
REMARK INTER + INTRA:          -5.681
REMARK INTER:                  -4.809
REMARK INTRA:                  -0.872
REMARK UNBOUND:                -0.794
REMARK SMILES CCCCCCCCCCCCCC(=O)[O-]
REMARK SMILES IDX 8 1 9 2 10 3 11 4 12 5 13 6 14 7 15 8 16 9 7 10 6 11 5 12
REMARK SMILES IDX 4 13 3 14 2 15 1 16
REMARK H PARENT
REMARK Flexibility Score: inf
ROOT
ATOM      1  C   UNL     1      35.892 105.071 263.284  1.00  0.00     0.000 C 
ENDROOT
BRANCH   1   2
ATOM      2  C   UNL     1      35.770 104.438 261.881  1.00  0.00     0.000 C 
BRANCH   2   3
ATOM      3  C   UNL     1      36.217 105.400 260.766  1.00  0.00     0.000 C 
BRANCH   3   4
ATOM      4  C   UNL     1      37.566 105.005 260.148  1.00  0.00     0.000 C 
BRANCH   4   5
ATOM      5  C   UNL     1      38.596 106.147 260.204  1.00  0.00     0.006 C 
BRANCH   5   6
ATOM      6  C   UNL     1      38.180 107.254 261.181  1.00  0.00     0.053 C 
BRANCH   6   7
ATOM      7  C   UNL     1      38.896 107.135 262.492  1.00  0.00     0.041 C 
ATOM      8  O   UNL     1      40.129 106.881 262.521  1.00  0.00    -0.550 OA
ATOM      9  O   UNL     1      38.206 107.331 263.682  1.00  0.00    -0.550 OA
ENDBRANCH   6   7
ENDBRANCH   5   6
ENDBRANCH   4   5
ENDBRANCH   3   4
ENDBRANCH   2   3
ENDBRANCH   1   2
BRANCH   1  10
ATOM     10  C   UNL     1      34.962 106.281 263.499  1.00  0.00     0.000 C 
BRANCH  10  11
ATOM     11  C   UNL     1      34.879 106.777 264.952  1.00  0.00    -0.000 C 
BRANCH  11  12
ATOM     12  C   UNL     1      34.912 105.630 265.976  1.00  0.00    -0.000 C 
BRANCH  12  13
ATOM     13  C   UNL     1      35.051 106.148 267.424  1.00  0.00    -0.000 C 
BRANCH  13  14
ATOM     14  C   UNL     1      35.232 107.672 267.519  1.00  0.00    -0.000 C 
BRANCH  14  15
ATOM     15  C   UNL     1      35.252 108.181 268.967  1.00  0.00    -0.003 C 
ATOM     16  C   UNL     1      35.542 107.047 269.946  1.00  0.00     0.004 C 
ENDBRANCH  14  15
ENDBRANCH  13  14
ENDBRANCH  12  13
ENDBRANCH  11  12
ENDBRANCH  10  11
ENDBRANCH   1  10
TORSDOF 12
ENDMDL
MODEL 5
REMARK VINA RESULT:    -2.816      4.072      7.830
REMARK INTER + INTRA:          -5.585
REMARK INTER:                  -4.668
REMARK INTRA:                  -0.917
REMARK UNBOUND:                -0.794
REMARK SMILES CCCCCCCCCCCCCC(=O)[O-]
REMARK SMILES IDX 8 1 9 2 10 3 11 4 12 5 13 6 14 7 15 8 16 9 7 10 6 11 5 12
REMARK SMILES IDX 4 13 3 14 2 15 1 16
REMARK H PARENT
REMARK Flexibility Score: inf
ROOT
ATOM      1  C   UNL     1      35.815 105.158 264.912  1.00  0.00     0.000 C 
ENDROOT
BRANCH   1   2
ATOM      2  C   UNL     1      35.738 104.180 263.720  1.00  0.00     0.000 C 
BRANCH   2   3
ATOM      3  C   UNL     1      35.225 104.861 262.439  1.00  0.00     0.000 C 
BRANCH   3   4
ATOM      4  C   UNL     1      36.203 104.722 261.262  1.00  0.00     0.000 C 
BRANCH   4   5
ATOM      5  C   UNL     1      37.210 105.884 261.195  1.00  0.00     0.006 C 
BRANCH   5   6
ATOM      6  C   UNL     1      36.719 107.023 260.292  1.00  0.00     0.053 C 
BRANCH   6   7
ATOM      7  C   UNL     1      36.904 106.701 258.840  1.00  0.00     0.041 C 
ATOM      8  O   UNL     1      37.814 105.909 258.478  1.00  0.00    -0.550 OA
ATOM      9  O   UNL     1      36.055 107.254 257.891  1.00  0.00    -0.550 OA
ENDBRANCH   6   7
ENDBRANCH   5   6
ENDBRANCH   4   5
ENDBRANCH   3   4
ENDBRANCH   2   3
ENDBRANCH   1   2
BRANCH   1  10
ATOM     10  C   UNL     1      34.894 106.384 264.767  1.00  0.00     0.000 C 
BRANCH  10  11
ATOM     11  C   UNL     1      35.626 107.733 264.680  1.00  0.00    -0.000 C 
BRANCH  11  12
ATOM     12  C   UNL     1      35.431 108.599 265.936  1.00  0.00    -0.000 C 
BRANCH  12  13
ATOM     13  C   UNL     1      34.875 107.783 267.124  1.00  0.00    -0.000 C 
BRANCH  13  14
ATOM     14  C   UNL     1      35.497 108.163 268.477  1.00  0.00    -0.000 C 
BRANCH  14  15
ATOM     15  C   UNL     1      35.218 107.127 269.574  1.00  0.00    -0.003 C 
ATOM     16  C   UNL     1      34.924 105.755 268.974  1.00  0.00     0.004 C 
ENDBRANCH  14  15
ENDBRANCH  13  14
ENDBRANCH  12  13
ENDBRANCH  11  12
ENDBRANCH  10  11
ENDBRANCH   1  10
TORSDOF 12
ENDMDL
MODEL 6
REMARK VINA RESULT:    -2.539      2.985      7.370
REMARK INTER + INTRA:          -5.114
REMARK INTER:                  -4.845
REMARK INTRA:                  -0.269
REMARK UNBOUND:                -0.794
REMARK SMILES CCCCCCCCCCCCCC(=O)[O-]
REMARK SMILES IDX 8 1 9 2 10 3 11 4 12 5 13 6 14 7 15 8 16 9 7 10 6 11 5 12
REMARK SMILES IDX 4 13 3 14 2 15 1 16
REMARK H PARENT
REMARK Flexibility Score: inf
ROOT
ATOM      1  C   UNL     1      35.763 105.142 265.040  1.00  0.00     0.000 C 
ENDROOT
BRANCH   1   2
ATOM      2  C   UNL     1      35.494 104.332 263.753  1.00  0.00     0.000 C 
BRANCH   2   3
ATOM      3  C   UNL     1      35.409 105.229 262.506  1.00  0.00     0.000 C 
BRANCH   3   4
ATOM      4  C   UNL     1      36.220 104.677 261.323  1.00  0.00     0.000 C 
BRANCH   4   5
ATOM      5  C   UNL     1      36.722 105.788 260.385  1.00  0.00     0.006 C 
BRANCH   5   6
ATOM      6  C   UNL     1      37.151 107.045 261.154  1.00  0.00     0.053 C 
BRANCH   6   7
ATOM      7  C   UNL     1      38.492 106.870 261.799  1.00  0.00     0.041 C 
ATOM      8  O   UNL     1      39.435 106.329 261.165  1.00  0.00    -0.550 OA
ATOM      9  O   UNL     1      38.707 107.330 263.092  1.00  0.00    -0.550 OA
ENDBRANCH   6   7
ENDBRANCH   5   6
ENDBRANCH   4   5
ENDBRANCH   3   4
ENDBRANCH   2   3
ENDBRANCH   1   2
BRANCH   1  10
ATOM     10  C   UNL     1      34.913 106.422 265.155  1.00  0.00     0.000 C 
BRANCH  10  11
ATOM     11  C   UNL     1      35.711 107.699 265.462  1.00  0.00    -0.000 C 
BRANCH  11  12
ATOM     12  C   UNL     1      34.902 108.727 266.272  1.00  0.00    -0.000 C 
BRANCH  12  13
ATOM     13  C   UNL     1      34.875 108.387 267.778  1.00  0.00    -0.000 C 
BRANCH  13  14
ATOM     14  C   UNL     1      34.954 106.880 268.072  1.00  0.00    -0.000 C 
BRANCH  14  15
ATOM     15  C   UNL     1      35.015 106.567 269.573  1.00  0.00    -0.003 C 
ATOM     16  C   UNL     1      36.006 107.482 270.286  1.00  0.00     0.004 C 
ENDBRANCH  14  15
ENDBRANCH  13  14
ENDBRANCH  12  13
ENDBRANCH  11  12
ENDBRANCH  10  11
ENDBRANCH   1  10
TORSDOF 12
ENDMDL
