MODEL 1
REMARK VINA RESULT:    -4.368      0.000      0.000
REMARK INTER + INTRA:         -11.499
REMARK INTER:                  -9.475
REMARK INTRA:                  -2.024
REMARK UNBOUND:                -2.024
REMARK SMILES CCCCCCCCCCCCCCCCCCCCCC(=O)[O-]
REMARK SMILES IDX 12 1 11 2 10 3 9 4 8 5 7 6 6 7 5 8 4 9 3 10 2 11 1 12 13 13
REMARK SMILES IDX 14 14 15 15 16 16 17 17 18 18 19 19 20 20 21 21 22 22 23 23
REMARK SMILES IDX 24 24
REMARK H PARENT
REMARK Flexibility Score: inf
ROOT
ATOM      1  C   UNL     1       3.669   9.192   8.764  1.00  0.00     0.000 C 
ENDROOT
BRANCH   1   2
ATOM      2  C   UNL     1       4.597  10.384   8.483  1.00  0.00     0.000 C 
BRANCH   2   3
ATOM      3  C   UNL     1       5.291  10.232   7.120  1.00  0.00     0.000 C 
BRANCH   3   4
ATOM      4  C   UNL     1       4.882  11.321   6.116  1.00  0.00    -0.000 C 
BRANCH   4   5
ATOM      5  C   UNL     1       4.067  12.452   6.767  1.00  0.00    -0.000 C 
BRANCH   5   6
ATOM      6  C   UNL     1       4.697  13.835   6.546  1.00  0.00    -0.000 C 
BRANCH   6   7
ATOM      7  C   UNL     1       5.432  14.358   7.794  1.00  0.00    -0.000 C 
BRANCH   7   8
ATOM      8  C   UNL     1       6.960  14.352   7.625  1.00  0.00    -0.000 C 
BRANCH   8   9
ATOM      9  C   UNL     1       7.591  13.006   8.025  1.00  0.00    -0.000 C 
BRANCH   9  10
ATOM     10  C   UNL     1       8.807  12.645   7.159  1.00  0.00    -0.000 C 
BRANCH  10  11
ATOM     11  C   UNL     1       8.667  11.274   6.481  1.00  0.00    -0.003 C 
ATOM     12  C   UNL     1       9.184  10.158   7.384  1.00  0.00     0.004 C 
ENDBRANCH  10  11
ENDBRANCH   9  10
ENDBRANCH   8   9
ENDBRANCH   7   8
ENDBRANCH   6   7
ENDBRANCH   5   6
ENDBRANCH   4   5
ENDBRANCH   3   4
ENDBRANCH   2   3
ENDBRANCH   1   2
BRANCH   1  13
ATOM     13  C   UNL     1       4.217   8.251   9.849  1.00  0.00     0.000 C 
BRANCH  13  14
ATOM     14  C   UNL     1       4.736   6.922   9.276  1.00  0.00     0.000 C 
BRANCH  14  15
ATOM     15  C   UNL     1       3.616   5.891   9.046  1.00  0.00     0.000 C 
BRANCH  15  16
ATOM     16  C   UNL     1       3.899   4.849   7.949  1.00  0.00     0.000 C 
BRANCH  16  17
ATOM     17  C   UNL     1       3.836   3.405   8.466  1.00  0.00     0.000 C 
BRANCH  17  18
ATOM     18  C   UNL     1       5.192   2.703   8.315  1.00  0.00     0.000 C 
BRANCH  18  19
ATOM     19  C   UNL     1       6.280   3.645   7.755  1.00  0.00     0.000 C 
BRANCH  19  20
ATOM     20  C   UNL     1       7.226   2.967   6.745  1.00  0.00     0.006 C 
BRANCH  20  21
ATOM     21  C   UNL     1       7.249   3.632   5.360  1.00  0.00     0.053 C 
BRANCH  21  22
ATOM     22  C   UNL     1       8.418   3.180   4.539  1.00  0.00     0.041 C 
ATOM     23  O   UNL     1       9.083   4.016   3.872  1.00  0.00    -0.550 OA
ATOM     24  O   UNL     1       8.782   1.840   4.519  1.00  0.00    -0.550 OA
ENDBRANCH  21  22
ENDBRANCH  20  21
ENDBRANCH  19  20
ENDBRANCH  18  19
ENDBRANCH  17  18
ENDBRANCH  16  17
ENDBRANCH  15  16
ENDBRANCH  14  15
ENDBRANCH  13  14
ENDBRANCH   1  13
TORSDOF 20
ENDMDL
MODEL 2
REMARK VINA RESULT:    -4.171      1.208      2.650
REMARK INTER + INTRA:         -11.071
REMARK INTER:                  -8.503
REMARK INTRA:                  -2.569
REMARK UNBOUND:                -2.024
REMARK SMILES CCCCCCCCCCCCCCCCCCCCCC(=O)[O-]
REMARK SMILES IDX 12 1 11 2 10 3 9 4 8 5 7 6 6 7 5 8 4 9 3 10 2 11 1 12 13 13
REMARK SMILES IDX 14 14 15 15 16 16 17 17 18 18 19 19 20 20 21 21 22 22 23 23
REMARK SMILES IDX 24 24
REMARK H PARENT
REMARK Flexibility Score: inf
ROOT
ATOM      1  C   UNL     1       4.452   9.772   9.776  1.00  0.00     0.000 C 
ENDROOT
BRANCH   1   2
ATOM      2  C   UNL     1       5.830  10.441   9.894  1.00  0.00     0.000 C 
BRANCH   2   3
ATOM      3  C   UNL     1       6.800   9.894   8.835  1.00  0.00     0.000 C 
BRANCH   3   4
ATOM      4  C   UNL     1       8.099  10.710   8.736  1.00  0.00    -0.000 C 
BRANCH   4   5
ATOM      5  C   UNL     1       8.345  11.264   7.322  1.00  0.00    -0.000 C 
BRANCH   5   6
ATOM      6  C   UNL     1       8.251  12.797   7.265  1.00  0.00    -0.000 C 
BRANCH   6   7
ATOM      7  C   UNL     1       7.760  13.411   8.588  1.00  0.00    -0.000 C 
BRANCH   7   8
ATOM      8  C   UNL     1       6.304  13.896   8.509  1.00  0.00    -0.000 C 
BRANCH   8   9
ATOM      9  C   UNL     1       5.878  14.250   7.073  1.00  0.00    -0.000 C 
BRANCH   9  10
ATOM     10  C   UNL     1       4.474  13.727   6.729  1.00  0.00    -0.000 C 
BRANCH  10  11
ATOM     11  C   UNL     1       4.321  12.221   6.991  1.00  0.00    -0.003 C 
ATOM     12  C   UNL     1       4.998  11.402   5.896  1.00  0.00     0.004 C 
ENDBRANCH  10  11
ENDBRANCH   9  10
ENDBRANCH   8   9
ENDBRANCH   7   8
ENDBRANCH   6   7
ENDBRANCH   5   6
ENDBRANCH   4   5
ENDBRANCH   3   4
ENDBRANCH   2   3
ENDBRANCH   1   2
BRANCH   1  13
ATOM     13  C   UNL     1       4.383   8.741   8.639  1.00  0.00     0.000 C 
BRANCH  13  14
ATOM     14  C   UNL     1       4.028   7.330   9.136  1.00  0.00     0.000 C 
BRANCH  14  15
ATOM     15  C   UNL     1       5.252   6.554   9.656  1.00  0.00     0.000 C 
BRANCH  15  16
ATOM     16  C   UNL     1       5.147   5.021   9.558  1.00  0.00     0.000 C 
BRANCH  16  17
ATOM     17  C   UNL     1       6.513   4.324   9.611  1.00  0.00     0.000 C 
BRANCH  17  18
ATOM     18  C   UNL     1       6.480   2.980   8.871  1.00  0.00     0.000 C 
BRANCH  18  19
ATOM     19  C   UNL     1       6.360   3.157   7.342  1.00  0.00     0.000 C 
BRANCH  19  20
ATOM     20  C   UNL     1       7.693   3.504   6.653  1.00  0.00     0.006 C 
BRANCH  20  21
ATOM     21  C   UNL     1       7.703   3.251   5.137  1.00  0.00     0.053 C 
BRANCH  21  22
ATOM     22  C   UNL     1       8.432   1.991   4.783  1.00  0.00     0.041 C 
ATOM     23  O   UNL     1       9.446   2.035   4.038  1.00  0.00    -0.550 OA
ATOM     24  O   UNL     1       7.999   0.770   5.282  1.00  0.00    -0.550 OA
ENDBRANCH  21  22
ENDBRANCH  20  21
ENDBRANCH  19  20
ENDBRANCH  18  19
ENDBRANCH  17  18
ENDBRANCH  16  17
ENDBRANCH  15  16
ENDBRANCH  14  15
ENDBRANCH  13  14
ENDBRANCH   1  13
TORSDOF 20
ENDMDL
MODEL 3
REMARK VINA RESULT:    -4.123      2.215      4.799
REMARK INTER + INTRA:         -10.968
REMARK INTER:                  -9.520
REMARK INTRA:                  -1.448
REMARK UNBOUND:                -2.024
REMARK SMILES CCCCCCCCCCCCCCCCCCCCCC(=O)[O-]
REMARK SMILES IDX 12 1 11 2 10 3 9 4 8 5 7 6 6 7 5 8 4 9 3 10 2 11 1 12 13 13
REMARK SMILES IDX 14 14 15 15 16 16 17 17 18 18 19 19 20 20 21 21 22 22 23 23
REMARK SMILES IDX 24 24
REMARK H PARENT
REMARK Flexibility Score: inf
ROOT
ATOM      1  C   UNL     1       3.258   3.626   8.278  1.00  0.00     0.000 C 
ENDROOT
BRANCH   1   2
ATOM      2  C   UNL     1       4.401   4.586   7.913  1.00  0.00     0.000 C 
BRANCH   2   3
ATOM      3  C   UNL     1       4.849   5.400   9.138  1.00  0.00     0.000 C 
BRANCH   3   4
ATOM      4  C   UNL     1       3.977   6.642   9.381  1.00  0.00    -0.000 C 
BRANCH   4   5
ATOM      5  C   UNL     1       4.758   7.957   9.214  1.00  0.00    -0.000 C 
BRANCH   5   6
ATOM      6  C   UNL     1       3.896   9.195   9.503  1.00  0.00    -0.000 C 
BRANCH   6   7
ATOM      7  C   UNL     1       3.880  10.193   8.331  1.00  0.00    -0.000 C 
BRANCH   7   8
ATOM      8  C   UNL     1       5.101  10.041   7.409  1.00  0.00    -0.000 C 
BRANCH   8   9
ATOM      9  C   UNL     1       5.667  11.397   6.952  1.00  0.00    -0.000 C 
BRANCH   9  10
ATOM     10  C   UNL     1       4.653  12.213   6.135  1.00  0.00    -0.000 C 
BRANCH  10  11
ATOM     11  C   UNL     1       4.418  13.617   6.712  1.00  0.00    -0.003 C 
ATOM     12  C   UNL     1       5.519  13.998   7.697  1.00  0.00     0.004 C 
ENDBRANCH  10  11
ENDBRANCH   9  10
ENDBRANCH   8   9
ENDBRANCH   7   8
ENDBRANCH   6   7
ENDBRANCH   5   6
ENDBRANCH   4   5
ENDBRANCH   3   4
ENDBRANCH   2   3
ENDBRANCH   1   2
BRANCH   1  13
ATOM     13  C   UNL     1       3.666   2.148   8.185  1.00  0.00     0.000 C 
BRANCH  13  14
ATOM     14  C   UNL     1       5.123   1.906   8.612  1.00  0.00     0.000 C 
BRANCH  14  15
ATOM     15  C   UNL     1       5.518   0.418   8.574  1.00  0.00     0.000 C 
BRANCH  15  16
ATOM     16  C   UNL     1       4.441  -0.533   8.023  1.00  0.00     0.000 C 
BRANCH  16  17
ATOM     17  C   UNL     1       5.023  -1.651   7.147  1.00  0.00     0.000 C 
BRANCH  17  18
ATOM     18  C   UNL     1       6.535  -1.475   6.954  1.00  0.00     0.000 C 
BRANCH  18  19
ATOM     19  C   UNL     1       6.976  -1.755   5.501  1.00  0.00     0.000 C 
BRANCH  19  20
ATOM     20  C   UNL     1       7.443  -0.498   4.742  1.00  0.00     0.006 C 
BRANCH  20  21
ATOM     21  C   UNL     1       7.810   0.685   5.650  1.00  0.00     0.053 C 
BRANCH  21  22
ATOM     22  C   UNL     1       8.287   1.869   4.865  1.00  0.00     0.041 C 
ATOM     23  O   UNL     1       9.234   1.745   4.044  1.00  0.00    -0.550 OA
ATOM     24  O   UNL     1       7.679   3.107   5.029  1.00  0.00    -0.550 OA
ENDBRANCH  21  22
ENDBRANCH  20  21
ENDBRANCH  19  20
ENDBRANCH  18  19
ENDBRANCH  17  18
ENDBRANCH  16  17
ENDBRANCH  15  16
ENDBRANCH  14  15
ENDBRANCH  13  14
ENDBRANCH   1  13
TORSDOF 20
ENDMDL
MODEL 4
REMARK VINA RESULT:    -4.116     12.974     14.974
REMARK INTER + INTRA:         -10.954
REMARK INTER:                  -8.657
REMARK INTRA:                  -2.297
REMARK UNBOUND:                -2.024
REMARK SMILES CCCCCCCCCCCCCCCCCCCCCC(=O)[O-]
REMARK SMILES IDX 12 1 11 2 10 3 9 4 8 5 7 6 6 7 5 8 4 9 3 10 2 11 1 12 13 13
REMARK SMILES IDX 14 14 15 15 16 16 17 17 18 18 19 19 20 20 21 21 22 22 23 23
REMARK SMILES IDX 24 24
REMARK H PARENT
REMARK Flexibility Score: inf
ROOT
ATOM      1  C   UNL     1       4.850   8.021  -7.498  1.00  0.00     0.000 C 
ENDROOT
BRANCH   1   2
ATOM      2  C   UNL     1       5.799   7.287  -8.458  1.00  0.00     0.000 C 
BRANCH   2   3
ATOM      3  C   UNL     1       7.206   7.162  -7.854  1.00  0.00     0.000 C 
BRANCH   3   4
ATOM      4  C   UNL     1       8.045   8.439  -8.026  1.00  0.00    -0.000 C 
BRANCH   4   5
ATOM      5  C   UNL     1       8.690   8.906  -6.710  1.00  0.00    -0.000 C 
BRANCH   5   6
ATOM      6  C   UNL     1       7.742   8.772  -5.508  1.00  0.00    -0.000 C 
BRANCH   6   7
ATOM      7  C   UNL     1       8.413   9.157  -4.178  1.00  0.00    -0.000 C 
BRANCH   7   8
ATOM      8  C   UNL     1       9.512  10.217  -4.355  1.00  0.00    -0.000 C 
BRANCH   8   9
ATOM      9  C   UNL     1       9.136  11.568  -3.721  1.00  0.00    -0.000 C 
BRANCH   9  10
ATOM     10  C   UNL     1       8.957  12.679  -4.767  1.00  0.00    -0.000 C 
BRANCH  10  11
ATOM     11  C   UNL     1       7.481  13.011  -5.034  1.00  0.00    -0.003 C 
ATOM     12  C   UNL     1       6.972  12.289  -6.278  1.00  0.00     0.004 C 
ENDBRANCH  10  11
ENDBRANCH   9  10
ENDBRANCH   8   9
ENDBRANCH   7   8
ENDBRANCH   6   7
ENDBRANCH   5   6
ENDBRANCH   4   5
ENDBRANCH   3   4
ENDBRANCH   2   3
ENDBRANCH   1   2
BRANCH   1  13
ATOM     13  C   UNL     1       3.492   8.351  -8.136  1.00  0.00     0.000 C 
BRANCH  13  14
ATOM     14  C   UNL     1       3.205   7.511  -9.391  1.00  0.00     0.000 C 
BRANCH  14  15
ATOM     15  C   UNL     1       1.883   6.726  -9.295  1.00  0.00     0.000 C 
BRANCH  15  16
ATOM     16  C   UNL     1       1.986   5.225  -9.622  1.00  0.00     0.000 C 
BRANCH  16  17
ATOM     17  C   UNL     1       3.433   4.759  -9.840  1.00  0.00     0.000 C 
BRANCH  17  18
ATOM     18  C   UNL     1       3.877   3.792  -8.735  1.00  0.00     0.000 C 
BRANCH  18  19
ATOM     19  C   UNL     1       5.409   3.599  -8.708  1.00  0.00     0.000 C 
BRANCH  19  20
ATOM     20  C   UNL     1       5.876   2.488  -7.749  1.00  0.00     0.006 C 
BRANCH  20  21
ATOM     21  C   UNL     1       4.905   1.302  -7.639  1.00  0.00     0.053 C 
BRANCH  21  22
ATOM     22  C   UNL     1       4.662   0.905  -6.214  1.00  0.00     0.041 C 
ATOM     23  O   UNL     1       5.459   1.270  -5.311  1.00  0.00    -0.550 OA
ATOM     24  O   UNL     1       3.550   0.141  -5.882  1.00  0.00    -0.550 OA
ENDBRANCH  21  22
ENDBRANCH  20  21
ENDBRANCH  19  20
ENDBRANCH  18  19
ENDBRANCH  17  18
ENDBRANCH  16  17
ENDBRANCH  15  16
ENDBRANCH  14  15
ENDBRANCH  13  14
ENDBRANCH   1  13
TORSDOF 20
ENDMDL
MODEL 5
REMARK VINA RESULT:    -4.057      0.936      2.277
REMARK INTER + INTRA:         -10.824
REMARK INTER:                  -9.133
REMARK INTRA:                  -1.691
REMARK UNBOUND:                -2.024
REMARK SMILES CCCCCCCCCCCCCCCCCCCCCC(=O)[O-]
REMARK SMILES IDX 12 1 11 2 10 3 9 4 8 5 7 6 6 7 5 8 4 9 3 10 2 11 1 12 13 13
REMARK SMILES IDX 14 14 15 15 16 16 17 17 18 18 19 19 20 20 21 21 22 22 23 23
REMARK SMILES IDX 24 24
REMARK H PARENT
REMARK Flexibility Score: inf
ROOT
ATOM      1  C   UNL     1       3.916   7.447   8.873  1.00  0.00     0.000 C 
ENDROOT
BRANCH   1   2
ATOM      2  C   UNL     1       4.216   8.391  10.048  1.00  0.00     0.000 C 
BRANCH   2   3
ATOM      3  C   UNL     1       4.856   9.699   9.555  1.00  0.00     0.000 C 
BRANCH   3   4
ATOM      4  C   UNL     1       4.230  10.215   8.250  1.00  0.00    -0.000 C 
BRANCH   4   5
ATOM      5  C   UNL     1       5.239  10.273   7.090  1.00  0.00    -0.000 C 
BRANCH   5   6
ATOM      6  C   UNL     1       4.948  11.421   6.112  1.00  0.00    -0.000 C 
BRANCH   6   7
ATOM      7  C   UNL     1       4.034  12.501   6.719  1.00  0.00    -0.000 C 
BRANCH   7   8
ATOM      8  C   UNL     1       4.598  13.920   6.542  1.00  0.00    -0.000 C 
BRANCH   8   9
ATOM      9  C   UNL     1       5.455  14.367   7.740  1.00  0.00    -0.000 C 
BRANCH   9  10
ATOM     10  C   UNL     1       6.957  14.376   7.420  1.00  0.00    -0.000 C 
BRANCH  10  11
ATOM     11  C   UNL     1       7.769  13.470   8.358  1.00  0.00    -0.003 C 
ATOM     12  C   UNL     1       8.292  12.242   7.619  1.00  0.00     0.004 C 
ENDBRANCH  10  11
ENDBRANCH   9  10
ENDBRANCH   8   9
ENDBRANCH   7   8
ENDBRANCH   6   7
ENDBRANCH   5   6
ENDBRANCH   4   5
ENDBRANCH   3   4
ENDBRANCH   2   3
ENDBRANCH   1   2
BRANCH   1  13
ATOM     13  C   UNL     1       3.869   5.969   9.291  1.00  0.00     0.000 C 
BRANCH  13  14
ATOM     14  C   UNL     1       3.083   5.096   8.299  1.00  0.00     0.000 C 
BRANCH  14  15
ATOM     15  C   UNL     1       3.918   3.933   7.734  1.00  0.00     0.000 C 
BRANCH  15  16
ATOM     16  C   UNL     1       3.912   2.648   8.581  1.00  0.00     0.000 C 
BRANCH  16  17
ATOM     17  C   UNL     1       5.110   1.734   8.289  1.00  0.00     0.000 C 
BRANCH  17  18
ATOM     18  C   UNL     1       6.363   2.204   9.040  1.00  0.00     0.000 C 
BRANCH  18  19
ATOM     19  C   UNL     1       7.661   1.884   8.269  1.00  0.00     0.000 C 
BRANCH  19  20
ATOM     20  C   UNL     1       7.460   1.746   6.748  1.00  0.00     0.006 C 
BRANCH  20  21
ATOM     21  C   UNL     1       7.849   2.997   5.945  1.00  0.00     0.053 C 
BRANCH  21  22
ATOM     22  C   UNL     1       8.470   2.648   4.627  1.00  0.00     0.041 C 
ATOM     23  O   UNL     1       8.916   1.488   4.424  1.00  0.00    -0.550 OA
ATOM     24  O   UNL     1       8.546   3.599   3.617  1.00  0.00    -0.550 OA
ENDBRANCH  21  22
ENDBRANCH  20  21
ENDBRANCH  19  20
ENDBRANCH  18  19
ENDBRANCH  17  18
ENDBRANCH  16  17
ENDBRANCH  15  16
ENDBRANCH  14  15
ENDBRANCH  13  14
ENDBRANCH   1  13
TORSDOF 20
ENDMDL
MODEL 6
REMARK VINA RESULT:    -4.045      2.539      8.346
REMARK INTER + INTRA:         -10.799
REMARK INTER:                  -8.557
REMARK INTRA:                  -2.242
REMARK UNBOUND:                -2.024
REMARK SMILES CCCCCCCCCCCCCCCCCCCCCC(=O)[O-]
REMARK SMILES IDX 12 1 11 2 10 3 9 4 8 5 7 6 6 7 5 8 4 9 3 10 2 11 1 12 13 13
REMARK SMILES IDX 14 14 15 15 16 16 17 17 18 18 19 19 20 20 21 21 22 22 23 23
REMARK SMILES IDX 24 24
REMARK H PARENT
REMARK Flexibility Score: inf
ROOT
ATOM      1  C   UNL     1       4.111   9.139   9.084  1.00  0.00     0.000 C 
ENDROOT
BRANCH   1   2
ATOM      2  C   UNL     1       5.163   8.350   9.879  1.00  0.00     0.000 C 
BRANCH   2   3
ATOM      3  C   UNL     1       4.932   6.836   9.747  1.00  0.00     0.000 C 
BRANCH   3   4
ATOM      4  C   UNL     1       3.735   6.491   8.846  1.00  0.00    -0.000 C 
BRANCH   4   5
ATOM      5  C   UNL     1       3.097   5.138   9.202  1.00  0.00    -0.000 C 
BRANCH   5   6
ATOM      6  C   UNL     1       3.018   4.188   7.996  1.00  0.00    -0.000 C 
BRANCH   6   7
ATOM      7  C   UNL     1       4.304   4.193   7.152  1.00  0.00    -0.000 C 
BRANCH   7   8
ATOM      8  C   UNL     1       5.361   3.210   7.679  1.00  0.00    -0.000 C 
BRANCH   8   9
ATOM      9  C   UNL     1       6.688   3.905   8.035  1.00  0.00    -0.000 C 
BRANCH   9  10
ATOM     10  C   UNL     1       7.856   3.429   7.158  1.00  0.00    -0.000 C 
BRANCH  10  11
ATOM     11  C   UNL     1       7.546   3.520   5.656  1.00  0.00    -0.003 C 
ATOM     12  C   UNL     1       8.226   2.392   4.886  1.00  0.00     0.004 C 
ENDBRANCH  10  11
ENDBRANCH   9  10
ENDBRANCH   8   9
ENDBRANCH   7   8
ENDBRANCH   6   7
ENDBRANCH   5   6
ENDBRANCH   4   5
ENDBRANCH   3   4
ENDBRANCH   2   3
ENDBRANCH   1   2
BRANCH   1  13
ATOM     13  C   UNL     1       4.664  10.446   8.494  1.00  0.00     0.000 C 
BRANCH  13  14
ATOM     14  C   UNL     1       5.254  10.260   7.087  1.00  0.00     0.000 C 
BRANCH  14  15
ATOM     15  C   UNL     1       4.936  11.436   6.145  1.00  0.00     0.000 C 
BRANCH  15  16
ATOM     16  C   UNL     1       4.109  12.573   6.771  1.00  0.00     0.000 C 
BRANCH  16  17
ATOM     17  C   UNL     1       4.545  13.964   6.288  1.00  0.00     0.000 C 
BRANCH  17  18
ATOM     18  C   UNL     1       5.900  14.360   6.889  1.00  0.00     0.000 C 
BRANCH  18  19
ATOM     19  C   UNL     1       6.038  13.921   8.362  1.00  0.00     0.000 C 
BRANCH  19  20
ATOM     20  C   UNL     1       7.372  13.215   8.675  1.00  0.00     0.006 C 
BRANCH  20  21
ATOM     21  C   UNL     1       8.310  13.077   7.467  1.00  0.00     0.053 C 
BRANCH  21  22
ATOM     22  C   UNL     1       8.797  11.671   7.291  1.00  0.00     0.041 C 
ATOM     23  O   UNL     1       9.402  11.088   8.229  1.00  0.00    -0.550 OA
ATOM     24  O   UNL     1       8.574  10.999   6.096  1.00  0.00    -0.550 OA
ENDBRANCH  21  22
ENDBRANCH  20  21
ENDBRANCH  19  20
ENDBRANCH  18  19
ENDBRANCH  17  18
ENDBRANCH  16  17
ENDBRANCH  15  16
ENDBRANCH  14  15
ENDBRANCH  13  14
ENDBRANCH   1  13
TORSDOF 20
ENDMDL
MODEL 7
REMARK VINA RESULT:    -4.008      1.297      2.642
REMARK INTER + INTRA:         -10.719
REMARK INTER:                  -8.587
REMARK INTRA:                  -2.132
REMARK UNBOUND:                -2.024
REMARK SMILES CCCCCCCCCCCCCCCCCCCCCC(=O)[O-]
REMARK SMILES IDX 12 1 11 2 10 3 9 4 8 5 7 6 6 7 5 8 4 9 3 10 2 11 1 12 13 13
REMARK SMILES IDX 14 14 15 15 16 16 17 17 18 18 19 19 20 20 21 21 22 22 23 23
REMARK SMILES IDX 24 24
REMARK H PARENT
REMARK Flexibility Score: inf
ROOT
ATOM      1  C   UNL     1       4.134   8.015   9.210  1.00  0.00     0.000 C 
ENDROOT
BRANCH   1   2
ATOM      2  C   UNL     1       5.132   9.064   8.695  1.00  0.00     0.000 C 
BRANCH   2   3
ATOM      3  C   UNL     1       5.141  10.307   9.598  1.00  0.00     0.000 C 
BRANCH   3   4
ATOM      4  C   UNL     1       6.551  10.688  10.077  1.00  0.00    -0.000 C 
BRANCH   4   5
ATOM      5  C   UNL     1       7.369  11.414   8.996  1.00  0.00    -0.000 C 
BRANCH   5   6
ATOM      6  C   UNL     1       7.273  12.943   9.111  1.00  0.00    -0.000 C 
BRANCH   6   7
ATOM      7  C   UNL     1       7.807  13.667   7.862  1.00  0.00    -0.000 C 
BRANCH   7   8
ATOM      8  C   UNL     1       6.746  14.561   7.200  1.00  0.00    -0.000 C 
BRANCH   8   9
ATOM      9  C   UNL     1       5.325  14.270   7.714  1.00  0.00    -0.000 C 
BRANCH   9  10
ATOM     10  C   UNL     1       4.391  13.761   6.606  1.00  0.00    -0.000 C 
BRANCH  10  11
ATOM     11  C   UNL     1       4.106  12.256   6.714  1.00  0.00    -0.003 C 
ATOM     12  C   UNL     1       5.146  11.443   5.949  1.00  0.00     0.004 C 
ENDBRANCH  10  11
ENDBRANCH   9  10
ENDBRANCH   8   9
ENDBRANCH   7   8
ENDBRANCH   6   7
ENDBRANCH   5   6
ENDBRANCH   4   5
ENDBRANCH   3   4
ENDBRANCH   2   3
ENDBRANCH   1   2
BRANCH   1  13
ATOM     13  C   UNL     1       4.821   6.807   9.864  1.00  0.00     0.000 C 
BRANCH  13  14
ATOM     14  C   UNL     1       3.894   5.585   9.977  1.00  0.00     0.000 C 
BRANCH  14  15
ATOM     15  C   UNL     1       3.031   5.372   8.720  1.00  0.00     0.000 C 
BRANCH  15  16
ATOM     16  C   UNL     1       2.867   3.906   8.277  1.00  0.00     0.000 C 
BRANCH  16  17
ATOM     17  C   UNL     1       3.441   3.636   6.880  1.00  0.00     0.000 C 
BRANCH  17  18
ATOM     18  C   UNL     1       4.849   4.230   6.734  1.00  0.00     0.000 C 
BRANCH  18  19
ATOM     19  C   UNL     1       5.913   3.404   7.488  1.00  0.00     0.000 C 
BRANCH  19  20
ATOM     20  C   UNL     1       7.343   3.596   6.947  1.00  0.00     0.006 C 
BRANCH  20  21
ATOM     21  C   UNL     1       7.500   3.275   5.453  1.00  0.00     0.053 C 
BRANCH  21  22
ATOM     22  C   UNL     1       8.482   2.168   5.215  1.00  0.00     0.041 C 
ATOM     23  O   UNL     1       8.075   1.013   4.922  1.00  0.00    -0.550 OA
ATOM     24  O   UNL     1       9.846   2.414   5.305  1.00  0.00    -0.550 OA
ENDBRANCH  21  22
ENDBRANCH  20  21
ENDBRANCH  19  20
ENDBRANCH  18  19
ENDBRANCH  17  18
ENDBRANCH  16  17
ENDBRANCH  15  16
ENDBRANCH  14  15
ENDBRANCH  13  14
ENDBRANCH   1  13
TORSDOF 20
ENDMDL
MODEL 8
REMARK VINA RESULT:    -3.999      3.819      9.288
REMARK INTER + INTRA:         -10.698
REMARK INTER:                  -8.826
REMARK INTRA:                  -1.872
REMARK UNBOUND:                -2.024
REMARK SMILES CCCCCCCCCCCCCCCCCCCCCC(=O)[O-]
REMARK SMILES IDX 12 1 11 2 10 3 9 4 8 5 7 6 6 7 5 8 4 9 3 10 2 11 1 12 13 13
REMARK SMILES IDX 14 14 15 15 16 16 17 17 18 18 19 19 20 20 21 21 22 22 23 23
REMARK SMILES IDX 24 24
REMARK H PARENT
REMARK Flexibility Score: inf
ROOT
ATOM      1  C   UNL     1       2.630   4.539   7.988  1.00  0.00     0.000 C 
ENDROOT
BRANCH   1   2
ATOM      2  C   UNL     1       2.010   3.952   9.266  1.00  0.00     0.000 C 
BRANCH   2   3
ATOM      3  C   UNL     1       2.432   2.487   9.460  1.00  0.00     0.000 C 
BRANCH   3   4
ATOM      4  C   UNL     1       3.911   2.338   9.853  1.00  0.00    -0.000 C 
BRANCH   4   5
ATOM      5  C   UNL     1       4.809   1.980   8.657  1.00  0.00    -0.000 C 
BRANCH   5   6
ATOM      6  C   UNL     1       6.104   2.806   8.624  1.00  0.00    -0.000 C 
BRANCH   6   7
ATOM      7  C   UNL     1       6.356   3.460   7.253  1.00  0.00    -0.000 C 
BRANCH   7   8
ATOM      8  C   UNL     1       7.780   3.208   6.732  1.00  0.00    -0.000 C 
BRANCH   8   9
ATOM      9  C   UNL     1       7.795   2.691   5.283  1.00  0.00    -0.000 C 
BRANCH   9  10
ATOM     10  C   UNL     1       7.878   1.158   5.205  1.00  0.00    -0.000 C 
BRANCH  10  11
ATOM     11  C   UNL     1       8.185   0.511   6.564  1.00  0.00    -0.003 C 
ATOM     12  C   UNL     1       7.094  -0.478   6.961  1.00  0.00     0.004 C 
ENDBRANCH  10  11
ENDBRANCH   9  10
ENDBRANCH   8   9
ENDBRANCH   7   8
ENDBRANCH   6   7
ENDBRANCH   5   6
ENDBRANCH   4   5
ENDBRANCH   3   4
ENDBRANCH   2   3
ENDBRANCH   1   2
BRANCH   1  13
ATOM     13  C   UNL     1       3.669   5.634   8.277  1.00  0.00     0.000 C 
BRANCH  13  14
ATOM     14  C   UNL     1       3.688   6.061   9.754  1.00  0.00     0.000 C 
BRANCH  14  15
ATOM     15  C   UNL     1       4.003   7.557   9.940  1.00  0.00     0.000 C 
BRANCH  15  16
ATOM     16  C   UNL     1       4.199   8.353   8.637  1.00  0.00     0.000 C 
BRANCH  16  17
ATOM     17  C   UNL     1       4.248   9.870   8.865  1.00  0.00     0.000 C 
BRANCH  17  18
ATOM     18  C   UNL     1       4.859  10.594   7.658  1.00  0.00     0.000 C 
BRANCH  18  19
ATOM     19  C   UNL     1       3.893  11.631   7.047  1.00  0.00     0.000 C 
BRANCH  19  20
ATOM     20  C   UNL     1       4.592  12.691   6.175  1.00  0.00     0.006 C 
BRANCH  20  21
ATOM     21  C   UNL     1       4.744  14.063   6.849  1.00  0.00     0.053 C 
BRANCH  21  22
ATOM     22  C   UNL     1       5.939  14.116   7.752  1.00  0.00     0.041 C 
ATOM     23  O   UNL     1       7.095  14.234   7.265  1.00  0.00    -0.550 OA
ATOM     24  O   UNL     1       5.778  14.048   9.129  1.00  0.00    -0.550 OA
ENDBRANCH  21  22
ENDBRANCH  20  21
ENDBRANCH  19  20
ENDBRANCH  18  19
ENDBRANCH  17  18
ENDBRANCH  16  17
ENDBRANCH  15  16
ENDBRANCH  14  15
ENDBRANCH  13  14
ENDBRANCH   1  13
TORSDOF 20
ENDMDL
MODEL 9
REMARK VINA RESULT:    -3.974      3.580      9.598
REMARK INTER + INTRA:         -10.644
REMARK INTER:                  -8.909
REMARK INTRA:                  -1.735
REMARK UNBOUND:                -2.024
REMARK SMILES CCCCCCCCCCCCCCCCCCCCCC(=O)[O-]
REMARK SMILES IDX 12 1 11 2 10 3 9 4 8 5 7 6 6 7 5 8 4 9 3 10 2 11 1 12 13 13
REMARK SMILES IDX 14 14 15 15 16 16 17 17 18 18 19 19 20 20 21 21 22 22 23 23
REMARK SMILES IDX 24 24
REMARK H PARENT
REMARK Flexibility Score: inf
ROOT
ATOM      1  C   UNL     1       3.803   5.664   9.608  1.00  0.00     0.000 C 
ENDROOT
BRANCH   1   2
ATOM      2  C   UNL     1       3.388   5.469   8.141  1.00  0.00     0.000 C 
BRANCH   2   3
ATOM      3  C   UNL     1       2.663   4.128   7.947  1.00  0.00     0.000 C 
BRANCH   3   4
ATOM      4  C   UNL     1       3.014   3.097   9.032  1.00  0.00    -0.000 C 
BRANCH   4   5
ATOM      5  C   UNL     1       3.963   1.999   8.522  1.00  0.00    -0.000 C 
BRANCH   5   6
ATOM      6  C   UNL     1       5.443   2.382   8.671  1.00  0.00    -0.000 C 
BRANCH   6   7
ATOM      7  C   UNL     1       6.362   1.155   8.807  1.00  0.00    -0.000 C 
BRANCH   7   8
ATOM      8  C   UNL     1       5.941  -0.003   7.888  1.00  0.00    -0.000 C 
BRANCH   8   9
ATOM      9  C   UNL     1       7.060  -0.423   6.919  1.00  0.00    -0.000 C 
BRANCH   9  10
ATOM     10  C   UNL     1       8.013   0.735   6.583  1.00  0.00    -0.000 C 
BRANCH  10  11
ATOM     11  C   UNL     1       7.992   1.108   5.093  1.00  0.00    -0.003 C 
ATOM     12  C   UNL     1       8.361   2.575   4.889  1.00  0.00     0.004 C 
ENDBRANCH  10  11
ENDBRANCH   9  10
ENDBRANCH   8   9
ENDBRANCH   7   8
ENDBRANCH   6   7
ENDBRANCH   5   6
ENDBRANCH   4   5
ENDBRANCH   3   4
ENDBRANCH   2   3
ENDBRANCH   1   2
BRANCH   1  13
ATOM     13  C   UNL     1       4.340   7.074   9.895  1.00  0.00     0.000 C 
BRANCH  13  14
ATOM     14  C   UNL     1       4.140   8.039   8.714  1.00  0.00     0.000 C 
BRANCH  14  15
ATOM     15  C   UNL     1       3.775   9.466   9.163  1.00  0.00     0.000 C 
BRANCH  15  16
ATOM     16  C   UNL     1       4.782  10.558   8.760  1.00  0.00     0.000 C 
BRANCH  16  17
ATOM     17  C   UNL     1       5.504  10.249   7.442  1.00  0.00     0.000 C 
BRANCH  17  18
ATOM     18  C   UNL     1       4.868  11.007   6.269  1.00  0.00     0.000 C 
BRANCH  18  19
ATOM     19  C   UNL     1       4.066  12.241   6.736  1.00  0.00     0.000 C 
BRANCH  19  20
ATOM     20  C   UNL     1       4.767  13.581   6.443  1.00  0.00     0.006 C 
BRANCH  20  21
ATOM     21  C   UNL     1       5.089  14.411   7.695  1.00  0.00     0.053 C 
BRANCH  21  22
ATOM     22  C   UNL     1       6.287  13.886   8.425  1.00  0.00     0.041 C 
ATOM     23  O   UNL     1       7.243  13.372   7.785  1.00  0.00    -0.550 OA
ATOM     24  O   UNL     1       6.356  13.973   9.809  1.00  0.00    -0.550 OA
ENDBRANCH  21  22
ENDBRANCH  20  21
ENDBRANCH  19  20
ENDBRANCH  18  19
ENDBRANCH  17  18
ENDBRANCH  16  17
ENDBRANCH  15  16
ENDBRANCH  14  15
ENDBRANCH  13  14
ENDBRANCH   1  13
TORSDOF 20
ENDMDL
