MODEL 1
REMARK VINA RESULT:    -4.998      0.000      0.000
REMARK INTER + INTRA:          -9.086
REMARK INTER:                  -7.920
REMARK INTRA:                  -1.166
REMARK UNBOUND:                -1.166
REMARK SMILES CCCCCCCCCCCC(=O)[O-]
REMARK SMILES IDX 7 1 8 2 9 3 10 4 11 5 12 6 13 7 14 8 6 9 5 10 4 11 3 12 2 13
REMARK SMILES IDX 1 14
REMARK H PARENT
REMARK Flexibility Score: inf
ROOT
ATOM      1  C   UNL     1     104.824  25.369 197.119  1.00  0.00     0.000 C 
ENDROOT
BRANCH   1   2
ATOM      2  C   UNL     1     105.655  24.619 196.065  1.00  0.00     0.000 C 
BRANCH   2   3
ATOM      3  C   UNL     1     104.861  24.443 194.765  1.00  0.00     0.000 C 
BRANCH   3   4
ATOM      4  C   UNL     1     104.797  22.968 194.354  1.00  0.00     0.006 C 
BRANCH   4   5
ATOM      5  C   UNL     1     103.600  22.704 193.436  1.00  0.00     0.053 C 
BRANCH   5   6
ATOM      6  C   UNL     1     102.400  22.312 194.237  1.00  0.00     0.041 C 
ATOM      7  O   UNL     1     101.245  22.429 193.749  1.00  0.00    -0.550 OA
ATOM      8  O   UNL     1     102.558  21.770 195.507  1.00  0.00    -0.550 OA
ENDBRANCH   5   6
ENDBRANCH   4   5
ENDBRANCH   3   4
ENDBRANCH   2   3
ENDBRANCH   1   2
BRANCH   1   9
ATOM      9  C   UNL     1     103.321  25.060 197.021  1.00  0.00     0.000 C 
BRANCH   9  10
ATOM     10  C   UNL     1     102.794  24.292 198.246  1.00  0.00    -0.000 C 
BRANCH  10  11
ATOM     11  C   UNL     1     103.707  23.121 198.646  1.00  0.00    -0.000 C 
BRANCH  11  12
ATOM     12  C   UNL     1     104.271  23.268 200.067  1.00  0.00    -0.000 C 
BRANCH  12  13
ATOM     13  C   UNL     1     105.803  23.177 200.060  1.00  0.00    -0.003 C 
ATOM     14  C   UNL     1     106.294  22.231 198.968  1.00  0.00     0.004 C 
ENDBRANCH  12  13
ENDBRANCH  11  12
ENDBRANCH  10  11
ENDBRANCH   9  10
ENDBRANCH   1   9
TORSDOF 10
ENDMDL
MODEL 2
REMARK VINA RESULT:    -4.893      1.391      1.936
REMARK INTER + INTRA:          -8.919
REMARK INTER:                  -7.804
REMARK INTRA:                  -1.115
REMARK UNBOUND:                -1.166
REMARK SMILES CCCCCCCCCCCC(=O)[O-]
REMARK SMILES IDX 7 1 8 2 9 3 10 4 11 5 12 6 13 7 14 8 6 9 5 10 4 11 3 12 2 13
REMARK SMILES IDX 1 14
REMARK H PARENT
REMARK Flexibility Score: inf
ROOT
ATOM      1  C   UNL     1     103.031  25.249 197.124  1.00  0.00     0.000 C 
ENDROOT
BRANCH   1   2
ATOM      2  C   UNL     1     104.534  25.082 196.853  1.00  0.00     0.000 C 
BRANCH   2   3
ATOM      3  C   UNL     1     104.793  24.773 195.373  1.00  0.00     0.000 C 
BRANCH   3   4
ATOM      4  C   UNL     1     105.611  23.487 195.214  1.00  0.00     0.006 C 
BRANCH   4   5
ATOM      5  C   UNL     1     104.705  22.298 194.881  1.00  0.00     0.053 C 
BRANCH   5   6
ATOM      6  C   UNL     1     104.433  22.240 193.412  1.00  0.00     0.041 C 
ATOM      7  O   UNL     1     105.193  21.585 192.651  1.00  0.00    -0.550 OA
ATOM      8  O   UNL     1     103.311  22.870 192.887  1.00  0.00    -0.550 OA
ENDBRANCH   5   6
ENDBRANCH   4   5
ENDBRANCH   3   4
ENDBRANCH   2   3
ENDBRANCH   1   2
BRANCH   1   9
ATOM      9  C   UNL     1     102.420  24.040 197.853  1.00  0.00     0.000 C 
BRANCH   9  10
ATOM     10  C   UNL     1     103.487  23.047 198.345  1.00  0.00    -0.000 C 
BRANCH  10  11
ATOM     11  C   UNL     1     103.852  23.258 199.824  1.00  0.00    -0.000 C 
BRANCH  11  12
ATOM     12  C   UNL     1     105.368  23.234 200.070  1.00  0.00    -0.000 C 
BRANCH  12  13
ATOM     13  C   UNL     1     106.091  22.469 198.955  1.00  0.00    -0.003 C 
ATOM     14  C   UNL     1     107.248  21.643 199.513  1.00  0.00     0.004 C 
ENDBRANCH  12  13
ENDBRANCH  11  12
ENDBRANCH  10  11
ENDBRANCH   9  10
ENDBRANCH   1   9
TORSDOF 10
ENDMDL
MODEL 3
REMARK VINA RESULT:    -4.822      1.600      3.236
REMARK INTER + INTRA:          -8.807
REMARK INTER:                  -7.507
REMARK INTRA:                  -1.300
REMARK UNBOUND:                -1.166
REMARK SMILES CCCCCCCCCCCC(=O)[O-]
REMARK SMILES IDX 7 1 8 2 9 3 10 4 11 5 12 6 13 7 14 8 6 9 5 10 4 11 3 12 2 13
REMARK SMILES IDX 1 14
REMARK H PARENT
REMARK Flexibility Score: inf
ROOT
ATOM      1  C   UNL     1     106.168  22.434 199.659  1.00  0.00     0.000 C 
ENDROOT
BRANCH   1   2
ATOM      2  C   UNL     1     106.433  21.960 198.221  1.00  0.00     0.000 C 
BRANCH   2   3
ATOM      3  C   UNL     1     105.951  23.001 197.203  1.00  0.00     0.000 C 
BRANCH   3   4
ATOM      4  C   UNL     1     105.120  22.344 196.095  1.00  0.00     0.006 C 
BRANCH   4   5
ATOM      5  C   UNL     1     105.194  23.155 194.798  1.00  0.00     0.053 C 
BRANCH   5   6
ATOM      6  C   UNL     1     104.720  22.336 193.640  1.00  0.00     0.041 C 
ATOM      7  O   UNL     1     103.558  22.498 193.183  1.00  0.00    -0.550 OA
ATOM      8  O   UNL     1     105.578  21.428 193.032  1.00  0.00    -0.550 OA
ENDBRANCH   5   6
ENDBRANCH   4   5
ENDBRANCH   3   4
ENDBRANCH   2   3
ENDBRANCH   1   2
BRANCH   1   9
ATOM      9  C   UNL     1     105.160  23.593 199.727  1.00  0.00     0.000 C 
BRANCH   9  10
ATOM     10  C   UNL     1     103.822  23.176 200.361  1.00  0.00    -0.000 C 
BRANCH  10  11
ATOM     11  C   UNL     1     102.785  22.732 199.315  1.00  0.00    -0.000 C 
BRANCH  11  12
ATOM     12  C   UNL     1     101.958  23.904 198.766  1.00  0.00    -0.000 C 
BRANCH  12  13
ATOM     13  C   UNL     1     102.247  24.126 197.276  1.00  0.00    -0.003 C 
ATOM     14  C   UNL     1     103.120  25.359 197.062  1.00  0.00     0.004 C 
ENDBRANCH  12  13
ENDBRANCH  11  12
ENDBRANCH  10  11
ENDBRANCH   9  10
ENDBRANCH   1   9
TORSDOF 10
ENDMDL
MODEL 4
REMARK VINA RESULT:    -4.821      2.118      2.711
REMARK INTER + INTRA:          -8.805
REMARK INTER:                  -7.955
REMARK INTRA:                  -0.850
REMARK UNBOUND:                -1.166
REMARK SMILES CCCCCCCCCCCC(=O)[O-]
REMARK SMILES IDX 7 1 8 2 9 3 10 4 11 5 12 6 13 7 14 8 6 9 5 10 4 11 3 12 2 13
REMARK SMILES IDX 1 14
REMARK H PARENT
REMARK Flexibility Score: inf
ROOT
ATOM      1  C   UNL     1     105.412  25.691 196.124  1.00  0.00     0.000 C 
ENDROOT
BRANCH   1   2
ATOM      2  C   UNL     1     104.795  24.874 194.977  1.00  0.00     0.000 C 
BRANCH   2   3
ATOM      3  C   UNL     1     105.414  23.472 194.909  1.00  0.00     0.000 C 
BRANCH   3   4
ATOM      4  C   UNL     1     104.433  22.466 194.297  1.00  0.00     0.006 C 
BRANCH   4   5
ATOM      5  C   UNL     1     105.035  21.795 193.059  1.00  0.00     0.053 C 
BRANCH   5   6
ATOM      6  C   UNL     1     106.292  21.068 193.415  1.00  0.00     0.041 C 
ATOM      7  O   UNL     1     106.344  20.364 194.459  1.00  0.00    -0.550 OA
ATOM      8  O   UNL     1     107.393  21.126 192.570  1.00  0.00    -0.550 OA
ENDBRANCH   5   6
ENDBRANCH   4   5
ENDBRANCH   3   4
ENDBRANCH   2   3
ENDBRANCH   1   2
BRANCH   1   9
ATOM      9  C   UNL     1     104.543  25.686 197.392  1.00  0.00     0.000 C 
BRANCH   9  10
ATOM     10  C   UNL     1     103.113  25.185 197.126  1.00  0.00    -0.000 C 
BRANCH  10  11
ATOM     11  C   UNL     1     102.671  24.103 198.125  1.00  0.00    -0.000 C 
BRANCH  11  12
ATOM     12  C   UNL     1     103.793  23.108 198.457  1.00  0.00    -0.000 C 
BRANCH  12  13
ATOM     13  C   UNL     1     104.237  23.253 199.918  1.00  0.00    -0.003 C 
ATOM     14  C   UNL     1     105.758  23.208 200.040  1.00  0.00     0.004 C 
ENDBRANCH  12  13
ENDBRANCH  11  12
ENDBRANCH  10  11
ENDBRANCH   9  10
ENDBRANCH   1   9
TORSDOF 10
ENDMDL
MODEL 5
REMARK VINA RESULT:    -4.802      1.342      2.171
REMARK INTER + INTRA:          -8.775
REMARK INTER:                  -7.669
REMARK INTRA:                  -1.105
REMARK UNBOUND:                -1.166
REMARK SMILES CCCCCCCCCCCC(=O)[O-]
REMARK SMILES IDX 7 1 8 2 9 3 10 4 11 5 12 6 13 7 14 8 6 9 5 10 4 11 3 12 2 13
REMARK SMILES IDX 1 14
REMARK H PARENT
REMARK Flexibility Score: inf
ROOT
ATOM      1  C   UNL     1     105.379  25.405 196.386  1.00  0.00     0.000 C 
ENDROOT
BRANCH   1   2
ATOM      2  C   UNL     1     104.943  24.609 195.146  1.00  0.00     0.000 C 
BRANCH   2   3
ATOM      3  C   UNL     1     105.601  23.224 195.125  1.00  0.00     0.000 C 
BRANCH   3   4
ATOM      4  C   UNL     1     104.607  22.149 194.671  1.00  0.00     0.006 C 
BRANCH   4   5
ATOM      5  C   UNL     1     103.548  22.739 193.736  1.00  0.00     0.053 C 
BRANCH   5   6
ATOM      6  C   UNL     1     102.175  22.352 194.187  1.00  0.00     0.041 C 
ATOM      7  O   UNL     1     102.009  21.792 195.303  1.00  0.00    -0.550 OA
ATOM      8  O   UNL     1     101.073  22.653 193.398  1.00  0.00    -0.550 OA
ENDBRANCH   5   6
ENDBRANCH   4   5
ENDBRANCH   3   4
ENDBRANCH   2   3
ENDBRANCH   1   2
BRANCH   1   9
ATOM      9  C   UNL     1     104.432  25.211 197.581  1.00  0.00     0.000 C 
BRANCH   9  10
ATOM     10  C   UNL     1     102.971  24.995 197.149  1.00  0.00    -0.000 C 
BRANCH  10  11
ATOM     11  C   UNL     1     102.219  24.024 198.073  1.00  0.00    -0.000 C 
BRANCH  11  12
ATOM     12  C   UNL     1     103.160  23.225 198.988  1.00  0.00    -0.000 C 
BRANCH  12  13
ATOM     13  C   UNL     1     102.610  23.163 200.418  1.00  0.00    -0.003 C 
ATOM     14  C   UNL     1     101.258  23.864 200.520  1.00  0.00     0.004 C 
ENDBRANCH  12  13
ENDBRANCH  11  12
ENDBRANCH  10  11
ENDBRANCH   9  10
ENDBRANCH   1   9
TORSDOF 10
ENDMDL
MODEL 6
REMARK VINA RESULT:    -4.792      2.867      5.178
REMARK INTER + INTRA:          -8.760
REMARK INTER:                  -7.593
REMARK INTRA:                  -1.166
REMARK UNBOUND:                -1.166
REMARK SMILES CCCCCCCCCCCC(=O)[O-]
REMARK SMILES IDX 7 1 8 2 9 3 10 4 11 5 12 6 13 7 14 8 6 9 5 10 4 11 3 12 2 13
REMARK SMILES IDX 1 14
REMARK H PARENT
REMARK Flexibility Score: inf
ROOT
ATOM      1  C   UNL     1     104.964  24.364 196.459  1.00  0.00     0.000 C 
ENDROOT
BRANCH   1   2
ATOM      2  C   UNL     1     104.007  25.433 197.012  1.00  0.00     0.000 C 
BRANCH   2   3
ATOM      3  C   UNL     1     102.652  24.817 197.382  1.00  0.00     0.000 C 
BRANCH   3   4
ATOM      4  C   UNL     1     102.826  23.651 198.361  1.00  0.00     0.006 C 
BRANCH   4   5
ATOM      5  C   UNL     1     101.470  23.074 198.775  1.00  0.00     0.053 C 
BRANCH   5   6
ATOM      6  C   UNL     1     100.988  23.719 200.036  1.00  0.00     0.041 C 
ATOM      7  O   UNL     1     101.758  23.828 201.027  1.00  0.00    -0.550 OA
ATOM      8  O   UNL     1      99.704  24.247 200.101  1.00  0.00    -0.550 OA
ENDBRANCH   5   6
ENDBRANCH   4   5
ENDBRANCH   3   4
ENDBRANCH   2   3
ENDBRANCH   1   2
BRANCH   1   9
ATOM      9  C   UNL     1     104.885  24.229 194.930  1.00  0.00     0.000 C 
BRANCH   9  10
ATOM     10  C   UNL     1     104.523  22.803 194.480  1.00  0.00    -0.000 C 
BRANCH  10  11
ATOM     11  C   UNL     1     103.431  22.785 193.398  1.00  0.00    -0.000 C 
BRANCH  11  12
ATOM     12  C   UNL     1     102.069  22.322 193.937  1.00  0.00    -0.000 C 
BRANCH  12  13
ATOM     13  C   UNL     1     102.215  21.699 195.331  1.00  0.00    -0.003 C 
ATOM     14  C   UNL     1     101.085  20.714 195.617  1.00  0.00     0.004 C 
ENDBRANCH  12  13
ENDBRANCH  11  12
ENDBRANCH  10  11
ENDBRANCH   9  10
ENDBRANCH   1   9
TORSDOF 10
ENDMDL
MODEL 7
REMARK VINA RESULT:    -4.754      1.255      2.775
REMARK INTER + INTRA:          -8.699
REMARK INTER:                  -7.400
REMARK INTRA:                  -1.300
REMARK UNBOUND:                -1.166
REMARK SMILES CCCCCCCCCCCC(=O)[O-]
REMARK SMILES IDX 7 1 8 2 9 3 10 4 11 5 12 6 13 7 14 8 6 9 5 10 4 11 3 12 2 13
REMARK SMILES IDX 1 14
REMARK H PARENT
REMARK Flexibility Score: inf
ROOT
ATOM      1  C   UNL     1     105.326  22.929 194.649  1.00  0.00     0.000 C 
ENDROOT
BRANCH   1   2
ATOM      2  C   UNL     1     104.498  22.209 193.572  1.00  0.00     0.000 C 
BRANCH   2   3
ATOM      3  C   UNL     1     103.209  22.981 193.264  1.00  0.00     0.000 C 
BRANCH   3   4
ATOM      4  C   UNL     1     101.977  22.216 193.761  1.00  0.00     0.006 C 
BRANCH   4   5
ATOM      5  C   UNL     1     101.675  22.551 195.224  1.00  0.00     0.053 C 
BRANCH   5   6
ATOM      6  C   UNL     1     101.799  21.331 196.079  1.00  0.00     0.041 C 
ATOM      7  O   UNL     1     102.932  20.941 196.468  1.00  0.00    -0.550 OA
ATOM      8  O   UNL     1     100.660  20.650 196.489  1.00  0.00    -0.550 OA
ENDBRANCH   5   6
ENDBRANCH   4   5
ENDBRANCH   3   4
ENDBRANCH   2   3
ENDBRANCH   1   2
BRANCH   1   9
ATOM      9  C   UNL     1     104.946  24.412 194.798  1.00  0.00     0.000 C 
BRANCH   9  10
ATOM     10  C   UNL     1     105.114  24.923 196.239  1.00  0.00    -0.000 C 
BRANCH  10  11
ATOM     11  C   UNL     1     103.771  25.068 196.974  1.00  0.00    -0.000 C 
BRANCH  11  12
ATOM     12  C   UNL     1     103.604  24.048 198.111  1.00  0.00    -0.000 C 
BRANCH  12  13
ATOM     13  C   UNL     1     104.955  23.435 198.499  1.00  0.00    -0.003 C 
ATOM     14  C   UNL     1     105.100  23.336 200.016  1.00  0.00     0.004 C 
ENDBRANCH  12  13
ENDBRANCH  11  12
ENDBRANCH  10  11
ENDBRANCH   9  10
ENDBRANCH   1   9
TORSDOF 10
ENDMDL
MODEL 8
REMARK VINA RESULT:    -4.750      2.021      2.775
REMARK INTER + INTRA:          -8.693
REMARK INTER:                  -7.275
REMARK INTRA:                  -1.417
REMARK UNBOUND:                -1.166
REMARK SMILES CCCCCCCCCCCC(=O)[O-]
REMARK SMILES IDX 7 1 8 2 9 3 10 4 11 5 12 6 13 7 14 8 6 9 5 10 4 11 3 12 2 13
REMARK SMILES IDX 1 14
REMARK H PARENT
REMARK Flexibility Score: inf
ROOT
ATOM      1  C   UNL     1     105.153  24.923 197.505  1.00  0.00     0.000 C 
ENDROOT
BRANCH   1   2
ATOM      2  C   UNL     1     105.776  24.360 196.217  1.00  0.00     0.000 C 
BRANCH   2   3
ATOM      3  C   UNL     1     104.848  24.584 195.017  1.00  0.00     0.000 C 
BRANCH   3   4
ATOM      4  C   UNL     1     104.467  23.253 194.360  1.00  0.00     0.006 C 
BRANCH   4   5
ATOM      5  C   UNL     1     105.279  22.096 194.949  1.00  0.00     0.053 C 
BRANCH   5   6
ATOM      6  C   UNL     1     106.052  21.398 193.875  1.00  0.00     0.041 C 
ATOM      7  O   UNL     1     107.112  20.779 194.158  1.00  0.00    -0.550 OA
ATOM      8  O   UNL     1     105.577  21.389 192.570  1.00  0.00    -0.550 OA
ENDBRANCH   5   6
ENDBRANCH   4   5
ENDBRANCH   3   4
ENDBRANCH   2   3
ENDBRANCH   1   2
BRANCH   1   9
ATOM      9  C   UNL     1     103.973  24.079 198.013  1.00  0.00     0.000 C 
BRANCH   9  10
ATOM     10  C   UNL     1     104.428  22.879 198.862  1.00  0.00    -0.000 C 
BRANCH  10  11
ATOM     11  C   UNL     1     105.645  23.206 199.743  1.00  0.00    -0.000 C 
BRANCH  11  12
ATOM     12  C   UNL     1     106.725  22.115 199.692  1.00  0.00    -0.000 C 
BRANCH  12  13
ATOM     13  C   UNL     1     106.711  21.394 198.338  1.00  0.00    -0.003 C 
ATOM     14  C   UNL     1     107.978  21.693 197.541  1.00  0.00     0.004 C 
ENDBRANCH  12  13
ENDBRANCH  11  12
ENDBRANCH  10  11
ENDBRANCH   9  10
ENDBRANCH   1   9
TORSDOF 10
ENDMDL
MODEL 9
REMARK VINA RESULT:    -4.729      2.606      4.906
REMARK INTER + INTRA:          -8.660
REMARK INTER:                  -7.410
REMARK INTRA:                  -1.250
REMARK UNBOUND:                -1.166
REMARK SMILES CCCCCCCCCCCC(=O)[O-]
REMARK SMILES IDX 7 1 8 2 9 3 10 4 11 5 12 6 13 7 14 8 6 9 5 10 4 11 3 12 2 13
REMARK SMILES IDX 1 14
REMARK H PARENT
REMARK Flexibility Score: inf
ROOT
ATOM      1  C   UNL     1     101.906  22.127 193.879  1.00  0.00     0.000 C 
ENDROOT
BRANCH   1   2
ATOM      2  C   UNL     1     101.168  22.846 195.020  1.00  0.00     0.000 C 
BRANCH   2   3
ATOM      3  C   UNL     1     101.875  22.614 196.362  1.00  0.00     0.000 C 
BRANCH   3   4
ATOM      4  C   UNL     1     101.971  23.915 197.166  1.00  0.00     0.006 C 
BRANCH   4   5
ATOM      5  C   UNL     1     102.687  23.686 198.499  1.00  0.00     0.053 C 
BRANCH   5   6
ATOM      6  C   UNL     1     101.697  23.419 199.588  1.00  0.00     0.041 C 
ATOM      7  O   UNL     1     100.470  23.622 199.393  1.00  0.00    -0.550 OA
ATOM      8  O   UNL     1     102.124  22.900 200.804  1.00  0.00    -0.550 OA
ENDBRANCH   5   6
ENDBRANCH   4   5
ENDBRANCH   3   4
ENDBRANCH   2   3
ENDBRANCH   1   2
BRANCH   1   9
ATOM      9  C   UNL     1     103.102  22.931 193.345  1.00  0.00     0.000 C 
BRANCH   9  10
ATOM     10  C   UNL     1     104.435  22.176 193.491  1.00  0.00    -0.000 C 
BRANCH  10  11
ATOM     11  C   UNL     1     105.286  22.700 194.659  1.00  0.00    -0.000 C 
BRANCH  11  12
ATOM     12  C   UNL     1     105.004  24.175 194.983  1.00  0.00    -0.000 C 
BRANCH  12  13
ATOM     13  C   UNL     1     105.860  24.649 196.165  1.00  0.00    -0.003 C 
ATOM     14  C   UNL     1     105.277  25.910 196.797  1.00  0.00     0.004 C 
ENDBRANCH  12  13
ENDBRANCH  11  12
ENDBRANCH  10  11
ENDBRANCH   9  10
ENDBRANCH   1   9
TORSDOF 10
ENDMDL
