MODEL 1
REMARK VINA RESULT:    -3.212      0.000      0.000
REMARK INTER + INTRA:          -3.212
REMARK INTER:                  -3.212
REMARK INTRA:                   0.000
REMARK UNBOUND:                 0.000
REMARK SMILES CC1(C)O[C@]2(C)CC[C@H]1CC2
REMARK SMILES IDX 1 1 2 2 9 3 8 4 7 5 5 6 4 7 11 8 10 9 6 10 3 11
REMARK H PARENT
REMARK Flexibility Score: inf
ROOT
ATOM      1  C   UNL     1     107.614 110.178 103.882  1.00  0.00     0.042 C 
ATOM      2  C   UNL     1     108.377 109.731 105.147  1.00  0.00     0.066 C 
ATOM      3  C   UNL     1     108.042 108.229 105.499  1.00  0.00     0.021 C 
ATOM      4  C   UNL     1     108.872 107.820 106.740  1.00  0.00     0.009 C 
ATOM      5  C   UNL     1     110.361 108.166 106.493  1.00  0.00     0.035 C 
ATOM      6  C   UNL     1     110.540 108.721 105.051  1.00  0.00     0.066 C 
ATOM      7  O   UNL     1     109.779 109.922 104.913  1.00  0.00    -0.369 OA
ATOM      8  C   UNL     1     110.017 107.666 104.034  1.00  0.00     0.035 C 
ATOM      9  C   UNL     1     108.537 107.332 104.339  1.00  0.00     0.009 C 
ATOM     10  C   UNL     1     112.015 109.037 104.781  1.00  0.00     0.042 C 
ATOM     11  C   UNL     1     107.950 110.669 106.297  1.00  0.00     0.042 C 
ENDROOT
TORSDOF 0
ENDMDL
MODEL 2
REMARK VINA RESULT:    -3.201      1.731      3.132
REMARK INTER + INTRA:          -3.201
REMARK INTER:                  -3.201
REMARK INTRA:                   0.000
REMARK UNBOUND:                 0.000
REMARK SMILES CC1(C)O[C@]2(C)CC[C@H]1CC2
REMARK SMILES IDX 1 1 2 2 9 3 8 4 7 5 5 6 4 7 11 8 10 9 6 10 3 11
REMARK H PARENT
REMARK Flexibility Score: inf
ROOT
ATOM      1  C   UNL     1     109.959 107.594 103.875  1.00  0.00     0.042 C 
ATOM      2  C   UNL     1     110.376 108.467 105.078  1.00  0.00     0.066 C 
ATOM      3  C   UNL     1     111.867 108.161 105.499  1.00  0.00     0.021 C 
ATOM      4  C   UNL     1     112.247 109.099 106.670  1.00  0.00     0.009 C 
ATOM      5  C   UNL     1     111.915 110.560 106.279  1.00  0.00     0.035 C 
ATOM      6  C   UNL     1     111.400 110.610 104.813  1.00  0.00     0.066 C 
ATOM      7  O   UNL     1     110.199 109.843 104.712  1.00  0.00    -0.369 OA
ATOM      8  C   UNL     1     112.479 109.993 103.876  1.00  0.00     0.035 C 
ATOM      9  C   UNL     1     112.796 108.546 104.323  1.00  0.00     0.009 C 
ATOM     10  C   UNL     1     111.100 112.055 104.402  1.00  0.00     0.042 C 
ATOM     11  C   UNL     1     109.406 108.149 106.236  1.00  0.00     0.042 C 
ENDROOT
TORSDOF 0
ENDMDL
MODEL 3
REMARK VINA RESULT:    -3.184      2.395      4.346
REMARK INTER + INTRA:          -3.184
REMARK INTER:                  -3.184
REMARK INTRA:                   0.000
REMARK UNBOUND:                 0.000
REMARK SMILES CC1(C)O[C@]2(C)CC[C@H]1CC2
REMARK SMILES IDX 1 1 2 2 9 3 8 4 7 5 5 6 4 7 11 8 10 9 6 10 3 11
REMARK H PARENT
REMARK Flexibility Score: inf
ROOT
ATOM      1  C   UNL     1     112.422 110.059 103.875  1.00  0.00     0.042 C 
ATOM      2  C   UNL     1     111.526 110.434 105.075  1.00  0.00     0.066 C 
ATOM      3  C   UNL     1     111.770 111.932 105.508  1.00  0.00     0.021 C 
ATOM      4  C   UNL     1     110.811 112.266 106.676  1.00  0.00     0.009 C 
ATOM      5  C   UNL     1     109.366 111.880 106.274  1.00  0.00     0.035 C 
ATOM      6  C   UNL     1     109.346 111.374 104.804  1.00  0.00     0.066 C 
ATOM      7  O   UNL     1     110.160 110.204 104.699  1.00  0.00    -0.369 OA
ATOM      8  C   UNL     1     109.925 112.482 103.878  1.00  0.00     0.035 C 
ATOM      9  C   UNL     1     111.356 112.853 104.336  1.00  0.00     0.009 C 
ATOM     10  C   UNL     1     107.916 111.019 104.381  1.00  0.00     0.042 C 
ATOM     11  C   UNL     1     111.875 109.468 106.228  1.00  0.00     0.042 C 
ENDROOT
TORSDOF 0
ENDMDL
MODEL 4
REMARK VINA RESULT:    -3.180      1.853      3.207
REMARK INTER + INTRA:          -3.180
REMARK INTER:                  -3.180
REMARK INTRA:                   0.000
REMARK UNBOUND:                 0.000
REMARK SMILES CC1(C)O[C@]2(C)CC[C@H]1CC2
REMARK SMILES IDX 1 1 2 2 9 3 8 4 7 5 5 6 4 7 11 8 10 9 6 10 3 11
REMARK H PARENT
REMARK Flexibility Score: inf
ROOT
ATOM      1  C   UNL     1     110.299 112.611 103.879  1.00  0.00     0.042 C 
ATOM      2  C   UNL     1     109.775 111.842 105.112  1.00  0.00     0.066 C 
ATOM      3  C   UNL     1     108.261 112.195 105.387  1.00  0.00     0.021 C 
ATOM      4  C   UNL     1     107.776 111.359 106.597  1.00  0.00     0.009 C 
ATOM      5  C   UNL     1     108.116 109.868 106.353  1.00  0.00     0.035 C 
ATOM      6  C   UNL     1     108.743 109.695 104.941  1.00  0.00     0.066 C 
ATOM      7  O   UNL     1     109.960 110.439 104.874  1.00  0.00    -0.369 OA
ATOM      8  C   UNL     1     107.751 110.241 103.875  1.00  0.00     0.035 C 
ATOM      9  C   UNL     1     107.421 111.723 104.177  1.00  0.00     0.009 C 
ATOM     10  C   UNL     1     109.053 108.218 104.674  1.00  0.00     0.042 C 
ATOM     11  C   UNL     1     110.657 112.246 106.314  1.00  0.00     0.042 C 
ENDROOT
TORSDOF 0
ENDMDL
MODEL 5
REMARK VINA RESULT:    -3.138      0.929      3.285
REMARK INTER + INTRA:          -3.138
REMARK INTER:                  -3.138
REMARK INTRA:                   0.000
REMARK UNBOUND:                 0.000
REMARK SMILES CC1(C)O[C@]2(C)CC[C@H]1CC2
REMARK SMILES IDX 1 1 2 2 9 3 8 4 7 5 5 6 4 7 11 8 10 9 6 10 3 11
REMARK H PARENT
REMARK Flexibility Score: inf
ROOT
ATOM      1  C   UNL     1     111.084 108.201 106.244  1.00  0.00     0.042 C 
ATOM      2  C   UNL     1     110.066 108.313 105.089  1.00  0.00     0.066 C 
ATOM      3  C   UNL     1     108.680 107.683 105.504  1.00  0.00     0.021 C 
ATOM      4  C   UNL     1     107.686 107.870 104.332  1.00  0.00     0.009 C 
ATOM      5  C   UNL     1     107.679 109.358 103.904  1.00  0.00     0.035 C 
ATOM      6  C   UNL     1     108.598 110.182 104.850  1.00  0.00     0.066 C 
ATOM      7  O   UNL     1     109.938 109.699 104.741  1.00  0.00    -0.369 OA
ATOM      8  C   UNL     1     108.108 110.002 106.316  1.00  0.00     0.035 C 
ATOM      9  C   UNL     1     108.106 108.499 106.687  1.00  0.00     0.009 C 
ATOM     10  C   UNL     1     108.574 111.663 104.458  1.00  0.00     0.042 C 
ATOM     11  C   UNL     1     110.663 107.567 103.876  1.00  0.00     0.042 C 
ENDROOT
TORSDOF 0
ENDMDL
MODEL 6
REMARK VINA RESULT:    -3.136      1.244      2.980
REMARK INTER + INTRA:          -3.136
REMARK INTER:                  -3.136
REMARK INTRA:                   0.000
REMARK UNBOUND:                 0.000
REMARK SMILES CC1(C)O[C@]2(C)CC[C@H]1CC2
REMARK SMILES IDX 1 1 2 2 9 3 8 4 7 5 5 6 4 7 11 8 10 9 6 10 3 11
REMARK H PARENT
REMARK Flexibility Score: inf
ROOT
ATOM      1  C   UNL     1     107.577 107.048 106.895  1.00  0.00     0.042 C 
ATOM      2  C   UNL     1     108.666 107.960 106.291  1.00  0.00     0.066 C 
ATOM      3  C   UNL     1     109.187 107.375 104.920  1.00  0.00     0.021 C 
ATOM      4  C   UNL     1     110.236 108.353 104.337  1.00  0.00     0.009 C 
ATOM      5  C   UNL     1     109.637 109.781 104.307  1.00  0.00     0.035 C 
ATOM      6  C   UNL     1     108.157 109.742 104.783  1.00  0.00     0.066 C 
ATOM      7  O   UNL     1     108.111 109.274 106.132  1.00  0.00    -0.369 OA
ATOM      8  C   UNL     1     107.358 108.764 103.875  1.00  0.00     0.035 C 
ATOM      9  C   UNL     1     108.010 107.360 103.916  1.00  0.00     0.009 C 
ATOM     10  C   UNL     1     107.542 111.144 104.727  1.00  0.00     0.042 C 
ATOM     11  C   UNL     1     109.815 108.046 107.319  1.00  0.00     0.042 C 
ENDROOT
TORSDOF 0
ENDMDL
MODEL 7
REMARK VINA RESULT:    -3.128      3.058      4.648
REMARK INTER + INTRA:          -3.128
REMARK INTER:                  -3.128
REMARK INTRA:                   0.000
REMARK UNBOUND:                 0.000
REMARK SMILES CC1(C)O[C@]2(C)CC[C@H]1CC2
REMARK SMILES IDX 1 1 2 2 9 3 8 4 7 5 5 6 4 7 11 8 10 9 6 10 3 11
REMARK H PARENT
REMARK Flexibility Score: inf
ROOT
ATOM      1  C   UNL     1     110.818 109.138 105.306  1.00  0.00     0.042 C 
ATOM      2  C   UNL     1     111.570 110.436 104.940  1.00  0.00     0.066 C 
ATOM      3  C   UNL     1     110.569 111.522 104.383  1.00  0.00     0.021 C 
ATOM      4  C   UNL     1     111.366 112.815 104.083  1.00  0.00     0.009 C 
ATOM      5  C   UNL     1     112.195 113.202 105.332  1.00  0.00     0.035 C 
ATOM      6  C   UNL     1     111.882 112.221 106.497  1.00  0.00     0.066 C 
ATOM      7  O   UNL     1     112.258 110.898 106.111  1.00  0.00    -0.369 OA
ATOM      8  C   UNL     1     110.353 112.252 106.788  1.00  0.00     0.035 C 
ATOM      9  C   UNL     1     109.568 111.887 105.505  1.00  0.00     0.009 C 
ATOM     10  C   UNL     1     112.671 112.613 107.751  1.00  0.00     0.042 C 
ATOM     11  C   UNL     1     112.626 110.070 103.875  1.00  0.00     0.042 C 
ENDROOT
TORSDOF 0
ENDMDL
MODEL 8
REMARK VINA RESULT:    -2.062      2.311      3.774
REMARK INTER + INTRA:          -2.062
REMARK INTER:                  -2.062
REMARK INTRA:                   0.000
REMARK UNBOUND:                 0.000
REMARK SMILES CC1(C)O[C@]2(C)CC[C@H]1CC2
REMARK SMILES IDX 1 1 2 2 9 3 8 4 7 5 5 6 4 7 11 8 10 9 6 10 3 11
REMARK H PARENT
REMARK Flexibility Score: inf
ROOT
ATOM      1  C   UNL     1     108.941 111.873 106.193  1.00  0.00     0.042 C 
ATOM      2  C   UNL     1     109.980 111.741 105.058  1.00  0.00     0.066 C 
ATOM      3  C   UNL     1     111.400 112.234 105.542  1.00  0.00     0.021 C 
ATOM      4  C   UNL     1     112.408 112.031 104.385  1.00  0.00     0.009 C 
ATOM      5  C   UNL     1     112.309 110.573 103.875  1.00  0.00     0.035 C 
ATOM      6  C   UNL     1     111.302 109.775 104.750  1.00  0.00     0.066 C 
ATOM      7  O   UNL     1     110.008 110.370 104.636  1.00  0.00    -0.369 OA
ATOM      8  C   UNL     1     111.762 109.836 106.235  1.00  0.00     0.035 C 
ATOM      9  C   UNL     1     111.873 111.311 106.690  1.00  0.00     0.009 C 
ATOM     10  C   UNL     1     111.219 108.320 104.277  1.00  0.00     0.042 C 
ATOM     11  C   UNL     1     109.479 112.598 103.875  1.00  0.00     0.042 C 
ENDROOT
TORSDOF 0
ENDMDL
