MODEL 1
REMARK VINA RESULT:    -5.185      0.000      0.000
REMARK INTER + INTRA:          -6.223
REMARK INTER:                  -5.943
REMARK INTRA:                  -0.281
REMARK UNBOUND:                -0.281
REMARK SMILES O=C([O-])C=Cc1ccc(O)cc1
REMARK SMILES IDX 6 1 7 2 12 3 8 4 11 5 9 6 5 7 4 8 2 9 1 10 3 11 10 12
REMARK H PARENT 10 13
REMARK Flexibility Score: inf
ROOT
ATOM      1  C   UNL     1     -47.064 -13.234  10.894  1.00  0.00    -0.025 A 
ATOM      2  C   UNL     1     -48.246 -12.478  10.874  1.00  0.00     0.012 A 
ATOM      3  C   UNL     1     -47.068 -14.502  11.503  1.00  0.00     0.012 A 
ATOM      4  C   UNL     1     -49.402 -12.959  11.498  1.00  0.00     0.047 A 
ATOM      5  C   UNL     1     -48.225 -14.979  12.127  1.00  0.00     0.047 A 
ATOM      6  C   UNL     1     -49.394 -14.207  12.129  1.00  0.00     0.115 A 
ENDROOT
BRANCH   1   7
ATOM      7  C   UNL     1     -45.871 -12.731  10.183  1.00  0.00     0.010 C 
ATOM      8  C   UNL     1     -44.818 -12.128  10.758  1.00  0.00     0.025 C 
BRANCH   8   9
ATOM      9  C   UNL     1     -44.734 -11.700  12.168  1.00  0.00     0.064 C 
ATOM     10  O   UNL     1     -45.276 -10.635  12.566  1.00  0.00    -0.545 OA
ATOM     11  O   UNL     1     -43.981 -12.451  13.060  1.00  0.00    -0.545 OA
ENDBRANCH   8   9
ENDBRANCH   1   7
BRANCH   6  12
ATOM     12  O   UNL     1     -50.552 -14.672  12.749  1.00  0.00    -0.508 OA
ATOM     13  H   UNL     1     -50.943 -14.205  13.558  1.00  0.00     0.293 HD
ENDBRANCH   6  12
TORSDOF 3
ENDMDL
MODEL 2
REMARK VINA RESULT:    -5.184      0.143      1.406
REMARK INTER + INTRA:          -6.222
REMARK INTER:                  -5.944
REMARK INTRA:                  -0.279
REMARK UNBOUND:                -0.281
REMARK SMILES O=C([O-])C=Cc1ccc(O)cc1
REMARK SMILES IDX 6 1 7 2 12 3 8 4 11 5 9 6 5 7 4 8 2 9 1 10 3 11 10 12
REMARK H PARENT 10 13
REMARK Flexibility Score: inf
ROOT
ATOM      1  C   UNL     1     -47.092 -13.246  10.832  1.00  0.00    -0.025 A 
ATOM      2  C   UNL     1     -47.068 -14.489  11.481  1.00  0.00     0.012 A 
ATOM      3  C   UNL     1     -48.267 -12.474  10.866  1.00  0.00     0.012 A 
ATOM      4  C   UNL     1     -48.216 -14.978  12.112  1.00  0.00     0.047 A 
ATOM      5  C   UNL     1     -49.414 -12.966  11.497  1.00  0.00     0.047 A 
ATOM      6  C   UNL     1     -49.393 -14.222  12.119  1.00  0.00     0.115 A 
ENDROOT
BRANCH   1   7
ATOM      7  C   UNL     1     -45.853 -12.727  10.218  1.00  0.00     0.010 C 
ATOM      8  C   UNL     1     -44.868 -12.089  10.872  1.00  0.00     0.025 C 
BRANCH   8   9
ATOM      9  C   UNL     1     -44.918 -11.635  12.275  1.00  0.00     0.064 C 
ATOM     10  O   UNL     1     -45.515 -10.576  12.603  1.00  0.00    -0.545 OA
ATOM     11  O   UNL     1     -44.231 -12.354  13.244  1.00  0.00    -0.545 OA
ENDBRANCH   8   9
ENDBRANCH   1   7
BRANCH   6  12
ATOM     12  O   UNL     1     -50.530 -14.722  12.749  1.00  0.00    -0.508 OA
ATOM     13  H   UNL     1     -50.718 -15.716  12.789  1.00  0.00     0.293 HD
ENDBRANCH   6  12
TORSDOF 3
ENDMDL
MODEL 3
REMARK VINA RESULT:    -5.005      1.386      4.801
REMARK INTER + INTRA:          -6.017
REMARK INTER:                  -5.725
REMARK INTRA:                  -0.292
REMARK UNBOUND:                -0.281
REMARK SMILES O=C([O-])C=Cc1ccc(O)cc1
REMARK SMILES IDX 6 1 7 2 12 3 8 4 11 5 9 6 5 7 4 8 2 9 1 10 3 11 10 12
REMARK H PARENT 10 13
REMARK Flexibility Score: inf
ROOT
ATOM      1  C   UNL     1     -46.871 -14.002  11.661  1.00  0.00    -0.025 A 
ATOM      2  C   UNL     1     -46.017 -13.603  12.699  1.00  0.00     0.012 A 
ATOM      3  C   UNL     1     -46.666 -13.490  10.367  1.00  0.00     0.012 A 
ATOM      4  C   UNL     1     -45.005 -12.667  12.462  1.00  0.00     0.047 A 
ATOM      5  C   UNL     1     -45.654 -12.554  10.132  1.00  0.00     0.047 A 
ATOM      6  C   UNL     1     -44.822 -12.137  11.180  1.00  0.00     0.115 A 
ENDROOT
BRANCH   1   7
ATOM      7  C   UNL     1     -47.898 -15.030  11.923  1.00  0.00     0.010 C 
ATOM      8  C   UNL     1     -49.186 -14.788  12.215  1.00  0.00     0.025 C 
BRANCH   8   9
ATOM      9  C   UNL     1     -49.770 -13.464  12.502  1.00  0.00     0.064 C 
ATOM     10  O   UNL     1     -49.841 -13.016  13.677  1.00  0.00    -0.545 OA
ATOM     11  O   UNL     1     -50.318 -12.725  11.462  1.00  0.00    -0.545 OA
ENDBRANCH   8   9
ENDBRANCH   1   7
BRANCH   6  12
ATOM     12  O   UNL     1     -43.812 -11.205  10.958  1.00  0.00    -0.508 OA
ATOM     13  H   UNL     1     -44.012 -10.288  10.576  1.00  0.00     0.293 HD
ENDBRANCH   6  12
TORSDOF 3
ENDMDL
MODEL 4
REMARK VINA RESULT:    -4.996      9.879     10.886
REMARK INTER + INTRA:          -6.006
REMARK INTER:                  -5.761
REMARK INTRA:                  -0.245
REMARK UNBOUND:                -0.281
REMARK SMILES O=C([O-])C=Cc1ccc(O)cc1
REMARK SMILES IDX 6 1 7 2 12 3 8 4 11 5 9 6 5 7 4 8 2 9 1 10 3 11 10 12
REMARK H PARENT 10 13
REMARK Flexibility Score: inf
ROOT
ATOM      1  C   UNL     1     -41.391  -9.747   4.074  1.00  0.00    -0.025 A 
ATOM      2  C   UNL     1     -40.923 -10.013   2.778  1.00  0.00     0.012 A 
ATOM      3  C   UNL     1     -42.770  -9.832   4.338  1.00  0.00     0.012 A 
ATOM      4  C   UNL     1     -41.823 -10.310   1.749  1.00  0.00     0.047 A 
ATOM      5  C   UNL     1     -43.667 -10.127   3.307  1.00  0.00     0.047 A 
ATOM      6  C   UNL     1     -43.196 -10.364   2.009  1.00  0.00     0.115 A 
ENDROOT
BRANCH   1   7
ATOM      7  C   UNL     1     -40.419  -9.488   5.155  1.00  0.00     0.010 C 
ATOM      8  C   UNL     1     -39.860  -8.299   5.432  1.00  0.00     0.025 C 
BRANCH   8   9
ATOM      9  C   UNL     1     -39.971  -7.081   4.607  1.00  0.00     0.064 C 
ATOM     10  O   UNL     1     -39.213  -6.881   3.622  1.00  0.00    -0.545 OA
ATOM     11  O   UNL     1     -40.886  -6.101   4.968  1.00  0.00    -0.545 OA
ENDBRANCH   8   9
ENDBRANCH   1   7
BRANCH   6  12
ATOM     12  O   UNL     1     -44.081 -10.658   0.974  1.00  0.00    -0.508 OA
ATOM     13  H   UNL     1     -44.039 -11.540   0.477  1.00  0.00     0.293 HD
ENDBRANCH   6  12
TORSDOF 3
ENDMDL
MODEL 5
REMARK VINA RESULT:    -4.957      9.334     10.680
REMARK INTER + INTRA:          -5.963
REMARK INTER:                  -5.702
REMARK INTRA:                  -0.261
REMARK UNBOUND:                -0.281
REMARK SMILES O=C([O-])C=Cc1ccc(O)cc1
REMARK SMILES IDX 6 1 7 2 12 3 8 4 11 5 9 6 5 7 4 8 2 9 1 10 3 11 10 12
REMARK H PARENT 10 13
REMARK Flexibility Score: inf
ROOT
ATOM      1  C   UNL     1     -41.976  -9.527   4.245  1.00  0.00    -0.025 A 
ATOM      2  C   UNL     1     -43.207 -10.002   3.769  1.00  0.00     0.012 A 
ATOM      3  C   UNL     1     -40.947  -9.245   3.329  1.00  0.00     0.012 A 
ATOM      4  C   UNL     1     -43.392 -10.242   2.404  1.00  0.00     0.047 A 
ATOM      5  C   UNL     1     -41.133  -9.488   1.965  1.00  0.00     0.047 A 
ATOM      6  C   UNL     1     -42.356  -9.990   1.499  1.00  0.00     0.115 A 
ENDROOT
BRANCH   1   7
ATOM      7  C   UNL     1     -41.823  -9.230   5.684  1.00  0.00     0.010 C 
ATOM      8  C   UNL     1     -42.229  -8.106   6.295  1.00  0.00     0.025 C 
BRANCH   8   9
ATOM      9  C   UNL     1     -42.738  -6.895   5.623  1.00  0.00     0.064 C 
ATOM     10  O   UNL     1     -42.025  -5.864   5.494  1.00  0.00    -0.545 OA
ATOM     11  O   UNL     1     -44.055  -6.866   5.186  1.00  0.00    -0.545 OA
ENDBRANCH   8   9
ENDBRANCH   1   7
BRANCH   6  12
ATOM     12  O   UNL     1     -42.552 -10.236   0.142  1.00  0.00    -0.508 OA
ATOM     13  H   UNL     1     -43.429 -10.604  -0.208  1.00  0.00     0.293 HD
ENDBRANCH   6  12
TORSDOF 3
ENDMDL
MODEL 6
REMARK VINA RESULT:    -4.903      1.559      2.358
REMARK INTER + INTRA:          -5.901
REMARK INTER:                  -5.619
REMARK INTRA:                  -0.282
REMARK UNBOUND:                -0.281
REMARK SMILES O=C([O-])C=Cc1ccc(O)cc1
REMARK SMILES IDX 6 1 7 2 12 3 8 4 11 5 9 6 5 7 4 8 2 9 1 10 3 11 10 12
REMARK H PARENT 10 13
REMARK Flexibility Score: inf
ROOT
ATOM      1  C   UNL     1     -45.945 -12.916  11.931  1.00  0.00    -0.025 A 
ATOM      2  C   UNL     1     -46.537 -13.947  12.675  1.00  0.00     0.012 A 
ATOM      3  C   UNL     1     -46.638 -12.373  10.835  1.00  0.00     0.012 A 
ATOM      4  C   UNL     1     -47.781 -14.465  12.299  1.00  0.00     0.047 A 
ATOM      5  C   UNL     1     -47.881 -12.893  10.461  1.00  0.00     0.047 A 
ATOM      6  C   UNL     1     -48.455 -13.943  11.190  1.00  0.00     0.115 A 
ENDROOT
BRANCH   1   7
ATOM      7  C   UNL     1     -44.656 -12.349  12.378  1.00  0.00     0.010 C 
ATOM      8  C   UNL     1     -44.510 -11.336  13.247  1.00  0.00     0.025 C 
BRANCH   8   9
ATOM      9  C   UNL     1     -45.598 -10.490  13.775  1.00  0.00     0.064 C 
ATOM     10  O   UNL     1     -45.877  -9.377  13.257  1.00  0.00    -0.545 OA
ATOM     11  O   UNL     1     -46.281 -10.898  14.912  1.00  0.00    -0.545 OA
ENDBRANCH   8   9
ENDBRANCH   1   7
BRANCH   6  12
ATOM     12  O   UNL     1     -49.691 -14.469  10.826  1.00  0.00    -0.508 OA
ATOM     13  H   UNL     1     -49.768 -15.226  10.157  1.00  0.00     0.293 HD
ENDBRANCH   6  12
TORSDOF 3
ENDMDL
MODEL 7
REMARK VINA RESULT:    -4.827      1.607      2.336
REMARK INTER + INTRA:          -5.814
REMARK INTER:                  -5.574
REMARK INTRA:                  -0.240
REMARK UNBOUND:                -0.281
REMARK SMILES O=C([O-])C=Cc1ccc(O)cc1
REMARK SMILES IDX 6 1 7 2 12 3 8 4 11 5 9 6 5 7 4 8 2 9 1 10 3 11 10 12
REMARK H PARENT 10 13
REMARK Flexibility Score: inf
ROOT
ATOM      1  C   UNL     1     -46.713 -11.997  12.557  1.00  0.00    -0.025 A 
ATOM      2  C   UNL     1     -47.045 -13.185  13.226  1.00  0.00     0.012 A 
ATOM      3  C   UNL     1     -47.358 -11.687  11.346  1.00  0.00     0.012 A 
ATOM      4  C   UNL     1     -47.968 -14.075  12.669  1.00  0.00     0.047 A 
ATOM      5  C   UNL     1     -48.281 -12.579  10.791  1.00  0.00     0.047 A 
ATOM      6  C   UNL     1     -48.585 -13.778  11.449  1.00  0.00     0.115 A 
ENDROOT
BRANCH   1   7
ATOM      7  C   UNL     1     -45.776 -11.047  13.190  1.00  0.00     0.010 C 
ATOM      8  C   UNL     1     -44.522 -10.799  12.778  1.00  0.00     0.025 C 
BRANCH   8   9
ATOM      9  C   UNL     1     -43.792 -11.549  11.738  1.00  0.00     0.064 C 
ATOM     10  O   UNL     1     -43.557 -11.048  10.607  1.00  0.00    -0.545 OA
ATOM     11  O   UNL     1     -43.418 -12.863  11.988  1.00  0.00    -0.545 OA
ENDBRANCH   8   9
ENDBRANCH   1   7
BRANCH   6  12
ATOM     12  O   UNL     1     -49.502 -14.674  10.905  1.00  0.00    -0.508 OA
ATOM     13  H   UNL     1     -49.605 -15.613  11.271  1.00  0.00     0.293 HD
ENDBRANCH   6  12
TORSDOF 3
ENDMDL
MODEL 8
REMARK VINA RESULT:    -4.772      2.106      4.848
REMARK INTER + INTRA:          -5.750
REMARK INTER:                  -5.663
REMARK INTRA:                  -0.088
REMARK UNBOUND:                -0.281
REMARK SMILES O=C([O-])C=Cc1ccc(O)cc1
REMARK SMILES IDX 6 1 7 2 12 3 8 4 11 5 9 6 5 7 4 8 2 9 1 10 3 11 10 12
REMARK H PARENT 10 13
REMARK Flexibility Score: inf
ROOT
ATOM      1  C   UNL     1     -49.341 -13.487  11.701  1.00  0.00    -0.025 A 
ATOM      2  C   UNL     1     -48.748 -14.739  11.926  1.00  0.00     0.012 A 
ATOM      3  C   UNL     1     -48.588 -12.471  11.085  1.00  0.00     0.012 A 
ATOM      4  C   UNL     1     -47.409 -14.957  11.588  1.00  0.00     0.047 A 
ATOM      5  C   UNL     1     -47.249 -12.691  10.749  1.00  0.00     0.047 A 
ATOM      6  C   UNL     1     -46.654 -13.935  11.003  1.00  0.00     0.115 A 
ENDROOT
BRANCH   1   7
ATOM      7  C   UNL     1     -50.770 -13.296  12.017  1.00  0.00     0.010 C 
ATOM      8  C   UNL     1     -51.288 -13.190  13.252  1.00  0.00     0.025 C 
BRANCH   8   9
ATOM      9  C   UNL     1     -50.560 -13.421  14.514  1.00  0.00     0.064 C 
ATOM     10  O   UNL     1     -50.885 -14.349  15.302  1.00  0.00    -0.545 OA
ATOM     11  O   UNL     1     -49.539 -12.553  14.875  1.00  0.00    -0.545 OA
ENDBRANCH   8   9
ENDBRANCH   1   7
BRANCH   6  12
ATOM     12  O   UNL     1     -45.321 -14.165  10.673  1.00  0.00    -0.508 OA
ATOM     13  H   UNL     1     -44.565 -13.726  11.185  1.00  0.00     0.293 HD
ENDBRANCH   6  12
TORSDOF 3
ENDMDL
MODEL 9
REMARK VINA RESULT:    -4.691     15.183     17.774
REMARK INTER + INTRA:          -5.657
REMARK INTER:                  -5.368
REMARK INTRA:                  -0.289
REMARK UNBOUND:                -0.281
REMARK SMILES O=C([O-])C=Cc1ccc(O)cc1
REMARK SMILES IDX 6 1 7 2 12 3 8 4 11 5 9 6 5 7 4 8 2 9 1 10 3 11 10 12
REMARK H PARENT 10 13
REMARK Flexibility Score: inf
ROOT
ATOM      1  C   UNL     1     -36.606  -1.410   4.017  1.00  0.00    -0.025 A 
ATOM      2  C   UNL     1     -37.076  -0.088   4.015  1.00  0.00     0.012 A 
ATOM      3  C   UNL     1     -35.988  -1.923   2.863  1.00  0.00     0.012 A 
ATOM      4  C   UNL     1     -36.976   0.694   2.860  1.00  0.00     0.047 A 
ATOM      5  C   UNL     1     -35.890  -1.139   1.709  1.00  0.00     0.047 A 
ATOM      6  C   UNL     1     -36.387   0.172   1.703  1.00  0.00     0.115 A 
ENDROOT
BRANCH   1   7
ATOM      7  C   UNL     1     -36.674  -2.199   5.264  1.00  0.00     0.010 C 
ATOM      8  C   UNL     1     -37.639  -3.079   5.577  1.00  0.00     0.025 C 
BRANCH   8   9
ATOM      9  C   UNL     1     -38.892  -3.288   4.826  1.00  0.00     0.064 C 
ATOM     10  O   UNL     1     -39.976  -2.767   5.196  1.00  0.00    -0.545 OA
ATOM     11  O   UNL     1     -38.888  -4.136   3.727  1.00  0.00    -0.545 OA
ENDBRANCH   8   9
ENDBRANCH   1   7
BRANCH   6  12
ATOM     12  O   UNL     1     -36.297   0.961   0.560  1.00  0.00    -0.508 OA
ATOM     13  H   UNL     1     -36.652   1.910   0.542  1.00  0.00     0.293 HD
ENDBRANCH   6  12
TORSDOF 3
ENDMDL
