MODEL 1
REMARK VINA RESULT:    -5.161      0.000      0.000
REMARK INTER + INTRA:         -11.568
REMARK INTER:                  -9.688
REMARK INTRA:                  -1.880
REMARK UNBOUND:                -1.880
REMARK SMILES CCCCCCCCC=CCCCCCCCC(=O)[O-]
REMARK SMILES IDX 10 1 9 2 11 3 12 4 13 5 14 6 15 7 16 8 17 9 18 10 19 11
REMARK SMILES IDX 20 12 8 13 7 14 6 15 5 16 4 17 3 18 2 19 1 20
REMARK H PARENT
REMARK Flexibility Score: inf
ROOT
ATOM      1  C   UNL     1      12.761  47.953  29.398  1.00  0.00    -0.031 C 
ATOM      2  C   UNL     1      11.585  47.584  29.939  1.00  0.00    -0.031 C 
ENDROOT
BRANCH   1   3
ATOM      3  C   UNL     1      13.214  47.592  28.007  1.00  0.00     0.027 C 
BRANCH   3   4
ATOM      4  C   UNL     1      14.743  47.674  27.892  1.00  0.00     0.004 C 
BRANCH   4   5
ATOM      5  C   UNL     1      15.456  46.694  28.837  1.00  0.00     0.000 C 
BRANCH   5   6
ATOM      6  C   UNL     1      15.129  45.227  28.515  1.00  0.00     0.000 C 
BRANCH   6   7
ATOM      7  C   UNL     1      14.634  44.443  29.742  1.00  0.00     0.000 C 
BRANCH   7   8
ATOM      8  C   UNL     1      13.150  44.026  29.650  1.00  0.00     0.006 C 
BRANCH   8   9
ATOM      9  C   UNL     1      12.646  43.988  28.202  1.00  0.00     0.053 C 
BRANCH   9  10
ATOM     10  C   UNL     1      12.355  42.582  27.786  1.00  0.00     0.041 C 
ATOM     11  O   UNL     1      12.966  41.623  28.327  1.00  0.00    -0.550 OA
ATOM     12  O   UNL     1      11.368  42.325  26.842  1.00  0.00    -0.550 OA
ENDBRANCH   9  10
ENDBRANCH   8   9
ENDBRANCH   7   8
ENDBRANCH   6   7
ENDBRANCH   5   6
ENDBRANCH   4   5
ENDBRANCH   3   4
ENDBRANCH   1   3
BRANCH   2  13
ATOM     13  C   UNL     1      10.571  46.687  29.268  1.00  0.00     0.027 C 
BRANCH  13  14
ATOM     14  C   UNL     1       9.138  47.171  29.522  1.00  0.00     0.004 C 
BRANCH  14  15
ATOM     15  C   UNL     1       9.110  48.586  30.127  1.00  0.00     0.000 C 
BRANCH  15  16
ATOM     16  C   UNL     1       8.729  49.661  29.096  1.00  0.00     0.000 C 
BRANCH  16  17
ATOM     17  C   UNL     1       8.302  50.983  29.752  1.00  0.00    -0.000 C 
BRANCH  17  18
ATOM     18  C   UNL     1       8.969  51.151  31.126  1.00  0.00    -0.000 C 
BRANCH  18  19
ATOM     19  C   UNL     1       8.168  52.068  32.064  1.00  0.00    -0.003 C 
ATOM     20  C   UNL     1       8.126  51.551  33.501  1.00  0.00     0.004 C 
ENDBRANCH  18  19
ENDBRANCH  17  18
ENDBRANCH  16  17
ENDBRANCH  15  16
ENDBRANCH  14  15
ENDBRANCH  13  14
ENDBRANCH   2  13
TORSDOF 15
ENDMDL
MODEL 2
REMARK VINA RESULT:    -5.121      3.370      6.680
REMARK INTER + INTRA:         -11.492
REMARK INTER:                  -8.676
REMARK INTRA:                  -2.816
REMARK UNBOUND:                -1.880
REMARK SMILES CCCCCCCCC=CCCCCCCCC(=O)[O-]
REMARK SMILES IDX 10 1 9 2 11 3 12 4 13 5 14 6 15 7 16 8 17 9 18 10 19 11
REMARK SMILES IDX 20 12 8 13 7 14 6 15 5 16 4 17 3 18 2 19 1 20
REMARK H PARENT
REMARK Flexibility Score: inf
ROOT
ATOM      1  C   UNL     1      11.989  44.622  28.712  1.00  0.00    -0.031 C 
ATOM      2  C   UNL     1      13.216  45.041  28.350  1.00  0.00    -0.031 C 
ENDROOT
BRANCH   1   3
ATOM      3  C   UNL     1      11.713  43.619  29.800  1.00  0.00     0.027 C 
BRANCH   3   4
ATOM      4  C   UNL     1      11.082  44.300  31.023  1.00  0.00     0.004 C 
BRANCH   4   5
ATOM      5  C   UNL     1       9.607  44.664  30.796  1.00  0.00     0.000 C 
BRANCH   5   6
ATOM      6  C   UNL     1       9.353  46.177  30.909  1.00  0.00     0.000 C 
BRANCH   6   7
ATOM      7  C   UNL     1       8.968  46.819  29.566  1.00  0.00     0.000 C 
BRANCH   7   8
ATOM      8  C   UNL     1       9.665  48.172  29.307  1.00  0.00     0.006 C 
BRANCH   8   9
ATOM      9  C   UNL     1       9.347  49.207  30.395  1.00  0.00     0.053 C 
BRANCH   9  10
ATOM     10  C   UNL     1       8.519  50.318  29.834  1.00  0.00     0.041 C 
ATOM     11  O   UNL     1       7.910  51.104  30.605  1.00  0.00    -0.550 OA
ATOM     12  O   UNL     1       8.466  50.521  28.460  1.00  0.00    -0.550 OA
ENDBRANCH   9  10
ENDBRANCH   8   9
ENDBRANCH   7   8
ENDBRANCH   6   7
ENDBRANCH   5   6
ENDBRANCH   4   5
ENDBRANCH   3   4
ENDBRANCH   1   3
BRANCH   2  13
ATOM     13  C   UNL     1      14.511  44.512  28.923  1.00  0.00     0.027 C 
BRANCH  13  14
ATOM     14  C   UNL     1      15.665  45.499  28.708  1.00  0.00     0.004 C 
BRANCH  14  15
ATOM     15  C   UNL     1      15.157  46.892  28.295  1.00  0.00     0.000 C 
BRANCH  15  16
ATOM     16  C   UNL     1      15.838  48.026  29.078  1.00  0.00     0.000 C 
BRANCH  16  17
ATOM     17  C   UNL     1      14.886  48.714  30.069  1.00  0.00    -0.000 C 
BRANCH  17  18
ATOM     18  C   UNL     1      13.447  48.209  29.884  1.00  0.00    -0.000 C 
BRANCH  18  19
ATOM     19  C   UNL     1      12.859  47.614  31.172  1.00  0.00    -0.003 C 
ATOM     20  C   UNL     1      13.830  46.675  31.887  1.00  0.00     0.004 C 
ENDBRANCH  18  19
ENDBRANCH  17  18
ENDBRANCH  16  17
ENDBRANCH  15  16
ENDBRANCH  14  15
ENDBRANCH  13  14
ENDBRANCH   2  13
TORSDOF 15
ENDMDL
MODEL 3
REMARK VINA RESULT:    -5.089      2.316      5.998
REMARK INTER + INTRA:         -11.432
REMARK INTER:                  -9.322
REMARK INTRA:                  -2.110
REMARK UNBOUND:                -1.880
REMARK SMILES CCCCCCCCC=CCCCCCCCC(=O)[O-]
REMARK SMILES IDX 10 1 9 2 11 3 12 4 13 5 14 6 15 7 16 8 17 9 18 10 19 11
REMARK SMILES IDX 20 12 8 13 7 14 6 15 5 16 4 17 3 18 2 19 1 20
REMARK H PARENT
REMARK Flexibility Score: inf
ROOT
ATOM      1  C   UNL     1      11.449  47.983  30.260  1.00  0.00    -0.031 C 
ATOM      2  C   UNL     1      12.499  47.238  29.870  1.00  0.00    -0.031 C 
ENDROOT
BRANCH   1   3
ATOM      3  C   UNL     1      10.326  48.421  29.356  1.00  0.00     0.027 C 
BRANCH   3   4
ATOM      4  C   UNL     1       9.093  47.526  29.546  1.00  0.00     0.004 C 
BRANCH   4   5
ATOM      5  C   UNL     1       9.146  46.723  30.855  1.00  0.00     0.000 C 
BRANCH   5   6
ATOM      6  C   UNL     1       9.023  45.208  30.618  1.00  0.00     0.000 C 
BRANCH   6   7
ATOM      7  C   UNL     1      10.168  44.409  31.262  1.00  0.00     0.000 C 
BRANCH   7   8
ATOM      8  C   UNL     1      11.157  43.814  30.236  1.00  0.00     0.006 C 
BRANCH   8   9
ATOM      9  C   UNL     1      10.580  43.798  28.814  1.00  0.00     0.053 C 
BRANCH   9  10
ATOM     10  C   UNL     1      11.532  43.135  27.871  1.00  0.00     0.041 C 
ATOM     11  O   UNL     1      11.096  42.494  26.879  1.00  0.00    -0.550 OA
ATOM     12  O   UNL     1      12.902  43.272  28.054  1.00  0.00    -0.550 OA
ENDBRANCH   9  10
ENDBRANCH   8   9
ENDBRANCH   7   8
ENDBRANCH   6   7
ENDBRANCH   5   6
ENDBRANCH   4   5
ENDBRANCH   3   4
ENDBRANCH   1   3
BRANCH   2  13
ATOM     13  C   UNL     1      12.758  46.790  28.449  1.00  0.00     0.027 C 
BRANCH  13  14
ATOM     14  C   UNL     1      13.604  47.814  27.683  1.00  0.00     0.004 C 
BRANCH  14  15
ATOM     15  C   UNL     1      15.111  47.554  27.853  1.00  0.00     0.000 C 
BRANCH  15  16
ATOM     16  C   UNL     1      15.411  46.134  28.363  1.00  0.00     0.000 C 
BRANCH  16  17
ATOM     17  C   UNL     1      16.393  46.126  29.544  1.00  0.00    -0.000 C 
BRANCH  17  18
ATOM     18  C   UNL     1      16.403  47.487  30.255  1.00  0.00    -0.000 C 
BRANCH  18  19
ATOM     19  C   UNL     1      17.825  48.025  30.482  1.00  0.00    -0.003 C 
ATOM     20  C   UNL     1      18.805  46.938  30.922  1.00  0.00     0.004 C 
ENDBRANCH  18  19
ENDBRANCH  17  18
ENDBRANCH  16  17
ENDBRANCH  15  16
ENDBRANCH  14  15
ENDBRANCH  13  14
ENDBRANCH   2  13
TORSDOF 15
ENDMDL
MODEL 4
REMARK VINA RESULT:    -5.072      3.429      7.281
REMARK INTER + INTRA:         -11.399
REMARK INTER:                  -9.284
REMARK INTRA:                  -2.116
REMARK UNBOUND:                -1.880
REMARK SMILES CCCCCCCCC=CCCCCCCCC(=O)[O-]
REMARK SMILES IDX 10 1 9 2 11 3 12 4 13 5 14 6 15 7 16 8 17 9 18 10 19 11
REMARK SMILES IDX 20 12 8 13 7 14 6 15 5 16 4 17 3 18 2 19 1 20
REMARK H PARENT
REMARK Flexibility Score: inf
ROOT
ATOM      1  C   UNL     1      10.479  43.832  28.838  1.00  0.00    -0.031 C 
ATOM      2  C   UNL     1      11.430  44.242  27.978  1.00  0.00    -0.031 C 
ENDROOT
BRANCH   1   3
ATOM      3  C   UNL     1      10.499  44.091  30.322  1.00  0.00     0.027 C 
BRANCH   3   4
ATOM      4  C   UNL     1       9.404  45.092  30.716  1.00  0.00     0.004 C 
BRANCH   4   5
ATOM      5  C   UNL     1       9.967  46.319  31.450  1.00  0.00     0.000 C 
BRANCH   5   6
ATOM      6  C   UNL     1      10.840  47.198  30.539  1.00  0.00     0.000 C 
BRANCH   6   7
ATOM      7  C   UNL     1      10.090  47.691  29.290  1.00  0.00     0.000 C 
BRANCH   7   8
ATOM      8  C   UNL     1       8.727  48.344  29.608  1.00  0.00     0.006 C 
BRANCH   8   9
ATOM      9  C   UNL     1       8.688  49.827  29.215  1.00  0.00     0.053 C 
BRANCH   9  10
ATOM     10  C   UNL     1       8.993  50.689  30.398  1.00  0.00     0.041 C 
ATOM     11  O   UNL     1       8.986  51.943  30.287  1.00  0.00    -0.550 OA
ATOM     12  O   UNL     1       9.230  50.109  31.639  1.00  0.00    -0.550 OA
ENDBRANCH   9  10
ENDBRANCH   8   9
ENDBRANCH   7   8
ENDBRANCH   6   7
ENDBRANCH   5   6
ENDBRANCH   4   5
ENDBRANCH   3   4
ENDBRANCH   1   3
BRANCH   2  13
ATOM     13  C   UNL     1      12.702  44.955  28.375  1.00  0.00     0.027 C 
BRANCH  13  14
ATOM     14  C   UNL     1      13.876  43.977  28.509  1.00  0.00     0.004 C 
BRANCH  14  15
ATOM     15  C   UNL     1      14.307  43.798  29.976  1.00  0.00     0.000 C 
BRANCH  15  16
ATOM     16  C   UNL     1      14.880  45.088  30.585  1.00  0.00     0.000 C 
BRANCH  16  17
ATOM     17  C   UNL     1      15.985  45.711  29.719  1.00  0.00    -0.000 C 
BRANCH  17  18
ATOM     18  C   UNL     1      15.666  47.179  29.397  1.00  0.00    -0.000 C 
BRANCH  18  19
ATOM     19  C   UNL     1      15.282  47.392  27.925  1.00  0.00    -0.003 C 
ATOM     20  C   UNL     1      14.179  48.433  27.746  1.00  0.00     0.004 C 
ENDBRANCH  18  19
ENDBRANCH  17  18
ENDBRANCH  16  17
ENDBRANCH  15  16
ENDBRANCH  14  15
ENDBRANCH  13  14
ENDBRANCH   2  13
TORSDOF 15
ENDMDL
MODEL 5
REMARK VINA RESULT:    -5.052      2.444      5.683
REMARK INTER + INTRA:         -11.363
REMARK INTER:                  -8.397
REMARK INTRA:                  -2.965
REMARK UNBOUND:                -1.880
REMARK SMILES CCCCCCCCC=CCCCCCCCC(=O)[O-]
REMARK SMILES IDX 10 1 9 2 11 3 12 4 13 5 14 6 15 7 16 8 17 9 18 10 19 11
REMARK SMILES IDX 20 12 8 13 7 14 6 15 5 16 4 17 3 18 2 19 1 20
REMARK H PARENT
REMARK Flexibility Score: inf
ROOT
ATOM      1  C   UNL     1      12.521  47.124  30.492  1.00  0.00    -0.031 C 
ATOM      2  C   UNL     1      13.362  46.136  30.135  1.00  0.00    -0.031 C 
ENDROOT
BRANCH   1   3
ATOM      3  C   UNL     1      11.887  48.097  29.532  1.00  0.00     0.027 C 
BRANCH   3   4
ATOM      4  C   UNL     1      10.447  47.677  29.202  1.00  0.00     0.004 C 
BRANCH   4   5
ATOM      5  C   UNL     1       9.612  47.403  30.463  1.00  0.00     0.000 C 
BRANCH   5   6
ATOM      6  C   UNL     1       8.988  45.997  30.457  1.00  0.00     0.000 C 
BRANCH   6   7
ATOM      7  C   UNL     1       9.719  45.017  31.389  1.00  0.00     0.000 C 
BRANCH   7   8
ATOM      8  C   UNL     1      10.425  43.865  30.640  1.00  0.00     0.006 C 
BRANCH   8   9
ATOM      9  C   UNL     1      10.289  43.993  29.117  1.00  0.00     0.053 C 
BRANCH   9  10
ATOM     10  C   UNL     1      11.326  43.166  28.428  1.00  0.00     0.041 C 
ATOM     11  O   UNL     1      12.316  42.728  29.071  1.00  0.00    -0.550 OA
ATOM     12  O   UNL     1      11.171  42.829  27.089  1.00  0.00    -0.550 OA
ENDBRANCH   9  10
ENDBRANCH   8   9
ENDBRANCH   7   8
ENDBRANCH   6   7
ENDBRANCH   5   6
ENDBRANCH   4   5
ENDBRANCH   3   4
ENDBRANCH   1   3
BRANCH   2  13
ATOM     13  C   UNL     1      13.863  45.896  28.729  1.00  0.00     0.027 C 
BRANCH  13  14
ATOM     14  C   UNL     1      15.326  45.435  28.725  1.00  0.00     0.004 C 
BRANCH  14  15
ATOM     15  C   UNL     1      15.937  45.456  30.138  1.00  0.00     0.000 C 
BRANCH  15  16
ATOM     16  C   UNL     1      17.095  46.459  30.265  1.00  0.00     0.000 C 
BRANCH  16  17
ATOM     17  C   UNL     1      16.623  47.854  30.702  1.00  0.00    -0.000 C 
BRANCH  17  18
ATOM     18  C   UNL     1      16.654  48.836  29.521  1.00  0.00    -0.000 C 
BRANCH  18  19
ATOM     19  C   UNL     1      15.270  49.425  29.206  1.00  0.00    -0.003 C 
ATOM     20  C   UNL     1      14.891  49.288  27.732  1.00  0.00     0.004 C 
ENDBRANCH  18  19
ENDBRANCH  17  18
ENDBRANCH  16  17
ENDBRANCH  15  16
ENDBRANCH  14  15
ENDBRANCH  13  14
ENDBRANCH   2  13
TORSDOF 15
ENDMDL
MODEL 6
REMARK VINA RESULT:    -5.048      3.690      7.664
REMARK INTER + INTRA:         -11.355
REMARK INTER:                  -8.538
REMARK INTRA:                  -2.818
REMARK UNBOUND:                -1.880
REMARK SMILES CCCCCCCCC=CCCCCCCCC(=O)[O-]
REMARK SMILES IDX 10 1 9 2 11 3 12 4 13 5 14 6 15 7 16 8 17 9 18 10 19 11
REMARK SMILES IDX 20 12 8 13 7 14 6 15 5 16 4 17 3 18 2 19 1 20
REMARK H PARENT
REMARK Flexibility Score: inf
ROOT
ATOM      1  C   UNL     1      10.265  43.959  30.461  1.00  0.00    -0.031 C 
ATOM      2  C   UNL     1      10.247  44.515  29.235  1.00  0.00    -0.031 C 
ENDROOT
BRANCH   1   3
ATOM      3  C   UNL     1      10.919  44.575  31.670  1.00  0.00     0.027 C 
BRANCH   3   4
ATOM      4  C   UNL     1       9.927  45.462  32.435  1.00  0.00     0.004 C 
BRANCH   4   5
ATOM      5  C   UNL     1      10.578  46.747  32.968  1.00  0.00     0.000 C 
BRANCH   5   6
ATOM      6  C   UNL     1      11.220  47.586  31.850  1.00  0.00     0.000 C 
BRANCH   6   7
ATOM      7  C   UNL     1      10.398  48.837  31.498  1.00  0.00     0.000 C 
BRANCH   7   8
ATOM      8  C   UNL     1       9.165  48.537  30.619  1.00  0.00     0.006 C 
BRANCH   8   9
ATOM      9  C   UNL     1       9.280  49.162  29.222  1.00  0.00     0.053 C 
BRANCH   9  10
ATOM     10  C   UNL     1       8.671  50.527  29.208  1.00  0.00     0.041 C 
ATOM     11  O   UNL     1       7.945  50.906  30.165  1.00  0.00    -0.550 OA
ATOM     12  O   UNL     1       8.950  51.403  28.166  1.00  0.00    -0.550 OA
ENDBRANCH   9  10
ENDBRANCH   8   9
ENDBRANCH   7   8
ENDBRANCH   6   7
ENDBRANCH   5   6
ENDBRANCH   4   5
ENDBRANCH   3   4
ENDBRANCH   1   3
BRANCH   2  13
ATOM     13  C   UNL     1      10.946  45.803  28.862  1.00  0.00     0.027 C 
BRANCH  13  14
ATOM     14  C   UNL     1      12.311  45.534  28.216  1.00  0.00     0.004 C 
BRANCH  14  15
ATOM     15  C   UNL     1      13.466  45.743  29.212  1.00  0.00     0.000 C 
BRANCH  15  16
ATOM     16  C   UNL     1      14.173  44.429  29.580  1.00  0.00     0.000 C 
BRANCH  16  17
ATOM     17  C   UNL     1      13.865  43.294  28.590  1.00  0.00    -0.000 C 
BRANCH  17  18
ATOM     18  C   UNL     1      13.405  42.031  29.334  1.00  0.00    -0.000 C 
BRANCH  18  19
ATOM     19  C   UNL     1      12.280  41.288  28.596  1.00  0.00    -0.003 C 
ATOM     20  C   UNL     1      11.955  41.906  27.237  1.00  0.00     0.004 C 
ENDBRANCH  18  19
ENDBRANCH  17  18
ENDBRANCH  16  17
ENDBRANCH  15  16
ENDBRANCH  14  15
ENDBRANCH  13  14
ENDBRANCH   2  13
TORSDOF 15
ENDMDL
MODEL 7
REMARK VINA RESULT:    -5.024      3.004      6.764
REMARK INTER + INTRA:         -11.310
REMARK INTER:                  -8.872
REMARK INTRA:                  -2.438
REMARK UNBOUND:                -1.880
REMARK SMILES CCCCCCCCC=CCCCCCCCC(=O)[O-]
REMARK SMILES IDX 10 1 9 2 11 3 12 4 13 5 14 6 15 7 16 8 17 9 18 10 19 11
REMARK SMILES IDX 20 12 8 13 7 14 6 15 5 16 4 17 3 18 2 19 1 20
REMARK H PARENT
REMARK Flexibility Score: inf
ROOT
ATOM      1  C   UNL     1      10.808  44.787  28.872  1.00  0.00    -0.031 C 
ATOM      2  C   UNL     1      11.632  44.296  27.929  1.00  0.00    -0.031 C 
ENDROOT
BRANCH   1   3
ATOM      3  C   UNL     1      10.124  43.957  29.928  1.00  0.00     0.027 C 
BRANCH   3   4
ATOM      4  C   UNL     1      10.523  44.427  31.334  1.00  0.00     0.004 C 
BRANCH   4   5
ATOM      5  C   UNL     1       9.394  45.197  32.038  1.00  0.00     0.000 C 
BRANCH   5   6
ATOM      6  C   UNL     1       9.836  46.598  32.494  1.00  0.00     0.000 C 
BRANCH   6   7
ATOM      7  C   UNL     1      11.142  47.058  31.825  1.00  0.00     0.000 C 
BRANCH   7   8
ATOM      8  C   UNL     1      11.005  48.393  31.060  1.00  0.00     0.006 C 
BRANCH   8   9
ATOM      9  C   UNL     1      10.565  48.186  29.605  1.00  0.00     0.053 C 
BRANCH   9  10
ATOM     10  C   UNL     1       9.079  48.301  29.487  1.00  0.00     0.041 C 
ATOM     11  O   UNL     1       8.377  47.271  29.311  1.00  0.00    -0.550 OA
ATOM     12  O   UNL     1       8.463  49.539  29.628  1.00  0.00    -0.550 OA
ENDBRANCH   9  10
ENDBRANCH   8   9
ENDBRANCH   7   8
ENDBRANCH   6   7
ENDBRANCH   5   6
ENDBRANCH   4   5
ENDBRANCH   3   4
ENDBRANCH   1   3
BRANCH   2  13
ATOM     13  C   UNL     1      11.940  42.829  27.731  1.00  0.00     0.027 C 
BRANCH  13  14
ATOM     14  C   UNL     1      13.385  42.500  28.126  1.00  0.00     0.004 C 
BRANCH  14  15
ATOM     15  C   UNL     1      14.175  43.763  28.511  1.00  0.00     0.000 C 
BRANCH  15  16
ATOM     16  C   UNL     1      14.329  43.923  30.033  1.00  0.00     0.000 C 
BRANCH  16  17
ATOM     17  C   UNL     1      14.855  45.310  30.431  1.00  0.00    -0.000 C 
BRANCH  17  18
ATOM     18  C   UNL     1      14.239  46.403  29.544  1.00  0.00    -0.000 C 
BRANCH  18  19
ATOM     19  C   UNL     1      15.298  47.331  28.928  1.00  0.00    -0.003 C 
ATOM     20  C   UNL     1      14.870  47.900  27.576  1.00  0.00     0.004 C 
ENDBRANCH  18  19
ENDBRANCH  17  18
ENDBRANCH  16  17
ENDBRANCH  15  16
ENDBRANCH  14  15
ENDBRANCH  13  14
ENDBRANCH   2  13
TORSDOF 15
ENDMDL
MODEL 8
REMARK VINA RESULT:    -4.995      2.080      5.142
REMARK INTER + INTRA:         -11.256
REMARK INTER:                  -8.942
REMARK INTRA:                  -2.314
REMARK UNBOUND:                -1.880
REMARK SMILES CCCCCCCCC=CCCCCCCCC(=O)[O-]
REMARK SMILES IDX 10 1 9 2 11 3 12 4 13 5 14 6 15 7 16 8 17 9 18 10 19 11
REMARK SMILES IDX 20 12 8 13 7 14 6 15 5 16 4 17 3 18 2 19 1 20
REMARK H PARENT
REMARK Flexibility Score: inf
ROOT
ATOM      1  C   UNL     1       9.871  46.930  32.434  1.00  0.00    -0.031 C 
ATOM      2  C   UNL     1      10.106  47.895  31.525  1.00  0.00    -0.031 C 
ENDROOT
BRANCH   1   3
ATOM      3  C   UNL     1       9.034  45.703  32.183  1.00  0.00     0.027 C 
BRANCH   3   4
ATOM      4  C   UNL     1       9.790  44.697  31.304  1.00  0.00     0.004 C 
BRANCH   4   5
ATOM      5  C   UNL     1      11.215  44.427  31.813  1.00  0.00     0.000 C 
BRANCH   5   6
ATOM      6  C   UNL     1      12.207  44.171  30.666  1.00  0.00     0.000 C 
BRANCH   6   7
ATOM      7  C   UNL     1      11.561  43.456  29.467  1.00  0.00     0.000 C 
BRANCH   7   8
ATOM      8  C   UNL     1      12.359  43.612  28.154  1.00  0.00     0.006 C 
BRANCH   8   9
ATOM      9  C   UNL     1      13.597  42.706  28.115  1.00  0.00     0.053 C 
BRANCH   9  10
ATOM     10  C   UNL     1      13.353  41.526  27.230  1.00  0.00     0.041 C 
ATOM     11  O   UNL     1      14.309  40.780  26.892  1.00  0.00    -0.550 OA
ATOM     12  O   UNL     1      12.060  41.216  26.824  1.00  0.00    -0.550 OA
ENDBRANCH   9  10
ENDBRANCH   8   9
ENDBRANCH   7   8
ENDBRANCH   6   7
ENDBRANCH   5   6
ENDBRANCH   4   5
ENDBRANCH   3   4
ENDBRANCH   1   3
BRANCH   2  13
ATOM     13  C   UNL     1       9.503  47.938  30.139  1.00  0.00     0.027 C 
BRANCH  13  14
ATOM     14  C   UNL     1      10.429  47.288  29.103  1.00  0.00     0.004 C 
BRANCH  14  15
ATOM     15  C   UNL     1      11.882  47.773  29.251  1.00  0.00     0.000 C 
BRANCH  15  16
ATOM     16  C   UNL     1      12.815  47.177  28.184  1.00  0.00     0.000 C 
BRANCH  16  17
ATOM     17  C   UNL     1      13.971  48.119  27.818  1.00  0.00    -0.000 C 
BRANCH  17  18
ATOM     18  C   UNL     1      15.317  47.536  28.276  1.00  0.00    -0.000 C 
BRANCH  18  19
ATOM     19  C   UNL     1      15.251  46.020  28.522  1.00  0.00    -0.003 C 
ATOM     20  C   UNL     1      15.837  45.615  29.874  1.00  0.00     0.004 C 
ENDBRANCH  18  19
ENDBRANCH  17  18
ENDBRANCH  16  17
ENDBRANCH  15  16
ENDBRANCH  14  15
ENDBRANCH  13  14
ENDBRANCH   2  13
TORSDOF 15
ENDMDL
MODEL 9
REMARK VINA RESULT:    -4.923      3.118      4.286
REMARK INTER + INTRA:         -11.121
REMARK INTER:                  -8.509
REMARK INTRA:                  -2.612
REMARK UNBOUND:                -1.880
REMARK SMILES CCCCCCCCC=CCCCCCCCC(=O)[O-]
REMARK SMILES IDX 10 1 9 2 11 3 12 4 13 5 14 6 15 7 16 8 17 9 18 10 19 11
REMARK SMILES IDX 20 12 8 13 7 14 6 15 5 16 4 17 3 18 2 19 1 20
REMARK H PARENT
REMARK Flexibility Score: inf
ROOT
ATOM      1  C   UNL     1      15.800  45.527  29.328  1.00  0.00    -0.031 C 
ATOM      2  C   UNL     1      15.408  46.283  28.286  1.00  0.00    -0.031 C 
ENDROOT
BRANCH   1   3
ATOM      3  C   UNL     1      15.586  45.886  30.776  1.00  0.00     0.027 C 
BRANCH   3   4
ATOM      4  C   UNL     1      15.332  44.628  31.618  1.00  0.00     0.004 C 
BRANCH   4   5
ATOM      5  C   UNL     1      13.836  44.389  31.880  1.00  0.00     0.000 C 
BRANCH   5   6
ATOM      6  C   UNL     1      13.216  43.403  30.876  1.00  0.00     0.000 C 
BRANCH   6   7
ATOM      7  C   UNL     1      14.183  42.278  30.471  1.00  0.00     0.000 C 
BRANCH   7   8
ATOM      8  C   UNL     1      13.808  41.592  29.140  1.00  0.00     0.006 C 
BRANCH   8   9
ATOM      9  C   UNL     1      13.410  42.603  28.057  1.00  0.00     0.053 C 
BRANCH   9  10
ATOM     10  C   UNL     1      12.241  42.098  27.273  1.00  0.00     0.041 C 
ATOM     11  O   UNL     1      11.167  42.753  27.243  1.00  0.00    -0.550 OA
ATOM     12  O   UNL     1      12.357  40.930  26.527  1.00  0.00    -0.550 OA
ENDBRANCH   9  10
ENDBRANCH   8   9
ENDBRANCH   7   8
ENDBRANCH   6   7
ENDBRANCH   5   6
ENDBRANCH   4   5
ENDBRANCH   3   4
ENDBRANCH   1   3
BRANCH   2  13
ATOM     13  C   UNL     1      14.764  47.646  28.405  1.00  0.00     0.027 C 
BRANCH  13  14
ATOM     14  C   UNL     1      13.310  47.624  27.916  1.00  0.00     0.004 C 
BRANCH  14  15
ATOM     15  C   UNL     1      12.335  47.230  29.039  1.00  0.00     0.000 C 
BRANCH  15  16
ATOM     16  C   UNL     1      11.707  45.845  28.818  1.00  0.00     0.000 C 
BRANCH  16  17
ATOM     17  C   UNL     1      10.209  45.814  29.157  1.00  0.00    -0.000 C 
BRANCH  17  18
ATOM     18  C   UNL     1       9.895  44.676  30.140  1.00  0.00    -0.000 C 
BRANCH  18  19
ATOM     19  C   UNL     1       9.315  45.186  31.468  1.00  0.00    -0.003 C 
ATOM     20  C   UNL     1      10.387  45.729  32.412  1.00  0.00     0.004 C 
ENDBRANCH  18  19
ENDBRANCH  17  18
ENDBRANCH  16  17
ENDBRANCH  15  16
ENDBRANCH  14  15
ENDBRANCH  13  14
ENDBRANCH   2  13
TORSDOF 15
ENDMDL
