MODEL 1
REMARK VINA RESULT:    -3.329      0.000      0.000
REMARK INTER + INTRA:         -10.358
REMARK INTER:                  -7.222
REMARK INTRA:                  -3.136
REMARK UNBOUND:                -3.136
REMARK SMILES CCCCCCCCCCCCCCCCCCCCCC(=O)[O-]
REMARK SMILES IDX 12 1 11 2 10 3 9 4 8 5 7 6 6 7 5 8 4 9 3 10 2 11 1 12 13 13
REMARK SMILES IDX 14 14 15 15 16 16 17 17 18 18 19 19 20 20 21 21 22 22 23 23
REMARK SMILES IDX 24 24
REMARK H PARENT
REMARK Flexibility Score: inf
ROOT
ATOM      1  C   UNL     1      60.856  24.327  23.605  1.00  0.00     0.000 C 
ENDROOT
BRANCH   1   2
ATOM      2  C   UNL     1      59.626  25.035  24.191  1.00  0.00     0.000 C 
BRANCH   2   3
ATOM      3  C   UNL     1      58.845  24.146  25.171  1.00  0.00     0.000 C 
BRANCH   3   4
ATOM      4  C   UNL     1      59.750  23.144  25.911  1.00  0.00    -0.000 C 
BRANCH   4   5
ATOM      5  C   UNL     1      59.330  21.681  25.654  1.00  0.00    -0.000 C 
BRANCH   5   6
ATOM      6  C   UNL     1      60.235  20.945  24.649  1.00  0.00    -0.000 C 
BRANCH   6   7
ATOM      7  C   UNL     1      59.635  20.886  23.234  1.00  0.00    -0.000 C 
BRANCH   7   8
ATOM      8  C   UNL     1      58.107  21.111  23.234  1.00  0.00    -0.000 C 
BRANCH   8   9
ATOM      9  C   UNL     1      57.664  22.367  22.458  1.00  0.00    -0.000 C 
BRANCH   9  10
ATOM     10  C   UNL     1      56.157  22.674  22.527  1.00  0.00    -0.000 C 
BRANCH  10  11
ATOM     11  C   UNL     1      55.386  21.661  23.387  1.00  0.00    -0.003 C 
ATOM     12  C   UNL     1      54.010  22.202  23.767  1.00  0.00     0.004 C 
ENDBRANCH  10  11
ENDBRANCH   9  10
ENDBRANCH   8   9
ENDBRANCH   7   8
ENDBRANCH   6   7
ENDBRANCH   5   6
ENDBRANCH   4   5
ENDBRANCH   3   4
ENDBRANCH   2   3
ENDBRANCH   1   2
BRANCH   1  13
ATOM     13  C   UNL     1      61.875  25.345  23.076  1.00  0.00     0.000 C 
BRANCH  13  14
ATOM     14  C   UNL     1      62.831  25.797  24.192  1.00  0.00     0.000 C 
BRANCH  14  15
ATOM     15  C   UNL     1      63.904  24.747  24.521  1.00  0.00     0.000 C 
BRANCH  15  16
ATOM     16  C   UNL     1      63.382  23.633  25.444  1.00  0.00     0.000 C 
BRANCH  16  17
ATOM     17  C   UNL     1      63.584  22.249  24.811  1.00  0.00     0.000 C 
BRANCH  17  18
ATOM     18  C   UNL     1      64.124  22.376  23.378  1.00  0.00     0.000 C 
BRANCH  18  19
ATOM     19  C   UNL     1      63.832  21.132  22.524  1.00  0.00     0.000 C 
BRANCH  19  20
ATOM     20  C   UNL     1      62.523  21.259  21.726  1.00  0.00     0.006 C 
BRANCH  20  21
ATOM     21  C   UNL     1      62.548  22.450  20.756  1.00  0.00     0.053 C 
BRANCH  21  22
ATOM     22  C   UNL     1      61.662  22.227  19.568  1.00  0.00     0.041 C 
ATOM     23  O   UNL     1      60.514  21.728  19.717  1.00  0.00    -0.550 OA
ATOM     24  O   UNL     1      62.115  22.547  18.294  1.00  0.00    -0.550 OA
ENDBRANCH  21  22
ENDBRANCH  20  21
ENDBRANCH  19  20
ENDBRANCH  18  19
ENDBRANCH  17  18
ENDBRANCH  16  17
ENDBRANCH  15  16
ENDBRANCH  14  15
ENDBRANCH  13  14
ENDBRANCH   1  13
TORSDOF 20
ENDMDL
MODEL 2
REMARK VINA RESULT:    -3.056      1.131      2.254
REMARK INTER + INTRA:          -9.765
REMARK INTER:                  -7.480
REMARK INTRA:                  -2.286
REMARK UNBOUND:                -3.136
REMARK SMILES CCCCCCCCCCCCCCCCCCCCCC(=O)[O-]
REMARK SMILES IDX 12 1 11 2 10 3 9 4 8 5 7 6 6 7 5 8 4 9 3 10 2 11 1 12 13 13
REMARK SMILES IDX 14 14 15 15 16 16 17 17 18 18 19 19 20 20 21 21 22 22 23 23
REMARK SMILES IDX 24 24
REMARK H PARENT
REMARK Flexibility Score: inf
ROOT
ATOM      1  C   UNL     1      63.292  22.721  25.137  1.00  0.00     0.000 C 
ENDROOT
BRANCH   1   2
ATOM      2  C   UNL     1      62.395  21.754  25.924  1.00  0.00     0.000 C 
BRANCH   2   3
ATOM      3  C   UNL     1      61.054  21.488  25.221  1.00  0.00     0.000 C 
BRANCH   3   4
ATOM      4  C   UNL     1      59.869  22.167  25.932  1.00  0.00    -0.000 C 
BRANCH   4   5
ATOM      5  C   UNL     1      58.983  22.967  24.952  1.00  0.00    -0.000 C 
BRANCH   5   6
ATOM      6  C   UNL     1      59.693  23.334  23.637  1.00  0.00    -0.000 C 
BRANCH   6   7
ATOM      7  C   UNL     1      59.032  22.700  22.401  1.00  0.00    -0.000 C 
BRANCH   7   8
ATOM      8  C   UNL     1      58.723  21.201  22.605  1.00  0.00    -0.000 C 
BRANCH   8   9
ATOM      9  C   UNL     1      57.217  20.876  22.644  1.00  0.00    -0.000 C 
BRANCH   9  10
ATOM     10  C   UNL     1      56.370  21.828  23.507  1.00  0.00    -0.000 C 
BRANCH  10  11
ATOM     11  C   UNL     1      55.017  22.165  22.863  1.00  0.00    -0.003 C 
ATOM     12  C   UNL     1      53.921  22.283  23.920  1.00  0.00     0.004 C 
ENDBRANCH  10  11
ENDBRANCH   9  10
ENDBRANCH   8   9
ENDBRANCH   7   8
ENDBRANCH   6   7
ENDBRANCH   5   6
ENDBRANCH   4   5
ENDBRANCH   3   4
ENDBRANCH   2   3
ENDBRANCH   1   2
BRANCH   1  13
ATOM     13  C   UNL     1      63.750  23.888  26.020  1.00  0.00     0.000 C 
BRANCH  13  14
ATOM     14  C   UNL     1      63.903  25.175  25.196  1.00  0.00     0.000 C 
BRANCH  14  15
ATOM     15  C   UNL     1      62.621  25.557  24.440  1.00  0.00     0.000 C 
BRANCH  15  16
ATOM     16  C   UNL     1      62.882  25.913  22.967  1.00  0.00     0.000 C 
BRANCH  16  17
ATOM     17  C   UNL     1      62.625  24.709  22.052  1.00  0.00     0.000 C 
BRANCH  17  18
ATOM     18  C   UNL     1      63.940  23.991  21.710  1.00  0.00     0.000 C 
BRANCH  18  19
ATOM     19  C   UNL     1      63.947  22.523  22.165  1.00  0.00     0.000 C 
BRANCH  19  20
ATOM     20  C   UNL     1      63.626  21.548  21.019  1.00  0.00     0.006 C 
BRANCH  20  21
ATOM     21  C   UNL     1      62.126  21.518  20.688  1.00  0.00     0.053 C 
BRANCH  21  22
ATOM     22  C   UNL     1      61.851  21.968  19.285  1.00  0.00     0.041 C 
ATOM     23  O   UNL     1      60.718  21.775  18.767  1.00  0.00    -0.550 OA
ATOM     24  O   UNL     1      62.854  22.578  18.542  1.00  0.00    -0.550 OA
ENDBRANCH  21  22
ENDBRANCH  20  21
ENDBRANCH  19  20
ENDBRANCH  18  19
ENDBRANCH  17  18
ENDBRANCH  16  17
ENDBRANCH  15  16
ENDBRANCH  14  15
ENDBRANCH  13  14
ENDBRANCH   1  13
TORSDOF 20
ENDMDL
MODEL 3
REMARK VINA RESULT:    -2.714      2.525      5.747
REMARK INTER + INTRA:          -9.024
REMARK INTER:                  -5.576
REMARK INTRA:                  -3.449
REMARK UNBOUND:                -3.136
REMARK SMILES CCCCCCCCCCCCCCCCCCCCCC(=O)[O-]
REMARK SMILES IDX 12 1 11 2 10 3 9 4 8 5 7 6 6 7 5 8 4 9 3 10 2 11 1 12 13 13
REMARK SMILES IDX 14 14 15 15 16 16 17 17 18 18 19 19 20 20 21 21 22 22 23 23
REMARK SMILES IDX 24 24
REMARK H PARENT
REMARK Flexibility Score: inf
ROOT
ATOM      1  C   UNL     1      59.139  24.763  24.072  1.00  0.00     0.000 C 
ENDROOT
BRANCH   1   2
ATOM      2  C   UNL     1      60.480  25.445  23.762  1.00  0.00     0.000 C 
BRANCH   2   3
ATOM      3  C   UNL     1      61.673  24.486  23.894  1.00  0.00     0.000 C 
BRANCH   3   4
ATOM      4  C   UNL     1      62.490  24.731  25.177  1.00  0.00    -0.000 C 
BRANCH   4   5
ATOM      5  C   UNL     1      62.909  23.413  25.861  1.00  0.00    -0.000 C 
BRANCH   5   6
ATOM      6  C   UNL     1      64.103  22.717  25.183  1.00  0.00    -0.000 C 
BRANCH   6   7
ATOM      7  C   UNL     1      63.784  21.280  24.735  1.00  0.00    -0.000 C 
BRANCH   7   8
ATOM      8  C   UNL     1      64.125  21.039  23.248  1.00  0.00    -0.000 C 
BRANCH   8   9
ATOM      9  C   UNL     1      63.631  22.157  22.308  1.00  0.00    -0.000 C 
BRANCH   9  10
ATOM     10  C   UNL     1      63.053  21.669  20.968  1.00  0.00    -0.000 C 
BRANCH  10  11
ATOM     11  C   UNL     1      62.200  22.737  20.268  1.00  0.00    -0.003 C 
ATOM     12  C   UNL     1      61.258  22.103  19.247  1.00  0.00     0.004 C 
ENDBRANCH  10  11
ENDBRANCH   9  10
ENDBRANCH   8   9
ENDBRANCH   7   8
ENDBRANCH   6   7
ENDBRANCH   5   6
ENDBRANCH   4   5
ENDBRANCH   3   4
ENDBRANCH   2   3
ENDBRANCH   1   2
BRANCH   1  13
ATOM     13  C   UNL     1      59.016  24.448  25.568  1.00  0.00     0.000 C 
BRANCH  13  14
ATOM     14  C   UNL     1      58.612  22.982  25.790  1.00  0.00     0.000 C 
BRANCH  14  15
ATOM     15  C   UNL     1      59.799  22.012  25.677  1.00  0.00     0.000 C 
BRANCH  15  16
ATOM     16  C   UNL     1      59.548  20.882  24.665  1.00  0.00     0.000 C 
BRANCH  16  17
ATOM     17  C   UNL     1      60.335  21.115  23.368  1.00  0.00     0.000 C 
BRANCH  17  18
ATOM     18  C   UNL     1      59.387  21.230  22.165  1.00  0.00     0.000 C 
BRANCH  18  19
ATOM     19  C   UNL     1      57.934  20.875  22.521  1.00  0.00     0.000 C 
BRANCH  19  20
ATOM     20  C   UNL     1      56.984  22.077  22.385  1.00  0.00     0.006 C 
BRANCH  20  21
ATOM     21  C   UNL     1      56.238  22.376  23.694  1.00  0.00     0.053 C 
BRANCH  21  22
ATOM     22  C   UNL     1      54.777  22.055  23.594  1.00  0.00     0.041 C 
ATOM     23  O   UNL     1      54.399  20.961  23.095  1.00  0.00    -0.550 OA
ATOM     24  O   UNL     1      53.832  22.976  24.030  1.00  0.00    -0.550 OA
ENDBRANCH  21  22
ENDBRANCH  20  21
ENDBRANCH  19  20
ENDBRANCH  18  19
ENDBRANCH  17  18
ENDBRANCH  16  17
ENDBRANCH  15  16
ENDBRANCH  14  15
ENDBRANCH  13  14
ENDBRANCH   1  13
TORSDOF 20
ENDMDL
MODEL 4
REMARK VINA RESULT:    -2.009      1.798      5.314
REMARK INTER + INTRA:          -7.493
REMARK INTER:                  -5.883
REMARK INTRA:                  -1.610
REMARK UNBOUND:                -3.136
REMARK SMILES CCCCCCCCCCCCCCCCCCCCCC(=O)[O-]
REMARK SMILES IDX 12 1 11 2 10 3 9 4 8 5 7 6 6 7 5 8 4 9 3 10 2 11 1 12 13 13
REMARK SMILES IDX 14 14 15 15 16 16 17 17 18 18 19 19 20 20 21 21 22 22 23 23
REMARK SMILES IDX 24 24
REMARK H PARENT
REMARK Flexibility Score: inf
ROOT
ATOM      1  C   UNL     1      58.841  23.604  25.692  1.00  0.00     0.000 C 
ENDROOT
BRANCH   1   2
ATOM      2  C   UNL     1      59.172  24.532  24.514  1.00  0.00     0.000 C 
BRANCH   2   3
ATOM      3  C   UNL     1      60.641  24.425  24.074  1.00  0.00     0.000 C 
BRANCH   3   4
ATOM      4  C   UNL     1      61.053  25.556  23.113  1.00  0.00    -0.000 C 
BRANCH   4   5
ATOM      5  C   UNL     1      62.583  25.759  23.076  1.00  0.00    -0.000 C 
BRANCH   5   6
ATOM      6  C   UNL     1      63.175  26.239  24.414  1.00  0.00    -0.000 C 
BRANCH   6   7
ATOM      7  C   UNL     1      62.829  25.310  25.590  1.00  0.00    -0.000 C 
BRANCH   7   8
ATOM      8  C   UNL     1      63.991  24.358  25.948  1.00  0.00    -0.000 C 
BRANCH   8   9
ATOM      9  C   UNL     1      63.569  22.880  26.070  1.00  0.00    -0.000 C 
BRANCH   9  10
ATOM     10  C   UNL     1      62.050  22.640  26.112  1.00  0.00    -0.000 C 
BRANCH  10  11
ATOM     11  C   UNL     1      61.665  21.211  25.704  1.00  0.00    -0.003 C 
ATOM     12  C   UNL     1      62.191  20.878  24.310  1.00  0.00     0.004 C 
ENDBRANCH  10  11
ENDBRANCH   9  10
ENDBRANCH   8   9
ENDBRANCH   7   8
ENDBRANCH   6   7
ENDBRANCH   5   6
ENDBRANCH   4   5
ENDBRANCH   3   4
ENDBRANCH   2   3
ENDBRANCH   1   2
BRANCH   1  13
ATOM     13  C   UNL     1      58.184  22.308  25.200  1.00  0.00     0.000 C 
BRANCH  13  14
ATOM     14  C   UNL     1      56.992  22.610  24.279  1.00  0.00     0.000 C 
BRANCH  14  15
ATOM     15  C   UNL     1      57.169  22.033  22.865  1.00  0.00     0.000 C 
BRANCH  15  16
ATOM     16  C   UNL     1      58.497  21.276  22.694  1.00  0.00     0.000 C 
BRANCH  16  17
ATOM     17  C   UNL     1      59.079  21.490  21.290  1.00  0.00     0.000 C 
BRANCH  17  18
ATOM     18  C   UNL     1      60.614  21.533  21.335  1.00  0.00     0.000 C 
BRANCH  18  19
ATOM     19  C   UNL     1      61.203  22.614  20.415  1.00  0.00     0.000 C 
BRANCH  19  20
ATOM     20  C   UNL     1      62.231  22.046  19.421  1.00  0.00     0.006 C 
BRANCH  20  21
ATOM     21  C   UNL     1      63.673  22.396  19.817  1.00  0.00     0.053 C 
BRANCH  21  22
ATOM     22  C   UNL     1      63.942  22.117  21.265  1.00  0.00     0.041 C 
ATOM     23  O   UNL     1      63.982  20.930  21.687  1.00  0.00    -0.550 OA
ATOM     24  O   UNL     1      64.124  23.171  22.153  1.00  0.00    -0.550 OA
ENDBRANCH  21  22
ENDBRANCH  20  21
ENDBRANCH  19  20
ENDBRANCH  18  19
ENDBRANCH  17  18
ENDBRANCH  16  17
ENDBRANCH  15  16
ENDBRANCH  14  15
ENDBRANCH  13  14
ENDBRANCH   1  13
TORSDOF 20
ENDMDL
MODEL 5
REMARK VINA RESULT:    -1.932      2.131      4.995
REMARK INTER + INTRA:          -7.327
REMARK INTER:                  -5.726
REMARK INTRA:                  -1.601
REMARK UNBOUND:                -3.136
REMARK SMILES CCCCCCCCCCCCCCCCCCCCCC(=O)[O-]
REMARK SMILES IDX 12 1 11 2 10 3 9 4 8 5 7 6 6 7 5 8 4 9 3 10 2 11 1 12 13 13
REMARK SMILES IDX 14 14 15 15 16 16 17 17 18 18 19 19 20 20 21 21 22 22 23 23
REMARK SMILES IDX 24 24
REMARK H PARENT
REMARK Flexibility Score: inf
ROOT
ATOM      1  C   UNL     1      61.231  25.821  22.948  1.00  0.00     0.000 C 
ENDROOT
BRANCH   1   2
ATOM      2  C   UNL     1      62.241  25.223  21.958  1.00  0.00     0.000 C 
BRANCH   2   3
ATOM      3  C   UNL     1      63.283  24.327  22.647  1.00  0.00     0.000 C 
BRANCH   3   4
ATOM      4  C   UNL     1      64.099  23.491  21.643  1.00  0.00    -0.000 C 
BRANCH   4   5
ATOM      5  C   UNL     1      63.806  21.981  21.770  1.00  0.00    -0.000 C 
BRANCH   5   6
ATOM      6  C   UNL     1      62.877  21.629  22.946  1.00  0.00    -0.000 C 
BRANCH   6   7
ATOM      7  C   UNL     1      61.500  21.117  22.491  1.00  0.00    -0.000 C 
BRANCH   7   8
ATOM      8  C   UNL     1      60.653  22.224  21.826  1.00  0.00    -0.000 C 
BRANCH   8   9
ATOM      9  C   UNL     1      59.970  21.783  20.516  1.00  0.00    -0.000 C 
BRANCH   9  10
ATOM     10  C   UNL     1      60.919  21.599  19.319  1.00  0.00    -0.000 C 
BRANCH  10  11
ATOM     11  C   UNL     1      61.885  22.780  19.143  1.00  0.00    -0.003 C 
ATOM     12  C   UNL     1      63.020  22.422  18.188  1.00  0.00     0.004 C 
ENDBRANCH  10  11
ENDBRANCH   9  10
ENDBRANCH   8   9
ENDBRANCH   7   8
ENDBRANCH   6   7
ENDBRANCH   5   6
ENDBRANCH   4   5
ENDBRANCH   3   4
ENDBRANCH   2   3
ENDBRANCH   1   2
BRANCH   1  13
ATOM     13  C   UNL     1      61.436  25.247  24.356  1.00  0.00     0.000 C 
BRANCH  13  14
ATOM     14  C   UNL     1      62.811  25.643  24.916  1.00  0.00     0.000 C 
BRANCH  14  15
ATOM     15  C   UNL     1      63.231  24.792  26.125  1.00  0.00     0.000 C 
BRANCH  15  16
ATOM     16  C   UNL     1      62.749  23.336  26.023  1.00  0.00     0.000 C 
BRANCH  16  17
ATOM     17  C   UNL     1      61.221  23.249  26.125  1.00  0.00     0.000 C 
BRANCH  17  18
ATOM     18  C   UNL     1      60.752  21.786  26.103  1.00  0.00     0.000 C 
BRANCH  18  19
ATOM     19  C   UNL     1      59.416  21.604  25.365  1.00  0.00     0.000 C 
BRANCH  19  20
ATOM     20  C   UNL     1      58.567  22.887  25.359  1.00  0.00     0.006 C 
BRANCH  20  21
ATOM     21  C   UNL     1      58.060  23.239  23.952  1.00  0.00     0.053 C 
BRANCH  21  22
ATOM     22  C   UNL     1      56.995  22.294  23.485  1.00  0.00     0.041 C 
ATOM     23  O   UNL     1      55.855  22.304  24.024  1.00  0.00    -0.550 OA
ATOM     24  O   UNL     1      57.270  21.384  22.471  1.00  0.00    -0.550 OA
ENDBRANCH  21  22
ENDBRANCH  20  21
ENDBRANCH  19  20
ENDBRANCH  18  19
ENDBRANCH  17  18
ENDBRANCH  16  17
ENDBRANCH  15  16
ENDBRANCH  14  15
ENDBRANCH  13  14
ENDBRANCH   1  13
TORSDOF 20
ENDMDL
MODEL 6
REMARK VINA RESULT:    -1.727      3.100      6.204
REMARK INTER + INTRA:          -6.883
REMARK INTER:                  -5.812
REMARK INTRA:                  -1.070
REMARK UNBOUND:                -3.136
REMARK SMILES CCCCCCCCCCCCCCCCCCCCCC(=O)[O-]
REMARK SMILES IDX 12 1 11 2 10 3 9 4 8 5 7 6 6 7 5 8 4 9 3 10 2 11 1 12 13 13
REMARK SMILES IDX 14 14 15 15 16 16 17 17 18 18 19 19 20 20 21 21 22 22 23 23
REMARK SMILES IDX 24 24
REMARK H PARENT
REMARK Flexibility Score: inf
ROOT
ATOM      1  C   UNL     1      62.117  25.857  24.137  1.00  0.00     0.000 C 
ENDROOT
BRANCH   1   2
ATOM      2  C   UNL     1      62.894  26.077  22.831  1.00  0.00     0.000 C 
BRANCH   2   3
ATOM      3  C   UNL     1      64.099  25.133  22.695  1.00  0.00     0.000 C 
BRANCH   3   4
ATOM      4  C   UNL     1      63.959  24.164  21.506  1.00  0.00    -0.000 C 
BRANCH   4   5
ATOM      5  C   UNL     1      64.077  22.688  21.942  1.00  0.00    -0.000 C 
BRANCH   5   6
ATOM      6  C   UNL     1      63.239  22.342  23.186  1.00  0.00    -0.000 C 
BRANCH   6   7
ATOM      7  C   UNL     1      62.024  21.457  22.864  1.00  0.00    -0.000 C 
BRANCH   7   8
ATOM      8  C   UNL     1      60.988  22.181  21.976  1.00  0.00    -0.000 C 
BRANCH   8   9
ATOM      9  C   UNL     1      60.865  21.592  20.556  1.00  0.00    -0.000 C 
BRANCH   9  10
ATOM     10  C   UNL     1      61.196  22.572  19.417  1.00  0.00    -0.000 C 
BRANCH  10  11
ATOM     11  C   UNL     1      62.516  22.232  18.708  1.00  0.00    -0.003 C 
ATOM     12  C   UNL     1      63.228  21.074  19.403  1.00  0.00     0.004 C 
ENDBRANCH  10  11
ENDBRANCH   9  10
ENDBRANCH   8   9
ENDBRANCH   7   8
ENDBRANCH   6   7
ENDBRANCH   5   6
ENDBRANCH   4   5
ENDBRANCH   3   4
ENDBRANCH   2   3
ENDBRANCH   1   2
BRANCH   1  13
ATOM     13  C   UNL     1      61.625  24.409  24.246  1.00  0.00     0.000 C 
BRANCH  13  14
ATOM     14  C   UNL     1      61.558  23.960  25.714  1.00  0.00     0.000 C 
BRANCH  14  15
ATOM     15  C   UNL     1      60.372  23.025  25.999  1.00  0.00     0.000 C 
BRANCH  15  16
ATOM     16  C   UNL     1      59.325  23.033  24.873  1.00  0.00     0.000 C 
BRANCH  16  17
ATOM     17  C   UNL     1      58.468  21.760  24.904  1.00  0.00     0.000 C 
BRANCH  17  18
ATOM     18  C   UNL     1      58.513  21.037  23.549  1.00  0.00     0.000 C 
BRANCH  18  19
ATOM     19  C   UNL     1      57.121  20.876  22.918  1.00  0.00     0.000 C 
BRANCH  19  20
ATOM     20  C   UNL     1      56.087  21.845  23.517  1.00  0.00     0.006 C 
BRANCH  20  21
ATOM     21  C   UNL     1      54.710  21.706  22.851  1.00  0.00     0.053 C 
BRANCH  21  22
ATOM     22  C   UNL     1      53.591  21.881  23.833  1.00  0.00     0.041 C 
ATOM     23  O   UNL     1      52.984  20.875  24.291  1.00  0.00    -0.550 OA
ATOM     24  O   UNL     1      53.203  23.157  24.224  1.00  0.00    -0.550 OA
ENDBRANCH  21  22
ENDBRANCH  20  21
ENDBRANCH  19  20
ENDBRANCH  18  19
ENDBRANCH  17  18
ENDBRANCH  16  17
ENDBRANCH  15  16
ENDBRANCH  14  15
ENDBRANCH  13  14
ENDBRANCH   1  13
TORSDOF 20
ENDMDL
MODEL 7
REMARK VINA RESULT:    -1.566      2.253      5.580
REMARK INTER + INTRA:          -6.532
REMARK INTER:                  -4.757
REMARK INTRA:                  -1.775
REMARK UNBOUND:                -3.136
REMARK SMILES CCCCCCCCCCCCCCCCCCCCCC(=O)[O-]
REMARK SMILES IDX 12 1 11 2 10 3 9 4 8 5 7 6 6 7 5 8 4 9 3 10 2 11 1 12 13 13
REMARK SMILES IDX 14 14 15 15 16 16 17 17 18 18 19 19 20 20 21 21 22 22 23 23
REMARK SMILES IDX 24 24
REMARK H PARENT
REMARK Flexibility Score: inf
ROOT
ATOM      1  C   UNL     1      59.482  21.297  23.491  1.00  0.00     0.000 C 
ENDROOT
BRANCH   1   2
ATOM      2  C   UNL     1      60.229  20.911  24.775  1.00  0.00     0.000 C 
BRANCH   2   3
ATOM      3  C   UNL     1      61.029  22.082  25.368  1.00  0.00     0.000 C 
BRANCH   3   4
ATOM      4  C   UNL     1      62.287  21.615  26.125  1.00  0.00    -0.000 C 
BRANCH   4   5
ATOM      5  C   UNL     1      63.279  20.875  25.202  1.00  0.00    -0.000 C 
BRANCH   5   6
ATOM      6  C   UNL     1      63.745  21.713  23.998  1.00  0.00    -0.000 C 
BRANCH   6   7
ATOM      7  C   UNL     1      63.581  20.978  22.656  1.00  0.00    -0.000 C 
BRANCH   7   8
ATOM      8  C   UNL     1      64.122  21.799  21.466  1.00  0.00    -0.000 C 
BRANCH   8   9
ATOM      9  C   UNL     1      63.044  22.629  20.741  1.00  0.00    -0.000 C 
BRANCH   9  10
ATOM     10  C   UNL     1      62.331  21.900  19.589  1.00  0.00    -0.000 C 
BRANCH  10  11
ATOM     11  C   UNL     1      60.801  21.950  19.714  1.00  0.00    -0.003 C 
ATOM     12  C   UNL     1      60.380  22.562  21.048  1.00  0.00     0.004 C 
ENDBRANCH  10  11
ENDBRANCH   9  10
ENDBRANCH   8   9
ENDBRANCH   7   8
ENDBRANCH   6   7
ENDBRANCH   5   6
ENDBRANCH   4   5
ENDBRANCH   3   4
ENDBRANCH   2   3
ENDBRANCH   1   2
BRANCH   1  13
ATOM     13  C   UNL     1      58.009  20.876  23.564  1.00  0.00     0.000 C 
BRANCH  13  14
ATOM     14  C   UNL     1      57.136  21.767  22.667  1.00  0.00     0.000 C 
BRANCH  14  15
ATOM     15  C   UNL     1      56.904  23.166  23.261  1.00  0.00     0.000 C 
BRANCH  15  16
ATOM     16  C   UNL     1      57.437  23.298  24.697  1.00  0.00     0.000 C 
BRANCH  16  17
ATOM     17  C   UNL     1      57.954  24.717  24.967  1.00  0.00     0.000 C 
BRANCH  17  18
ATOM     18  C   UNL     1      59.484  24.724  25.110  1.00  0.00     0.000 C 
BRANCH  18  19
ATOM     19  C   UNL     1      60.181  25.486  23.972  1.00  0.00     0.000 C 
BRANCH  19  20
ATOM     20  C   UNL     1      61.353  24.696  23.365  1.00  0.00     0.006 C 
BRANCH  20  21
ATOM     21  C   UNL     1      62.635  24.827  24.201  1.00  0.00     0.053 C 
BRANCH  21  22
ATOM     22  C   UNL     1      63.508  25.946  23.720  1.00  0.00     0.041 C 
ATOM     23  O   UNL     1      63.767  26.067  22.492  1.00  0.00    -0.550 OA
ATOM     24  O   UNL     1      64.054  26.842  24.631  1.00  0.00    -0.550 OA
ENDBRANCH  21  22
ENDBRANCH  20  21
ENDBRANCH  19  20
ENDBRANCH  18  19
ENDBRANCH  17  18
ENDBRANCH  16  17
ENDBRANCH  15  16
ENDBRANCH  14  15
ENDBRANCH  13  14
ENDBRANCH   1  13
TORSDOF 20
ENDMDL
MODEL 8
REMARK VINA RESULT:    -1.015      1.101      4.043
REMARK INTER + INTRA:          -5.337
REMARK INTER:                  -4.256
REMARK INTRA:                  -1.081
REMARK UNBOUND:                -3.136
REMARK SMILES CCCCCCCCCCCCCCCCCCCCCC(=O)[O-]
REMARK SMILES IDX 12 1 11 2 10 3 9 4 8 5 7 6 6 7 5 8 4 9 3 10 2 11 1 12 13 13
REMARK SMILES IDX 14 14 15 15 16 16 17 17 18 18 19 19 20 20 21 21 22 22 23 23
REMARK SMILES IDX 24 24
REMARK H PARENT
REMARK Flexibility Score: inf
ROOT
ATOM      1  C   UNL     1      59.677  21.543  24.784  1.00  0.00     0.000 C 
ENDROOT
BRANCH   1   2
ATOM      2  C   UNL     1      59.396  20.876  23.430  1.00  0.00     0.000 C 
BRANCH   2   3
ATOM      3  C   UNL     1      57.909  20.926  23.045  1.00  0.00     0.000 C 
BRANCH   3   4
ATOM      4  C   UNL     1      57.554  22.177  22.219  1.00  0.00    -0.000 C 
BRANCH   4   5
ATOM      5  C   UNL     1      56.182  22.765  22.615  1.00  0.00    -0.000 C 
BRANCH   5   6
ATOM      6  C   UNL     1      56.204  23.545  23.942  1.00  0.00    -0.000 C 
BRANCH   6   7
ATOM      7  C   UNL     1      57.420  23.200  24.820  1.00  0.00    -0.000 C 
BRANCH   7   8
ATOM      8  C   UNL     1      58.343  24.416  25.048  1.00  0.00    -0.000 C 
BRANCH   8   9
ATOM      9  C   UNL     1      59.077  24.887  23.776  1.00  0.00    -0.000 C 
BRANCH   9  10
ATOM     10  C   UNL     1      60.552  24.460  23.682  1.00  0.00    -0.000 C 
BRANCH  10  11
ATOM     11  C   UNL     1      61.487  25.631  23.348  1.00  0.00    -0.003 C 
ATOM     12  C   UNL     1      62.776  25.552  24.162  1.00  0.00     0.004 C 
ENDBRANCH  10  11
ENDBRANCH   9  10
ENDBRANCH   8   9
ENDBRANCH   7   8
ENDBRANCH   6   7
ENDBRANCH   5   6
ENDBRANCH   4   5
ENDBRANCH   3   4
ENDBRANCH   2   3
ENDBRANCH   1   2
BRANCH   1  13
ATOM     13  C   UNL     1      60.983  21.018  25.394  1.00  0.00     0.000 C 
BRANCH  13  14
ATOM     14  C   UNL     1      61.738  22.139  26.124  1.00  0.00     0.000 C 
BRANCH  14  15
ATOM     15  C   UNL     1      63.197  22.278  25.660  1.00  0.00     0.000 C 
BRANCH  15  16
ATOM     16  C   UNL     1      63.795  20.947  25.174  1.00  0.00     0.000 C 
BRANCH  16  17
ATOM     17  C   UNL     1      64.118  21.000  23.675  1.00  0.00     0.000 C 
BRANCH  17  18
ATOM     18  C   UNL     1      63.202  21.998  22.952  1.00  0.00     0.000 C 
BRANCH  18  19
ATOM     19  C   UNL     1      63.964  22.887  21.956  1.00  0.00     0.000 C 
BRANCH  19  20
ATOM     20  C   UNL     1      64.095  22.237  20.567  1.00  0.00     0.006 C 
BRANCH  20  21
ATOM     21  C   UNL     1      62.875  21.372  20.215  1.00  0.00     0.053 C 
BRANCH  21  22
ATOM     22  C   UNL     1      61.758  22.185  19.634  1.00  0.00     0.041 C 
ATOM     23  O   UNL     1      61.698  22.386  18.391  1.00  0.00    -0.550 OA
ATOM     24  O   UNL     1      60.797  22.741  20.470  1.00  0.00    -0.550 OA
ENDBRANCH  21  22
ENDBRANCH  20  21
ENDBRANCH  19  20
ENDBRANCH  18  19
ENDBRANCH  17  18
ENDBRANCH  16  17
ENDBRANCH  15  16
ENDBRANCH  14  15
ENDBRANCH  13  14
ENDBRANCH   1  13
TORSDOF 20
ENDMDL
