MODEL 1
REMARK VINA RESULT:    -4.417      0.000      0.000
REMARK INTER + INTRA:         -12.893
REMARK INTER:                  -9.581
REMARK INTRA:                  -3.312
REMARK UNBOUND:                -3.312
REMARK SMILES CCCCCCCCCCCCCCCCCCCCCC(=O)[O-]
REMARK SMILES IDX 12 1 11 2 10 3 9 4 8 5 7 6 6 7 5 8 4 9 3 10 2 11 1 12 13 13
REMARK SMILES IDX 14 14 15 15 16 16 17 17 18 18 19 19 20 20 21 21 22 22 23 23
REMARK SMILES IDX 24 24
REMARK H PARENT
REMARK Flexibility Score: inf
ROOT
ATOM      1  C   UNL     1      57.512  27.814  37.280  1.00  0.00     0.000 C 
ENDROOT
BRANCH   1   2
ATOM      2  C   UNL     1      58.655  28.812  37.040  1.00  0.00     0.000 C 
BRANCH   2   3
ATOM      3  C   UNL     1      58.479  30.123  37.824  1.00  0.00     0.000 C 
BRANCH   3   4
ATOM      4  C   UNL     1      57.566  31.129  37.102  1.00  0.00    -0.000 C 
BRANCH   4   5
ATOM      5  C   UNL     1      56.393  31.663  37.948  1.00  0.00    -0.000 C 
BRANCH   5   6
ATOM      6  C   UNL     1      54.994  31.462  37.331  1.00  0.00    -0.000 C 
BRANCH   6   7
ATOM      7  C   UNL     1      54.010  30.648  38.189  1.00  0.00    -0.000 C 
BRANCH   7   8
ATOM      8  C   UNL     1      54.609  29.322  38.689  1.00  0.00    -0.000 C 
BRANCH   8   9
ATOM      9  C   UNL     1      54.762  29.274  40.221  1.00  0.00    -0.000 C 
BRANCH   9  10
ATOM     10  C   UNL     1      56.211  29.173  40.734  1.00  0.00    -0.000 C 
BRANCH  10  11
ATOM     11  C   UNL     1      56.693  30.454  41.430  1.00  0.00    -0.003 C 
ATOM     12  C   UNL     1      55.536  31.419  41.668  1.00  0.00     0.004 C 
ENDBRANCH  10  11
ENDBRANCH   9  10
ENDBRANCH   8   9
ENDBRANCH   7   8
ENDBRANCH   6   7
ENDBRANCH   5   6
ENDBRANCH   4   5
ENDBRANCH   3   4
ENDBRANCH   2   3
ENDBRANCH   1   2
BRANCH   1  13
ATOM     13  C   UNL     1      56.857  27.338  35.971  1.00  0.00     0.000 C 
BRANCH  13  14
ATOM     14  C   UNL     1      55.983  28.424  35.324  1.00  0.00     0.000 C 
BRANCH  14  15
ATOM     15  C   UNL     1      55.453  28.004  33.944  1.00  0.00     0.000 C 
BRANCH  15  16
ATOM     16  C   UNL     1      53.984  28.411  33.771  1.00  0.00     0.000 C 
BRANCH  16  17
ATOM     17  C   UNL     1      53.332  28.703  35.128  1.00  0.00     0.000 C 
BRANCH  17  18
ATOM     18  C   UNL     1      52.046  27.888  35.310  1.00  0.00     0.000 C 
BRANCH  18  19
ATOM     19  C   UNL     1      52.367  26.417  35.609  1.00  0.00     0.000 C 
BRANCH  19  20
ATOM     20  C   UNL     1      51.104  25.571  35.841  1.00  0.00     0.006 C 
BRANCH  20  21
ATOM     21  C   UNL     1      49.815  26.393  35.716  1.00  0.00     0.053 C 
BRANCH  21  22
ATOM     22  C   UNL     1      49.098  26.051  34.448  1.00  0.00     0.041 C 
ATOM     23  O   UNL     1      48.233  25.136  34.434  1.00  0.00    -0.550 OA
ATOM     24  O   UNL     1      49.416  26.713  33.268  1.00  0.00    -0.550 OA
ENDBRANCH  21  22
ENDBRANCH  20  21
ENDBRANCH  19  20
ENDBRANCH  18  19
ENDBRANCH  17  18
ENDBRANCH  16  17
ENDBRANCH  15  16
ENDBRANCH  14  15
ENDBRANCH  13  14
ENDBRANCH   1  13
TORSDOF 20
ENDMDL
MODEL 2
REMARK VINA RESULT:    -4.328      1.372      3.646
REMARK INTER + INTRA:         -12.701
REMARK INTER:                  -9.685
REMARK INTRA:                  -3.016
REMARK UNBOUND:                -3.312
REMARK SMILES CCCCCCCCCCCCCCCCCCCCCC(=O)[O-]
REMARK SMILES IDX 12 1 11 2 10 3 9 4 8 5 7 6 6 7 5 8 4 9 3 10 2 11 1 12 13 13
REMARK SMILES IDX 14 14 15 15 16 16 17 17 18 18 19 19 20 20 21 21 22 22 23 23
REMARK SMILES IDX 24 24
REMARK H PARENT
REMARK Flexibility Score: inf
ROOT
ATOM      1  C   UNL     1      55.374  28.544  40.392  1.00  0.00     0.000 C 
ENDROOT
BRANCH   1   2
ATOM      2  C   UNL     1      55.000  29.298  41.678  1.00  0.00     0.000 C 
BRANCH   2   3
ATOM      3  C   UNL     1      56.040  30.361  42.070  1.00  0.00     0.000 C 
BRANCH   3   4
ATOM      4  C   UNL     1      55.657  31.773  41.592  1.00  0.00    -0.000 C 
BRANCH   4   5
ATOM      5  C   UNL     1      56.847  32.664  41.184  1.00  0.00    -0.000 C 
BRANCH   5   6
ATOM      6  C   UNL     1      56.874  33.082  39.700  1.00  0.00    -0.000 C 
BRANCH   6   7
ATOM      7  C   UNL     1      56.467  31.983  38.701  1.00  0.00    -0.000 C 
BRANCH   7   8
ATOM      8  C   UNL     1      57.676  31.247  38.099  1.00  0.00    -0.000 C 
BRANCH   8   9
ATOM      9  C   UNL     1      58.352  30.288  39.096  1.00  0.00    -0.000 C 
BRANCH   9  10
ATOM     10  C   UNL     1      58.698  28.895  38.536  1.00  0.00    -0.000 C 
BRANCH  10  11
ATOM     11  C   UNL     1      58.936  28.901  37.019  1.00  0.00    -0.003 C 
ATOM     12  C   UNL     1      58.411  27.622  36.375  1.00  0.00     0.004 C 
ENDBRANCH  10  11
ENDBRANCH   9  10
ENDBRANCH   8   9
ENDBRANCH   7   8
ENDBRANCH   6   7
ENDBRANCH   5   6
ENDBRANCH   4   5
ENDBRANCH   3   4
ENDBRANCH   2   3
ENDBRANCH   1   2
BRANCH   1  13
ATOM     13  C   UNL     1      54.593  29.045  39.164  1.00  0.00     0.000 C 
BRANCH  13  14
ATOM     14  C   UNL     1      55.019  28.335  37.869  1.00  0.00     0.000 C 
BRANCH  14  15
ATOM     15  C   UNL     1      54.864  29.233  36.631  1.00  0.00     0.000 C 
BRANCH  15  16
ATOM     16  C   UNL     1      53.449  29.821  36.551  1.00  0.00     0.000 C 
BRANCH  16  17
ATOM     17  C   UNL     1      52.809  29.529  35.189  1.00  0.00     0.000 C 
BRANCH  17  18
ATOM     18  C   UNL     1      53.501  28.352  34.493  1.00  0.00     0.000 C 
BRANCH  18  19
ATOM     19  C   UNL     1      52.553  27.149  34.379  1.00  0.00     0.000 C 
BRANCH  19  20
ATOM     20  C   UNL     1      51.209  27.386  35.087  1.00  0.00     0.006 C 
BRANCH  20  21
ATOM     21  C   UNL     1      50.046  26.657  34.402  1.00  0.00     0.053 C 
BRANCH  21  22
ATOM     22  C   UNL     1      49.825  25.318  35.031  1.00  0.00     0.041 C 
ATOM     23  O   UNL     1      49.126  24.449  34.445  1.00  0.00    -0.550 OA
ATOM     24  O   UNL     1      50.353  25.043  36.286  1.00  0.00    -0.550 OA
ENDBRANCH  21  22
ENDBRANCH  20  21
ENDBRANCH  19  20
ENDBRANCH  18  19
ENDBRANCH  17  18
ENDBRANCH  16  17
ENDBRANCH  15  16
ENDBRANCH  14  15
ENDBRANCH  13  14
ENDBRANCH   1  13
TORSDOF 20
ENDMDL
MODEL 3
REMARK VINA RESULT:    -4.313      3.856      9.251
REMARK INTER + INTRA:         -12.667
REMARK INTER:                  -9.153
REMARK INTRA:                  -3.514
REMARK UNBOUND:                -3.312
REMARK SMILES CCCCCCCCCCCCCCCCCCCCCC(=O)[O-]
REMARK SMILES IDX 12 1 11 2 10 3 9 4 8 5 7 6 6 7 5 8 4 9 3 10 2 11 1 12 13 13
REMARK SMILES IDX 14 14 15 15 16 16 17 17 18 18 19 19 20 20 21 21 22 22 23 23
REMARK SMILES IDX 24 24
REMARK H PARENT
REMARK Flexibility Score: inf
ROOT
ATOM      1  C   UNL     1      49.766  26.886  33.950  1.00  0.00     0.000 C 
ENDROOT
BRANCH   1   2
ATOM      2  C   UNL     1      50.655  26.253  32.868  1.00  0.00     0.000 C 
BRANCH   2   3
ATOM      3  C   UNL     1      50.428  24.739  32.720  1.00  0.00     0.000 C 
BRANCH   3   4
ATOM      4  C   UNL     1      51.735  23.962  32.483  1.00  0.00    -0.000 C 
BRANCH   4   5
ATOM      5  C   UNL     1      51.949  22.754  33.416  1.00  0.00    -0.000 C 
BRANCH   5   6
ATOM      6  C   UNL     1      50.726  21.829  33.583  1.00  0.00    -0.000 C 
BRANCH   6   7
ATOM      7  C   UNL     1      50.058  21.869  34.969  1.00  0.00    -0.000 C 
BRANCH   7   8
ATOM      8  C   UNL     1      48.642  22.469  34.932  1.00  0.00    -0.000 C 
BRANCH   8   9
ATOM      9  C   UNL     1      47.951  22.289  33.567  1.00  0.00    -0.000 C 
BRANCH   9  10
ATOM     10  C   UNL     1      46.821  23.292  33.267  1.00  0.00    -0.000 C 
BRANCH  10  11
ATOM     11  C   UNL     1      45.500  22.610  32.882  1.00  0.00    -0.003 C 
ATOM     12  C   UNL     1      45.360  22.497  31.367  1.00  0.00     0.004 C 
ENDBRANCH  10  11
ENDBRANCH   9  10
ENDBRANCH   8   9
ENDBRANCH   7   8
ENDBRANCH   6   7
ENDBRANCH   5   6
ENDBRANCH   4   5
ENDBRANCH   3   4
ENDBRANCH   2   3
ENDBRANCH   1   2
BRANCH   1  13
ATOM     13  C   UNL     1      49.464  25.918  35.108  1.00  0.00     0.000 C 
BRANCH  13  14
ATOM     14  C   UNL     1      50.492  26.023  36.245  1.00  0.00     0.000 C 
BRANCH  14  15
ATOM     15  C   UNL     1      51.481  24.847  36.252  1.00  0.00     0.000 C 
BRANCH  15  16
ATOM     16  C   UNL     1      52.930  25.347  36.321  1.00  0.00     0.000 C 
BRANCH  16  17
ATOM     17  C   UNL     1      53.366  25.955  34.982  1.00  0.00     0.000 C 
BRANCH  17  18
ATOM     18  C   UNL     1      54.137  27.263  35.195  1.00  0.00     0.000 C 
BRANCH  18  19
ATOM     19  C   UNL     1      53.727  28.316  34.155  1.00  0.00     0.000 C 
BRANCH  19  20
ATOM     20  C   UNL     1      52.757  29.365  34.726  1.00  0.00     0.006 C 
BRANCH  20  21
ATOM     21  C   UNL     1      52.575  29.233  36.243  1.00  0.00     0.053 C 
BRANCH  21  22
ATOM     22  C   UNL     1      53.214  30.388  36.948  1.00  0.00     0.041 C 
ATOM     23  O   UNL     1      53.468  30.317  38.180  1.00  0.00    -0.550 OA
ATOM     24  O   UNL     1      53.490  31.560  36.255  1.00  0.00    -0.550 OA
ENDBRANCH  21  22
ENDBRANCH  20  21
ENDBRANCH  19  20
ENDBRANCH  18  19
ENDBRANCH  17  18
ENDBRANCH  16  17
ENDBRANCH  15  16
ENDBRANCH  14  15
ENDBRANCH  13  14
ENDBRANCH   1  13
TORSDOF 20
ENDMDL
MODEL 4
REMARK VINA RESULT:    -4.301      1.343      2.894
REMARK INTER + INTRA:         -12.641
REMARK INTER:                  -9.048
REMARK INTRA:                  -3.593
REMARK UNBOUND:                -3.312
REMARK SMILES CCCCCCCCCCCCCCCCCCCCCC(=O)[O-]
REMARK SMILES IDX 12 1 11 2 10 3 9 4 8 5 7 6 6 7 5 8 4 9 3 10 2 11 1 12 13 13
REMARK SMILES IDX 14 14 15 15 16 16 17 17 18 18 19 19 20 20 21 21 22 22 23 23
REMARK SMILES IDX 24 24
REMARK H PARENT
REMARK Flexibility Score: inf
ROOT
ATOM      1  C   UNL     1      55.107  26.952  38.183  1.00  0.00     0.000 C 
ENDROOT
BRANCH   1   2
ATOM      2  C   UNL     1      56.108  26.636  37.061  1.00  0.00     0.000 C 
BRANCH   2   3
ATOM      3  C   UNL     1      57.545  27.064  37.405  1.00  0.00     0.000 C 
BRANCH   3   4
ATOM      4  C   UNL     1      58.120  28.077  36.399  1.00  0.00    -0.000 C 
BRANCH   4   5
ATOM      5  C   UNL     1      58.820  29.295  37.034  1.00  0.00    -0.000 C 
BRANCH   5   6
ATOM      6  C   UNL     1      58.029  30.616  36.963  1.00  0.00    -0.000 C 
BRANCH   6   7
ATOM      7  C   UNL     1      57.676  31.243  38.324  1.00  0.00    -0.000 C 
BRANCH   7   8
ATOM      8  C   UNL     1      58.342  30.518  39.505  1.00  0.00    -0.000 C 
BRANCH   8   9
ATOM      9  C   UNL     1      57.844  31.019  40.874  1.00  0.00    -0.000 C 
BRANCH   9  10
ATOM     10  C   UNL     1      56.659  32.003  40.821  1.00  0.00    -0.000 C 
BRANCH  10  11
ATOM     11  C   UNL     1      55.463  31.547  41.670  1.00  0.00    -0.003 C 
ATOM     12  C   UNL     1      55.584  30.073  42.044  1.00  0.00     0.004 C 
ENDBRANCH  10  11
ENDBRANCH   9  10
ENDBRANCH   8   9
ENDBRANCH   7   8
ENDBRANCH   6   7
ENDBRANCH   5   6
ENDBRANCH   4   5
ENDBRANCH   3   4
ENDBRANCH   2   3
ENDBRANCH   1   2
BRANCH   1  13
ATOM     13  C   UNL     1      55.433  28.267  38.914  1.00  0.00     0.000 C 
BRANCH  13  14
ATOM     14  C   UNL     1      54.466  29.401  38.540  1.00  0.00     0.000 C 
BRANCH  14  15
ATOM     15  C   UNL     1      54.454  29.688  37.031  1.00  0.00     0.000 C 
BRANCH  15  16
ATOM     16  C   UNL     1      53.059  30.121  36.564  1.00  0.00     0.000 C 
BRANCH  16  17
ATOM     17  C   UNL     1      52.676  29.423  35.253  1.00  0.00     0.000 C 
BRANCH  17  18
ATOM     18  C   UNL     1      53.882  28.705  34.637  1.00  0.00     0.000 C 
BRANCH  18  19
ATOM     19  C   UNL     1      53.526  27.259  34.261  1.00  0.00     0.000 C 
BRANCH  19  20
ATOM     20  C   UNL     1      52.688  26.556  35.343  1.00  0.00     0.006 C 
BRANCH  20  21
ATOM     21  C   UNL     1      51.525  25.749  34.754  1.00  0.00     0.053 C 
BRANCH  21  22
ATOM     22  C   UNL     1      50.253  26.533  34.832  1.00  0.00     0.041 C 
ATOM     23  O   UNL     1      49.818  27.141  33.817  1.00  0.00    -0.550 OA
ATOM     24  O   UNL     1      49.568  26.631  36.037  1.00  0.00    -0.550 OA
ENDBRANCH  21  22
ENDBRANCH  20  21
ENDBRANCH  19  20
ENDBRANCH  18  19
ENDBRANCH  17  18
ENDBRANCH  16  17
ENDBRANCH  15  16
ENDBRANCH  14  15
ENDBRANCH  13  14
ENDBRANCH   1  13
TORSDOF 20
ENDMDL
MODEL 5
REMARK VINA RESULT:    -4.295      1.451      2.443
REMARK INTER + INTRA:         -12.627
REMARK INTER:                  -8.768
REMARK INTRA:                  -3.859
REMARK UNBOUND:                -3.312
REMARK SMILES CCCCCCCCCCCCCCCCCCCCCC(=O)[O-]
REMARK SMILES IDX 12 1 11 2 10 3 9 4 8 5 7 6 6 7 5 8 4 9 3 10 2 11 1 12 13 13
REMARK SMILES IDX 14 14 15 15 16 16 17 17 18 18 19 19 20 20 21 21 22 22 23 23
REMARK SMILES IDX 24 24
REMARK H PARENT
REMARK Flexibility Score: inf
ROOT
ATOM      1  C   UNL     1      58.727  29.507  37.362  1.00  0.00     0.000 C 
ENDROOT
BRANCH   1   2
ATOM      2  C   UNL     1      57.692  30.366  36.619  1.00  0.00     0.000 C 
BRANCH   2   3
ATOM      3  C   UNL     1      57.487  31.746  37.267  1.00  0.00     0.000 C 
BRANCH   3   4
ATOM      4  C   UNL     1      56.025  32.000  37.674  1.00  0.00    -0.000 C 
BRANCH   4   5
ATOM      5  C   UNL     1      55.045  30.865  37.313  1.00  0.00    -0.000 C 
BRANCH   5   6
ATOM      6  C   UNL     1      54.424  30.128  38.516  1.00  0.00    -0.000 C 
BRANCH   6   7
ATOM      7  C   UNL     1      54.970  28.712  38.772  1.00  0.00    -0.000 C 
BRANCH   7   8
ATOM      8  C   UNL     1      55.493  28.524  40.206  1.00  0.00    -0.000 C 
BRANCH   8   9
ATOM      9  C   UNL     1      55.978  29.839  40.844  1.00  0.00    -0.000 C 
BRANCH   9  10
ATOM     10  C   UNL     1      57.481  30.131  40.685  1.00  0.00    -0.000 C 
BRANCH  10  11
ATOM     11  C   UNL     1      57.878  31.528  41.186  1.00  0.00    -0.003 C 
ATOM     12  C   UNL     1      56.702  32.496  41.104  1.00  0.00     0.004 C 
ENDBRANCH  10  11
ENDBRANCH   9  10
ENDBRANCH   8   9
ENDBRANCH   7   8
ENDBRANCH   6   7
ENDBRANCH   5   6
ENDBRANCH   4   5
ENDBRANCH   3   4
ENDBRANCH   2   3
ENDBRANCH   1   2
BRANCH   1  13
ATOM     13  C   UNL     1      58.927  28.127  36.712  1.00  0.00     0.000 C 
BRANCH  13  14
ATOM     14  C   UNL     1      57.718  27.200  36.919  1.00  0.00     0.000 C 
BRANCH  14  15
ATOM     15  C   UNL     1      57.072  26.774  35.592  1.00  0.00     0.000 C 
BRANCH  15  16
ATOM     16  C   UNL     1      55.607  27.222  35.524  1.00  0.00     0.000 C 
BRANCH  16  17
ATOM     17  C   UNL     1      55.412  28.306  34.456  1.00  0.00     0.000 C 
BRANCH  17  18
ATOM     18  C   UNL     1      53.957  28.354  33.976  1.00  0.00     0.000 C 
BRANCH  18  19
ATOM     19  C   UNL     1      53.011  28.720  35.128  1.00  0.00     0.000 C 
BRANCH  19  20
ATOM     20  C   UNL     1      51.730  27.869  35.135  1.00  0.00     0.006 C 
BRANCH  20  21
ATOM     21  C   UNL     1      51.984  26.421  34.700  1.00  0.00     0.053 C 
BRANCH  21  22
ATOM     22  C   UNL     1      51.814  25.490  35.859  1.00  0.00     0.041 C 
ATOM     23  O   UNL     1      52.811  25.146  36.548  1.00  0.00    -0.550 OA
ATOM     24  O   UNL     1      50.562  24.964  36.152  1.00  0.00    -0.550 OA
ENDBRANCH  21  22
ENDBRANCH  20  21
ENDBRANCH  19  20
ENDBRANCH  18  19
ENDBRANCH  17  18
ENDBRANCH  16  17
ENDBRANCH  15  16
ENDBRANCH  14  15
ENDBRANCH  13  14
ENDBRANCH   1  13
TORSDOF 20
ENDMDL
MODEL 6
REMARK VINA RESULT:    -4.293      3.651      7.761
REMARK INTER + INTRA:         -12.624
REMARK INTER:                  -8.961
REMARK INTRA:                  -3.663
REMARK UNBOUND:                -3.312
REMARK SMILES CCCCCCCCCCCCCCCCCCCCCC(=O)[O-]
REMARK SMILES IDX 12 1 11 2 10 3 9 4 8 5 7 6 6 7 5 8 4 9 3 10 2 11 1 12 13 13
REMARK SMILES IDX 14 14 15 15 16 16 17 17 18 18 19 19 20 20 21 21 22 22 23 23
REMARK SMILES IDX 24 24
REMARK H PARENT
REMARK Flexibility Score: inf
ROOT
ATOM      1  C   UNL     1      54.774  25.673  33.650  1.00  0.00     0.000 C 
ENDROOT
BRANCH   1   2
ATOM      2  C   UNL     1      54.262  24.532  34.543  1.00  0.00     0.000 C 
BRANCH   2   3
ATOM      3  C   UNL     1      53.343  25.027  35.674  1.00  0.00     0.000 C 
BRANCH   3   4
ATOM      4  C   UNL     1      52.290  23.983  36.084  1.00  0.00    -0.000 C 
BRANCH   4   5
ATOM      5  C   UNL     1      51.867  23.014  34.961  1.00  0.00    -0.000 C 
BRANCH   5   6
ATOM      6  C   UNL     1      50.350  22.943  34.693  1.00  0.00    -0.000 C 
BRANCH   6   7
ATOM      7  C   UNL     1      49.873  23.675  33.426  1.00  0.00    -0.000 C 
BRANCH   7   8
ATOM      8  C   UNL     1      51.028  24.303  32.629  1.00  0.00    -0.000 C 
BRANCH   8   9
ATOM      9  C   UNL     1      51.126  25.828  32.815  1.00  0.00    -0.000 C 
BRANCH   9  10
ATOM     10  C   UNL     1      49.931  26.479  33.537  1.00  0.00    -0.000 C 
BRANCH  10  11
ATOM     11  C   UNL     1      50.279  26.970  34.950  1.00  0.00    -0.003 C 
ATOM     12  C   UNL     1      49.414  26.280  36.000  1.00  0.00     0.004 C 
ENDBRANCH  10  11
ENDBRANCH   9  10
ENDBRANCH   8   9
ENDBRANCH   7   8
ENDBRANCH   6   7
ENDBRANCH   5   6
ENDBRANCH   4   5
ENDBRANCH   3   4
ENDBRANCH   2   3
ENDBRANCH   1   2
BRANCH   1  13
ATOM     13  C   UNL     1      55.762  26.598  34.381  1.00  0.00     0.000 C 
BRANCH  13  14
ATOM     14  C   UNL     1      55.273  28.055  34.433  1.00  0.00     0.000 C 
BRANCH  14  15
ATOM     15  C   UNL     1      53.825  28.205  33.941  1.00  0.00     0.000 C 
BRANCH  15  16
ATOM     16  C   UNL     1      53.059  29.228  34.790  1.00  0.00     0.000 C 
BRANCH  16  17
ATOM     17  C   UNL     1      53.384  29.060  36.279  1.00  0.00     0.000 C 
BRANCH  17  18
ATOM     18  C   UNL     1      53.371  30.411  37.003  1.00  0.00     0.000 C 
BRANCH  18  19
ATOM     19  C   UNL     1      54.580  30.541  37.942  1.00  0.00     0.000 C 
BRANCH  19  20
ATOM     20  C   UNL     1      55.209  29.181  38.289  1.00  0.00     0.006 C 
BRANCH  20  21
ATOM     21  C   UNL     1      56.640  29.042  37.756  1.00  0.00     0.053 C 
BRANCH  21  22
ATOM     22  C   UNL     1      57.623  29.084  38.884  1.00  0.00     0.041 C 
ATOM     23  O   UNL     1      57.247  29.403  40.043  1.00  0.00    -0.550 OA
ATOM     24  O   UNL     1      58.966  28.814  38.647  1.00  0.00    -0.550 OA
ENDBRANCH  21  22
ENDBRANCH  20  21
ENDBRANCH  19  20
ENDBRANCH  18  19
ENDBRANCH  17  18
ENDBRANCH  16  17
ENDBRANCH  15  16
ENDBRANCH  14  15
ENDBRANCH  13  14
ENDBRANCH   1  13
TORSDOF 20
ENDMDL
MODEL 7
REMARK VINA RESULT:    -4.289      3.531      7.635
REMARK INTER + INTRA:         -12.615
REMARK INTER:                  -9.455
REMARK INTRA:                  -3.160
REMARK UNBOUND:                -3.312
REMARK SMILES CCCCCCCCCCCCCCCCCCCCCC(=O)[O-]
REMARK SMILES IDX 12 1 11 2 10 3 9 4 8 5 7 6 6 7 5 8 4 9 3 10 2 11 1 12 13 13
REMARK SMILES IDX 14 14 15 15 16 16 17 17 18 18 19 19 20 20 21 21 22 22 23 23
REMARK SMILES IDX 24 24
REMARK H PARENT
REMARK Flexibility Score: inf
ROOT
ATOM      1  C   UNL     1      55.621  27.851  34.818  1.00  0.00     0.000 C 
ENDROOT
BRANCH   1   2
ATOM      2  C   UNL     1      55.554  26.364  35.199  1.00  0.00     0.000 C 
BRANCH   2   3
ATOM      3  C   UNL     1      55.120  25.466  34.028  1.00  0.00     0.000 C 
BRANCH   3   4
ATOM      4  C   UNL     1      54.112  24.383  34.451  1.00  0.00    -0.000 C 
BRANCH   4   5
ATOM      5  C   UNL     1      53.273  24.730  35.698  1.00  0.00    -0.000 C 
BRANCH   5   6
ATOM      6  C   UNL     1      52.014  23.864  35.903  1.00  0.00    -0.000 C 
BRANCH   6   7
ATOM      7  C   UNL     1      50.766  24.624  36.386  1.00  0.00    -0.000 C 
BRANCH   7   8
ATOM      8  C   UNL     1      50.611  26.001  35.718  1.00  0.00    -0.000 C 
BRANCH   8   9
ATOM      9  C   UNL     1      49.397  26.076  34.773  1.00  0.00    -0.000 C 
BRANCH   9  10
ATOM     10  C   UNL     1      49.726  26.420  33.308  1.00  0.00    -0.000 C 
BRANCH  10  11
ATOM     11  C   UNL     1      51.089  25.877  32.855  1.00  0.00    -0.003 C 
ATOM     12  C   UNL     1      50.989  24.409  32.450  1.00  0.00     0.004 C 
ENDBRANCH  10  11
ENDBRANCH   9  10
ENDBRANCH   8   9
ENDBRANCH   7   8
ENDBRANCH   6   7
ENDBRANCH   5   6
ENDBRANCH   4   5
ENDBRANCH   3   4
ENDBRANCH   2   3
ENDBRANCH   1   2
BRANCH   1  13
ATOM     13  C   UNL     1      54.436  28.289  33.939  1.00  0.00     0.000 C 
BRANCH  13  14
ATOM     14  C   UNL     1      53.117  28.361  34.726  1.00  0.00     0.000 C 
BRANCH  14  15
ATOM     15  C   UNL     1      52.748  29.799  35.122  1.00  0.00     0.000 C 
BRANCH  15  16
ATOM     16  C   UNL     1      52.787  29.977  36.645  1.00  0.00     0.000 C 
BRANCH  16  17
ATOM     17  C   UNL     1      54.060  30.715  37.080  1.00  0.00     0.000 C 
BRANCH  17  18
ATOM     18  C   UNL     1      54.573  30.187  38.424  1.00  0.00     0.000 C 
BRANCH  18  19
ATOM     19  C   UNL     1      55.384  28.897  38.233  1.00  0.00     0.000 C 
BRANCH  19  20
ATOM     20  C   UNL     1      56.789  28.984  38.852  1.00  0.00     0.006 C 
BRANCH  20  21
ATOM     21  C   UNL     1      57.443  30.354  38.634  1.00  0.00     0.053 C 
BRANCH  21  22
ATOM     22  C   UNL     1      58.169  30.385  37.326  1.00  0.00     0.041 C 
ATOM     23  O   UNL     1      58.786  29.365  36.919  1.00  0.00    -0.550 OA
ATOM     24  O   UNL     1      58.201  31.553  36.575  1.00  0.00    -0.550 OA
ENDBRANCH  21  22
ENDBRANCH  20  21
ENDBRANCH  19  20
ENDBRANCH  18  19
ENDBRANCH  17  18
ENDBRANCH  16  17
ENDBRANCH  15  16
ENDBRANCH  14  15
ENDBRANCH  13  14
ENDBRANCH   1  13
TORSDOF 20
ENDMDL
MODEL 8
REMARK VINA RESULT:    -4.270      1.122      2.423
REMARK INTER + INTRA:         -12.575
REMARK INTER:                  -9.390
REMARK INTRA:                  -3.185
REMARK UNBOUND:                -3.312
REMARK SMILES CCCCCCCCCCCCCCCCCCCCCC(=O)[O-]
REMARK SMILES IDX 12 1 11 2 10 3 9 4 8 5 7 6 6 7 5 8 4 9 3 10 2 11 1 12 13 13
REMARK SMILES IDX 14 14 15 15 16 16 17 17 18 18 19 19 20 20 21 21 22 22 23 23
REMARK SMILES IDX 24 24
REMARK H PARENT
REMARK Flexibility Score: inf
ROOT
ATOM      1  C   UNL     1      58.435  27.490  38.168  1.00  0.00     0.000 C 
ENDROOT
BRANCH   1   2
ATOM      2  C   UNL     1      58.964  28.854  38.639  1.00  0.00     0.000 C 
BRANCH   2   3
ATOM      3  C   UNL     1      58.498  29.217  40.059  1.00  0.00     0.000 C 
BRANCH   3   4
ATOM      4  C   UNL     1      57.254  28.425  40.497  1.00  0.00    -0.000 C 
BRANCH   4   5
ATOM      5  C   UNL     1      56.199  29.246  41.266  1.00  0.00    -0.000 C 
BRANCH   5   6
ATOM      6  C   UNL     1      54.935  29.607  40.461  1.00  0.00    -0.000 C 
BRANCH   6   7
ATOM      7  C   UNL     1      55.073  29.484  38.933  1.00  0.00    -0.000 C 
BRANCH   7   8
ATOM      8  C   UNL     1      54.935  30.836  38.211  1.00  0.00    -0.000 C 
BRANCH   8   9
ATOM      9  C   UNL     1      56.179  31.201  37.380  1.00  0.00    -0.000 C 
BRANCH   9  10
ATOM     10  C   UNL     1      57.225  32.065  38.109  1.00  0.00    -0.000 C 
BRANCH  10  11
ATOM     11  C   UNL     1      56.597  33.074  39.082  1.00  0.00    -0.003 C 
ATOM     12  C   UNL     1      57.047  32.808  40.515  1.00  0.00     0.004 C 
ENDBRANCH  10  11
ENDBRANCH   9  10
ENDBRANCH   8   9
ENDBRANCH   7   8
ENDBRANCH   6   7
ENDBRANCH   5   6
ENDBRANCH   4   5
ENDBRANCH   3   4
ENDBRANCH   2   3
ENDBRANCH   1   2
BRANCH   1  13
ATOM     13  C   UNL     1      58.369  27.379  36.635  1.00  0.00     0.000 C 
BRANCH  13  14
ATOM     14  C   UNL     1      57.446  28.437  36.010  1.00  0.00     0.000 C 
BRANCH  14  15
ATOM     15  C   UNL     1      56.060  27.872  35.659  1.00  0.00     0.000 C 
BRANCH  15  16
ATOM     16  C   UNL     1      55.723  28.120  34.183  1.00  0.00     0.000 C 
BRANCH  16  17
ATOM     17  C   UNL     1      54.207  28.079  33.951  1.00  0.00     0.000 C 
BRANCH  17  18
ATOM     18  C   UNL     1      53.478  29.050  34.887  1.00  0.00     0.000 C 
BRANCH  18  19
ATOM     19  C   UNL     1      52.298  28.357  35.584  1.00  0.00     0.000 C 
BRANCH  19  20
ATOM     20  C   UNL     1      51.591  27.336  34.676  1.00  0.00     0.006 C 
BRANCH  20  21
ATOM     21  C   UNL     1      50.389  26.674  35.360  1.00  0.00     0.053 C 
BRANCH  21  22
ATOM     22  C   UNL     1      49.321  26.367  34.357  1.00  0.00     0.041 C 
ATOM     23  O   UNL     1      48.224  25.873  34.730  1.00  0.00    -0.550 OA
ATOM     24  O   UNL     1      49.554  26.584  33.005  1.00  0.00    -0.550 OA
ENDBRANCH  21  22
ENDBRANCH  20  21
ENDBRANCH  19  20
ENDBRANCH  18  19
ENDBRANCH  17  18
ENDBRANCH  16  17
ENDBRANCH  15  16
ENDBRANCH  14  15
ENDBRANCH  13  14
ENDBRANCH   1  13
TORSDOF 20
ENDMDL
MODEL 9
REMARK VINA RESULT:    -4.258      1.422      3.755
REMARK INTER + INTRA:         -12.549
REMARK INTER:                  -9.803
REMARK INTRA:                  -2.746
REMARK UNBOUND:                -3.312
REMARK SMILES CCCCCCCCCCCCCCCCCCCCCC(=O)[O-]
REMARK SMILES IDX 12 1 11 2 10 3 9 4 8 5 7 6 6 7 5 8 4 9 3 10 2 11 1 12 13 13
REMARK SMILES IDX 14 14 15 15 16 16 17 17 18 18 19 19 20 20 21 21 22 22 23 23
REMARK SMILES IDX 24 24
REMARK H PARENT
REMARK Flexibility Score: inf
ROOT
ATOM      1  C   UNL     1      54.049  29.585  37.416  1.00  0.00     0.000 C 
ENDROOT
BRANCH   1   2
ATOM      2  C   UNL     1      54.283  30.034  38.867  1.00  0.00     0.000 C 
BRANCH   2   3
ATOM      3  C   UNL     1      54.669  28.872  39.797  1.00  0.00     0.000 C 
BRANCH   3   4
ATOM      4  C   UNL     1      54.986  29.336  41.229  1.00  0.00    -0.000 C 
BRANCH   4   5
ATOM      5  C   UNL     1      55.606  30.744  41.332  1.00  0.00    -0.000 C 
BRANCH   5   6
ATOM      6  C   UNL     1      57.147  30.780  41.380  1.00  0.00    -0.000 C 
BRANCH   6   7
ATOM      7  C   UNL     1      57.822  31.516  40.209  1.00  0.00    -0.000 C 
BRANCH   7   8
ATOM      8  C   UNL     1      56.881  32.508  39.505  1.00  0.00    -0.000 C 
BRANCH   8   9
ATOM      9  C   UNL     1      56.878  32.348  37.974  1.00  0.00    -0.000 C 
BRANCH   9  10
ATOM     10  C   UNL     1      58.029  31.501  37.400  1.00  0.00    -0.000 C 
BRANCH  10  11
ATOM     11  C   UNL     1      57.541  30.243  36.667  1.00  0.00    -0.003 C 
ATOM     12  C   UNL     1      57.794  28.989  37.498  1.00  0.00     0.004 C 
ENDBRANCH  10  11
ENDBRANCH   9  10
ENDBRANCH   8   9
ENDBRANCH   7   8
ENDBRANCH   6   7
ENDBRANCH   5   6
ENDBRANCH   4   5
ENDBRANCH   3   4
ENDBRANCH   2   3
ENDBRANCH   1   2
BRANCH   1  13
ATOM     13  C   UNL     1      53.159  30.564  36.630  1.00  0.00     0.000 C 
BRANCH  13  14
ATOM     14  C   UNL     1      52.761  30.017  35.250  1.00  0.00     0.000 C 
BRANCH  14  15
ATOM     15  C   UNL     1      52.551  28.494  35.262  1.00  0.00     0.000 C 
BRANCH  15  16
ATOM     16  C   UNL     1      53.522  27.797  34.301  1.00  0.00     0.000 C 
BRANCH  16  17
ATOM     17  C   UNL     1      53.716  26.326  34.686  1.00  0.00     0.000 C 
BRANCH  17  18
ATOM     18  C   UNL     1      53.166  25.393  33.601  1.00  0.00     0.000 C 
BRANCH  18  19
ATOM     19  C   UNL     1      51.716  24.991  33.905  1.00  0.00     0.000 C 
BRANCH  19  20
ATOM     20  C   UNL     1      50.715  25.581  32.898  1.00  0.00     0.006 C 
BRANCH  20  21
ATOM     21  C   UNL     1      49.832  26.672  33.517  1.00  0.00     0.053 C 
BRANCH  21  22
ATOM     22  C   UNL     1      49.185  26.173  34.770  1.00  0.00     0.041 C 
ATOM     23  O   UNL     1      48.239  25.343  34.708  1.00  0.00    -0.550 OA
ATOM     24  O   UNL     1      49.595  26.656  36.006  1.00  0.00    -0.550 OA
ENDBRANCH  21  22
ENDBRANCH  20  21
ENDBRANCH  19  20
ENDBRANCH  18  19
ENDBRANCH  17  18
ENDBRANCH  16  17
ENDBRANCH  15  16
ENDBRANCH  14  15
ENDBRANCH  13  14
ENDBRANCH   1  13
TORSDOF 20
ENDMDL
