MODEL 1
REMARK VINA RESULT:    -6.964      0.000      0.000
REMARK INTER + INTRA:         -11.661
REMARK INTER:                 -10.017
REMARK INTRA:                  -1.644
REMARK UNBOUND:                -1.644
REMARK SMILES O=c1c(O[C@@H]2O[C@H](CO)[C@H](O)[C@@H](O)[C@@H]2O)c(-c2ccc(O)cc2)oc2cc(O)cc(O)c12
REMARK SMILES IDX 4 1 3 2 16 3 24 4 2 5 25 6 1 7 32 8 26 9 30 10 27 11 29 12
REMARK SMILES IDX 17 13 18 14 19 15 20 16 23 17 22 18 21 19 31 21 28 23 5 25
REMARK SMILES IDX 14 26 6 27 12 28 7 29 10 30 15 31 13 33 8 35 9 36 11 38
REMARK H PARENT 21 20 31 22 28 24 15 32 13 34 9 37 11 39
REMARK Flexibility Score: inf
ROOT
ATOM      1  O   UNL     1     -17.850  -5.360  13.970  1.00  0.00    -0.454 OA
ENDROOT
BRANCH   1   2
ATOM      2  C   UNL     1     -16.842  -4.429  14.277  1.00  0.00     0.214 A 
ATOM      3  C   UNL     1     -16.972  -3.441  15.283  1.00  0.00     0.180 A 
ATOM      4  O   UNL     1     -15.950  -2.628  15.545  1.00  0.00    -0.452 OA
ATOM      5  C   UNL     1     -15.676  -4.442  13.504  1.00  0.00     0.239 A 
ATOM      6  C   UNL     1     -14.820  -2.628  14.848  1.00  0.00     0.146 A 
ATOM      7  O   UNL     1     -15.568  -5.285  12.573  1.00  0.00    -0.285 OA
ATOM      8  C   UNL     1     -14.642  -3.523  13.769  1.00  0.00     0.111 A 
ATOM      9  C   UNL     1     -13.815  -1.709  15.173  1.00  0.00     0.094 A 
ATOM     10  C   UNL     1     -13.472  -3.422  12.978  1.00  0.00     0.134 A 
ATOM     11  C   UNL     1     -12.644  -1.645  14.407  1.00  0.00     0.123 A 
ATOM     12  C   UNL     1     -12.484  -2.483  13.302  1.00  0.00     0.093 A 
BRANCH   3  13
ATOM     13  C   UNL     1     -18.228  -3.231  16.039  1.00  0.00     0.021 A 
ATOM     14  C   UNL     1     -19.234  -2.382  15.553  1.00  0.00     0.016 A 
ATOM     15  C   UNL     1     -20.430  -2.223  16.265  1.00  0.00     0.047 A 
ATOM     16  C   UNL     1     -20.614  -2.888  17.486  1.00  0.00     0.115 A 
ATOM     17  C   UNL     1     -18.404  -3.865  17.281  1.00  0.00     0.016 A 
ATOM     18  C   UNL     1     -19.591  -3.698  17.997  1.00  0.00     0.047 A 
BRANCH  16  19
ATOM     19  O   UNL     1     -21.801  -2.739  18.208  1.00  0.00    -0.508 OA
ATOM     20  H   UNL     1     -22.704  -2.939  17.795  1.00  0.00     0.293 HD
ENDBRANCH  16  19
ENDBRANCH   3  13
BRANCH  10  21
ATOM     21  O   UNL     1     -13.306  -4.212  11.844  1.00  0.00    -0.507 OA
ATOM     22  H   UNL     1     -13.310  -5.222  11.916  1.00  0.00     0.293 HD
ENDBRANCH  10  21
BRANCH  11  23
ATOM     23  O   UNL     1     -11.628  -0.753  14.738  1.00  0.00    -0.508 OA
ATOM     24  H   UNL     1     -11.511  -0.415  15.685  1.00  0.00     0.293 HD
ENDBRANCH  11  23
ENDBRANCH   1   2
BRANCH   1  25
ATOM     25  C   UNL     1     -18.161  -6.527  14.732  1.00  0.00     0.339 C 
ATOM     26  C   UNL     1     -18.088  -7.730  13.787  1.00  0.00     0.214 C 
ATOM     27  O   UNL     1     -17.229  -6.671  15.789  1.00  0.00    -0.332 OA
ATOM     28  C   UNL     1     -18.552  -9.011  14.524  1.00  0.00     0.180 C 
ATOM     29  C   UNL     1     -17.360  -7.889  16.528  1.00  0.00     0.179 C 
ATOM     30  C   UNL     1     -18.500  -8.857  16.065  1.00  0.00     0.177 C 
BRANCH  26  31
ATOM     31  O   UNL     1     -16.767  -7.872  13.322  1.00  0.00    -0.384 OA
ATOM     32  H   UNL     1     -16.599  -7.113  12.704  1.00  0.00     0.211 HD
ENDBRANCH  26  31
BRANCH  28  33
ATOM     33  O   UNL     1     -19.851  -9.369  14.113  1.00  0.00    -0.387 OA
ATOM     34  H   UNL     1     -20.153 -10.131  14.679  1.00  0.00     0.211 HD
ENDBRANCH  28  33
BRANCH  29  35
ATOM     35  C   UNL     1     -15.978  -8.578  16.621  1.00  0.00     0.191 C 
BRANCH  35  36
ATOM     36  O   UNL     1     -15.781  -9.138  17.892  1.00  0.00    -0.394 OA
ATOM     37  H   UNL     1     -14.836  -8.993  18.158  1.00  0.00     0.210 HD
ENDBRANCH  35  36
ENDBRANCH  29  35
BRANCH  30  38
ATOM     38  O   UNL     1     -18.355 -10.122  16.667  1.00  0.00    -0.387 OA
ATOM     39  H   UNL     1     -18.102  -9.969  17.618  1.00  0.00     0.211 HD
ENDBRANCH  30  38
ENDBRANCH   1  25
TORSDOF 11
ENDMDL
MODEL 2
REMARK VINA RESULT:    -6.615      2.668      6.324
REMARK INTER + INTRA:         -11.158
REMARK INTER:                  -9.361
REMARK INTRA:                  -1.797
REMARK UNBOUND:                -1.644
REMARK SMILES O=c1c(O[C@@H]2O[C@H](CO)[C@H](O)[C@@H](O)[C@@H]2O)c(-c2ccc(O)cc2)oc2cc(O)cc(O)c12
REMARK SMILES IDX 4 1 3 2 16 3 24 4 2 5 25 6 1 7 32 8 26 9 30 10 27 11 29 12
REMARK SMILES IDX 17 13 18 14 19 15 20 16 23 17 22 18 21 19 31 21 28 23 5 25
REMARK SMILES IDX 14 26 6 27 12 28 7 29 10 30 15 31 13 33 8 35 9 36 11 38
REMARK H PARENT 21 20 31 22 28 24 15 32 13 34 9 37 11 39
REMARK Flexibility Score: inf
ROOT
ATOM      1  O   UNL     1     -17.904  -2.312  15.637  1.00  0.00    -0.454 OA
ENDROOT
BRANCH   1   2
ATOM      2  C   UNL     1     -17.955  -3.715  15.726  1.00  0.00     0.214 A 
ATOM      3  C   UNL     1     -18.688  -4.408  16.719  1.00  0.00     0.180 A 
ATOM      4  O   UNL     1     -18.724  -5.739  16.704  1.00  0.00    -0.452 OA
ATOM      5  C   UNL     1     -17.191  -4.460  14.822  1.00  0.00     0.239 A 
ATOM      6  C   UNL     1     -18.031  -6.478  15.847  1.00  0.00     0.146 A 
ATOM      7  O   UNL     1     -16.495  -3.853  13.964  1.00  0.00    -0.285 OA
ATOM      8  C   UNL     1     -17.204  -5.867  14.877  1.00  0.00     0.111 A 
ATOM      9  C   UNL     1     -18.103  -7.874  15.931  1.00  0.00     0.094 A 
ATOM     10  C   UNL     1     -16.392  -6.684  14.052  1.00  0.00     0.134 A 
ATOM     11  C   UNL     1     -17.325  -8.672  15.082  1.00  0.00     0.123 A 
ATOM     12  C   UNL     1     -16.459  -8.078  14.162  1.00  0.00     0.093 A 
BRANCH   3  13
ATOM     13  C   UNL     1     -19.390  -3.715  17.824  1.00  0.00     0.021 A 
ATOM     14  C   UNL     1     -20.628  -3.087  17.617  1.00  0.00     0.016 A 
ATOM     15  C   UNL     1     -21.293  -2.467  18.683  1.00  0.00     0.047 A 
ATOM     16  C   UNL     1     -20.707  -2.441  19.957  1.00  0.00     0.115 A 
ATOM     17  C   UNL     1     -18.792  -3.653  19.094  1.00  0.00     0.016 A 
ATOM     18  C   UNL     1     -19.448  -3.025  20.154  1.00  0.00     0.047 A 
BRANCH  16  19
ATOM     19  O   UNL     1     -21.357  -1.827  21.030  1.00  0.00    -0.508 OA
ATOM     20  H   UNL     1     -22.275  -2.125  21.338  1.00  0.00     0.293 HD
ENDBRANCH  16  19
ENDBRANCH   3  13
BRANCH  10  21
ATOM     21  O   UNL     1     -15.486  -6.119  13.159  1.00  0.00    -0.507 OA
ATOM     22  H   UNL     1     -15.258  -6.589  12.292  1.00  0.00     0.293 HD
ENDBRANCH  10  21
BRANCH  11  23
ATOM     23  O   UNL     1     -17.409 -10.061  15.141  1.00  0.00    -0.508 OA
ATOM     24  H   UNL     1     -17.613 -10.611  14.316  1.00  0.00     0.293 HD
ENDBRANCH  11  23
ENDBRANCH   1   2
BRANCH   1  25
ATOM     25  C   UNL     1     -18.820  -1.493  14.910  1.00  0.00     0.339 C 
ATOM     26  C   UNL     1     -18.002  -0.606  13.969  1.00  0.00     0.214 C 
ATOM     27  O   UNL     1     -19.710  -2.310  14.170  1.00  0.00    -0.332 OA
ATOM     28  C   UNL     1     -18.931   0.405  13.251  1.00  0.00     0.180 C 
ATOM     29  C   UNL     1     -20.578  -1.590  13.290  1.00  0.00     0.179 C 
ATOM     30  C   UNL     1     -20.417  -0.033  13.285  1.00  0.00     0.177 C 
BRANCH  26  31
ATOM     31  O   UNL     1     -17.333  -1.419  13.034  1.00  0.00    -0.384 OA
ATOM     32  H   UNL     1     -16.766  -2.046  13.555  1.00  0.00     0.211 HD
ENDBRANCH  26  31
BRANCH  28  33
ATOM     33  O   UNL     1     -18.787   1.688  13.815  1.00  0.00    -0.387 OA
ATOM     34  H   UNL     1     -19.558   2.243  13.514  1.00  0.00     0.211 HD
ENDBRANCH  28  33
BRANCH  29  35
ATOM     35  C   UNL     1     -20.500  -2.214  11.877  1.00  0.00     0.191 C 
BRANCH  35  36
ATOM     36  O   UNL     1     -19.422  -3.106  11.780  1.00  0.00    -0.394 OA
ATOM     37  H   UNL     1     -19.475  -3.749  12.534  1.00  0.00     0.210 HD
ENDBRANCH  35  36
ENDBRANCH  29  35
BRANCH  30  38
ATOM     38  O   UNL     1     -21.108   0.535  12.197  1.00  0.00    -0.387 OA
ATOM     39  H   UNL     1     -20.484   1.168  11.749  1.00  0.00     0.211 HD
ENDBRANCH  30  38
ENDBRANCH   1  25
TORSDOF 11
ENDMDL
MODEL 3
REMARK VINA RESULT:    -6.427      5.093      9.836
REMARK INTER + INTRA:         -10.889
REMARK INTER:                  -9.398
REMARK INTRA:                  -1.491
REMARK UNBOUND:                -1.644
REMARK SMILES O=c1c(O[C@@H]2O[C@H](CO)[C@H](O)[C@@H](O)[C@@H]2O)c(-c2ccc(O)cc2)oc2cc(O)cc(O)c12
REMARK SMILES IDX 4 1 3 2 16 3 24 4 2 5 25 6 1 7 32 8 26 9 30 10 27 11 29 12
REMARK SMILES IDX 17 13 18 14 19 15 20 16 23 17 22 18 21 19 31 21 28 23 5 25
REMARK SMILES IDX 14 26 6 27 12 28 7 29 10 30 15 31 13 33 8 35 9 36 11 38
REMARK H PARENT 21 20 31 22 28 24 15 32 13 34 9 37 11 39
REMARK Flexibility Score: inf
ROOT
ATOM      1  O   UNL     1      -9.772  -4.040  11.563  1.00  0.00    -0.454 OA
ENDROOT
BRANCH   1   2
ATOM      2  C   UNL     1     -11.174  -4.093  11.468  1.00  0.00     0.214 A 
ATOM      3  C   UNL     1     -11.864  -4.927  10.555  1.00  0.00     0.180 A 
ATOM      4  O   UNL     1     -13.196  -4.954  10.564  1.00  0.00    -0.452 OA
ATOM      5  C   UNL     1     -11.922  -3.230  12.277  1.00  0.00     0.239 A 
ATOM      6  C   UNL     1     -13.937  -4.167  11.333  1.00  0.00     0.146 A 
ATOM      7  O   UNL     1     -11.317  -2.448  13.059  1.00  0.00    -0.285 OA
ATOM      8  C   UNL     1     -13.329  -3.242  12.212  1.00  0.00     0.111 A 
ATOM      9  C   UNL     1     -15.332  -4.240  11.246  1.00  0.00     0.094 A 
ATOM     10  C   UNL     1     -14.146  -2.341  12.937  1.00  0.00     0.134 A 
ATOM     11  C   UNL     1     -16.133  -3.370  11.998  1.00  0.00     0.123 A 
ATOM     12  C   UNL     1     -15.541  -2.411  12.823  1.00  0.00     0.093 A 
BRANCH   3  13
ATOM     13  C   UNL     1     -11.167  -5.748   9.539  1.00  0.00     0.021 A 
ATOM     14  C   UNL     1     -10.598  -5.162   8.398  1.00  0.00     0.016 A 
ATOM     15  C   UNL     1      -9.912  -5.951   7.466  1.00  0.00     0.047 A 
ATOM     16  C   UNL     1      -9.819  -7.337   7.652  1.00  0.00     0.115 A 
ATOM     17  C   UNL     1     -11.102  -7.142   9.701  1.00  0.00     0.016 A 
ATOM     18  C   UNL     1     -10.429  -7.931   8.766  1.00  0.00     0.047 A 
BRANCH  16  19
ATOM     19  O   UNL     1      -9.139  -8.138   6.731  1.00  0.00    -0.508 OA
ATOM     20  H   UNL     1      -8.611  -8.952   7.021  1.00  0.00     0.293 HD
ENDBRANCH  16  19
ENDBRANCH   3  13
BRANCH  10  21
ATOM     21  O   UNL     1     -13.583  -1.345  13.730  1.00  0.00    -0.507 OA
ATOM     22  H   UNL     1     -12.601  -1.377  13.974  1.00  0.00     0.293 HD
ENDBRANCH  10  21
BRANCH  11  23
ATOM     23  O   UNL     1     -17.521  -3.452  11.937  1.00  0.00    -0.508 OA
ATOM     24  H   UNL     1     -18.043  -3.010  11.192  1.00  0.00     0.293 HD
ENDBRANCH  11  23
ENDBRANCH   1   2
BRANCH   1  25
ATOM     25  C   UNL     1      -8.947  -5.012  12.206  1.00  0.00     0.339 C 
ATOM     26  C   UNL     1      -8.116  -5.704  11.123  1.00  0.00     0.214 C 
ATOM     27  O   UNL     1      -8.102  -4.375  13.147  1.00  0.00    -0.332 OA
ATOM     28  C   UNL     1      -7.300  -6.866  11.742  1.00  0.00     0.180 C 
ATOM     29  C   UNL     1      -7.131  -5.238  13.745  1.00  0.00     0.179 C 
ATOM     30  C   UNL     1      -7.155  -6.732  13.279  1.00  0.00     0.177 C 
BRANCH  26  31
ATOM     31  O   UNL     1      -7.261  -4.759  10.523  1.00  0.00    -0.384 OA
ATOM     32  H   UNL     1      -7.181  -4.001  11.160  1.00  0.00     0.211 HD
ENDBRANCH  26  31
BRANCH  28  33
ATOM     33  O   UNL     1      -7.887  -8.105  11.413  1.00  0.00    -0.387 OA
ATOM     34  H   UNL     1      -8.569  -7.943  10.706  1.00  0.00     0.211 HD
ENDBRANCH  28  33
BRANCH  29  35
ATOM     35  C   UNL     1      -5.732  -4.588  13.628  1.00  0.00     0.191 C 
BRANCH  35  36
ATOM     36  O   UNL     1      -5.739  -3.549  12.686  1.00  0.00    -0.394 OA
ATOM     37  H   UNL     1      -5.171  -3.815  11.917  1.00  0.00     0.210 HD
ENDBRANCH  35  36
ENDBRANCH  29  35
BRANCH  30  38
ATOM     38  O   UNL     1      -5.998  -7.408  13.711  1.00  0.00    -0.387 OA
ATOM     39  H   UNL     1      -5.317  -7.317  12.991  1.00  0.00     0.211 HD
ENDBRANCH  30  38
ENDBRANCH   1  25
TORSDOF 11
ENDMDL
MODEL 4
REMARK VINA RESULT:    -6.333      4.252      7.705
REMARK INTER + INTRA:         -10.754
REMARK INTER:                  -9.453
REMARK INTRA:                  -1.301
REMARK UNBOUND:                -1.644
REMARK SMILES O=c1c(O[C@@H]2O[C@H](CO)[C@H](O)[C@@H](O)[C@@H]2O)c(-c2ccc(O)cc2)oc2cc(O)cc(O)c12
REMARK SMILES IDX 4 1 3 2 16 3 24 4 2 5 25 6 1 7 32 8 26 9 30 10 27 11 29 12
REMARK SMILES IDX 17 13 18 14 19 15 20 16 23 17 22 18 21 19 31 21 28 23 5 25
REMARK SMILES IDX 14 26 6 27 12 28 7 29 10 30 15 31 13 33 8 35 9 36 11 38
REMARK H PARENT 21 20 31 22 28 24 15 32 13 34 9 37 11 39
REMARK Flexibility Score: inf
ROOT
ATOM      1  O   UNL     1     -12.733  -3.220  13.548  1.00  0.00    -0.454 OA
ENDROOT
BRANCH   1   2
ATOM      2  C   UNL     1     -12.351  -3.848  12.349  1.00  0.00     0.214 A 
ATOM      3  C   UNL     1     -13.274  -4.316  11.384  1.00  0.00     0.180 A 
ATOM      4  O   UNL     1     -12.827  -4.855  10.250  1.00  0.00    -0.452 OA
ATOM      5  C   UNL     1     -10.987  -4.075  12.130  1.00  0.00     0.239 A 
ATOM      6  C   UNL     1     -11.541  -5.065   9.999  1.00  0.00     0.146 A 
ATOM      7  O   UNL     1     -10.158  -3.707  13.005  1.00  0.00    -0.285 OA
ATOM      8  C   UNL     1     -10.557  -4.707  10.948  1.00  0.00     0.111 A 
ATOM      9  C   UNL     1     -11.169  -5.673   8.794  1.00  0.00     0.094 A 
ATOM     10  C   UNL     1      -9.204  -5.045  10.696  1.00  0.00     0.134 A 
ATOM     11  C   UNL     1      -9.823  -5.967   8.539  1.00  0.00     0.123 A 
ATOM     12  C   UNL     1      -8.850  -5.673   9.496  1.00  0.00     0.093 A 
BRANCH   3  13
ATOM     13  C   UNL     1     -14.739  -4.280  11.596  1.00  0.00     0.021 A 
ATOM     14  C   UNL     1     -15.333  -4.956  12.674  1.00  0.00     0.016 A 
ATOM     15  C   UNL     1     -16.716  -4.882  12.879  1.00  0.00     0.047 A 
ATOM     16  C   UNL     1     -17.521  -4.156  11.988  1.00  0.00     0.115 A 
ATOM     17  C   UNL     1     -15.555  -3.586  10.687  1.00  0.00     0.016 A 
ATOM     18  C   UNL     1     -16.936  -3.521  10.884  1.00  0.00     0.047 A 
BRANCH  16  19
ATOM     19  O   UNL     1     -18.902  -4.073  12.179  1.00  0.00    -0.508 OA
ATOM     20  H   UNL     1     -19.471  -4.898  12.325  1.00  0.00     0.293 HD
ENDBRANCH  16  19
ENDBRANCH   3  13
BRANCH  10  21
ATOM     21  O   UNL     1      -8.220  -4.807  11.651  1.00  0.00    -0.507 OA
ATOM     22  H   UNL     1      -7.276  -4.575  11.368  1.00  0.00     0.293 HD
ENDBRANCH  10  21
BRANCH  11  23
ATOM     23  O   UNL     1      -9.440  -6.548   7.334  1.00  0.00    -0.508 OA
ATOM     24  H   UNL     1      -8.772  -6.098   6.721  1.00  0.00     0.293 HD
ENDBRANCH  11  23
ENDBRANCH   1   2
BRANCH   1  25
ATOM     25  C   UNL     1     -13.098  -1.846  13.685  1.00  0.00     0.339 C 
ATOM     26  C   UNL     1     -13.757  -1.677  15.056  1.00  0.00     0.214 C 
ATOM     27  O   UNL     1     -11.943  -1.032  13.588  1.00  0.00    -0.332 OA
ATOM     28  C   UNL     1     -14.301  -0.235  15.208  1.00  0.00     0.180 C 
ATOM     29  C   UNL     1     -12.175   0.353  13.857  1.00  0.00     0.179 C 
ATOM     30  C   UNL     1     -13.648   0.751  14.207  1.00  0.00     0.177 C 
BRANCH  26  31
ATOM     31  O   UNL     1     -12.814  -1.962  16.061  1.00  0.00    -0.384 OA
ATOM     32  H   UNL     1     -12.304  -1.125  16.220  1.00  0.00     0.211 HD
ENDBRANCH  26  31
BRANCH  28  33
ATOM     33  O   UNL     1     -15.703  -0.222  15.061  1.00  0.00    -0.387 OA
ATOM     34  H   UNL     1     -15.922   0.336  14.266  1.00  0.00     0.211 HD
ENDBRANCH  28  33
BRANCH  29  35
ATOM     35  C   UNL     1     -11.148   0.846  14.904  1.00  0.00     0.191 C 
BRANCH  35  36
ATOM     36  O   UNL     1     -10.472  -0.233  15.492  1.00  0.00    -0.394 OA
ATOM     37  H   UNL     1     -10.387  -0.957  14.819  1.00  0.00     0.210 HD
ENDBRANCH  35  36
ENDBRANCH  29  35
BRANCH  30  38
ATOM     38  O   UNL     1     -13.702   2.061  14.721  1.00  0.00    -0.387 OA
ATOM     39  H   UNL     1     -14.638   2.382  14.614  1.00  0.00     0.211 HD
ENDBRANCH  30  38
ENDBRANCH   1  25
TORSDOF 11
ENDMDL
MODEL 5
REMARK VINA RESULT:    -6.206      3.588      7.428
REMARK INTER + INTRA:         -10.571
REMARK INTER:                  -9.158
REMARK INTRA:                  -1.413
REMARK UNBOUND:                -1.644
REMARK SMILES O=c1c(O[C@@H]2O[C@H](CO)[C@H](O)[C@@H](O)[C@@H]2O)c(-c2ccc(O)cc2)oc2cc(O)cc(O)c12
REMARK SMILES IDX 4 1 3 2 16 3 24 4 2 5 25 6 1 7 32 8 26 9 30 10 27 11 29 12
REMARK SMILES IDX 17 13 18 14 19 15 20 16 23 17 22 18 21 19 31 21 28 23 5 25
REMARK SMILES IDX 14 26 6 27 12 28 7 29 10 30 15 31 13 33 8 35 9 36 11 38
REMARK H PARENT 21 20 31 22 28 24 15 32 13 34 9 37 11 39
REMARK Flexibility Score: inf
ROOT
ATOM      1  O   UNL     1     -12.753  -2.536  14.510  1.00  0.00    -0.454 OA
ENDROOT
BRANCH   1   2
ATOM      2  C   UNL     1     -12.763  -3.223  13.283  1.00  0.00     0.214 A 
ATOM      3  C   UNL     1     -13.948  -3.649  12.637  1.00  0.00     0.180 A 
ATOM      4  O   UNL     1     -13.873  -4.252  11.451  1.00  0.00    -0.452 OA
ATOM      5  C   UNL     1     -11.533  -3.555  12.704  1.00  0.00     0.239 A 
ATOM      6  C   UNL     1     -12.726  -4.562  10.861  1.00  0.00     0.146 A 
ATOM      7  O   UNL     1     -10.470  -3.224  13.294  1.00  0.00    -0.285 OA
ATOM      8  C   UNL     1     -11.493  -4.250  11.480  1.00  0.00     0.111 A 
ATOM      9  C   UNL     1     -12.746  -5.229   9.631  1.00  0.00     0.094 A 
ATOM     10  C   UNL     1     -10.290  -4.693  10.878  1.00  0.00     0.134 A 
ATOM     11  C   UNL     1     -11.547  -5.628   9.025  1.00  0.00     0.123 A 
ATOM     12  C   UNL     1     -10.327  -5.379   9.657  1.00  0.00     0.093 A 
BRANCH   3  13
ATOM     13  C   UNL     1     -15.289  -3.501  13.248  1.00  0.00     0.021 A 
ATOM     14  C   UNL     1     -15.895  -4.563  13.936  1.00  0.00     0.016 A 
ATOM     15  C   UNL     1     -17.148  -4.393  14.538  1.00  0.00     0.047 A 
ATOM     16  C   UNL     1     -17.820  -3.167  14.427  1.00  0.00     0.115 A 
ATOM     17  C   UNL     1     -15.983  -2.287  13.110  1.00  0.00     0.016 A 
ATOM     18  C   UNL     1     -17.238  -2.120  13.699  1.00  0.00     0.047 A 
BRANCH  16  19
ATOM     19  O   UNL     1     -19.070  -2.981  15.021  1.00  0.00    -0.508 OA
ATOM     20  H   UNL     1     -19.374  -2.073  15.352  1.00  0.00     0.293 HD
ENDBRANCH  16  19
ENDBRANCH   3  13
BRANCH  10  21
ATOM     21  O   UNL     1      -9.064  -4.501  11.507  1.00  0.00    -0.507 OA
ATOM     22  H   UNL     1      -8.296  -4.062  11.014  1.00  0.00     0.293 HD
ENDBRANCH  10  21
BRANCH  11  23
ATOM     23  O   UNL     1     -11.556  -6.269   7.790  1.00  0.00    -0.508 OA
ATOM     24  H   UNL     1     -11.933  -7.202   7.683  1.00  0.00     0.293 HD
ENDBRANCH  11  23
ENDBRANCH   1   2
BRANCH   1  25
ATOM     25  C   UNL     1     -12.873  -1.122  14.670  1.00  0.00     0.339 C 
ATOM     26  C   UNL     1     -13.562  -0.864  16.012  1.00  0.00     0.214 C 
ATOM     27  O   UNL     1     -11.588  -0.527  14.651  1.00  0.00    -0.332 OA
ATOM     28  C   UNL     1     -13.848   0.649  16.180  1.00  0.00     0.180 C 
ATOM     29  C   UNL     1     -11.583   0.872  14.949  1.00  0.00     0.179 C 
ATOM     30  C   UNL     1     -12.978   1.521  15.239  1.00  0.00     0.177 C 
BRANCH  26  31
ATOM     31  O   UNL     1     -12.738  -1.335  17.052  1.00  0.00    -0.384 OA
ATOM     32  H   UNL     1     -11.853  -0.900  16.933  1.00  0.00     0.211 HD
ENDBRANCH  26  31
BRANCH  28  33
ATOM     33  O   UNL     1     -15.215   0.916  15.966  1.00  0.00    -0.387 OA
ATOM     34  H   UNL     1     -15.694   0.044  15.918  1.00  0.00     0.211 HD
ENDBRANCH  28  33
BRANCH  29  35
ATOM     35  C   UNL     1     -10.540   1.152  16.057  1.00  0.00     0.191 C 
BRANCH  35  36
ATOM     36  O   UNL     1     -10.172  -0.033  16.711  1.00  0.00    -0.394 OA
ATOM     37  H   UNL     1      -9.346   0.138  17.233  1.00  0.00     0.210 HD
ENDBRANCH  35  36
ENDBRANCH  29  35
BRANCH  30  38
ATOM     38  O   UNL     1     -12.824   2.809  15.788  1.00  0.00    -0.387 OA
ATOM     39  H   UNL     1     -12.026   2.783  16.383  1.00  0.00     0.211 HD
ENDBRANCH  30  38
ENDBRANCH   1  25
TORSDOF 11
ENDMDL
MODEL 6
REMARK VINA RESULT:    -6.200      6.222     10.058
REMARK INTER + INTRA:         -10.563
REMARK INTER:                 -10.323
REMARK INTRA:                  -0.240
REMARK UNBOUND:                -1.644
REMARK SMILES O=c1c(O[C@@H]2O[C@H](CO)[C@H](O)[C@@H](O)[C@@H]2O)c(-c2ccc(O)cc2)oc2cc(O)cc(O)c12
REMARK SMILES IDX 4 1 3 2 16 3 24 4 2 5 25 6 1 7 32 8 26 9 30 10 27 11 29 12
REMARK SMILES IDX 17 13 18 14 19 15 20 16 23 17 22 18 21 19 31 21 28 23 5 25
REMARK SMILES IDX 14 26 6 27 12 28 7 29 10 30 15 31 13 33 8 35 9 36 11 38
REMARK H PARENT 21 20 31 22 28 24 15 32 13 34 9 37 11 39
REMARK Flexibility Score: inf
ROOT
ATOM      1  O   UNL     1      -9.482  -6.246  10.007  1.00  0.00    -0.454 OA
ENDROOT
BRANCH   1   2
ATOM      2  C   UNL     1      -9.058  -5.507  11.126  1.00  0.00     0.214 A 
ATOM      3  C   UNL     1      -9.925  -4.704  11.905  1.00  0.00     0.180 A 
ATOM      4  O   UNL     1      -9.452  -4.074  12.979  1.00  0.00    -0.452 OA
ATOM      5  C   UNL     1      -7.696  -5.520  11.445  1.00  0.00     0.239 A 
ATOM      6  C   UNL     1      -8.171  -4.083  13.326  1.00  0.00     0.146 A 
ATOM      7  O   UNL     1      -6.906  -6.193  10.730  1.00  0.00    -0.285 OA
ATOM      8  C   UNL     1      -7.223  -4.789  12.552  1.00  0.00     0.111 A 
ATOM      9  C   UNL     1      -7.762  -3.359  14.452  1.00  0.00     0.094 A 
ATOM     10  C   UNL     1      -5.850  -4.687  12.886  1.00  0.00     0.134 A 
ATOM     11  C   UNL     1      -6.405  -3.298  14.796  1.00  0.00     0.123 A 
ATOM     12  C   UNL     1      -5.453  -3.942  14.003  1.00  0.00     0.093 A 
BRANCH   3  13
ATOM     13  C   UNL     1     -11.346  -4.485  11.550  1.00  0.00     0.021 A 
ATOM     14  C   UNL     1     -12.203  -3.767  12.398  1.00  0.00     0.016 A 
ATOM     15  C   UNL     1     -13.535  -3.541  12.029  1.00  0.00     0.047 A 
ATOM     16  C   UNL     1     -14.028  -4.059  10.823  1.00  0.00     0.115 A 
ATOM     17  C   UNL     1     -11.856  -5.033  10.361  1.00  0.00     0.016 A 
ATOM     18  C   UNL     1     -13.186  -4.817   9.997  1.00  0.00     0.047 A 
BRANCH  16  19
ATOM     19  O   UNL     1     -15.354  -3.842  10.440  1.00  0.00    -0.508 OA
ATOM     20  H   UNL     1     -15.627  -3.796   9.466  1.00  0.00     0.293 HD
ENDBRANCH  16  19
ENDBRANCH   3  13
BRANCH  10  21
ATOM     21  O   UNL     1      -4.875  -5.279  12.087  1.00  0.00    -0.507 OA
ATOM     22  H   UNL     1      -4.099  -5.775  12.507  1.00  0.00     0.293 HD
ENDBRANCH  10  21
BRANCH  11  23
ATOM     23  O   UNL     1      -5.990  -2.603  15.928  1.00  0.00    -0.508 OA
ATOM     24  H   UNL     1      -6.616  -1.979  16.422  1.00  0.00     0.293 HD
ENDBRANCH  11  23
ENDBRANCH   1   2
BRANCH   1  25
ATOM     25  C   UNL     1      -8.801  -6.319   8.754  1.00  0.00     0.339 C 
ATOM     26  C   UNL     1      -9.462  -7.427   7.931  1.00  0.00     0.214 C 
ATOM     27  O   UNL     1      -8.901  -5.076   8.082  1.00  0.00    -0.332 OA
ATOM     28  C   UNL     1      -8.678  -7.648   6.613  1.00  0.00     0.180 C 
ATOM     29  C   UNL     1      -8.378  -5.082   6.751  1.00  0.00     0.179 C 
ATOM     30  C   UNL     1      -7.778  -6.439   6.252  1.00  0.00     0.177 C 
BRANCH  26  31
ATOM     31  O   UNL     1     -10.797  -7.069   7.662  1.00  0.00    -0.384 OA
ATOM     32  H   UNL     1     -10.812  -6.692   6.743  1.00  0.00     0.211 HD
ENDBRANCH  26  31
BRANCH  28  33
ATOM     33  O   UNL     1      -7.906  -8.824   6.695  1.00  0.00    -0.387 OA
ATOM     34  H   UNL     1      -7.045  -8.659   6.221  1.00  0.00     0.211 HD
ENDBRANCH  28  33
BRANCH  29  35
ATOM     35  C   UNL     1      -9.435  -4.494   5.787  1.00  0.00     0.191 C 
BRANCH  35  36
ATOM     36  O   UNL     1     -10.684  -4.386   6.415  1.00  0.00    -0.394 OA
ATOM     37  H   UNL     1     -10.662  -3.608   7.031  1.00  0.00     0.210 HD
ENDBRANCH  35  36
ENDBRANCH  29  35
BRANCH  30  38
ATOM     38  O   UNL     1      -7.559  -6.405   4.861  1.00  0.00    -0.387 OA
ATOM     39  H   UNL     1      -8.112  -7.127   4.457  1.00  0.00     0.211 HD
ENDBRANCH  30  38
ENDBRANCH   1  25
TORSDOF 11
ENDMDL
MODEL 7
REMARK VINA RESULT:    -6.195      3.187      7.825
REMARK INTER + INTRA:         -10.555
REMARK INTER:                  -9.339
REMARK INTRA:                  -1.215
REMARK UNBOUND:                -1.644
REMARK SMILES O=c1c(O[C@@H]2O[C@H](CO)[C@H](O)[C@@H](O)[C@@H]2O)c(-c2ccc(O)cc2)oc2cc(O)cc(O)c12
REMARK SMILES IDX 4 1 3 2 16 3 24 4 2 5 25 6 1 7 32 8 26 9 30 10 27 11 29 12
REMARK SMILES IDX 17 13 18 14 19 15 20 16 23 17 22 18 21 19 31 21 28 23 5 25
REMARK SMILES IDX 14 26 6 27 12 28 7 29 10 30 15 31 13 33 8 35 9 36 11 38
REMARK H PARENT 21 20 31 22 28 24 15 32 13 34 9 37 11 39
REMARK Flexibility Score: inf
ROOT
ATOM      1  O   UNL     1     -18.865  -2.536  13.219  1.00  0.00    -0.454 OA
ENDROOT
BRANCH   1   2
ATOM      2  C   UNL     1     -18.872  -2.800  14.600  1.00  0.00     0.214 A 
ATOM      3  C   UNL     1     -17.908  -3.612  15.245  1.00  0.00     0.180 A 
ATOM      4  O   UNL     1     -17.958  -3.772  16.566  1.00  0.00    -0.452 OA
ATOM      5  C   UNL     1     -19.923  -2.281  15.365  1.00  0.00     0.239 A 
ATOM      6  C   UNL     1     -18.926  -3.275  17.326  1.00  0.00     0.146 A 
ATOM      7  O   UNL     1     -20.814  -1.596  14.794  1.00  0.00    -0.285 OA
ATOM      8  C   UNL     1     -19.976  -2.524  16.751  1.00  0.00     0.111 A 
ATOM      9  C   UNL     1     -18.914  -3.527  18.703  1.00  0.00     0.094 A 
ATOM     10  C   UNL     1     -21.051  -2.104  17.572  1.00  0.00     0.134 A 
ATOM     11  C   UNL     1     -19.963  -3.072  19.512  1.00  0.00     0.123 A 
ATOM     12  C   UNL     1     -21.036  -2.382  18.944  1.00  0.00     0.093 A 
BRANCH   3  13
ATOM     13  C   UNL     1     -16.858  -4.347  14.503  1.00  0.00     0.021 A 
ATOM     14  C   UNL     1     -17.008  -5.706  14.188  1.00  0.00     0.016 A 
ATOM     15  C   UNL     1     -16.020  -6.375  13.455  1.00  0.00     0.047 A 
ATOM     16  C   UNL     1     -14.857  -5.697  13.061  1.00  0.00     0.115 A 
ATOM     17  C   UNL     1     -15.675  -3.683  14.137  1.00  0.00     0.016 A 
ATOM     18  C   UNL     1     -14.684  -4.353  13.417  1.00  0.00     0.047 A 
BRANCH  16  19
ATOM     19  O   UNL     1     -13.863  -6.350  12.330  1.00  0.00    -0.508 OA
ATOM     20  H   UNL     1     -13.256  -5.851  11.690  1.00  0.00     0.293 HD
ENDBRANCH  16  19
ENDBRANCH   3  13
BRANCH  10  21
ATOM     21  O   UNL     1     -22.156  -1.457  17.026  1.00  0.00    -0.507 OA
ATOM     22  H   UNL     1     -22.139  -0.457  16.867  1.00  0.00     0.293 HD
ENDBRANCH  10  21
BRANCH  11  23
ATOM     23  O   UNL     1     -19.947  -3.295  20.886  1.00  0.00    -0.508 OA
ATOM     24  H   UNL     1     -19.928  -2.526  21.544  1.00  0.00     0.293 HD
ENDBRANCH  11  23
ENDBRANCH   1   2
BRANCH   1  25
ATOM     25  C   UNL     1     -17.856  -1.809  12.518  1.00  0.00     0.339 C 
ATOM     26  C   UNL     1     -17.655  -2.486  11.161  1.00  0.00     0.214 C 
ATOM     27  O   UNL     1     -18.267  -0.465  12.345  1.00  0.00    -0.332 OA
ATOM     28  C   UNL     1     -16.472  -1.826  10.409  1.00  0.00     0.180 C 
ATOM     29  C   UNL     1     -17.393   0.318  11.527  1.00  0.00     0.179 C 
ATOM     30  C   UNL     1     -16.132  -0.420  10.962  1.00  0.00     0.177 C 
BRANCH  26  31
ATOM     31  O   UNL     1     -18.842  -2.381  10.412  1.00  0.00    -0.384 OA
ATOM     32  H   UNL     1     -19.592  -2.380  11.064  1.00  0.00     0.211 HD
ENDBRANCH  26  31
BRANCH  28  33
ATOM     33  O   UNL     1     -15.336  -2.658  10.458  1.00  0.00    -0.387 OA
ATOM     34  H   UNL     1     -15.531  -3.476   9.925  1.00  0.00     0.211 HD
ENDBRANCH  28  33
BRANCH  29  35
ATOM     35  C   UNL     1     -18.222   1.027  10.430  1.00  0.00     0.191 C 
BRANCH  35  36
ATOM     36  O   UNL     1     -19.498   0.455  10.316  1.00  0.00    -0.394 OA
ATOM     37  H   UNL     1     -19.959   0.535  11.191  1.00  0.00     0.210 HD
ENDBRANCH  35  36
ENDBRANCH  29  35
BRANCH  30  38
ATOM     38  O   UNL     1     -15.510   0.351   9.961  1.00  0.00    -0.387 OA
ATOM     39  H   UNL     1     -14.531   0.187  10.028  1.00  0.00     0.211 HD
ENDBRANCH  30  38
ENDBRANCH   1  25
TORSDOF 11
ENDMDL
MODEL 8
REMARK VINA RESULT:    -5.980      3.394      7.815
REMARK INTER + INTRA:         -10.246
REMARK INTER:                  -8.761
REMARK INTRA:                  -1.485
REMARK UNBOUND:                -1.644
REMARK SMILES O=c1c(O[C@@H]2O[C@H](CO)[C@H](O)[C@@H](O)[C@@H]2O)c(-c2ccc(O)cc2)oc2cc(O)cc(O)c12
REMARK SMILES IDX 4 1 3 2 16 3 24 4 2 5 25 6 1 7 32 8 26 9 30 10 27 11 29 12
REMARK SMILES IDX 17 13 18 14 19 15 20 16 23 17 22 18 21 19 31 21 28 23 5 25
REMARK SMILES IDX 14 26 6 27 12 28 7 29 10 30 15 31 13 33 8 35 9 36 11 38
REMARK H PARENT 21 20 31 22 28 24 15 32 13 34 9 37 11 39
REMARK Flexibility Score: inf
ROOT
ATOM      1  O   UNL     1     -18.095  -1.079  13.529  1.00  0.00    -0.454 OA
ENDROOT
BRANCH   1   2
ATOM      2  C   UNL     1     -18.348  -1.804  14.708  1.00  0.00     0.214 A 
ATOM      3  C   UNL     1     -17.450  -2.755  15.247  1.00  0.00     0.180 A 
ATOM      4  O   UNL     1     -17.744  -3.363  16.396  1.00  0.00    -0.452 OA
ATOM      5  C   UNL     1     -19.580  -1.616  15.344  1.00  0.00     0.239 A 
ATOM      6  C   UNL     1     -18.892  -3.192  17.039  1.00  0.00     0.146 A 
ATOM      7  O   UNL     1     -20.409  -0.807  14.847  1.00  0.00    -0.285 OA
ATOM      8  C   UNL     1     -19.882  -2.325  16.523  1.00  0.00     0.111 A 
ATOM      9  C   UNL     1     -19.127  -3.903  18.221  1.00  0.00     0.094 A 
ATOM     10  C   UNL     1     -21.138  -2.250  17.174  1.00  0.00     0.134 A 
ATOM     11  C   UNL     1     -20.359  -3.791  18.879  1.00  0.00     0.123 A 
ATOM     12  C   UNL     1     -21.366  -2.985  18.345  1.00  0.00     0.093 A 
BRANCH   3  13
ATOM     13  C   UNL     1     -16.200  -3.153  14.560  1.00  0.00     0.021 A 
ATOM     14  C   UNL     1     -16.159  -4.277  13.722  1.00  0.00     0.016 A 
ATOM     15  C   UNL     1     -14.976  -4.617  13.053  1.00  0.00     0.047 A 
ATOM     16  C   UNL     1     -13.816  -3.853  13.244  1.00  0.00     0.115 A 
ATOM     17  C   UNL     1     -15.025  -2.413  14.776  1.00  0.00     0.016 A 
ATOM     18  C   UNL     1     -13.842  -2.758  14.119  1.00  0.00     0.047 A 
BRANCH  16  19
ATOM     19  O   UNL     1     -12.629  -4.179  12.584  1.00  0.00    -0.508 OA
ATOM     20  H   UNL     1     -11.725  -3.889  12.938  1.00  0.00     0.293 HD
ENDBRANCH  16  19
ENDBRANCH   3  13
BRANCH  10  21
ATOM     21  O   UNL     1     -22.175  -1.492  16.639  1.00  0.00    -0.507 OA
ATOM     22  H   UNL     1     -23.138  -1.776  16.769  1.00  0.00     0.293 HD
ENDBRANCH  10  21
BRANCH  11  23
ATOM     23  O   UNL     1     -20.593  -4.474  20.069  1.00  0.00    -0.508 OA
ATOM     24  H   UNL     1     -20.233  -4.134  20.951  1.00  0.00     0.293 HD
ENDBRANCH  11  23
ENDBRANCH   1   2
BRANCH   1  25
ATOM     25  C   UNL     1     -18.188  -1.596  12.202  1.00  0.00     0.339 C 
ATOM     26  C   UNL     1     -19.351  -0.885  11.507  1.00  0.00     0.214 C 
ATOM     27  O   UNL     1     -16.976  -1.356  11.509  1.00  0.00    -0.332 OA
ATOM     28  C   UNL     1     -19.591  -1.502  10.107  1.00  0.00     0.180 C 
ATOM     29  C   UNL     1     -17.012  -1.704  10.122  1.00  0.00     0.179 C 
ATOM     30  C   UNL     1     -18.362  -2.294   9.593  1.00  0.00     0.177 C 
BRANCH  26  31
ATOM     31  O   UNL     1     -19.057   0.488  11.403  1.00  0.00    -0.384 OA
ATOM     32  H   UNL     1     -18.150   0.556  11.003  1.00  0.00     0.211 HD
ENDBRANCH  26  31
BRANCH  28  33
ATOM     33  O   UNL     1     -20.731  -2.330  10.126  1.00  0.00    -0.387 OA
ATOM     34  H   UNL     1     -21.105  -2.359   9.203  1.00  0.00     0.211 HD
ENDBRANCH  28  33
BRANCH  29  35
ATOM     35  C   UNL     1     -16.503  -0.507   9.284  1.00  0.00     0.191 C 
BRANCH  35  36
ATOM     36  O   UNL     1     -16.455   0.663  10.056  1.00  0.00    -0.394 OA
ATOM     37  H   UNL     1     -15.510   0.842  10.300  1.00  0.00     0.210 HD
ENDBRANCH  35  36
ENDBRANCH  29  35
BRANCH  30  38
ATOM     38  O   UNL     1     -18.372  -2.332   8.186  1.00  0.00    -0.387 OA
ATOM     39  H   UNL     1     -17.903  -1.515   7.865  1.00  0.00     0.211 HD
ENDBRANCH  30  38
ENDBRANCH   1  25
TORSDOF 11
ENDMDL
MODEL 9
REMARK VINA RESULT:    -5.958      2.844      8.474
REMARK INTER + INTRA:         -10.214
REMARK INTER:                  -8.479
REMARK INTRA:                  -1.735
REMARK UNBOUND:                -1.644
REMARK SMILES O=c1c(O[C@@H]2O[C@H](CO)[C@H](O)[C@@H](O)[C@@H]2O)c(-c2ccc(O)cc2)oc2cc(O)cc(O)c12
REMARK SMILES IDX 4 1 3 2 16 3 24 4 2 5 25 6 1 7 32 8 26 9 30 10 27 11 29 12
REMARK SMILES IDX 17 13 18 14 19 15 20 16 23 17 22 18 21 19 31 21 28 23 5 25
REMARK SMILES IDX 14 26 6 27 12 28 7 29 10 30 15 31 13 33 8 35 9 36 11 38
REMARK H PARENT 21 20 31 22 28 24 15 32 13 34 9 37 11 39
REMARK Flexibility Score: inf
ROOT
ATOM      1  O   UNL     1     -14.539  -2.828  11.969  1.00  0.00    -0.454 OA
ENDROOT
BRANCH   1   2
ATOM      2  C   UNL     1     -14.838  -4.133  12.399  1.00  0.00     0.214 A 
ATOM      3  C   UNL     1     -13.977  -5.238  12.198  1.00  0.00     0.180 A 
ATOM      4  O   UNL     1     -14.313  -6.433  12.682  1.00  0.00    -0.452 OA
ATOM      5  C   UNL     1     -16.081  -4.359  13.003  1.00  0.00     0.239 A 
ATOM      6  C   UNL     1     -15.472  -6.679  13.280  1.00  0.00     0.146 A 
ATOM      7  O   UNL     1     -16.877  -3.392  13.144  1.00  0.00    -0.285 OA
ATOM      8  C   UNL     1     -16.428  -5.650  13.444  1.00  0.00     0.111 A 
ATOM      9  C   UNL     1     -15.753  -7.977  13.722  1.00  0.00     0.094 A 
ATOM     10  C   UNL     1     -17.697  -5.971  13.985  1.00  0.00     0.134 A 
ATOM     11  C   UNL     1     -16.997  -8.274  14.293  1.00  0.00     0.123 A 
ATOM     12  C   UNL     1     -17.971  -7.279  14.404  1.00  0.00     0.093 A 
BRANCH   3  13
ATOM     13  C   UNL     1     -12.721  -5.140  11.421  1.00  0.00     0.021 A 
ATOM     14  C   UNL     1     -11.510  -4.792  12.039  1.00  0.00     0.016 A 
ATOM     15  C   UNL     1     -10.325  -4.739  11.293  1.00  0.00     0.047 A 
ATOM     16  C   UNL     1     -10.350  -5.002   9.916  1.00  0.00     0.115 A 
ATOM     17  C   UNL     1     -12.744  -5.366  10.034  1.00  0.00     0.016 A 
ATOM     18  C   UNL     1     -11.566  -5.302   9.288  1.00  0.00     0.047 A 
BRANCH  16  19
ATOM     19  O   UNL     1      -9.177  -4.953   9.158  1.00  0.00    -0.508 OA
ATOM     20  H   UNL     1      -8.688  -4.083   8.988  1.00  0.00     0.293 HD
ENDBRANCH  16  19
ENDBRANCH   3  13
BRANCH  10  21
ATOM     21  O   UNL     1     -18.702  -5.011  14.064  1.00  0.00    -0.507 OA
ATOM     22  H   UNL     1     -18.734  -4.363  14.842  1.00  0.00     0.293 HD
ENDBRANCH  10  21
BRANCH  11  23
ATOM     23  O   UNL     1     -17.277  -9.555  14.759  1.00  0.00    -0.508 OA
ATOM     24  H   UNL     1     -18.021 -10.111  14.358  1.00  0.00     0.293 HD
ENDBRANCH  11  23
ENDBRANCH   1   2
BRANCH   1  25
ATOM     25  C   UNL     1     -13.757  -1.876  12.689  1.00  0.00     0.339 C 
ATOM     26  C   UNL     1     -14.583  -0.593  12.810  1.00  0.00     0.214 C 
ATOM     27  O   UNL     1     -13.444  -2.386  13.973  1.00  0.00    -0.332 OA
ATOM     28  C   UNL     1     -13.732   0.526  13.461  1.00  0.00     0.180 C 
ATOM     29  C   UNL     1     -12.785  -1.452  14.833  1.00  0.00     0.179 C 
ATOM     30  C   UNL     1     -12.509  -0.034  14.230  1.00  0.00     0.177 C 
BRANCH  26  31
ATOM     31  O   UNL     1     -15.733  -0.855  13.577  1.00  0.00    -0.384 OA
ATOM     32  H   UNL     1     -15.589  -1.733  14.018  1.00  0.00     0.211 HD
ENDBRANCH  26  31
BRANCH  28  33
ATOM     33  O   UNL     1     -13.313   1.453  12.486  1.00  0.00    -0.387 OA
ATOM     34  H   UNL     1     -13.177   0.959  11.632  1.00  0.00     0.211 HD
ENDBRANCH  28  33
BRANCH  29  35
ATOM     35  C   UNL     1     -13.526  -1.401  16.191  1.00  0.00     0.191 C 
BRANCH  35  36
ATOM     36  O   UNL     1     -12.620  -1.259  17.252  1.00  0.00    -0.394 OA
ATOM     37  H   UNL     1     -12.717  -2.039  17.857  1.00  0.00     0.210 HD
ENDBRANCH  35  36
ENDBRANCH  29  35
BRANCH  30  38
ATOM     38  O   UNL     1     -12.123   0.870  15.238  1.00  0.00    -0.387 OA
ATOM     39  H   UNL     1     -11.203   0.620  15.523  1.00  0.00     0.211 HD
ENDBRANCH  30  38
ENDBRANCH   1  25
TORSDOF 11
ENDMDL
