MODEL 1
REMARK VINA RESULT:    -6.106      0.000      0.000
REMARK INTER + INTRA:          -7.472
REMARK INTER:                  -7.177
REMARK INTRA:                  -0.295
REMARK UNBOUND:                -0.295
REMARK SMILES O=c1cc(-c2ccc(O)c(O)c2)oc2cc(O)cc(O)c12
REMARK SMILES IDX 4 1 3 2 2 3 1 4 21 5 19 6 18 7 16 8 15 9 14 10 13 11 5 12
REMARK SMILES IDX 6 13 7 14 8 15 12 16 10 17 9 18 11 20 20 22 17 24
REMARK H PARENT 9 19 11 21 20 23 17 25
REMARK Flexibility Score: inf
ROOT
ATOM      1  C   UNL     1      22.436   1.452 158.995  1.00  0.00     0.138 A 
ATOM      2  C   UNL     1      21.767   0.269 159.334  1.00  0.00     0.100 A 
ATOM      3  C   UNL     1      21.162   0.151 160.586  1.00  0.00     0.197 A 
ATOM      4  O   UNL     1      20.522  -0.901 160.840  1.00  0.00    -0.289 OA
ATOM      5  C   UNL     1      21.261   1.214 161.517  1.00  0.00     0.107 A 
ATOM      6  C   UNL     1      20.712   1.194 162.836  1.00  0.00     0.134 A 
ATOM      7  C   UNL     1      20.788   2.345 163.631  1.00  0.00     0.093 A 
ATOM      8  C   UNL     1      21.441   3.494 163.179  1.00  0.00     0.123 A 
ATOM      9  C   UNL     1      22.023   3.505 161.913  1.00  0.00     0.094 A 
ATOM     10  C   UNL     1      21.934   2.387 161.082  1.00  0.00     0.146 A 
ATOM     11  O   UNL     1      22.487   2.447 159.874  1.00  0.00    -0.456 OA
ENDROOT
BRANCH   1  12
ATOM     12  C   UNL     1      23.100   1.630 157.678  1.00  0.00     0.021 A 
ATOM     13  C   UNL     1      23.727   2.840 157.323  1.00  0.00     0.016 A 
ATOM     14  C   UNL     1      24.352   2.975 156.080  1.00  0.00     0.051 A 
ATOM     15  C   UNL     1      24.369   1.906 155.177  1.00  0.00     0.157 A 
ATOM     16  C   UNL     1      23.134   0.558 156.770  1.00  0.00     0.062 A 
ATOM     17  C   UNL     1      23.760   0.691 155.525  1.00  0.00     0.158 A 
BRANCH  15  18
ATOM     18  O   UNL     1      24.993   2.046 153.938  1.00  0.00    -0.504 OA
ATOM     19  H   UNL     1      24.504   2.428 153.137  1.00  0.00     0.293 HD
ENDBRANCH  15  18
BRANCH  17  20
ATOM     20  O   UNL     1      23.763  -0.394 154.649  1.00  0.00    -0.504 OA
ATOM     21  H   UNL     1      24.580  -0.647 154.108  1.00  0.00     0.293 HD
ENDBRANCH  17  20
ENDBRANCH   1  12
BRANCH   6  22
ATOM     22  O   UNL     1      20.109   0.075 163.417  1.00  0.00    -0.507 OA
ATOM     23  H   UNL     1      19.119  -0.036 163.569  1.00  0.00     0.293 HD
ENDBRANCH   6  22
BRANCH   8  24
ATOM     24  O   UNL     1      21.525   4.627 163.983  1.00  0.00    -0.508 OA
ATOM     25  H   UNL     1      20.833   4.822 164.698  1.00  0.00     0.293 HD
ENDBRANCH   8  24
TORSDOF 5
ENDMDL
MODEL 2
REMARK VINA RESULT:    -5.833     13.813     15.719
REMARK INTER + INTRA:          -7.151
REMARK INTER:                  -6.860
REMARK INTRA:                  -0.291
REMARK UNBOUND:                -0.295
REMARK SMILES O=c1cc(-c2ccc(O)c(O)c2)oc2cc(O)cc(O)c12
REMARK SMILES IDX 4 1 3 2 2 3 1 4 21 5 19 6 18 7 16 8 15 9 14 10 13 11 5 12
REMARK SMILES IDX 6 13 7 14 8 15 12 16 10 17 9 18 11 20 20 22 17 24
REMARK H PARENT 9 19 11 21 20 23 17 25
REMARK Flexibility Score: inf
ROOT
ATOM      1  C   UNL     1      17.791  16.401 161.951  1.00  0.00     0.138 A 
ATOM      2  C   UNL     1      16.816  17.324 161.549  1.00  0.00     0.100 A 
ATOM      3  C   UNL     1      15.530  17.248 162.085  1.00  0.00     0.197 A 
ATOM      4  O   UNL     1      14.694  18.125 161.747  1.00  0.00    -0.289 OA
ATOM      5  C   UNL     1      15.210  16.217 163.002  1.00  0.00     0.107 A 
ATOM      6  C   UNL     1      13.922  16.021 163.588  1.00  0.00     0.134 A 
ATOM      7  C   UNL     1      13.752  15.026 164.559  1.00  0.00     0.093 A 
ATOM      8  C   UNL     1      14.805  14.183 164.922  1.00  0.00     0.123 A 
ATOM      9  C   UNL     1      16.052  14.335 164.319  1.00  0.00     0.094 A 
ATOM     10  C   UNL     1      16.264  15.341 163.374  1.00  0.00     0.146 A 
ATOM     11  O   UNL     1      17.474  15.463 162.836  1.00  0.00    -0.456 OA
ENDROOT
BRANCH   1  12
ATOM     12  C   UNL     1      19.174  16.433 161.410  1.00  0.00     0.021 A 
ATOM     13  C   UNL     1      19.919  17.626 161.355  1.00  0.00     0.016 A 
ATOM     14  C   UNL     1      21.223  17.624 160.850  1.00  0.00     0.051 A 
ATOM     15  C   UNL     1      21.805  16.434 160.401  1.00  0.00     0.157 A 
ATOM     16  C   UNL     1      19.772  15.240 160.969  1.00  0.00     0.062 A 
ATOM     17  C   UNL     1      21.077  15.236 160.463  1.00  0.00     0.158 A 
BRANCH  15  18
ATOM     18  O   UNL     1      23.105  16.436 159.897  1.00  0.00    -0.504 OA
ATOM     19  H   UNL     1      23.298  16.659 158.928  1.00  0.00     0.293 HD
ENDBRANCH  15  18
BRANCH  17  20
ATOM     20  O   UNL     1      21.631  14.032 160.027  1.00  0.00    -0.504 OA
ATOM     21  H   UNL     1      21.231  13.135 160.273  1.00  0.00     0.293 HD
ENDBRANCH  17  20
ENDBRANCH   1  12
BRANCH   6  22
ATOM     22  O   UNL     1      12.783  16.752 163.240  1.00  0.00    -0.507 OA
ATOM     23  H   UNL     1      11.833  16.433 163.352  1.00  0.00     0.293 HD
ENDBRANCH   6  22
BRANCH   8  24
ATOM     24  O   UNL     1      14.622  13.187 165.877  1.00  0.00    -0.508 OA
ATOM     25  H   UNL     1      13.704  12.974 166.252  1.00  0.00     0.293 HD
ENDBRANCH   8  24
TORSDOF 5
ENDMDL
MODEL 3
REMARK VINA RESULT:    -5.800     13.867     15.591
REMARK INTER + INTRA:          -7.112
REMARK INTER:                  -6.834
REMARK INTRA:                  -0.278
REMARK UNBOUND:                -0.295
REMARK SMILES O=c1cc(-c2ccc(O)c(O)c2)oc2cc(O)cc(O)c12
REMARK SMILES IDX 4 1 3 2 2 3 1 4 21 5 19 6 18 7 16 8 15 9 14 10 13 11 5 12
REMARK SMILES IDX 6 13 7 14 8 15 12 16 10 17 9 18 11 20 20 22 17 24
REMARK H PARENT 9 19 11 21 20 23 17 25
REMARK Flexibility Score: inf
ROOT
ATOM      1  C   UNL     1      18.342  15.930 162.237  1.00  0.00     0.138 A 
ATOM      2  C   UNL     1      18.234  14.758 162.998  1.00  0.00     0.100 A 
ATOM      3  C   UNL     1      17.034  14.461 163.644  1.00  0.00     0.197 A 
ATOM      4  O   UNL     1      16.950  13.375 164.273  1.00  0.00    -0.289 OA
ATOM      5  C   UNL     1      15.946  15.364 163.557  1.00  0.00     0.107 A 
ATOM      6  C   UNL     1      14.684  15.184 164.202  1.00  0.00     0.134 A 
ATOM      7  C   UNL     1      13.650  16.097 163.960  1.00  0.00     0.093 A 
ATOM      8  C   UNL     1      13.849  17.214 163.145  1.00  0.00     0.123 A 
ATOM      9  C   UNL     1      15.092  17.425 162.552  1.00  0.00     0.094 A 
ATOM     10  C   UNL     1      16.132  16.515 162.744  1.00  0.00     0.146 A 
ATOM     11  O   UNL     1      17.297  16.745 162.145  1.00  0.00    -0.456 OA
ENDROOT
BRANCH   1  12
ATOM     12  C   UNL     1      19.596  16.296 161.531  1.00  0.00     0.021 A 
ATOM     13  C   UNL     1      20.088  17.615 161.534  1.00  0.00     0.016 A 
ATOM     14  C   UNL     1      21.277  17.929 160.868  1.00  0.00     0.051 A 
ATOM     15  C   UNL     1      21.996  16.933 160.197  1.00  0.00     0.157 A 
ATOM     16  C   UNL     1      20.332  15.300 160.866  1.00  0.00     0.062 A 
ATOM     17  C   UNL     1      21.522  15.612 160.199  1.00  0.00     0.158 A 
BRANCH  15  18
ATOM     18  O   UNL     1      23.181  17.250 159.534  1.00  0.00    -0.504 OA
ATOM     19  H   UNL     1      23.984  17.619 160.029  1.00  0.00     0.293 HD
ENDBRANCH  15  18
BRANCH  17  20
ATOM     20  O   UNL     1      22.217  14.596 159.543  1.00  0.00    -0.504 OA
ATOM     21  H   UNL     1      23.028  14.783 158.966  1.00  0.00     0.293 HD
ENDBRANCH  17  20
ENDBRANCH   1  12
BRANCH   6  22
ATOM     22  O   UNL     1      14.403  14.148 165.097  1.00  0.00    -0.507 OA
ATOM     23  H   UNL     1      14.832  13.236 165.082  1.00  0.00     0.293 HD
ENDBRANCH   6  22
BRANCH   8  24
ATOM     24  O   UNL     1      12.819  18.125 162.924  1.00  0.00    -0.508 OA
ATOM     25  H   UNL     1      12.266  18.496 163.688  1.00  0.00     0.293 HD
ENDBRANCH   8  24
TORSDOF 5
ENDMDL
MODEL 4
REMARK VINA RESULT:    -5.800      4.943      7.553
REMARK INTER + INTRA:          -7.111
REMARK INTER:                  -6.826
REMARK INTRA:                  -0.286
REMARK UNBOUND:                -0.295
REMARK SMILES O=c1cc(-c2ccc(O)c(O)c2)oc2cc(O)cc(O)c12
REMARK SMILES IDX 4 1 3 2 2 3 1 4 21 5 19 6 18 7 16 8 15 9 14 10 13 11 5 12
REMARK SMILES IDX 6 13 7 14 8 15 12 16 10 17 9 18 11 20 20 22 17 24
REMARK H PARENT 9 19 11 21 20 23 17 25
REMARK Flexibility Score: inf
ROOT
ATOM      1  C   UNL     1      27.513   2.993 158.261  1.00  0.00     0.138 A 
ATOM      2  C   UNL     1      27.764   2.938 156.883  1.00  0.00     0.100 A 
ATOM      3  C   UNL     1      26.713   2.694 155.999  1.00  0.00     0.197 A 
ATOM      4  O   UNL     1      26.960   2.706 154.766  1.00  0.00    -0.289 OA
ATOM      5  C   UNL     1      25.408   2.469 156.501  1.00  0.00     0.107 A 
ATOM      6  C   UNL     1      24.265   2.177 155.696  1.00  0.00     0.134 A 
ATOM      7  C   UNL     1      23.006   2.071 156.301  1.00  0.00     0.093 A 
ATOM      8  C   UNL     1      22.857   2.188 157.685  1.00  0.00     0.123 A 
ATOM      9  C   UNL     1      23.974   2.423 158.483  1.00  0.00     0.094 A 
ATOM     10  C   UNL     1      25.238   2.569 157.908  1.00  0.00     0.146 A 
ATOM     11  O   UNL     1      26.275   2.810 158.705  1.00  0.00    -0.456 OA
ENDROOT
BRANCH   1  12
ATOM     12  C   UNL     1      28.594   3.246 159.248  1.00  0.00     0.021 A 
ATOM     13  C   UNL     1      28.543   2.721 160.552  1.00  0.00     0.016 A 
ATOM     14  C   UNL     1      29.580   2.968 161.457  1.00  0.00     0.051 A 
ATOM     15  C   UNL     1      30.686   3.734 161.073  1.00  0.00     0.157 A 
ATOM     16  C   UNL     1      29.715   4.004 158.866  1.00  0.00     0.062 A 
ATOM     17  C   UNL     1      30.755   4.252 159.770  1.00  0.00     0.158 A 
BRANCH  15  18
ATOM     18  O   UNL     1      31.718   3.979 161.978  1.00  0.00    -0.504 OA
ATOM     19  H   UNL     1      32.202   4.868 162.002  1.00  0.00     0.293 HD
ENDBRANCH  15  18
BRANCH  17  20
ATOM     20  O   UNL     1      31.845   5.017 159.355  1.00  0.00    -0.504 OA
ATOM     21  H   UNL     1      32.433   5.517 160.010  1.00  0.00     0.293 HD
ENDBRANCH  17  20
ENDBRANCH   1  12
BRANCH   6  22
ATOM     22  O   UNL     1      24.313   1.962 154.317  1.00  0.00    -0.507 OA
ATOM     23  H   UNL     1      24.724   1.158 153.869  1.00  0.00     0.293 HD
ENDBRANCH   6  22
BRANCH   8  24
ATOM     24  O   UNL     1      21.603   2.066 158.278  1.00  0.00    -0.508 OA
ATOM     25  H   UNL     1      21.498   1.763 159.239  1.00  0.00     0.293 HD
ENDBRANCH   8  24
TORSDOF 5
ENDMDL
MODEL 5
REMARK VINA RESULT:    -5.681      2.761      7.751
REMARK INTER + INTRA:          -6.972
REMARK INTER:                  -6.699
REMARK INTRA:                  -0.273
REMARK UNBOUND:                -0.295
REMARK SMILES O=c1cc(-c2ccc(O)c(O)c2)oc2cc(O)cc(O)c12
REMARK SMILES IDX 4 1 3 2 2 3 1 4 21 5 19 6 18 7 16 8 15 9 14 10 13 11 5 12
REMARK SMILES IDX 6 13 7 14 8 15 12 16 10 17 9 18 11 20 20 22 17 24
REMARK H PARENT 9 19 11 21 20 23 17 25
REMARK Flexibility Score: inf
ROOT
ATOM      1  C   UNL     1      25.163   3.093 159.508  1.00  0.00     0.138 A 
ATOM      2  C   UNL     1      26.125   3.853 158.829  1.00  0.00     0.100 A 
ATOM      3  C   UNL     1      26.340   3.637 157.467  1.00  0.00     0.197 A 
ATOM      4  O   UNL     1      27.170   4.373 156.874  1.00  0.00    -0.289 OA
ATOM      5  C   UNL     1      25.612   2.628 156.791  1.00  0.00     0.107 A 
ATOM      6  C   UNL     1      25.772   2.296 155.411  1.00  0.00     0.134 A 
ATOM      7  C   UNL     1      24.924   1.345 154.829  1.00  0.00     0.093 A 
ATOM      8  C   UNL     1      23.962   0.674 155.588  1.00  0.00     0.123 A 
ATOM      9  C   UNL     1      23.833   0.956 156.946  1.00  0.00     0.094 A 
ATOM     10  C   UNL     1      24.639   1.924 157.549  1.00  0.00     0.146 A 
ATOM     11  O   UNL     1      24.471   2.174 158.843  1.00  0.00    -0.456 OA
ENDROOT
BRANCH   1  12
ATOM     12  C   UNL     1      24.895   3.278 160.957  1.00  0.00     0.021 A 
ATOM     13  C   UNL     1      25.844   2.928 161.936  1.00  0.00     0.016 A 
ATOM     14  C   UNL     1      25.567   3.122 163.292  1.00  0.00     0.051 A 
ATOM     15  C   UNL     1      24.345   3.675 163.693  1.00  0.00     0.157 A 
ATOM     16  C   UNL     1      23.676   3.844 161.368  1.00  0.00     0.062 A 
ATOM     17  C   UNL     1      23.396   4.039 162.725  1.00  0.00     0.158 A 
BRANCH  15  18
ATOM     18  O   UNL     1      24.073   3.866 165.047  1.00  0.00    -0.504 OA
ATOM     19  H   UNL     1      24.815   3.978 165.727  1.00  0.00     0.293 HD
ENDBRANCH  15  18
BRANCH  17  20
ATOM     20  O   UNL     1      22.171   4.595 163.092  1.00  0.00    -0.504 OA
ATOM     21  H   UNL     1      22.106   5.455 163.622  1.00  0.00     0.293 HD
ENDBRANCH  17  20
ENDBRANCH   1  12
BRANCH   6  22
ATOM     22  O   UNL     1      26.751   2.847 154.581  1.00  0.00    -0.507 OA
ATOM     23  H   UNL     1      27.477   2.325 154.114  1.00  0.00     0.293 HD
ENDBRANCH   6  22
BRANCH   8  24
ATOM     24  O   UNL     1      23.134  -0.281 155.003  1.00  0.00    -0.508 OA
ATOM     25  H   UNL     1      23.424  -0.803 154.184  1.00  0.00     0.293 HD
ENDBRANCH   8  24
TORSDOF 5
ENDMDL
MODEL 6
REMARK VINA RESULT:    -5.662      2.780      3.846
REMARK INTER + INTRA:          -6.950
REMARK INTER:                  -6.668
REMARK INTRA:                  -0.283
REMARK UNBOUND:                -0.295
REMARK SMILES O=c1cc(-c2ccc(O)c(O)c2)oc2cc(O)cc(O)c12
REMARK SMILES IDX 4 1 3 2 2 3 1 4 21 5 19 6 18 7 16 8 15 9 14 10 13 11 5 12
REMARK SMILES IDX 6 13 7 14 8 15 12 16 10 17 9 18 11 20 20 22 17 24
REMARK H PARENT 9 19 11 21 20 23 17 25
REMARK Flexibility Score: inf
ROOT
ATOM      1  C   UNL     1      24.999   2.877 159.854  1.00  0.00     0.138 A 
ATOM      2  C   UNL     1      26.164   2.535 160.553  1.00  0.00     0.100 A 
ATOM      3  C   UNL     1      26.245   2.777 161.924  1.00  0.00     0.197 A 
ATOM      4  O   UNL     1      27.281   2.407 162.533  1.00  0.00    -0.289 OA
ATOM      5  C   UNL     1      25.163   3.401 162.593  1.00  0.00     0.107 A 
ATOM      6  C   UNL     1      25.146   3.728 163.983  1.00  0.00     0.134 A 
ATOM      7  C   UNL     1      23.979   4.254 164.552  1.00  0.00     0.093 A 
ATOM      8  C   UNL     1      22.850   4.518 163.772  1.00  0.00     0.123 A 
ATOM      9  C   UNL     1      22.875   4.248 162.406  1.00  0.00     0.094 A 
ATOM     10  C   UNL     1      24.011   3.691 161.814  1.00  0.00     0.146 A 
ATOM     11  O   UNL     1      23.986   3.432 160.511  1.00  0.00    -0.456 OA
ENDROOT
BRANCH   1  12
ATOM     12  C   UNL     1      24.861   2.645 158.394  1.00  0.00     0.021 A 
ATOM     13  C   UNL     1      23.625   2.301 157.814  1.00  0.00     0.016 A 
ATOM     14  C   UNL     1      23.523   2.097 156.434  1.00  0.00     0.051 A 
ATOM     15  C   UNL     1      24.647   2.241 155.613  1.00  0.00     0.157 A 
ATOM     16  C   UNL     1      25.981   2.800 157.559  1.00  0.00     0.062 A 
ATOM     17  C   UNL     1      25.881   2.597 156.178  1.00  0.00     0.158 A 
BRANCH  15  18
ATOM     18  O   UNL     1      24.541   2.036 154.238  1.00  0.00    -0.504 OA
ATOM     19  H   UNL     1      24.610   2.803 153.580  1.00  0.00     0.293 HD
ENDBRANCH  15  18
BRANCH  17  20
ATOM     20  O   UNL     1      27.019   2.752 155.386  1.00  0.00    -0.504 OA
ATOM     21  H   UNL     1      26.986   2.684 154.377  1.00  0.00     0.293 HD
ENDBRANCH  17  20
ENDBRANCH   1  12
BRANCH   6  22
ATOM     22  O   UNL     1      26.242   3.580 164.837  1.00  0.00    -0.507 OA
ATOM     23  H   UNL     1      27.079   4.142 164.810  1.00  0.00     0.293 HD
ENDBRANCH   6  22
BRANCH   8  24
ATOM     24  O   UNL     1      21.700   5.056 164.345  1.00  0.00    -0.508 OA
ATOM     25  H   UNL     1      21.114   4.512 164.968  1.00  0.00     0.293 HD
ENDBRANCH   8  24
TORSDOF 5
ENDMDL
MODEL 7
REMARK VINA RESULT:    -5.523      2.170      7.169
REMARK INTER + INTRA:          -6.786
REMARK INTER:                  -6.493
REMARK INTRA:                  -0.293
REMARK UNBOUND:                -0.295
REMARK SMILES O=c1cc(-c2ccc(O)c(O)c2)oc2cc(O)cc(O)c12
REMARK SMILES IDX 4 1 3 2 2 3 1 4 21 5 19 6 18 7 16 8 15 9 14 10 13 11 5 12
REMARK SMILES IDX 6 13 7 14 8 15 12 16 10 17 9 18 11 20 20 22 17 24
REMARK H PARENT 9 19 11 21 20 23 17 25
REMARK Flexibility Score: inf
ROOT
ATOM      1  C   UNL     1      23.319   2.402 159.602  1.00  0.00     0.138 A 
ATOM      2  C   UNL     1      22.850   1.927 158.370  1.00  0.00     0.100 A 
ATOM      3  C   UNL     1      23.661   2.018 157.239  1.00  0.00     0.197 A 
ATOM      4  O   UNL     1      23.232   1.533 156.161  1.00  0.00    -0.289 OA
ATOM      5  C   UNL     1      24.938   2.624 157.336  1.00  0.00     0.107 A 
ATOM      6  C   UNL     1      25.838   2.803 156.242  1.00  0.00     0.134 A 
ATOM      7  C   UNL     1      27.116   3.326 156.480  1.00  0.00     0.093 A 
ATOM      8  C   UNL     1      27.504   3.729 157.760  1.00  0.00     0.123 A 
ATOM      9  C   UNL     1      26.613   3.605 158.825  1.00  0.00     0.094 A 
ATOM     10  C   UNL     1      25.346   3.054 158.627  1.00  0.00     0.146 A 
ATOM     11  O   UNL     1      24.534   2.936 159.673  1.00  0.00    -0.456 OA
ENDROOT
BRANCH   1  12
ATOM     12  C   UNL     1      22.498   2.332 160.837  1.00  0.00     0.021 A 
ATOM     13  C   UNL     1      21.801   1.164 161.197  1.00  0.00     0.016 A 
ATOM     14  C   UNL     1      21.042   1.125 162.371  1.00  0.00     0.051 A 
ATOM     15  C   UNL     1      20.974   2.245 163.206  1.00  0.00     0.157 A 
ATOM     16  C   UNL     1      22.434   3.449 161.689  1.00  0.00     0.062 A 
ATOM     17  C   UNL     1      21.675   3.412 162.865  1.00  0.00     0.158 A 
BRANCH  15  18
ATOM     18  O   UNL     1      20.216   2.203 164.376  1.00  0.00    -0.504 OA
ATOM     19  H   UNL     1      19.273   2.572 164.410  1.00  0.00     0.293 HD
ENDBRANCH  15  18
BRANCH  17  20
ATOM     20  O   UNL     1      21.630   4.544 163.678  1.00  0.00    -0.504 OA
ATOM     21  H   UNL     1      21.320   4.504 164.640  1.00  0.00     0.293 HD
ENDBRANCH  17  20
ENDBRANCH   1  12
BRANCH   6  22
ATOM     22  O   UNL     1      25.525   2.509 154.913  1.00  0.00    -0.507 OA
ATOM     23  H   UNL     1      25.131   3.160 154.251  1.00  0.00     0.293 HD
ENDBRANCH   6  22
BRANCH   8  24
ATOM     24  O   UNL     1      28.771   4.263 157.984  1.00  0.00    -0.508 OA
ATOM     25  H   UNL     1      29.605   3.690 157.924  1.00  0.00     0.293 HD
ENDBRANCH   8  24
TORSDOF 5
ENDMDL
MODEL 8
REMARK VINA RESULT:    -5.463      2.710      7.612
REMARK INTER + INTRA:          -6.716
REMARK INTER:                  -6.401
REMARK INTRA:                  -0.314
REMARK UNBOUND:                -0.295
REMARK SMILES O=c1cc(-c2ccc(O)c(O)c2)oc2cc(O)cc(O)c12
REMARK SMILES IDX 4 1 3 2 2 3 1 4 21 5 19 6 18 7 16 8 15 9 14 10 13 11 5 12
REMARK SMILES IDX 6 13 7 14 8 15 12 16 10 17 9 18 11 20 20 22 17 24
REMARK H PARENT 9 19 11 21 20 23 17 25
REMARK Flexibility Score: inf
ROOT
ATOM      1  C   UNL     1      25.007   3.066 160.217  1.00  0.00     0.138 A 
ATOM      2  C   UNL     1      26.388   2.854 160.319  1.00  0.00     0.100 A 
ATOM      3  C   UNL     1      27.118   2.497 159.185  1.00  0.00     0.197 A 
ATOM      4  O   UNL     1      28.364   2.369 159.297  1.00  0.00    -0.289 OA
ATOM      5  C   UNL     1      26.452   2.317 157.948  1.00  0.00     0.107 A 
ATOM      6  C   UNL     1      27.088   1.921 156.732  1.00  0.00     0.134 A 
ATOM      7  C   UNL     1      26.341   1.873 155.548  1.00  0.00     0.093 A 
ATOM      8  C   UNL     1      24.971   2.148 155.546  1.00  0.00     0.123 A 
ATOM      9  C   UNL     1      24.332   2.486 156.737  1.00  0.00     0.094 A 
ATOM     10  C   UNL     1      25.056   2.578 157.928  1.00  0.00     0.146 A 
ATOM     11  O   UNL     1      24.411   2.922 159.038  1.00  0.00    -0.456 OA
ENDROOT
BRANCH   1  12
ATOM     12  C   UNL     1      24.180   3.444 161.392  1.00  0.00     0.021 A 
ATOM     13  C   UNL     1      24.757   3.958 162.568  1.00  0.00     0.016 A 
ATOM     14  C   UNL     1      23.953   4.314 163.655  1.00  0.00     0.051 A 
ATOM     15  C   UNL     1      22.563   4.170 163.583  1.00  0.00     0.157 A 
ATOM     16  C   UNL     1      22.782   3.315 161.324  1.00  0.00     0.062 A 
ATOM     17  C   UNL     1      21.975   3.670 162.411  1.00  0.00     0.158 A 
BRANCH  15  18
ATOM     18  O   UNL     1      21.765   4.525 164.670  1.00  0.00    -0.504 OA
ATOM     19  H   UNL     1      22.169   4.820 165.551  1.00  0.00     0.293 HD
ENDBRANCH  15  18
BRANCH  17  20
ATOM     20  O   UNL     1      20.593   3.518 162.307  1.00  0.00    -0.504 OA
ATOM     21  H   UNL     1      19.949   4.256 162.563  1.00  0.00     0.293 HD
ENDBRANCH  17  20
ENDBRANCH   1  12
BRANCH   6  22
ATOM     22  O   UNL     1      28.431   1.548 156.635  1.00  0.00    -0.507 OA
ATOM     23  H   UNL     1      28.820   0.685 156.983  1.00  0.00     0.293 HD
ENDBRANCH   6  22
BRANCH   8  24
ATOM     24  O   UNL     1      24.234   2.081 154.367  1.00  0.00    -0.508 OA
ATOM     25  H   UNL     1      24.500   2.611 153.545  1.00  0.00     0.293 HD
ENDBRANCH   8  24
TORSDOF 5
ENDMDL
MODEL 9
REMARK VINA RESULT:    -5.306      1.950      2.894
REMARK INTER + INTRA:          -6.531
REMARK INTER:                  -6.269
REMARK INTRA:                  -0.262
REMARK UNBOUND:                -0.295
REMARK SMILES O=c1cc(-c2ccc(O)c(O)c2)oc2cc(O)cc(O)c12
REMARK SMILES IDX 4 1 3 2 2 3 1 4 21 5 19 6 18 7 16 8 15 9 14 10 13 11 5 12
REMARK SMILES IDX 6 13 7 14 8 15 12 16 10 17 9 18 11 20 20 22 17 24
REMARK H PARENT 9 19 11 21 20 23 17 25
REMARK Flexibility Score: inf
ROOT
ATOM      1  C   UNL     1      23.300   2.000 159.409  1.00  0.00     0.138 A 
ATOM      2  C   UNL     1      21.978   2.365 159.692  1.00  0.00     0.100 A 
ATOM      3  C   UNL     1      21.680   3.011 160.892  1.00  0.00     0.197 A 
ATOM      4  O   UNL     1      20.493   3.376 161.091  1.00  0.00    -0.289 OA
ATOM      5  C   UNL     1      22.710   3.261 161.831  1.00  0.00     0.107 A 
ATOM      6  C   UNL     1      22.519   3.882 163.103  1.00  0.00     0.134 A 
ATOM      7  C   UNL     1      23.632   4.166 163.905  1.00  0.00     0.093 A 
ATOM      8  C   UNL     1      24.921   3.799 163.508  1.00  0.00     0.123 A 
ATOM      9  C   UNL     1      25.111   3.147 162.292  1.00  0.00     0.094 A 
ATOM     10  C   UNL     1      24.026   2.882 161.453  1.00  0.00     0.146 A 
ATOM     11  O   UNL     1      24.254   2.274 160.293  1.00  0.00    -0.456 OA
ENDROOT
BRANCH   1  12
ATOM     12  C   UNL     1      23.674   1.308 158.149  1.00  0.00     0.021 A 
ATOM     13  C   UNL     1      23.925  -0.076 158.112  1.00  0.00     0.016 A 
ATOM     14  C   UNL     1      24.265  -0.703 156.910  1.00  0.00     0.051 A 
ATOM     15  C   UNL     1      24.352   0.039 155.726  1.00  0.00     0.157 A 
ATOM     16  C   UNL     1      23.750   2.042 156.953  1.00  0.00     0.062 A 
ATOM     17  C   UNL     1      24.091   1.418 155.748  1.00  0.00     0.158 A 
BRANCH  15  18
ATOM     18  O   UNL     1      24.693  -0.589 154.529  1.00  0.00    -0.504 OA
ATOM     19  H   UNL     1      24.823  -0.064 153.672  1.00  0.00     0.293 HD
ENDBRANCH  15  18
BRANCH  17  20
ATOM     20  O   UNL     1      24.165   2.184 154.585  1.00  0.00    -0.504 OA
ATOM     21  H   UNL     1      23.434   2.173 153.885  1.00  0.00     0.293 HD
ENDBRANCH  17  20
ENDBRANCH   1  12
BRANCH   6  22
ATOM     22  O   UNL     1      21.270   4.218 163.631  1.00  0.00    -0.507 OA
ATOM     23  H   UNL     1      20.570   3.557 163.931  1.00  0.00     0.293 HD
ENDBRANCH   6  22
BRANCH   8  24
ATOM     24  O   UNL     1      26.019   4.071 164.320  1.00  0.00    -0.508 OA
ATOM     25  H   UNL     1      26.922   4.310 163.927  1.00  0.00     0.293 HD
ENDBRANCH   8  24
TORSDOF 5
ENDMDL
