MODEL 1
REMARK VINA RESULT:    -8.121      0.000      0.000
REMARK INTER + INTRA:          -9.027
REMARK INTER:                  -8.834
REMARK INTRA:                  -0.193
REMARK UNBOUND:                -0.193
REMARK SMILES C[C@@H]1[C@H]2C3=CC[C@H]4[C@]5(C)CC[C@H](O)C(C)(C)[C@@H]5CC[C@]4(C)[C@]3(C)CC[C@@]2(C(=O)[O-])CC[C@@H]1C
REMARK SMILES IDX 26 1 30 2 25 3 3 4 31 5 24 6 4 7 2 8 32 9 22 10 5 11 1 12
REMARK SMILES IDX 33 13 23 14 20 15 6 16 7 17 19 18 21 19 8 20 18 21 17 22
REMARK SMILES IDX 10 23 9 24 14 25 11 26 12 27 15 28 16 29 27 30 28 31 29 32
REMARK SMILES IDX 13 33
REMARK H PARENT 13 34
REMARK Flexibility Score: inf
ROOT
ATOM      1  C   UNL     1      17.783 -25.108 -28.422  1.00  0.00     0.017 C 
ATOM      2  C   UNL     1      16.630 -26.159 -28.488  1.00  0.00     0.014 C 
ATOM      3  C   UNL     1      17.210 -23.719 -28.034  1.00  0.00     0.014 C 
ATOM      4  C   UNL     1      18.542 -25.021 -29.795  1.00  0.00     0.030 C 
ATOM      5  C   UNL     1      15.736 -26.032 -29.723  1.00  0.00     0.004 C 
ATOM      6  C   UNL     1      18.300 -22.623 -27.968  1.00  0.00     0.013 C 
ATOM      7  C   UNL     1      19.530 -23.837 -29.792  1.00  0.00    -0.063 C 
ATOM      8  C   UNL     1      17.629 -25.024 -31.063  1.00  0.00    -0.003 C 
ATOM      9  C   UNL     1      16.545 -26.137 -31.026  1.00  0.00    -0.011 C 
ATOM     10  C   UNL     1      19.096 -22.414 -29.306  1.00  0.00    -0.006 C 
ATOM     11  C   UNL     1      20.829 -24.165 -30.023  1.00  0.00    -0.027 C 
ATOM     12  C   UNL     1      18.463 -25.088 -32.361  1.00  0.00     0.008 C 
ATOM     13  C   UNL     1      17.090 -27.565 -31.250  1.00  0.00     0.008 C 
ATOM     14  C   UNL     1      18.122 -21.762 -30.333  1.00  0.00     0.017 C 
ATOM     15  C   UNL     1      20.379 -21.434 -29.111  1.00  0.00    -0.020 C 
ATOM     16  C   UNL     1      22.001 -23.347 -29.570  1.00  0.00     0.032 C 
ATOM     17  C   UNL     1      21.575 -22.283 -28.530  1.00  0.00     0.006 C 
ATOM     18  C   UNL     1      20.064 -20.220 -28.165  1.00  0.00     0.008 C 
ATOM     19  C   UNL     1      20.806 -20.832 -30.492  1.00  0.00     0.012 C 
ATOM     20  C   UNL     1      22.764 -21.534 -27.761  1.00  0.00    -0.025 C 
ATOM     21  C   UNL     1      20.653 -20.363 -26.754  1.00  0.00     0.005 C 
ATOM     22  C   UNL     1      22.199 -20.331 -26.858  1.00  0.00     0.003 C 
ATOM     23  C   UNL     1      23.491 -22.645 -26.917  1.00  0.00     0.010 C 
ATOM     24  C   UNL     1      23.816 -20.964 -28.764  1.00  0.00     0.012 C 
ATOM     25  C   UNL     1      22.966 -20.014 -25.494  1.00  0.00    -0.006 C 
ATOM     26  C   UNL     1      24.347 -22.133 -25.764  1.00  0.00     0.033 C 
ATOM     27  C   UNL     1      23.501 -21.298 -24.801  1.00  0.00     0.120 C 
ATOM     28  C   UNL     1      22.091 -19.253 -24.457  1.00  0.00     0.014 C 
ATOM     29  C   UNL     1      24.160 -19.054 -25.792  1.00  0.00     0.014 C 
ENDROOT
BRANCH   1  30
ATOM     30  C   UNL     1      18.715 -25.559 -27.294  1.00  0.00     0.048 C 
ATOM     31  O   UNL     1      19.638 -26.383 -27.551  1.00  0.00    -0.550 OA
ATOM     32  O   UNL     1      18.444 -25.257 -25.972  1.00  0.00    -0.550 OA
ENDBRANCH   1  30
BRANCH  27  33
ATOM     33  O   UNL     1      22.433 -22.066 -24.296  1.00  0.00    -0.393 OA
ATOM     34  H   UNL     1      22.086 -21.583 -23.497  1.00  0.00     0.210 HD
ENDBRANCH  27  33
TORSDOF 2
ENDMDL
MODEL 2
REMARK VINA RESULT:    -8.019      1.689      7.341
REMARK INTER + INTRA:          -8.915
REMARK INTER:                  -8.725
REMARK INTRA:                  -0.191
REMARK UNBOUND:                -0.193
REMARK SMILES C[C@@H]1[C@H]2C3=CC[C@H]4[C@]5(C)CC[C@H](O)C(C)(C)[C@@H]5CC[C@]4(C)[C@]3(C)CC[C@@]2(C(=O)[O-])CC[C@@H]1C
REMARK SMILES IDX 26 1 30 2 25 3 3 4 31 5 24 6 4 7 2 8 32 9 22 10 5 11 1 12
REMARK SMILES IDX 33 13 23 14 20 15 6 16 7 17 19 18 21 19 8 20 18 21 17 22
REMARK SMILES IDX 10 23 9 24 14 25 11 26 12 27 15 28 16 29 27 30 28 31 29 32
REMARK SMILES IDX 13 33
REMARK H PARENT 13 34
REMARK Flexibility Score: inf
ROOT
ATOM      1  C   UNL     1      21.640 -19.991 -25.694  1.00  0.00     0.017 C 
ATOM      2  C   UNL     1      22.286 -19.095 -24.590  1.00  0.00     0.014 C 
ATOM      3  C   UNL     1      22.476 -21.284 -25.881  1.00  0.00     0.014 C 
ATOM      4  C   UNL     1      21.530 -19.211 -27.053  1.00  0.00     0.030 C 
ATOM      5  C   UNL     1      23.558 -18.372 -25.034  1.00  0.00     0.004 C 
ATOM      6  C   UNL     1      21.900 -22.212 -26.977  1.00  0.00     0.013 C 
ATOM      7  C   UNL     1      21.096 -20.163 -28.188  1.00  0.00    -0.063 C 
ATOM      8  C   UNL     1      22.785 -18.366 -27.441  1.00  0.00    -0.003 C 
ATOM      9  C   UNL     1      23.311 -17.491 -26.270  1.00  0.00    -0.011 C 
ATOM     10  C   UNL     1      21.788 -21.550 -28.397  1.00  0.00    -0.006 C 
ATOM     11  C   UNL     1      19.951 -19.812 -28.831  1.00  0.00    -0.027 C 
ATOM     12  C   UNL     1      22.529 -17.521 -28.709  1.00  0.00     0.008 C 
ATOM     13  C   UNL     1      22.424 -16.271 -25.937  1.00  0.00     0.008 C 
ATOM     14  C   UNL     1      23.236 -21.360 -28.940  1.00  0.00     0.017 C 
ATOM     15  C   UNL     1      20.957 -22.479 -29.443  1.00  0.00    -0.020 C 
ATOM     16  C   UNL     1      19.062 -20.776 -29.560  1.00  0.00     0.032 C 
ATOM     17  C   UNL     1      19.416 -22.242 -29.209  1.00  0.00     0.006 C 
ATOM     18  C   UNL     1      21.302 -24.004 -29.292  1.00  0.00     0.008 C 
ATOM     19  C   UNL     1      21.316 -22.077 -30.914  1.00  0.00     0.012 C 
ATOM     20  C   UNL     1      18.371 -23.354 -29.696  1.00  0.00    -0.025 C 
ATOM     21  C   UNL     1      20.221 -24.816 -28.565  1.00  0.00     0.005 C 
ATOM     22  C   UNL     1      18.942 -24.833 -29.441  1.00  0.00     0.003 C 
ATOM     23  C   UNL     1      17.042 -23.065 -28.905  1.00  0.00     0.010 C 
ATOM     24  C   UNL     1      18.040 -23.193 -31.214  1.00  0.00     0.012 C 
ATOM     25  C   UNL     1      17.887 -25.976 -29.081  1.00  0.00    -0.006 C 
ATOM     26  C   UNL     1      16.057 -24.226 -28.838  1.00  0.00     0.033 C 
ATOM     27  C   UNL     1      16.719 -25.451 -28.202  1.00  0.00     0.120 C 
ATOM     28  C   UNL     1      18.521 -27.189 -28.341  1.00  0.00     0.014 C 
ATOM     29  C   UNL     1      17.309 -26.571 -30.404  1.00  0.00     0.014 C 
ENDROOT
BRANCH   1  30
ATOM     30  C   UNL     1      20.262 -20.399 -25.168  1.00  0.00     0.048 C 
ATOM     31  O   UNL     1      19.264 -19.666 -25.423  1.00  0.00    -0.550 OA
ATOM     32  O   UNL     1      20.115 -21.423 -24.250  1.00  0.00    -0.550 OA
ENDBRANCH   1  30
BRANCH  27  33
ATOM     33  O   UNL     1      17.179 -25.141 -26.907  1.00  0.00    -0.393 OA
ATOM     34  H   UNL     1      16.418 -24.712 -26.429  1.00  0.00     0.210 HD
ENDBRANCH  27  33
TORSDOF 2
ENDMDL
MODEL 3
REMARK VINA RESULT:    -7.662      2.541      7.546
REMARK INTER + INTRA:          -8.527
REMARK INTER:                  -8.332
REMARK INTRA:                  -0.195
REMARK UNBOUND:                -0.193
REMARK SMILES C[C@@H]1[C@H]2C3=CC[C@H]4[C@]5(C)CC[C@H](O)C(C)(C)[C@@H]5CC[C@]4(C)[C@]3(C)CC[C@@]2(C(=O)[O-])CC[C@@H]1C
REMARK SMILES IDX 26 1 30 2 25 3 3 4 31 5 24 6 4 7 2 8 32 9 22 10 5 11 1 12
REMARK SMILES IDX 33 13 23 14 20 15 6 16 7 17 19 18 21 19 8 20 18 21 17 22
REMARK SMILES IDX 10 23 9 24 14 25 11 26 12 27 15 28 16 29 27 30 28 31 29 32
REMARK SMILES IDX 13 33
REMARK H PARENT 13 34
REMARK Flexibility Score: inf
ROOT
ATOM      1  C   UNL     1      19.614 -22.265 -27.101  1.00  0.00     0.017 C 
ATOM      2  C   UNL     1      20.424 -21.396 -26.088  1.00  0.00     0.014 C 
ATOM      3  C   UNL     1      18.418 -21.450 -27.659  1.00  0.00     0.014 C 
ATOM      4  C   UNL     1      19.104 -23.587 -26.423  1.00  0.00     0.030 C 
ATOM      5  C   UNL     1      19.740 -21.214 -24.732  1.00  0.00     0.004 C 
ATOM      6  C   UNL     1      17.559 -22.260 -28.659  1.00  0.00     0.013 C 
ATOM      7  C   UNL     1      18.129 -24.333 -27.357  1.00  0.00    -0.063 C 
ATOM      8  C   UNL     1      18.525 -23.417 -24.981  1.00  0.00    -0.003 C 
ATOM      9  C   UNL     1      19.438 -22.563 -24.059  1.00  0.00    -0.011 C 
ATOM     10  C   UNL     1      16.955 -23.586 -28.073  1.00  0.00    -0.006 C 
ATOM     11  C   UNL     1      18.492 -25.602 -27.680  1.00  0.00    -0.027 C 
ATOM     12  C   UNL     1      18.190 -24.782 -24.341  1.00  0.00     0.008 C 
ATOM     13  C   UNL     1      20.730 -23.278 -23.602  1.00  0.00     0.008 C 
ATOM     14  C   UNL     1      15.857 -23.184 -27.042  1.00  0.00     0.017 C 
ATOM     15  C   UNL     1      16.273 -24.512 -29.224  1.00  0.00    -0.020 C 
ATOM     16  C   UNL     1      18.045 -26.321 -28.918  1.00  0.00     0.032 C 
ATOM     17  C   UNL     1      17.408 -25.343 -29.936  1.00  0.00     0.006 C 
ATOM     18  C   UNL     1      15.477 -23.663 -30.279  1.00  0.00     0.008 C 
ATOM     19  C   UNL     1      15.248 -25.503 -28.574  1.00  0.00     0.012 C 
ATOM     20  C   UNL     1      17.145 -25.927 -31.403  1.00  0.00    -0.025 C 
ATOM     21  C   UNL     1      16.206 -23.496 -31.619  1.00  0.00     0.005 C 
ATOM     22  C   UNL     1      16.315 -24.884 -32.300  1.00  0.00     0.003 C 
ATOM     23  C   UNL     1      18.567 -26.247 -31.996  1.00  0.00     0.010 C 
ATOM     24  C   UNL     1      16.364 -27.278 -31.343  1.00  0.00     0.012 C 
ATOM     25  C   UNL     1      16.624 -24.852 -33.865  1.00  0.00    -0.006 C 
ATOM     26  C   UNL     1      18.628 -26.377 -33.513  1.00  0.00     0.033 C 
ATOM     27  C   UNL     1      18.126 -25.095 -34.180  1.00  0.00     0.120 C 
ATOM     28  C   UNL     1      16.215 -23.514 -34.547  1.00  0.00     0.014 C 
ATOM     29  C   UNL     1      15.766 -25.944 -34.578  1.00  0.00     0.014 C 
ENDROOT
BRANCH   1  30
ATOM     30  C   UNL     1      20.559 -22.562 -28.268  1.00  0.00     0.048 C 
ATOM     31  O   UNL     1      21.299 -23.585 -28.215  1.00  0.00    -0.550 OA
ATOM     32  O   UNL     1      20.779 -21.636 -29.271  1.00  0.00    -0.550 OA
ENDBRANCH   1  30
BRANCH  27  33
ATOM     33  O   UNL     1      18.900 -23.993 -33.765  1.00  0.00    -0.393 OA
ATOM     34  H   UNL     1      18.538 -23.195 -34.237  1.00  0.00     0.210 HD
ENDBRANCH  27  33
TORSDOF 2
ENDMDL
MODEL 4
REMARK VINA RESULT:    -7.563      1.303      7.505
REMARK INTER + INTRA:          -8.419
REMARK INTER:                  -8.229
REMARK INTRA:                  -0.190
REMARK UNBOUND:                -0.193
REMARK SMILES C[C@@H]1[C@H]2C3=CC[C@H]4[C@]5(C)CC[C@H](O)C(C)(C)[C@@H]5CC[C@]4(C)[C@]3(C)CC[C@@]2(C(=O)[O-])CC[C@@H]1C
REMARK SMILES IDX 26 1 30 2 25 3 3 4 31 5 24 6 4 7 2 8 32 9 22 10 5 11 1 12
REMARK SMILES IDX 33 13 23 14 20 15 6 16 7 17 19 18 21 19 8 20 18 21 17 22
REMARK SMILES IDX 10 23 9 24 14 25 11 26 12 27 15 28 16 29 27 30 28 31 29 32
REMARK SMILES IDX 13 33
REMARK H PARENT 13 34
REMARK Flexibility Score: inf
ROOT
ATOM      1  C   UNL     1      23.571 -20.864 -25.213  1.00  0.00     0.017 C 
ATOM      2  C   UNL     1      24.687 -20.352 -24.249  1.00  0.00     0.014 C 
ATOM      3  C   UNL     1      24.081 -22.096 -26.006  1.00  0.00     0.014 C 
ATOM      4  C   UNL     1      23.120 -19.729 -26.201  1.00  0.00     0.030 C 
ATOM      5  C   UNL     1      25.823 -19.603 -24.946  1.00  0.00     0.004 C 
ATOM      6  C   UNL     1      23.028 -22.645 -26.997  1.00  0.00     0.013 C 
ATOM      7  C   UNL     1      22.181 -20.297 -27.285  1.00  0.00    -0.063 C 
ATOM      8  C   UNL     1      24.280 -18.877 -26.813  1.00  0.00    -0.003 C 
ATOM      9  C   UNL     1      25.305 -18.398 -25.748  1.00  0.00    -0.011 C 
ATOM     10  C   UNL     1      22.536 -21.605 -28.066  1.00  0.00    -0.006 C 
ATOM     11  C   UNL     1      20.953 -19.718 -27.349  1.00  0.00    -0.027 C 
ATOM     12  C   UNL     1      23.736 -17.698 -27.648  1.00  0.00     0.008 C 
ATOM     13  C   UNL     1      24.786 -17.274 -24.824  1.00  0.00     0.008 C 
ATOM     14  C   UNL     1      23.720 -21.349 -29.048  1.00  0.00     0.017 C 
ATOM     15  C   UNL     1      21.264 -22.155 -28.918  1.00  0.00    -0.020 C 
ATOM     16  C   UNL     1      19.731 -20.387 -27.904  1.00  0.00     0.032 C 
ATOM     17  C   UNL     1      19.953 -21.909 -28.076  1.00  0.00     0.006 C 
ATOM     18  C   UNL     1      21.401 -23.677 -29.280  1.00  0.00     0.008 C 
ATOM     19  C   UNL     1      21.151 -21.375 -30.272  1.00  0.00     0.012 C 
ATOM     20  C   UNL     1      18.647 -22.781 -28.391  1.00  0.00    -0.025 C 
ATOM     21  C   UNL     1      20.525 -24.601 -28.422  1.00  0.00     0.005 C 
ATOM     22  C   UNL     1      19.036 -24.301 -28.734  1.00  0.00     0.003 C 
ATOM     23  C   UNL     1      17.733 -22.654 -27.117  1.00  0.00     0.010 C 
ATOM     24  C   UNL     1      17.843 -22.181 -29.588  1.00  0.00     0.012 C 
ATOM     25  C   UNL     1      18.007 -25.439 -28.294  1.00  0.00    -0.006 C 
ATOM     26  C   UNL     1      16.665 -23.732 -26.970  1.00  0.00     0.033 C 
ATOM     27  C   UNL     1      17.309 -25.121 -26.944  1.00  0.00     0.120 C 
ATOM     28  C   UNL     1      18.662 -26.845 -28.161  1.00  0.00     0.014 C 
ATOM     29  C   UNL     1      16.925 -25.606 -29.407  1.00  0.00     0.014 C 
ENDROOT
BRANCH   1  30
ATOM     30  C   UNL     1      22.412 -21.328 -24.327  1.00  0.00     0.048 C 
ATOM     31  O   UNL     1      21.504 -20.504 -24.020  1.00  0.00    -0.550 OA
ATOM     32  O   UNL     1      22.443 -22.551 -23.682  1.00  0.00    -0.550 OA
ENDBRANCH   1  30
BRANCH  27  33
ATOM     33  O   UNL     1      18.228 -25.213 -25.880  1.00  0.00    -0.393 OA
ATOM     34  H   UNL     1      17.722 -25.553 -25.093  1.00  0.00     0.210 HD
ENDBRANCH  27  33
TORSDOF 2
ENDMDL
MODEL 5
REMARK VINA RESULT:    -7.491      2.849      5.105
REMARK INTER + INTRA:          -8.341
REMARK INTER:                  -8.148
REMARK INTRA:                  -0.194
REMARK UNBOUND:                -0.193
REMARK SMILES C[C@@H]1[C@H]2C3=CC[C@H]4[C@]5(C)CC[C@H](O)C(C)(C)[C@@H]5CC[C@]4(C)[C@]3(C)CC[C@@]2(C(=O)[O-])CC[C@@H]1C
REMARK SMILES IDX 26 1 30 2 25 3 3 4 31 5 24 6 4 7 2 8 32 9 22 10 5 11 1 12
REMARK SMILES IDX 33 13 23 14 20 15 6 16 7 17 19 18 21 19 8 20 18 21 17 22
REMARK SMILES IDX 10 23 9 24 14 25 11 26 12 27 15 28 16 29 27 30 28 31 29 32
REMARK SMILES IDX 13 33
REMARK H PARENT 13 34
REMARK Flexibility Score: inf
ROOT
ATOM      1  C   UNL     1      20.275 -21.911 -24.633  1.00  0.00     0.017 C 
ATOM      2  C   UNL     1      19.976 -22.227 -23.133  1.00  0.00     0.014 C 
ATOM      3  C   UNL     1      19.358 -20.761 -25.124  1.00  0.00     0.014 C 
ATOM      4  C   UNL     1      20.074 -23.189 -25.525  1.00  0.00     0.030 C 
ATOM      5  C   UNL     1      18.670 -22.987 -22.901  1.00  0.00     0.004 C 
ATOM      6  C   UNL     1      19.590 -20.409 -26.613  1.00  0.00     0.013 C 
ATOM      7  C   UNL     1      20.159 -22.822 -27.021  1.00  0.00    -0.063 C 
ATOM      8  C   UNL     1      18.804 -24.038 -25.197  1.00  0.00    -0.003 C 
ATOM      9  C   UNL     1      18.636 -24.314 -23.678  1.00  0.00    -0.011 C 
ATOM     10  C   UNL     1      19.370 -21.604 -27.607  1.00  0.00    -0.006 C 
ATOM     11  C   UNL     1      21.118 -23.478 -27.725  1.00  0.00    -0.027 C 
ATOM     12  C   UNL     1      18.770 -25.346 -26.018  1.00  0.00     0.008 C 
ATOM     13  C   UNL     1      19.638 -25.341 -23.102  1.00  0.00     0.008 C 
ATOM     14  C   UNL     1      17.842 -21.910 -27.639  1.00  0.00     0.017 C 
ATOM     15  C   UNL     1      19.860 -21.247 -29.117  1.00  0.00    -0.020 C 
ATOM     16  C   UNL     1      21.744 -22.961 -28.986  1.00  0.00     0.032 C 
ATOM     17  C   UNL     1      21.420 -21.462 -29.200  1.00  0.00     0.006 C 
ATOM     18  C   UNL     1      19.491 -19.777 -29.531  1.00  0.00     0.008 C 
ATOM     19  C   UNL     1      19.160 -22.197 -30.145  1.00  0.00     0.012 C 
ATOM     20  C   UNL     1      22.251 -20.720 -30.351  1.00  0.00    -0.025 C 
ATOM     21  C   UNL     1      20.681 -18.807 -29.505  1.00  0.00     0.005 C 
ATOM     22  C   UNL     1      21.692 -19.235 -30.599  1.00  0.00     0.003 C 
ATOM     23  C   UNL     1      23.750 -20.739 -29.873  1.00  0.00     0.010 C 
ATOM     24  C   UNL     1      22.193 -21.515 -31.693  1.00  0.00     0.012 C 
ATOM     25  C   UNL     1      22.747 -18.115 -31.025  1.00  0.00    -0.006 C 
ATOM     26  C   UNL     1      24.662 -19.718 -30.544  1.00  0.00     0.033 C 
ATOM     27  C   UNL     1      24.125 -18.301 -30.331  1.00  0.00     0.120 C 
ATOM     28  C   UNL     1      22.264 -16.666 -30.723  1.00  0.00     0.014 C 
ATOM     29  C   UNL     1      22.940 -18.158 -32.573  1.00  0.00     0.014 C 
ENDROOT
BRANCH   1  30
ATOM     30  C   UNL     1      21.720 -21.410 -24.689  1.00  0.00     0.048 C 
ATOM     31  O   UNL     1      22.658 -22.248 -24.822  1.00  0.00    -0.550 OA
ATOM     32  O   UNL     1      22.041 -20.099 -24.387  1.00  0.00    -0.550 OA
ENDBRANCH   1  30
BRANCH  27  33
ATOM     33  O   UNL     1      24.025 -18.018 -28.955  1.00  0.00    -0.393 OA
ATOM     34  H   UNL     1      24.906 -17.647 -28.675  1.00  0.00     0.210 HD
ENDBRANCH  27  33
TORSDOF 2
ENDMDL
MODEL 6
REMARK VINA RESULT:    -7.418      1.643      2.346
REMARK INTER + INTRA:          -8.262
REMARK INTER:                  -8.142
REMARK INTRA:                  -0.120
REMARK UNBOUND:                -0.193
REMARK SMILES C[C@@H]1[C@H]2C3=CC[C@H]4[C@]5(C)CC[C@H](O)C(C)(C)[C@@H]5CC[C@]4(C)[C@]3(C)CC[C@@]2(C(=O)[O-])CC[C@@H]1C
REMARK SMILES IDX 26 1 30 2 25 3 3 4 31 5 24 6 4 7 2 8 32 9 22 10 5 11 1 12
REMARK SMILES IDX 33 13 23 14 20 15 6 16 7 17 19 18 21 19 8 20 18 21 17 22
REMARK SMILES IDX 10 23 9 24 14 25 11 26 12 27 15 28 16 29 27 30 28 31 29 32
REMARK SMILES IDX 13 33
REMARK H PARENT 13 34
REMARK Flexibility Score: inf
ROOT
ATOM      1  C   UNL     1      18.193 -23.341 -26.889  1.00  0.00     0.017 C 
ATOM      2  C   UNL     1      16.937 -24.268 -26.894  1.00  0.00     0.014 C 
ATOM      3  C   UNL     1      17.763 -21.866 -27.106  1.00  0.00     0.014 C 
ATOM      4  C   UNL     1      19.217 -23.779 -27.998  1.00  0.00     0.030 C 
ATOM      5  C   UNL     1      16.338 -24.505 -28.281  1.00  0.00     0.004 C 
ATOM      6  C   UNL     1      18.965 -20.893 -27.131  1.00  0.00     0.013 C 
ATOM      7  C   UNL     1      20.346 -22.736 -28.133  1.00  0.00    -0.063 C 
ATOM      8  C   UNL     1      18.587 -24.147 -29.380  1.00  0.00    -0.003 C 
ATOM      9  C   UNL     1      17.368 -25.102 -29.253  1.00  0.00    -0.011 C 
ATOM     10  C   UNL     1      20.035 -21.207 -28.237  1.00  0.00    -0.006 C 
ATOM     11  C   UNL     1      21.603 -23.215 -27.933  1.00  0.00    -0.027 C 
ATOM     12  C   UNL     1      19.646 -24.706 -30.354  1.00  0.00     0.008 C 
ATOM     13  C   UNL     1      17.733 -26.557 -28.880  1.00  0.00     0.008 C 
ATOM     14  C   UNL     1      19.392 -20.874 -29.617  1.00  0.00     0.017 C 
ATOM     15  C   UNL     1      21.382 -20.311 -28.061  1.00  0.00    -0.020 C 
ATOM     16  C   UNL     1      22.767 -22.376 -27.495  1.00  0.00     0.032 C 
ATOM     17  C   UNL     1      22.300 -20.995 -26.976  1.00  0.00     0.006 C 
ATOM     18  C   UNL     1      21.063 -18.829 -27.648  1.00  0.00     0.008 C 
ATOM     19  C   UNL     1      22.160 -20.246 -29.418  1.00  0.00     0.012 C 
ATOM     20  C   UNL     1      23.406 -20.116 -26.222  1.00  0.00    -0.025 C 
ATOM     21  C   UNL     1      21.330 -18.526 -26.167  1.00  0.00     0.005 C 
ATOM     22  C   UNL     1      22.853 -18.641 -25.905  1.00  0.00     0.003 C 
ATOM     23  C   UNL     1      23.779 -20.923 -24.924  1.00  0.00     0.010 C 
ATOM     24  C   UNL     1      24.710 -19.996 -27.073  1.00  0.00     0.012 C 
ATOM     25  C   UNL     1      23.368 -17.936 -24.569  1.00  0.00    -0.006 C 
ATOM     26  C   UNL     1      24.451 -20.112 -23.822  1.00  0.00     0.033 C 
ATOM     27  C   UNL     1      23.560 -18.942 -23.401  1.00  0.00     0.120 C 
ATOM     28  C   UNL     1      22.423 -16.808 -24.063  1.00  0.00     0.014 C 
ATOM     29  C   UNL     1      24.725 -17.220 -24.860  1.00  0.00     0.014 C 
ENDROOT
BRANCH   1  30
ATOM     30  C   UNL     1      18.804 -23.447 -25.490  1.00  0.00     0.048 C 
ATOM     31  O   UNL     1      19.453 -24.486 -25.178  1.00  0.00    -0.550 OA
ATOM     32  O   UNL     1      18.487 -22.540 -24.495  1.00  0.00    -0.550 OA
ENDBRANCH   1  30
BRANCH  27  33
ATOM     33  O   UNL     1      22.312 -19.416 -22.949  1.00  0.00    -0.393 OA
ATOM     34  H   UNL     1      21.895 -19.895 -23.716  1.00  0.00     0.210 HD
ENDBRANCH  27  33
TORSDOF 2
ENDMDL
MODEL 7
REMARK VINA RESULT:    -7.136      2.063      3.420
REMARK INTER + INTRA:          -7.956
REMARK INTER:                  -7.767
REMARK INTRA:                  -0.188
REMARK UNBOUND:                -0.193
REMARK SMILES C[C@@H]1[C@H]2C3=CC[C@H]4[C@]5(C)CC[C@H](O)C(C)(C)[C@@H]5CC[C@]4(C)[C@]3(C)CC[C@@]2(C(=O)[O-])CC[C@@H]1C
REMARK SMILES IDX 26 1 30 2 25 3 3 4 31 5 24 6 4 7 2 8 32 9 22 10 5 11 1 12
REMARK SMILES IDX 33 13 23 14 20 15 6 16 7 17 19 18 21 19 8 20 18 21 17 22
REMARK SMILES IDX 10 23 9 24 14 25 11 26 12 27 15 28 16 29 27 30 28 31 29 32
REMARK SMILES IDX 13 33
REMARK H PARENT 13 34
REMARK Flexibility Score: inf
ROOT
ATOM      1  C   UNL     1      19.510 -24.540 -29.737  1.00  0.00     0.017 C 
ATOM      2  C   UNL     1      19.030 -25.689 -30.679  1.00  0.00     0.014 C 
ATOM      3  C   UNL     1      20.012 -25.133 -28.394  1.00  0.00     0.014 C 
ATOM      4  C   UNL     1      18.354 -23.508 -29.478  1.00  0.00     0.030 C 
ATOM      5  C   UNL     1      17.684 -26.299 -30.289  1.00  0.00     0.004 C 
ATOM      6  C   UNL     1      20.487 -24.045 -27.403  1.00  0.00     0.013 C 
ATOM      7  C   UNL     1      18.762 -22.502 -28.382  1.00  0.00    -0.063 C 
ATOM      8  C   UNL     1      16.948 -24.135 -29.209  1.00  0.00    -0.003 C 
ATOM      9  C   UNL     1      16.571 -25.240 -30.234  1.00  0.00    -0.011 C 
ATOM     10  C   UNL     1      19.393 -22.980 -27.033  1.00  0.00    -0.006 C 
ATOM     11  C   UNL     1      18.742 -21.196 -28.758  1.00  0.00    -0.027 C 
ATOM     12  C   UNL     1      15.853 -23.050 -29.116  1.00  0.00     0.008 C 
ATOM     13  C   UNL     1      16.214 -24.709 -31.641  1.00  0.00     0.008 C 
ATOM     14  C   UNL     1      18.323 -23.694 -26.154  1.00  0.00     0.017 C 
ATOM     15  C   UNL     1      20.011 -21.732 -26.189  1.00  0.00    -0.020 C 
ATOM     16  C   UNL     1      19.557 -20.117 -28.110  1.00  0.00     0.032 C 
ATOM     17  C   UNL     1      20.661 -20.715 -27.204  1.00  0.00     0.006 C 
ATOM     18  C   UNL     1      21.072 -22.197 -25.129  1.00  0.00     0.008 C 
ATOM     19  C   UNL     1      18.870 -21.005 -25.400  1.00  0.00     0.012 C 
ATOM     20  C   UNL     1      21.772 -19.689 -26.677  1.00  0.00    -0.025 C 
ATOM     21  C   UNL     1      22.525 -21.921 -25.542  1.00  0.00     0.005 C 
ATOM     22  C   UNL     1      22.740 -20.388 -25.602  1.00  0.00     0.003 C 
ATOM     23  C   UNL     1      22.536 -19.193 -27.959  1.00  0.00     0.010 C 
ATOM     24  C   UNL     1      21.116 -18.430 -26.025  1.00  0.00     0.012 C 
ATOM     25  C   UNL     1      24.264 -19.913 -25.569  1.00  0.00    -0.006 C 
ATOM     26  C   UNL     1      23.908 -18.580 -27.706  1.00  0.00     0.033 C 
ATOM     27  C   UNL     1      24.814 -19.580 -26.983  1.00  0.00     0.120 C 
ATOM     28  C   UNL     1      25.222 -20.960 -24.929  1.00  0.00     0.014 C 
ATOM     29  C   UNL     1      24.385 -18.651 -24.658  1.00  0.00     0.014 C 
ENDROOT
BRANCH   1  30
ATOM     30  C   UNL     1      20.704 -23.881 -30.431  1.00  0.00     0.048 C 
ATOM     31  O   UNL     1      20.505 -22.896 -31.196  1.00  0.00    -0.550 OA
ATOM     32  O   UNL     1      21.959 -24.463 -30.412  1.00  0.00    -0.550 OA
ENDBRANCH   1  30
BRANCH  27  33
ATOM     33  O   UNL     1      24.952 -20.756 -27.747  1.00  0.00    -0.393 OA
ATOM     34  H   UNL     1      24.333 -21.428 -27.350  1.00  0.00     0.210 HD
ENDBRANCH  27  33
TORSDOF 2
ENDMDL
MODEL 8
REMARK VINA RESULT:    -7.130      2.467      7.647
REMARK INTER + INTRA:          -7.949
REMARK INTER:                  -7.753
REMARK INTRA:                  -0.195
REMARK UNBOUND:                -0.193
REMARK SMILES C[C@@H]1[C@H]2C3=CC[C@H]4[C@]5(C)CC[C@H](O)C(C)(C)[C@@H]5CC[C@]4(C)[C@]3(C)CC[C@@]2(C(=O)[O-])CC[C@@H]1C
REMARK SMILES IDX 26 1 30 2 25 3 3 4 31 5 24 6 4 7 2 8 32 9 22 10 5 11 1 12
REMARK SMILES IDX 33 13 23 14 20 15 6 16 7 17 19 18 21 19 8 20 18 21 17 22
REMARK SMILES IDX 10 23 9 24 14 25 11 26 12 27 15 28 16 29 27 30 28 31 29 32
REMARK SMILES IDX 13 33
REMARK H PARENT 13 34
REMARK Flexibility Score: inf
ROOT
ATOM      1  C   UNL     1      21.917 -18.698 -28.379  1.00  0.00     0.017 C 
ATOM      2  C   UNL     1      22.670 -17.331 -28.432  1.00  0.00     0.014 C 
ATOM      3  C   UNL     1      20.429 -18.467 -28.007  1.00  0.00     0.014 C 
ATOM      4  C   UNL     1      22.593 -19.670 -27.346  1.00  0.00     0.030 C 
ATOM      5  C   UNL     1      22.966 -16.724 -27.059  1.00  0.00     0.004 C 
ATOM      6  C   UNL     1      19.626 -19.787 -27.918  1.00  0.00     0.013 C 
ATOM      7  C   UNL     1      21.724 -20.928 -27.139  1.00  0.00    -0.063 C 
ATOM      8  C   UNL     1      23.015 -19.015 -25.991  1.00  0.00    -0.003 C 
ATOM      9  C   UNL     1      23.786 -17.680 -26.178  1.00  0.00    -0.011 C 
ATOM     10  C   UNL     1      20.186 -20.821 -26.877  1.00  0.00    -0.006 C 
ATOM     11  C   UNL     1      22.338 -22.108 -27.418  1.00  0.00    -0.027 C 
ATOM     12  C   UNL     1      23.801 -20.006 -25.104  1.00  0.00     0.008 C 
ATOM     13  C   UNL     1      25.231 -17.846 -26.702  1.00  0.00     0.008 C 
ATOM     14  C   UNL     1      19.914 -20.246 -25.454  1.00  0.00     0.017 C 
ATOM     15  C   UNL     1      19.458 -22.271 -27.000  1.00  0.00    -0.020 C 
ATOM     16  C   UNL     1      21.617 -23.366 -27.802  1.00  0.00     0.032 C 
ATOM     17  C   UNL     1      20.142 -23.077 -28.171  1.00  0.00     0.006 C 
ATOM     18  C   UNL     1      17.914 -22.144 -27.257  1.00  0.00     0.008 C 
ATOM     19  C   UNL     1      19.631 -23.070 -25.664  1.00  0.00     0.012 C 
ATOM     20  C   UNL     1      19.341 -24.279 -28.864  1.00  0.00    -0.025 C 
ATOM     21  C   UNL     1      17.500 -22.428 -28.707  1.00  0.00     0.005 C 
ATOM     22  C   UNL     1      17.783 -23.920 -29.020  1.00  0.00     0.003 C 
ATOM     23  C   UNL     1      20.054 -24.526 -30.244  1.00  0.00     0.010 C 
ATOM     24  C   UNL     1      19.477 -25.599 -28.040  1.00  0.00     0.012 C 
ATOM     25  C   UNL     1      17.019 -24.505 -30.293  1.00  0.00    -0.006 C 
ATOM     26  C   UNL     1      19.231 -25.283 -31.278  1.00  0.00     0.033 C 
ATOM     27  C   UNL     1      17.918 -24.547 -31.559  1.00  0.00     0.120 C 
ATOM     28  C   UNL     1      15.733 -23.709 -30.661  1.00  0.00     0.014 C 
ATOM     29  C   UNL     1      16.518 -25.947 -29.969  1.00  0.00     0.014 C 
ENDROOT
BRANCH   1  30
ATOM     30  C   UNL     1      21.959 -19.270 -29.797  1.00  0.00     0.048 C 
ATOM     31  O   UNL     1      22.940 -19.990 -30.142  1.00  0.00    -0.550 OA
ATOM     32  O   UNL     1      21.070 -18.851 -30.771  1.00  0.00    -0.550 OA
ENDBRANCH   1  30
BRANCH  27  33
ATOM     33  O   UNL     1      18.179 -23.242 -32.022  1.00  0.00    -0.393 OA
ATOM     34  H   UNL     1      17.522 -23.060 -32.747  1.00  0.00     0.210 HD
ENDBRANCH  27  33
TORSDOF 2
ENDMDL
MODEL 9
REMARK VINA RESULT:    -7.052      2.745      4.561
REMARK INTER + INTRA:          -7.863
REMARK INTER:                  -7.671
REMARK INTRA:                  -0.192
REMARK UNBOUND:                -0.193
REMARK SMILES C[C@@H]1[C@H]2C3=CC[C@H]4[C@]5(C)CC[C@H](O)C(C)(C)[C@@H]5CC[C@]4(C)[C@]3(C)CC[C@@]2(C(=O)[O-])CC[C@@H]1C
REMARK SMILES IDX 26 1 30 2 25 3 3 4 31 5 24 6 4 7 2 8 32 9 22 10 5 11 1 12
REMARK SMILES IDX 33 13 23 14 20 15 6 16 7 17 19 18 21 19 8 20 18 21 17 22
REMARK SMILES IDX 10 23 9 24 14 25 11 26 12 27 15 28 16 29 27 30 28 31 29 32
REMARK SMILES IDX 13 33
REMARK H PARENT 13 34
REMARK Flexibility Score: inf
ROOT
ATOM      1  C   UNL     1      17.582 -24.045 -30.420  1.00  0.00     0.017 C 
ATOM      2  C   UNL     1      16.345 -24.912 -30.815  1.00  0.00     0.014 C 
ATOM      3  C   UNL     1      18.758 -24.963 -29.995  1.00  0.00     0.014 C 
ATOM      4  C   UNL     1      17.219 -23.050 -29.258  1.00  0.00     0.030 C 
ATOM      5  C   UNL     1      15.609 -25.534 -29.627  1.00  0.00     0.004 C 
ATOM      6  C   UNL     1      20.013 -24.165 -29.571  1.00  0.00     0.013 C 
ATOM      7  C   UNL     1      18.490 -22.354 -28.727  1.00  0.00    -0.063 C 
ATOM      8  C   UNL     1      16.354 -23.656 -28.107  1.00  0.00    -0.003 C 
ATOM      9  C   UNL     1      15.135 -24.466 -28.628  1.00  0.00    -0.011 C 
ATOM     10  C   UNL     1      19.780 -23.168 -28.380  1.00  0.00    -0.006 C 
ATOM     11  C   UNL     1      18.478 -20.996 -28.797  1.00  0.00    -0.027 C 
ATOM     12  C   UNL     1      15.924 -22.573 -27.093  1.00  0.00     0.008 C 
ATOM     13  C   UNL     1      13.996 -23.600 -29.211  1.00  0.00     0.008 C 
ATOM     14  C   UNL     1      19.557 -24.019 -27.094  1.00  0.00     0.017 C 
ATOM     15  C   UNL     1      21.056 -22.187 -28.140  1.00  0.00    -0.020 C 
ATOM     16  C   UNL     1      19.710 -20.142 -28.853  1.00  0.00     0.032 C 
ATOM     17  C   UNL     1      20.967 -20.990 -29.163  1.00  0.00     0.006 C 
ATOM     18  C   UNL     1      22.425 -22.940 -28.303  1.00  0.00     0.008 C 
ATOM     19  C   UNL     1      21.024 -21.615 -26.683  1.00  0.00     0.012 C 
ATOM     20  C   UNL     1      22.295 -20.172 -29.526  1.00  0.00    -0.025 C 
ATOM     21  C   UNL     1      23.145 -22.644 -29.626  1.00  0.00     0.005 C 
ATOM     22  C   UNL     1      23.564 -21.152 -29.638  1.00  0.00     0.003 C 
ATOM     23  C   UNL     1      21.980 -19.422 -30.873  1.00  0.00     0.010 C 
ATOM     24  C   UNL     1      22.595 -19.075 -28.456  1.00  0.00     0.012 C 
ATOM     25  C   UNL     1      24.694 -20.771 -30.699  1.00  0.00    -0.006 C 
ATOM     26  C   UNL     1      23.197 -18.954 -31.660  1.00  0.00     0.033 C 
ATOM     27  C   UNL     1      24.108 -20.138 -31.991  1.00  0.00     0.120 C 
ATOM     28  C   UNL     1      25.570 -21.984 -31.129  1.00  0.00     0.014 C 
ATOM     29  C   UNL     1      25.694 -19.768 -30.042  1.00  0.00     0.014 C 
ENDROOT
BRANCH   1  30
ATOM     30  C   UNL     1      18.008 -23.297 -31.685  1.00  0.00     0.048 C 
ATOM     31  O   UNL     1      17.494 -22.170 -31.938  1.00  0.00    -0.550 OA
ATOM     32  O   UNL     1      18.773 -23.911 -32.661  1.00  0.00    -0.550 OA
ENDBRANCH   1  30
BRANCH  27  33
ATOM     33  O   UNL     1      23.402 -21.104 -32.736  1.00  0.00    -0.393 OA
ATOM     34  H   UNL     1      22.530 -20.692 -32.983  1.00  0.00     0.210 HD
ENDBRANCH  27  33
TORSDOF 2
ENDMDL
