MODEL 1
REMARK VINA RESULT:    -5.370      0.000      0.000
REMARK INTER + INTRA:          -6.622
REMARK INTER:                  -6.469
REMARK INTRA:                  -0.153
REMARK UNBOUND:                -0.153
REMARK SMILES O=c1c(O)c(-c2ccc(O)c(O)c2)oc2cc(O)cc(O)c12
REMARK SMILES IDX 5 1 3 2 2 3 1 4 22 5 20 6 19 7 17 8 16 9 15 10 14 11 6 12
REMARK SMILES IDX 7 13 8 14 9 15 13 16 11 17 10 18 12 20 4 22 21 24 18 26
REMARK H PARENT 10 19 12 21 4 23 21 25 18 27
REMARK Flexibility Score: inf
ROOT
ATOM      1  C   UNL     1       3.722   5.459   9.741  1.00  0.00     0.180 A 
ATOM      2  C   UNL     1       2.661   5.688   8.849  1.00  0.00     0.208 A 
ATOM      3  C   UNL     1       1.735   6.703   9.138  1.00  0.00     0.238 A 
ATOM      4  O   UNL     1       0.831   6.951   8.299  1.00  0.00    -0.285 OA
ATOM      5  C   UNL     1       1.848   7.438  10.344  1.00  0.00     0.111 A 
ATOM      6  C   UNL     1       0.941   8.459  10.761  1.00  0.00     0.134 A 
ATOM      7  C   UNL     1       1.213   9.192  11.922  1.00  0.00     0.093 A 
ATOM      8  C   UNL     1       2.326   8.900  12.714  1.00  0.00     0.123 A 
ATOM      9  C   UNL     1       3.187   7.870  12.345  1.00  0.00     0.094 A 
ATOM     10  C   UNL     1       2.963   7.146  11.172  1.00  0.00     0.146 A 
ATOM     11  O   UNL     1       3.822   6.187  10.846  1.00  0.00    -0.452 OA
ENDROOT
BRANCH   1  12
ATOM     12  C   UNL     1       4.746   4.417   9.497  1.00  0.00     0.025 A 
ATOM     13  C   UNL     1       5.582   4.461   8.368  1.00  0.00     0.016 A 
ATOM     14  C   UNL     1       6.557   3.481   8.171  1.00  0.00     0.051 A 
ATOM     15  C   UNL     1       6.722   2.450   9.106  1.00  0.00     0.157 A 
ATOM     16  C   UNL     1       4.930   3.394  10.442  1.00  0.00     0.062 A 
ATOM     17  C   UNL     1       5.905   2.410  10.249  1.00  0.00     0.158 A 
BRANCH  15  18
ATOM     18  O   UNL     1       7.695   1.472   8.906  1.00  0.00    -0.504 OA
ATOM     19  H   UNL     1       8.244   1.105   9.674  1.00  0.00     0.293 HD
ENDBRANCH  15  18
BRANCH  17  20
ATOM     20  O   UNL     1       6.049   1.402  11.202  1.00  0.00    -0.504 OA
ATOM     21  H   UNL     1       5.962   1.584  12.194  1.00  0.00     0.293 HD
ENDBRANCH  17  20
ENDBRANCH   1  12
BRANCH   2  22
ATOM     22  O   UNL     1       2.522   4.900   7.703  1.00  0.00    -0.502 OA
ATOM     23  H   UNL     1       2.351   3.902   7.747  1.00  0.00     0.293 HD
ENDBRANCH   2  22
BRANCH   6  24
ATOM     24  O   UNL     1      -0.246   8.773  10.092  1.00  0.00    -0.507 OA
ATOM     25  H   UNL     1      -1.171   8.695  10.489  1.00  0.00     0.293 HD
ENDBRANCH   6  24
BRANCH   8  26
ATOM     26  O   UNL     1       2.580   9.625  13.877  1.00  0.00    -0.508 OA
ATOM     27  H   UNL     1       1.880   9.726  14.602  1.00  0.00     0.293 HD
ENDBRANCH   8  26
TORSDOF 6
ENDMDL
MODEL 2
REMARK VINA RESULT:    -5.303      2.672      4.463
REMARK INTER + INTRA:          -6.541
REMARK INTER:                  -6.670
REMARK INTRA:                   0.129
REMARK UNBOUND:                -0.153
REMARK SMILES O=c1c(O)c(-c2ccc(O)c(O)c2)oc2cc(O)cc(O)c12
REMARK SMILES IDX 5 1 3 2 2 3 1 4 22 5 20 6 19 7 17 8 16 9 15 10 14 11 6 12
REMARK SMILES IDX 7 13 8 14 9 15 13 16 11 17 10 18 12 20 4 22 21 24 18 26
REMARK H PARENT 10 19 12 21 4 23 21 25 18 27
REMARK Flexibility Score: inf
ROOT
ATOM      1  C   UNL     1       4.035   6.081  11.302  1.00  0.00     0.180 A 
ATOM      2  C   UNL     1       4.088   5.121  10.277  1.00  0.00     0.208 A 
ATOM      3  C   UNL     1       3.265   5.280   9.152  1.00  0.00     0.238 A 
ATOM      4  O   UNL     1       3.372   4.458   8.205  1.00  0.00    -0.285 OA
ATOM      5  C   UNL     1       2.357   6.366   9.090  1.00  0.00     0.111 A 
ATOM      6  C   UNL     1       1.443   6.601   8.018  1.00  0.00     0.134 A 
ATOM      7  C   UNL     1       0.667   7.766   8.015  1.00  0.00     0.093 A 
ATOM      8  C   UNL     1       0.726   8.673   9.075  1.00  0.00     0.123 A 
ATOM      9  C   UNL     1       1.574   8.426  10.151  1.00  0.00     0.094 A 
ATOM     10  C   UNL     1       2.389   7.291  10.165  1.00  0.00     0.146 A 
ATOM     11  O   UNL     1       3.198   7.106  11.201  1.00  0.00    -0.452 OA
ENDROOT
BRANCH   1  12
ATOM     12  C   UNL     1       4.883   5.989  12.513  1.00  0.00     0.025 A 
ATOM     13  C   UNL     1       6.220   5.560  12.441  1.00  0.00     0.016 A 
ATOM     14  C   UNL     1       7.008   5.505  13.593  1.00  0.00     0.051 A 
ATOM     15  C   UNL     1       6.478   5.891  14.831  1.00  0.00     0.157 A 
ATOM     16  C   UNL     1       4.363   6.396  13.753  1.00  0.00     0.062 A 
ATOM     17  C   UNL     1       5.149   6.342  14.909  1.00  0.00     0.158 A 
BRANCH  15  18
ATOM     18  O   UNL     1       7.266   5.834  15.979  1.00  0.00    -0.504 OA
ATOM     19  H   UNL     1       7.797   5.004  16.218  1.00  0.00     0.293 HD
ENDBRANCH  15  18
BRANCH  17  20
ATOM     20  O   UNL     1       4.594   6.741  16.125  1.00  0.00    -0.504 OA
ATOM     21  H   UNL     1       3.838   6.230  16.564  1.00  0.00     0.293 HD
ENDBRANCH  17  20
ENDBRANCH   1  12
BRANCH   2  22
ATOM     22  O   UNL     1       4.936   4.015  10.392  1.00  0.00    -0.502 OA
ATOM     23  H   UNL     1       4.996   3.462  11.239  1.00  0.00     0.293 HD
ENDBRANCH   2  22
BRANCH   6  24
ATOM     24  O   UNL     1       1.240   5.717   6.954  1.00  0.00    -0.507 OA
ATOM     25  H   UNL     1       0.494   5.041   6.898  1.00  0.00     0.293 HD
ENDBRANCH   6  24
BRANCH   8  26
ATOM     26  O   UNL     1      -0.063   9.823   9.072  1.00  0.00    -0.508 OA
ATOM     27  H   UNL     1      -0.450  10.197   8.214  1.00  0.00     0.293 HD
ENDBRANCH   8  26
TORSDOF 6
ENDMDL
MODEL 3
REMARK VINA RESULT:    -5.218      3.360      6.340
REMARK INTER + INTRA:          -6.439
REMARK INTER:                  -6.110
REMARK INTRA:                  -0.329
REMARK UNBOUND:                -0.153
REMARK SMILES O=c1c(O)c(-c2ccc(O)c(O)c2)oc2cc(O)cc(O)c12
REMARK SMILES IDX 5 1 3 2 2 3 1 4 22 5 20 6 19 7 17 8 16 9 15 10 14 11 6 12
REMARK SMILES IDX 7 13 8 14 9 15 13 16 11 17 10 18 12 20 4 22 21 24 18 26
REMARK H PARENT 10 19 12 21 4 23 21 25 18 27
REMARK Flexibility Score: inf
ROOT
ATOM      1  C   UNL     1       2.951   7.872  11.913  1.00  0.00     0.180 A 
ATOM      2  C   UNL     1       2.641   8.696  13.009  1.00  0.00     0.208 A 
ATOM      3  C   UNL     1       3.383   8.563  14.192  1.00  0.00     0.238 A 
ATOM      4  O   UNL     1       3.149   9.354  15.143  1.00  0.00    -0.285 OA
ATOM      5  C   UNL     1       4.390   7.571  14.286  1.00  0.00     0.111 A 
ATOM      6  C   UNL     1       5.174   7.317  15.452  1.00  0.00     0.134 A 
ATOM      7  C   UNL     1       6.214   6.381  15.395  1.00  0.00     0.093 A 
ATOM      8  C   UNL     1       6.457   5.644  14.233  1.00  0.00     0.123 A 
ATOM      9  C   UNL     1       5.662   5.846  13.108  1.00  0.00     0.094 A 
ATOM     10  C   UNL     1       4.642   6.800  13.122  1.00  0.00     0.146 A 
ATOM     11  O   UNL     1       3.923   6.974  12.020  1.00  0.00    -0.452 OA
ENDROOT
BRANCH   1  12
ATOM     12  C   UNL     1       2.223   7.963  10.627  1.00  0.00     0.025 A 
ATOM     13  C   UNL     1       2.675   8.792   9.586  1.00  0.00     0.016 A 
ATOM     14  C   UNL     1       1.985   8.843   8.372  1.00  0.00     0.051 A 
ATOM     15  C   UNL     1       0.841   8.057   8.175  1.00  0.00     0.157 A 
ATOM     16  C   UNL     1       1.089   7.161  10.417  1.00  0.00     0.062 A 
ATOM     17  C   UNL     1       0.394   7.209   9.203  1.00  0.00     0.158 A 
BRANCH  15  18
ATOM     18  O   UNL     1       0.154   8.111   6.964  1.00  0.00    -0.504 OA
ATOM     19  H   UNL     1      -0.788   8.479   6.904  1.00  0.00     0.293 HD
ENDBRANCH  15  18
BRANCH  17  20
ATOM     20  O   UNL     1      -0.735   6.409   9.037  1.00  0.00    -0.504 OA
ATOM     21  H   UNL     1      -1.146   6.241   8.126  1.00  0.00     0.293 HD
ENDBRANCH  17  20
ENDBRANCH   1  12
BRANCH   2  22
ATOM     22  O   UNL     1       1.592   9.617  12.921  1.00  0.00    -0.502 OA
ATOM     23  H   UNL     1       1.669  10.562  13.276  1.00  0.00     0.293 HD
ENDBRANCH   2  22
BRANCH   6  24
ATOM     24  O   UNL     1       4.960   7.932  16.690  1.00  0.00    -0.507 OA
ATOM     25  H   UNL     1       5.415   7.672  17.551  1.00  0.00     0.293 HD
ENDBRANCH   6  24
BRANCH   8  26
ATOM     26  O   UNL     1       7.483   4.703  14.191  1.00  0.00    -0.508 OA
ATOM     27  H   UNL     1       8.195   4.727  13.471  1.00  0.00     0.293 HD
ENDBRANCH   8  26
TORSDOF 6
ENDMDL
MODEL 4
REMARK VINA RESULT:    -5.183      2.169      6.996
REMARK INTER + INTRA:          -6.397
REMARK INTER:                  -6.079
REMARK INTRA:                  -0.318
REMARK UNBOUND:                -0.153
REMARK SMILES O=c1c(O)c(-c2ccc(O)c(O)c2)oc2cc(O)cc(O)c12
REMARK SMILES IDX 5 1 3 2 2 3 1 4 22 5 20 6 19 7 17 8 16 9 15 10 14 11 6 12
REMARK SMILES IDX 7 13 8 14 9 15 13 16 11 17 10 18 12 20 4 22 21 24 18 26
REMARK H PARENT 10 19 12 21 4 23 21 25 18 27
REMARK Flexibility Score: inf
ROOT
ATOM      1  C   UNL     1       4.027   5.539   8.286  1.00  0.00     0.180 A 
ATOM      2  C   UNL     1       4.767   5.473   7.094  1.00  0.00     0.208 A 
ATOM      3  C   UNL     1       5.780   4.510   6.973  1.00  0.00     0.238 A 
ATOM      4  O   UNL     1       6.388   4.408   5.876  1.00  0.00    -0.285 OA
ATOM      5  C   UNL     1       6.080   3.660   8.066  1.00  0.00     0.111 A 
ATOM      6  C   UNL     1       7.115   2.677   8.071  1.00  0.00     0.134 A 
ATOM      7  C   UNL     1       7.250   1.821   9.171  1.00  0.00     0.093 A 
ATOM      8  C   UNL     1       6.427   1.955  10.292  1.00  0.00     0.123 A 
ATOM      9  C   UNL     1       5.450   2.946  10.319  1.00  0.00     0.094 A 
ATOM     10  C   UNL     1       5.266   3.790   9.222  1.00  0.00     0.146 A 
ATOM     11  O   UNL     1       4.308   4.707   9.282  1.00  0.00    -0.452 OA
ENDROOT
BRANCH   1  12
ATOM     12  C   UNL     1       2.934   6.518   8.483  1.00  0.00     0.025 A 
ATOM     13  C   UNL     1       3.171   7.775   9.066  1.00  0.00     0.016 A 
ATOM     14  C   UNL     1       2.128   8.692   9.219  1.00  0.00     0.051 A 
ATOM     15  C   UNL     1       0.836   8.372   8.780  1.00  0.00     0.157 A 
ATOM     16  C   UNL     1       1.641   6.211   8.025  1.00  0.00     0.062 A 
ATOM     17  C   UNL     1       0.594   7.127   8.177  1.00  0.00     0.158 A 
BRANCH  15  18
ATOM     18  O   UNL     1      -0.203   9.288   8.935  1.00  0.00    -0.504 OA
ATOM     19  H   UNL     1      -0.044  10.211   9.322  1.00  0.00     0.293 HD
ENDBRANCH  15  18
BRANCH  17  20
ATOM     20  O   UNL     1      -0.678   6.781   7.722  1.00  0.00    -0.504 OA
ATOM     21  H   UNL     1      -1.446   6.601   8.357  1.00  0.00     0.293 HD
ENDBRANCH  17  20
ENDBRANCH   1  12
BRANCH   2  22
ATOM     22  O   UNL     1       4.508   6.372   6.054  1.00  0.00    -0.502 OA
ATOM     23  H   UNL     1       3.771   7.066   6.107  1.00  0.00     0.293 HD
ENDBRANCH   2  22
BRANCH   6  24
ATOM     24  O   UNL     1       8.048   2.516   7.042  1.00  0.00    -0.507 OA
ATOM     25  H   UNL     1       8.217   1.656   6.543  1.00  0.00     0.293 HD
ENDBRANCH   6  24
BRANCH   8  26
ATOM     26  O   UNL     1       6.580   1.109  11.390  1.00  0.00    -0.508 OA
ATOM     27  H   UNL     1       6.707   0.111  11.276  1.00  0.00     0.293 HD
ENDBRANCH   8  26
TORSDOF 6
ENDMDL
MODEL 5
REMARK VINA RESULT:    -5.136      2.709      5.813
REMARK INTER + INTRA:          -6.340
REMARK INTER:                  -6.050
REMARK INTRA:                  -0.290
REMARK UNBOUND:                -0.153
REMARK SMILES O=c1c(O)c(-c2ccc(O)c(O)c2)oc2cc(O)cc(O)c12
REMARK SMILES IDX 5 1 3 2 2 3 1 4 22 5 20 6 19 7 17 8 16 9 15 10 14 11 6 12
REMARK SMILES IDX 7 13 8 14 9 15 13 16 11 17 10 18 12 20 4 22 21 24 18 26
REMARK H PARENT 10 19 12 21 4 23 21 25 18 27
REMARK Flexibility Score: inf
ROOT
ATOM      1  C   UNL     1       3.869   6.609  10.983  1.00  0.00     0.180 A 
ATOM      2  C   UNL     1       4.847   5.634  10.725  1.00  0.00     0.208 A 
ATOM      3  C   UNL     1       5.705   5.237  11.763  1.00  0.00     0.238 A 
ATOM      4  O   UNL     1       6.529   4.312  11.545  1.00  0.00    -0.285 OA
ATOM      5  C   UNL     1       5.611   5.861  13.032  1.00  0.00     0.111 A 
ATOM      6  C   UNL     1       6.458   5.570  14.144  1.00  0.00     0.134 A 
ATOM      7  C   UNL     1       6.204   6.173  15.382  1.00  0.00     0.093 A 
ATOM      8  C   UNL     1       5.173   7.104  15.532  1.00  0.00     0.123 A 
ATOM      9  C   UNL     1       4.376   7.435  14.439  1.00  0.00     0.094 A 
ATOM     10  C   UNL     1       4.580   6.822  13.201  1.00  0.00     0.146 A 
ATOM     11  O   UNL     1       3.783   7.151  12.192  1.00  0.00    -0.452 OA
ENDROOT
BRANCH   1  12
ATOM     12  C   UNL     1       2.919   7.067   9.944  1.00  0.00     0.025 A 
ATOM     13  C   UNL     1       3.305   7.983   8.950  1.00  0.00     0.016 A 
ATOM     14  C   UNL     1       2.398   8.382   7.965  1.00  0.00     0.051 A 
ATOM     15  C   UNL     1       1.097   7.862   7.950  1.00  0.00     0.157 A 
ATOM     16  C   UNL     1       1.620   6.532   9.911  1.00  0.00     0.062 A 
ATOM     17  C   UNL     1       0.709   6.930   8.927  1.00  0.00     0.158 A 
BRANCH  15  18
ATOM     18  O   UNL     1       0.194   8.263   6.967  1.00  0.00    -0.504 OA
ATOM     19  H   UNL     1      -0.807   8.209   7.112  1.00  0.00     0.293 HD
ENDBRANCH  15  18
BRANCH  17  20
ATOM     20  O   UNL     1      -0.576   6.387   8.935  1.00  0.00    -0.504 OA
ATOM     21  H   UNL     1      -0.746   5.410   9.140  1.00  0.00     0.293 HD
ENDBRANCH  17  20
ENDBRANCH   1  12
BRANCH   2  22
ATOM     22  O   UNL     1       4.974   5.086   9.445  1.00  0.00    -0.502 OA
ATOM     23  H   UNL     1       4.173   4.809   8.891  1.00  0.00     0.293 HD
ENDBRANCH   2  22
BRANCH   6  24
ATOM     24  O   UNL     1       7.570   4.724  14.083  1.00  0.00    -0.507 OA
ATOM     25  H   UNL     1       8.240   4.705  13.330  1.00  0.00     0.293 HD
ENDBRANCH   6  24
BRANCH   8  26
ATOM     26  O   UNL     1       4.938   7.712  16.764  1.00  0.00    -0.508 OA
ATOM     27  H   UNL     1       4.003   7.798  17.142  1.00  0.00     0.293 HD
ENDBRANCH   8  26
TORSDOF 6
ENDMDL
MODEL 6
REMARK VINA RESULT:    -5.127      2.994      6.499
REMARK INTER + INTRA:          -6.330
REMARK INTER:                  -6.067
REMARK INTRA:                  -0.263
REMARK UNBOUND:                -0.153
REMARK SMILES O=c1c(O)c(-c2ccc(O)c(O)c2)oc2cc(O)cc(O)c12
REMARK SMILES IDX 5 1 3 2 2 3 1 4 22 5 20 6 19 7 17 8 16 9 15 10 14 11 6 12
REMARK SMILES IDX 7 13 8 14 9 15 13 16 11 17 10 18 12 20 4 22 21 24 18 26
REMARK H PARENT 10 19 12 21 4 23 21 25 18 27
REMARK Flexibility Score: inf
ROOT
ATOM      1  C   UNL     1       5.238   6.282  12.612  1.00  0.00     0.180 A 
ATOM      2  C   UNL     1       6.067   5.200  12.271  1.00  0.00     0.208 A 
ATOM      3  C   UNL     1       5.798   4.480  11.096  1.00  0.00     0.238 A 
ATOM      4  O   UNL     1       6.587   3.560  10.759  1.00  0.00    -0.285 OA
ATOM      5  C   UNL     1       4.670   4.814  10.307  1.00  0.00     0.111 A 
ATOM      6  C   UNL     1       4.276   4.124   9.121  1.00  0.00     0.134 A 
ATOM      7  C   UNL     1       3.204   4.610   8.363  1.00  0.00     0.093 A 
ATOM      8  C   UNL     1       2.472   5.723   8.782  1.00  0.00     0.123 A 
ATOM      9  C   UNL     1       2.815   6.371   9.966  1.00  0.00     0.094 A 
ATOM     10  C   UNL     1       3.903   5.933  10.724  1.00  0.00     0.146 A 
ATOM     11  O   UNL     1       4.208   6.593  11.835  1.00  0.00    -0.452 OA
ENDROOT
BRANCH   1  12
ATOM     12  C   UNL     1       5.467   7.098  13.826  1.00  0.00     0.025 A 
ATOM     13  C   UNL     1       5.987   8.401  13.747  1.00  0.00     0.016 A 
ATOM     14  C   UNL     1       6.172   9.161  14.904  1.00  0.00     0.051 A 
ATOM     15  C   UNL     1       5.826   8.636  16.157  1.00  0.00     0.157 A 
ATOM     16  C   UNL     1       5.102   6.584  15.083  1.00  0.00     0.062 A 
ATOM     17  C   UNL     1       5.286   7.342  16.244  1.00  0.00     0.158 A 
BRANCH  15  18
ATOM     18  O   UNL     1       6.013   9.396  17.310  1.00  0.00    -0.504 OA
ATOM     19  H   UNL     1       6.068  10.407  17.277  1.00  0.00     0.293 HD
ENDBRANCH  15  18
BRANCH  17  20
ATOM     20  O   UNL     1       4.924   6.794  17.475  1.00  0.00    -0.504 OA
ATOM     21  H   UNL     1       5.498   6.905  18.302  1.00  0.00     0.293 HD
ENDBRANCH  17  20
ENDBRANCH   1  12
BRANCH   2  22
ATOM     22  O   UNL     1       7.129   4.837  13.104  1.00  0.00    -0.502 OA
ATOM     23  H   UNL     1       7.752   4.068  12.887  1.00  0.00     0.293 HD
ENDBRANCH   2  22
BRANCH   6  24
ATOM     24  O   UNL     1       4.881   2.950   8.659  1.00  0.00    -0.507 OA
ATOM     25  H   UNL     1       5.102   2.150   9.232  1.00  0.00     0.293 HD
ENDBRANCH   6  24
BRANCH   8  26
ATOM     26  O   UNL     1       1.395   6.191   8.030  1.00  0.00    -0.508 OA
ATOM     27  H   UNL     1       1.195   5.825   7.107  1.00  0.00     0.293 HD
ENDBRANCH   8  26
TORSDOF 6
ENDMDL
MODEL 7
REMARK VINA RESULT:    -5.111     15.885     17.593
REMARK INTER + INTRA:          -6.309
REMARK INTER:                  -6.030
REMARK INTRA:                  -0.279
REMARK UNBOUND:                -0.153
REMARK SMILES O=c1c(O)c(-c2ccc(O)c(O)c2)oc2cc(O)cc(O)c12
REMARK SMILES IDX 5 1 3 2 2 3 1 4 22 5 20 6 19 7 17 8 16 9 15 10 14 11 6 12
REMARK SMILES IDX 7 13 8 14 9 15 13 16 11 17 10 18 12 20 4 22 21 24 18 26
REMARK H PARENT 10 19 12 21 4 23 21 25 18 27
REMARK Flexibility Score: inf
ROOT
ATOM      1  C   UNL     1      -3.091  -9.316  12.244  1.00  0.00     0.180 A 
ATOM      2  C   UNL     1      -2.681  -9.466  10.908  1.00  0.00     0.208 A 
ATOM      3  C   UNL     1      -1.329  -9.726  10.635  1.00  0.00     0.238 A 
ATOM      4  O   UNL     1      -0.984  -9.933   9.443  1.00  0.00    -0.285 OA
ATOM      5  C   UNL     1      -0.392  -9.776  11.696  1.00  0.00     0.111 A 
ATOM      6  C   UNL     1       1.010  -9.988  11.533  1.00  0.00     0.134 A 
ATOM      7  C   UNL     1       1.824 -10.125  12.663  1.00  0.00     0.093 A 
ATOM      8  C   UNL     1       1.298  -9.994  13.950  1.00  0.00     0.123 A 
ATOM      9  C   UNL     1      -0.059  -9.733  14.119  1.00  0.00     0.094 A 
ATOM     10  C   UNL     1      -0.904  -9.629  13.012  1.00  0.00     0.146 A 
ATOM     11  O   UNL     1      -2.196  -9.402  13.220  1.00  0.00    -0.452 OA
ENDROOT
BRANCH   1  12
ATOM     12  C   UNL     1      -4.501  -9.055  12.611  1.00  0.00     0.025 A 
ATOM     13  C   UNL     1      -5.317 -10.065  13.150  1.00  0.00     0.016 A 
ATOM     14  C   UNL     1      -6.638  -9.789  13.513  1.00  0.00     0.051 A 
ATOM     15  C   UNL     1      -7.159  -8.497  13.355  1.00  0.00     0.157 A 
ATOM     16  C   UNL     1      -5.022  -7.757  12.475  1.00  0.00     0.062 A 
ATOM     17  C   UNL     1      -6.345  -7.477  12.836  1.00  0.00     0.158 A 
BRANCH  15  18
ATOM     18  O   UNL     1      -8.478  -8.226  13.715  1.00  0.00    -0.504 OA
ATOM     19  H   UNL     1      -8.846  -8.489  14.622  1.00  0.00     0.293 HD
ENDBRANCH  15  18
BRANCH  17  20
ATOM     20  O   UNL     1      -6.830  -6.180  12.674  1.00  0.00    -0.504 OA
ATOM     21  H   UNL     1      -6.270  -5.365  12.891  1.00  0.00     0.293 HD
ENDBRANCH  17  20
ENDBRANCH   1  12
BRANCH   2  22
ATOM     22  O   UNL     1      -3.608  -9.337   9.869  1.00  0.00    -0.502 OA
ATOM     23  H   UNL     1      -3.480  -8.685   9.104  1.00  0.00     0.293 HD
ENDBRANCH   2  22
BRANCH   6  24
ATOM     24  O   UNL     1       1.654 -10.046  10.293  1.00  0.00    -0.507 OA
ATOM     25  H   UNL     1       1.279  -9.684   9.429  1.00  0.00     0.293 HD
ENDBRANCH   6  24
BRANCH   8  26
ATOM     26  O   UNL     1       2.119 -10.115  15.070  1.00  0.00    -0.508 OA
ATOM     27  H   UNL     1       2.960  -9.560  15.173  1.00  0.00     0.293 HD
ENDBRANCH   8  26
TORSDOF 6
ENDMDL
MODEL 8
REMARK VINA RESULT:    -5.081      1.809      6.589
REMARK INTER + INTRA:          -6.274
REMARK INTER:                  -6.152
REMARK INTRA:                  -0.121
REMARK UNBOUND:                -0.153
REMARK SMILES O=c1c(O)c(-c2ccc(O)c(O)c2)oc2cc(O)cc(O)c12
REMARK SMILES IDX 5 1 3 2 2 3 1 4 22 5 20 6 19 7 17 8 16 9 15 10 14 11 6 12
REMARK SMILES IDX 7 13 8 14 9 15 13 16 11 17 10 18 12 20 4 22 21 24 18 26
REMARK H PARENT 10 19 12 21 4 23 21 25 18 27
REMARK Flexibility Score: inf
ROOT
ATOM      1  C   UNL     1       3.369   5.906   9.640  1.00  0.00     0.180 A 
ATOM      2  C   UNL     1       3.346   5.104   8.487  1.00  0.00     0.208 A 
ATOM      3  C   UNL     1       4.342   4.131   8.313  1.00  0.00     0.238 A 
ATOM      4  O   UNL     1       4.272   3.368   7.315  1.00  0.00    -0.285 OA
ATOM      5  C   UNL     1       5.382   4.008   9.267  1.00  0.00     0.111 A 
ATOM      6  C   UNL     1       6.468   3.086   9.171  1.00  0.00     0.134 A 
ATOM      7  C   UNL     1       7.380   2.981  10.227  1.00  0.00     0.093 A 
ATOM      8  C   UNL     1       7.282   3.808  11.349  1.00  0.00     0.123 A 
ATOM      9  C   UNL     1       6.257   4.747  11.428  1.00  0.00     0.094 A 
ATOM     10  C   UNL     1       5.310   4.850  10.407  1.00  0.00     0.146 A 
ATOM     11  O   UNL     1       4.337   5.745  10.534  1.00  0.00    -0.452 OA
ENDROOT
BRANCH   1  12
ATOM     12  C   UNL     1       2.345   6.943   9.901  1.00  0.00     0.025 A 
ATOM     13  C   UNL     1       2.681   8.306   9.964  1.00  0.00     0.016 A 
ATOM     14  C   UNL     1       1.693   9.268  10.187  1.00  0.00     0.051 A 
ATOM     15  C   UNL     1       0.353   8.885  10.336  1.00  0.00     0.157 A 
ATOM     16  C   UNL     1       0.997   6.566  10.029  1.00  0.00     0.062 A 
ATOM     17  C   UNL     1       0.005   7.527  10.253  1.00  0.00     0.158 A 
BRANCH  15  18
ATOM     18  O   UNL     1      -0.630   9.848  10.560  1.00  0.00    -0.504 OA
ATOM     19  H   UNL     1      -0.638  10.726  10.054  1.00  0.00     0.293 HD
ENDBRANCH  15  18
BRANCH  17  20
ATOM     20  O   UNL     1      -1.320   7.113  10.389  1.00  0.00    -0.504 OA
ATOM     21  H   UNL     1      -1.945   7.526  11.070  1.00  0.00     0.293 HD
ENDBRANCH  17  20
ENDBRANCH   1  12
BRANCH   2  22
ATOM     22  O   UNL     1       2.354   5.293   7.519  1.00  0.00    -0.502 OA
ATOM     23  H   UNL     1       1.575   5.925   7.656  1.00  0.00     0.293 HD
ENDBRANCH   2  22
BRANCH   6  24
ATOM     24  O   UNL     1       6.712   2.276   8.057  1.00  0.00    -0.507 OA
ATOM     25  H   UNL     1       6.087   1.562   7.715  1.00  0.00     0.293 HD
ENDBRANCH   6  24
BRANCH   8  26
ATOM     26  O   UNL     1       8.204   3.707  12.389  1.00  0.00    -0.508 OA
ATOM     27  H   UNL     1       9.200   3.787  12.224  1.00  0.00     0.293 HD
ENDBRANCH   8  26
TORSDOF 6
ENDMDL
MODEL 9
REMARK VINA RESULT:    -5.057      1.317      2.984
REMARK INTER + INTRA:          -6.245
REMARK INTER:                  -6.096
REMARK INTRA:                  -0.148
REMARK UNBOUND:                -0.153
REMARK SMILES O=c1c(O)c(-c2ccc(O)c(O)c2)oc2cc(O)cc(O)c12
REMARK SMILES IDX 5 1 3 2 2 3 1 4 22 5 20 6 19 7 17 8 16 9 15 10 14 11 6 12
REMARK SMILES IDX 7 13 8 14 9 15 13 16 11 17 10 18 12 20 4 22 21 24 18 26
REMARK H PARENT 10 19 12 21 4 23 21 25 18 27
REMARK Flexibility Score: inf
ROOT
ATOM      1  C   UNL     1       4.229   5.145   9.996  1.00  0.00     0.180 A 
ATOM      2  C   UNL     1       4.347   5.996  11.109  1.00  0.00     0.208 A 
ATOM      3  C   UNL     1       3.352   6.959  11.338  1.00  0.00     0.238 A 
ATOM      4  O   UNL     1       3.425   7.667  12.376  1.00  0.00    -0.285 OA
ATOM      5  C   UNL     1       2.280   7.098  10.422  1.00  0.00     0.111 A 
ATOM      6  C   UNL     1       1.240   8.069  10.530  1.00  0.00     0.134 A 
ATOM      7  C   UNL     1       0.174   8.044   9.623  1.00  0.00     0.093 A 
ATOM      8  C   UNL     1       0.143   7.123   8.574  1.00  0.00     0.123 A 
ATOM      9  C   UNL     1       1.181   6.206   8.427  1.00  0.00     0.094 A 
ATOM     10  C   UNL     1       2.239   6.182   9.339  1.00  0.00     0.146 A 
ATOM     11  O   UNL     1       3.196   5.277   9.174  1.00  0.00    -0.452 OA
ENDROOT
BRANCH   1  12
ATOM     12  C   UNL     1       5.230   4.096   9.697  1.00  0.00     0.025 A 
ATOM     13  C   UNL     1       6.039   4.160   8.549  1.00  0.00     0.016 A 
ATOM     14  C   UNL     1       6.993   3.170   8.300  1.00  0.00     0.051 A 
ATOM     15  C   UNL     1       7.164   2.110   9.201  1.00  0.00     0.157 A 
ATOM     16  C   UNL     1       5.420   3.043  10.608  1.00  0.00     0.062 A 
ATOM     17  C   UNL     1       6.374   2.049  10.362  1.00  0.00     0.158 A 
BRANCH  15  18
ATOM     18  O   UNL     1       8.115   1.123   8.949  1.00  0.00    -0.504 OA
ATOM     19  H   UNL     1       7.848   0.184   8.679  1.00  0.00     0.293 HD
ENDBRANCH  15  18
BRANCH  17  20
ATOM     20  O   UNL     1       6.524   1.012  11.282  1.00  0.00    -0.504 OA
ATOM     21  H   UNL     1       5.835   0.277  11.381  1.00  0.00     0.293 HD
ENDBRANCH  17  20
ENDBRANCH   1  12
BRANCH   2  22
ATOM     22  O   UNL     1       5.452   5.894  11.959  1.00  0.00    -0.502 OA
ATOM     23  H   UNL     1       6.271   5.346  11.722  1.00  0.00     0.293 HD
ENDBRANCH   2  22
BRANCH   6  24
ATOM     24  O   UNL     1       1.217   9.090  11.487  1.00  0.00    -0.507 OA
ATOM     25  H   UNL     1       1.189   8.946  12.485  1.00  0.00     0.293 HD
ENDBRANCH   6  24
BRANCH   8  26
ATOM     26  O   UNL     1      -0.914   7.115   7.666  1.00  0.00    -0.508 OA
ATOM     27  H   UNL     1      -1.744   7.676   7.814  1.00  0.00     0.293 HD
ENDBRANCH   8  26
TORSDOF 6
ENDMDL
