MODEL 1
REMARK VINA RESULT:    -1.998      0.000      0.000
REMARK INTER + INTRA:          -9.125
REMARK INTER:                  -5.268
REMARK INTRA:                  -3.857
REMARK UNBOUND:                -3.857
REMARK SMILES CCCCCCCCCCCCCCCCCCCCCCCCCCCCCC(=O)[O-]
REMARK SMILES IDX 16 1 17 2 18 3 19 4 20 5 21 6 22 7 23 8 24 9 25 10 26 11
REMARK SMILES IDX 27 12 28 13 29 14 30 15 31 16 32 17 15 18 14 19 13 20 12 21
REMARK SMILES IDX 11 22 10 23 9 24 8 25 7 26 6 27 5 28 4 29 3 30 2 31 1 32
REMARK H PARENT
REMARK Flexibility Score: inf
ROOT
ATOM      1  C   UNL     1      -0.130  22.057  22.625  1.00  0.00     0.000 C 
ENDROOT
BRANCH   1   2
ATOM      2  C   UNL     1       0.302  22.832  21.373  1.00  0.00     0.000 C 
BRANCH   2   3
ATOM      3  C   UNL     1       1.758  23.327  21.441  1.00  0.00     0.000 C 
BRANCH   3   4
ATOM      4  C   UNL     1       1.992  24.686  20.747  1.00  0.00     0.000 C 
BRANCH   4   5
ATOM      5  C   UNL     1       2.125  25.843  21.754  1.00  0.00     0.000 C 
BRANCH   5   6
ATOM      6  C   UNL     1       1.644  27.185  21.181  1.00  0.00     0.000 C 
BRANCH   6   7
ATOM      7  C   UNL     1       0.140  27.178  20.846  1.00  0.00     0.000 C 
BRANCH   7   8
ATOM      8  C   UNL     1      -0.159  27.791  19.468  1.00  0.00     0.000 C 
BRANCH   8   9
ATOM      9  C   UNL     1      -0.521  26.727  18.418  1.00  0.00     0.000 C 
BRANCH   9  10
ATOM     10  C   UNL     1       0.647  26.420  17.461  1.00  0.00     0.000 C 
BRANCH  10  11
ATOM     11  C   UNL     1       1.022  24.929  17.390  1.00  0.00     0.000 C 
BRANCH  11  12
ATOM     12  C   UNL     1      -0.163  23.995  17.698  1.00  0.00     0.000 C 
BRANCH  12  13
ATOM     13  C   UNL     1       0.044  22.560  17.173  1.00  0.00     0.006 C 
BRANCH  13  14
ATOM     14  C   UNL     1       1.232  21.825  17.817  1.00  0.00     0.053 C 
BRANCH  14  15
ATOM     15  C   UNL     1       0.882  20.434  18.255  1.00  0.00     0.041 C 
ATOM     16  O   UNL     1       0.670  20.191  19.474  1.00  0.00    -0.550 OA
ATOM     17  O   UNL     1       0.750  19.415  17.315  1.00  0.00    -0.550 OA
ENDBRANCH  14  15
ENDBRANCH  13  14
ENDBRANCH  12  13
ENDBRANCH  11  12
ENDBRANCH  10  11
ENDBRANCH   9  10
ENDBRANCH   8   9
ENDBRANCH   7   8
ENDBRANCH   6   7
ENDBRANCH   5   6
ENDBRANCH   4   5
ENDBRANCH   3   4
ENDBRANCH   2   3
ENDBRANCH   1   2
BRANCH   1  18
ATOM     18  C   UNL     1      -0.997  22.890  23.586  1.00  0.00     0.000 C 
BRANCH  18  19
ATOM     19  C   UNL     1      -0.221  23.981  24.353  1.00  0.00     0.000 C 
BRANCH  19  20
ATOM     20  C   UNL     1      -0.593  25.405  23.897  1.00  0.00     0.000 C 
BRANCH  20  21
ATOM     21  C   UNL     1      -0.253  26.471  24.949  1.00  0.00     0.000 C 
BRANCH  21  22
ATOM     22  C   UNL     1      -1.465  27.350  25.309  1.00  0.00     0.000 C 
BRANCH  22  23
ATOM     23  C   UNL     1      -2.758  26.871  24.633  1.00  0.00     0.000 C 
BRANCH  23  24
ATOM     24  C   UNL     1      -3.883  26.568  25.642  1.00  0.00    -0.000 C 
BRANCH  24  25
ATOM     25  C   UNL     1      -3.364  25.741  26.830  1.00  0.00    -0.000 C 
BRANCH  25  26
ATOM     26  C   UNL     1      -3.766  24.255  26.727  1.00  0.00    -0.000 C 
BRANCH  26  27
ATOM     27  C   UNL     1      -4.937  24.024  25.756  1.00  0.00    -0.000 C 
BRANCH  27  28
ATOM     28  C   UNL     1      -5.867  22.886  26.226  1.00  0.00    -0.000 C 
BRANCH  28  29
ATOM     29  C   UNL     1      -7.238  23.407  26.706  1.00  0.00    -0.000 C 
BRANCH  29  30
ATOM     30  C   UNL     1      -8.423  22.502  26.307  1.00  0.00    -0.000 C 
BRANCH  30  31
ATOM     31  C   UNL     1      -9.267  23.043  25.134  1.00  0.00    -0.003 C 
ATOM     32  C   UNL     1     -10.422  22.114  24.753  1.00  0.00     0.004 C 
ENDBRANCH  30  31
ENDBRANCH  29  30
ENDBRANCH  28  29
ENDBRANCH  27  28
ENDBRANCH  26  27
ENDBRANCH  25  26
ENDBRANCH  24  25
ENDBRANCH  23  24
ENDBRANCH  22  23
ENDBRANCH  21  22
ENDBRANCH  20  21
ENDBRANCH  19  20
ENDBRANCH  18  19
ENDBRANCH   1  18
TORSDOF 28
ENDMDL
MODEL 2
REMARK VINA RESULT:    -1.928      4.652     10.349
REMARK INTER + INTRA:          -8.940
REMARK INTER:                  -7.720
REMARK INTRA:                  -1.220
REMARK UNBOUND:                -3.857
REMARK SMILES CCCCCCCCCCCCCCCCCCCCCCCCCCCCCC(=O)[O-]
REMARK SMILES IDX 16 1 17 2 18 3 19 4 20 5 21 6 22 7 23 8 24 9 25 10 26 11
REMARK SMILES IDX 27 12 28 13 29 14 30 15 31 16 32 17 15 18 14 19 13 20 12 21
REMARK SMILES IDX 11 22 10 23 9 24 8 25 7 26 6 27 5 28 4 29 3 30 2 31 1 32
REMARK H PARENT
REMARK Flexibility Score: inf
ROOT
ATOM      1  C   UNL     1       1.365  23.882  21.321  1.00  0.00     0.000 C 
ENDROOT
BRANCH   1   2
ATOM      2  C   UNL     1       0.724  24.272  22.660  1.00  0.00     0.000 C 
BRANCH   2   3
ATOM      3  C   UNL     1       1.290  25.580  23.243  1.00  0.00     0.000 C 
BRANCH   3   4
ATOM      4  C   UNL     1       0.319  26.777  23.158  1.00  0.00     0.000 C 
BRANCH   4   5
ATOM      5  C   UNL     1      -0.370  27.069  24.503  1.00  0.00     0.000 C 
BRANCH   5   6
ATOM      6  C   UNL     1      -1.858  27.421  24.343  1.00  0.00     0.000 C 
BRANCH   6   7
ATOM      7  C   UNL     1      -2.614  27.407  25.685  1.00  0.00     0.000 C 
BRANCH   7   8
ATOM      8  C   UNL     1      -3.105  26.002  26.070  1.00  0.00     0.000 C 
BRANCH   8   9
ATOM      9  C   UNL     1      -4.370  25.589  25.300  1.00  0.00     0.000 C 
BRANCH   9  10
ATOM     10  C   UNL     1      -4.532  24.061  25.202  1.00  0.00     0.000 C 
BRANCH  10  11
ATOM     11  C   UNL     1      -4.847  23.377  26.546  1.00  0.00     0.000 C 
BRANCH  11  12
ATOM     12  C   UNL     1      -6.181  22.608  26.531  1.00  0.00     0.000 C 
BRANCH  12  13
ATOM     13  C   UNL     1      -7.412  23.533  26.443  1.00  0.00     0.006 C 
BRANCH  13  14
ATOM     14  C   UNL     1      -8.739  22.785  26.223  1.00  0.00     0.053 C 
BRANCH  14  15
ATOM     15  C   UNL     1      -9.437  23.208  24.965  1.00  0.00     0.041 C 
ATOM     16  O   UNL     1      -9.213  24.347  24.472  1.00  0.00    -0.550 OA
ATOM     17  O   UNL     1     -10.304  22.334  24.315  1.00  0.00    -0.550 OA
ENDBRANCH  14  15
ENDBRANCH  13  14
ENDBRANCH  12  13
ENDBRANCH  11  12
ENDBRANCH  10  11
ENDBRANCH   9  10
ENDBRANCH   8   9
ENDBRANCH   7   8
ENDBRANCH   6   7
ENDBRANCH   5   6
ENDBRANCH   4   5
ENDBRANCH   3   4
ENDBRANCH   2   3
ENDBRANCH   1   2
BRANCH   1  18
ATOM     18  C   UNL     1       1.220  24.968  20.240  1.00  0.00     0.000 C 
BRANCH  18  19
ATOM     19  C   UNL     1       1.160  24.419  18.799  1.00  0.00     0.000 C 
BRANCH  19  20
ATOM     20  C   UNL     1       1.897  23.074  18.646  1.00  0.00     0.000 C 
BRANCH  20  21
ATOM     21  C   UNL     1       0.938  21.874  18.615  1.00  0.00     0.000 C 
BRANCH  21  22
ATOM     22  C   UNL     1       1.318  20.844  17.535  1.00  0.00     0.000 C 
BRANCH  22  23
ATOM     23  C   UNL     1       1.956  19.580  18.130  1.00  0.00     0.000 C 
BRANCH  23  24
ATOM     24  C   UNL     1       0.912  18.576  18.659  1.00  0.00    -0.000 C 
BRANCH  24  25
ATOM     25  C   UNL     1       0.854  18.585  20.196  1.00  0.00    -0.000 C 
BRANCH  25  26
ATOM     26  C   UNL     1       0.938  17.163  20.791  1.00  0.00    -0.000 C 
BRANCH  26  27
ATOM     27  C   UNL     1       1.869  16.239  19.988  1.00  0.00    -0.000 C 
BRANCH  27  28
ATOM     28  C   UNL     1       1.113  15.045  19.368  1.00  0.00    -0.000 C 
BRANCH  28  29
ATOM     29  C   UNL     1       1.700  13.686  19.806  1.00  0.00    -0.000 C 
BRANCH  29  30
ATOM     30  C   UNL     1       1.394  12.532  18.828  1.00  0.00    -0.000 C 
BRANCH  30  31
ATOM     31  C   UNL     1       1.750  11.132  19.371  1.00  0.00    -0.003 C 
ATOM     32  C   UNL     1       1.312  10.928  20.824  1.00  0.00     0.004 C 
ENDBRANCH  30  31
ENDBRANCH  29  30
ENDBRANCH  28  29
ENDBRANCH  27  28
ENDBRANCH  26  27
ENDBRANCH  25  26
ENDBRANCH  24  25
ENDBRANCH  23  24
ENDBRANCH  22  23
ENDBRANCH  21  22
ENDBRANCH  20  21
ENDBRANCH  19  20
ENDBRANCH  18  19
ENDBRANCH   1  18
TORSDOF 28
ENDMDL
MODEL 3
REMARK VINA RESULT:    -1.881      3.903      9.905
REMARK INTER + INTRA:          -8.817
REMARK INTER:                  -7.377
REMARK INTRA:                  -1.441
REMARK UNBOUND:                -3.857
REMARK SMILES CCCCCCCCCCCCCCCCCCCCCCCCCCCCCC(=O)[O-]
REMARK SMILES IDX 16 1 17 2 18 3 19 4 20 5 21 6 22 7 23 8 24 9 25 10 26 11
REMARK SMILES IDX 27 12 28 13 29 14 30 15 31 16 32 17 15 18 14 19 13 20 12 21
REMARK SMILES IDX 11 22 10 23 9 24 8 25 7 26 6 27 5 28 4 29 3 30 2 31 1 32
REMARK H PARENT
REMARK Flexibility Score: inf
ROOT
ATOM      1  C   UNL     1       0.818  28.114  20.539  1.00  0.00     0.000 C 
ENDROOT
BRANCH   1   2
ATOM      2  C   UNL     1       0.567  27.748  22.008  1.00  0.00     0.000 C 
BRANCH   2   3
ATOM      3  C   UNL     1       1.287  26.457  22.440  1.00  0.00     0.000 C 
BRANCH   3   4
ATOM      4  C   UNL     1       0.981  26.022  23.889  1.00  0.00     0.000 C 
BRANCH   4   5
ATOM      5  C   UNL     1      -0.315  26.653  24.429  1.00  0.00     0.000 C 
BRANCH   5   6
ATOM      6  C   UNL     1      -1.402  25.608  24.731  1.00  0.00     0.000 C 
BRANCH   6   7
ATOM      7  C   UNL     1      -2.810  26.227  24.805  1.00  0.00     0.000 C 
BRANCH   7   8
ATOM      8  C   UNL     1      -3.515  25.929  26.138  1.00  0.00     0.000 C 
BRANCH   8   9
ATOM      9  C   UNL     1      -3.843  24.436  26.308  1.00  0.00     0.000 C 
BRANCH   9  10
ATOM     10  C   UNL     1      -5.098  24.013  25.521  1.00  0.00     0.000 C 
BRANCH  10  11
ATOM     11  C   UNL     1      -5.897  22.875  26.181  1.00  0.00     0.000 C 
BRANCH  11  12
ATOM     12  C   UNL     1      -7.129  23.376  26.958  1.00  0.00     0.000 C 
BRANCH  12  13
ATOM     13  C   UNL     1      -8.464  22.904  26.348  1.00  0.00     0.006 C 
BRANCH  13  14
ATOM     14  C   UNL     1      -8.846  23.630  25.047  1.00  0.00     0.053 C 
BRANCH  14  15
ATOM     15  C   UNL     1      -9.959  22.946  24.310  1.00  0.00     0.041 C 
ATOM     16  O   UNL     1     -10.606  23.568  23.424  1.00  0.00    -0.550 OA
ATOM     17  O   UNL     1     -10.259  21.612  24.573  1.00  0.00    -0.550 OA
ENDBRANCH  14  15
ENDBRANCH  13  14
ENDBRANCH  12  13
ENDBRANCH  11  12
ENDBRANCH  10  11
ENDBRANCH   9  10
ENDBRANCH   8   9
ENDBRANCH   7   8
ENDBRANCH   6   7
ENDBRANCH   5   6
ENDBRANCH   4   5
ENDBRANCH   3   4
ENDBRANCH   2   3
ENDBRANCH   1   2
BRANCH   1  18
ATOM     18  C   UNL     1       1.013  26.886  19.632  1.00  0.00     0.000 C 
BRANCH  18  19
ATOM     19  C   UNL     1       0.093  26.864  18.394  1.00  0.00     0.000 C 
BRANCH  19  20
ATOM     20  C   UNL     1       0.752  26.187  17.177  1.00  0.00     0.000 C 
BRANCH  20  21
ATOM     21  C   UNL     1       1.042  24.697  17.413  1.00  0.00     0.000 C 
BRANCH  21  22
ATOM     22  C   UNL     1      -0.243  23.858  17.529  1.00  0.00     0.000 C 
BRANCH  22  23
ATOM     23  C   UNL     1       0.040  22.406  17.943  1.00  0.00     0.000 C 
BRANCH  23  24
ATOM     24  C   UNL     1       0.905  22.304  19.215  1.00  0.00    -0.000 C 
BRANCH  24  25
ATOM     25  C   UNL     1       0.564  21.044  20.027  1.00  0.00    -0.000 C 
BRANCH  25  26
ATOM     26  C   UNL     1       1.509  19.868  19.704  1.00  0.00    -0.000 C 
BRANCH  26  27
ATOM     27  C   UNL     1       0.852  18.497  19.945  1.00  0.00    -0.000 C 
BRANCH  27  28
ATOM     28  C   UNL     1       1.894  17.388  20.200  1.00  0.00    -0.000 C 
BRANCH  28  29
ATOM     29  C   UNL     1       1.330  15.977  19.929  1.00  0.00    -0.000 C 
BRANCH  29  30
ATOM     30  C   UNL     1       1.520  15.499  18.474  1.00  0.00    -0.000 C 
BRANCH  30  31
ATOM     31  C   UNL     1       0.703  14.243  18.109  1.00  0.00    -0.003 C 
ATOM     32  C   UNL     1       0.876  13.106  19.119  1.00  0.00     0.004 C 
ENDBRANCH  30  31
ENDBRANCH  29  30
ENDBRANCH  28  29
ENDBRANCH  27  28
ENDBRANCH  26  27
ENDBRANCH  25  26
ENDBRANCH  24  25
ENDBRANCH  23  24
ENDBRANCH  22  23
ENDBRANCH  21  22
ENDBRANCH  20  21
ENDBRANCH  19  20
ENDBRANCH  18  19
ENDBRANCH   1  18
TORSDOF 28
ENDMDL
MODEL 4
REMARK VINA RESULT:    -1.638      4.014     10.297
REMARK INTER + INTRA:          -8.175
REMARK INTER:                  -6.701
REMARK INTRA:                  -1.475
REMARK UNBOUND:                -3.857
REMARK SMILES CCCCCCCCCCCCCCCCCCCCCCCCCCCCCC(=O)[O-]
REMARK SMILES IDX 16 1 17 2 18 3 19 4 20 5 21 6 22 7 23 8 24 9 25 10 26 11
REMARK SMILES IDX 27 12 28 13 29 14 30 15 31 16 32 17 15 18 14 19 13 20 12 21
REMARK SMILES IDX 11 22 10 23 9 24 8 25 7 26 6 27 5 28 4 29 3 30 2 31 1 32
REMARK H PARENT
REMARK Flexibility Score: inf
ROOT
ATOM      1  C   UNL     1      -1.461  28.001  24.153  1.00  0.00     0.000 C 
ENDROOT
BRANCH   1   2
ATOM      2  C   UNL     1      -1.983  27.283  25.404  1.00  0.00     0.000 C 
BRANCH   2   3
ATOM      3  C   UNL     1      -2.559  25.887  25.103  1.00  0.00     0.000 C 
BRANCH   3   4
ATOM      4  C   UNL     1      -4.022  25.700  25.555  1.00  0.00     0.000 C 
BRANCH   4   5
ATOM      5  C   UNL     1      -4.541  24.275  25.289  1.00  0.00     0.000 C 
BRANCH   5   6
ATOM      6  C   UNL     1      -4.764  23.474  26.582  1.00  0.00     0.000 C 
BRANCH   6   7
ATOM      7  C   UNL     1      -6.062  22.646  26.546  1.00  0.00     0.000 C 
BRANCH   7   8
ATOM      8  C   UNL     1      -7.311  23.518  26.338  1.00  0.00     0.000 C 
BRANCH   8   9
ATOM      9  C   UNL     1      -8.610  22.783  26.709  1.00  0.00     0.000 C 
BRANCH   9  10
ATOM     10  C   UNL     1      -9.267  22.095  25.498  1.00  0.00     0.000 C 
BRANCH  10  11
ATOM     11  C   UNL     1      -9.791  23.072  24.430  1.00  0.00     0.000 C 
BRANCH  11  12
ATOM     12  C   UNL     1     -11.253  22.799  24.031  1.00  0.00     0.000 C 
BRANCH  12  13
ATOM     13  C   UNL     1     -11.747  23.703  22.883  1.00  0.00     0.006 C 
BRANCH  13  14
ATOM     14  C   UNL     1     -11.147  23.351  21.510  1.00  0.00     0.053 C 
BRANCH  14  15
ATOM     15  C   UNL     1     -12.100  23.610  20.382  1.00  0.00     0.041 C 
ATOM     16  O   UNL     1     -12.781  22.664  19.901  1.00  0.00    -0.550 OA
ATOM     17  O   UNL     1     -12.266  24.900  19.886  1.00  0.00    -0.550 OA
ENDBRANCH  14  15
ENDBRANCH  13  14
ENDBRANCH  12  13
ENDBRANCH  11  12
ENDBRANCH  10  11
ENDBRANCH   9  10
ENDBRANCH   8   9
ENDBRANCH   7   8
ENDBRANCH   6   7
ENDBRANCH   5   6
ENDBRANCH   4   5
ENDBRANCH   3   4
ENDBRANCH   2   3
ENDBRANCH   1   2
BRANCH   1  18
ATOM     18  C   UNL     1       0.073  28.116  24.113  1.00  0.00     0.000 C 
BRANCH  18  19
ATOM     19  C   UNL     1       0.810  26.762  24.193  1.00  0.00     0.000 C 
BRANCH  19  20
ATOM     20  C   UNL     1       0.545  25.870  22.965  1.00  0.00     0.000 C 
BRANCH  20  21
ATOM     21  C   UNL     1       1.020  24.423  23.171  1.00  0.00     0.000 C 
BRANCH  21  22
ATOM     22  C   UNL     1       1.385  23.729  21.846  1.00  0.00     0.000 C 
BRANCH  22  23
ATOM     23  C   UNL     1       1.001  24.570  20.619  1.00  0.00     0.000 C 
BRANCH  23  24
ATOM     24  C   UNL     1       1.434  23.919  19.290  1.00  0.00    -0.000 C 
BRANCH  24  25
ATOM     25  C   UNL     1       0.220  23.575  18.411  1.00  0.00    -0.000 C 
BRANCH  25  26
ATOM     26  C   UNL     1       0.132  22.065  18.103  1.00  0.00    -0.000 C 
BRANCH  26  27
ATOM     27  C   UNL     1       1.475  21.341  18.302  1.00  0.00    -0.000 C 
BRANCH  27  28
ATOM     28  C   UNL     1       1.455  20.402  19.526  1.00  0.00    -0.000 C 
BRANCH  28  29
ATOM     29  C   UNL     1       1.228  18.927  19.131  1.00  0.00    -0.000 C 
BRANCH  29  30
ATOM     30  C   UNL     1       1.533  17.925  20.265  1.00  0.00    -0.000 C 
BRANCH  30  31
ATOM     31  C   UNL     1       1.079  16.480  19.971  1.00  0.00    -0.003 C 
ATOM     32  C   UNL     1       1.828  15.439  20.806  1.00  0.00     0.004 C 
ENDBRANCH  30  31
ENDBRANCH  29  30
ENDBRANCH  28  29
ENDBRANCH  27  28
ENDBRANCH  26  27
ENDBRANCH  25  26
ENDBRANCH  24  25
ENDBRANCH  23  24
ENDBRANCH  22  23
ENDBRANCH  21  22
ENDBRANCH  20  21
ENDBRANCH  19  20
ENDBRANCH  18  19
ENDBRANCH   1  18
TORSDOF 28
ENDMDL
MODEL 5
REMARK VINA RESULT:    -1.540      3.724     10.118
REMARK INTER + INTRA:          -7.919
REMARK INTER:                  -6.367
REMARK INTRA:                  -1.552
REMARK UNBOUND:                -3.857
REMARK SMILES CCCCCCCCCCCCCCCCCCCCCCCCCCCCCC(=O)[O-]
REMARK SMILES IDX 16 1 17 2 18 3 19 4 20 5 21 6 22 7 23 8 24 9 25 10 26 11
REMARK SMILES IDX 27 12 28 13 29 14 30 15 31 16 32 17 15 18 14 19 13 20 12 21
REMARK SMILES IDX 11 22 10 23 9 24 8 25 7 26 6 27 5 28 4 29 3 30 2 31 1 32
REMARK H PARENT
REMARK Flexibility Score: inf
ROOT
ATOM      1  C   UNL     1      -1.585  28.031  24.835  1.00  0.00     0.000 C 
ENDROOT
BRANCH   1   2
ATOM      2  C   UNL     1      -2.255  27.105  25.859  1.00  0.00     0.000 C 
BRANCH   2   3
ATOM      3  C   UNL     1      -2.757  25.787  25.243  1.00  0.00     0.000 C 
BRANCH   3   4
ATOM      4  C   UNL     1      -4.241  25.481  25.537  1.00  0.00     0.000 C 
BRANCH   4   5
ATOM      5  C   UNL     1      -4.591  24.000  25.309  1.00  0.00     0.000 C 
BRANCH   5   6
ATOM      6  C   UNL     1      -4.966  23.272  26.610  1.00  0.00     0.000 C 
BRANCH   6   7
ATOM      7  C   UNL     1      -6.366  22.633  26.545  1.00  0.00     0.000 C 
BRANCH   7   8
ATOM      8  C   UNL     1      -7.473  23.665  26.272  1.00  0.00     0.000 C 
BRANCH   8   9
ATOM      9  C   UNL     1      -8.876  23.118  26.580  1.00  0.00     0.000 C 
BRANCH   9  10
ATOM     10  C   UNL     1      -9.288  21.978  25.629  1.00  0.00     0.000 C 
BRANCH  10  11
ATOM     11  C   UNL     1     -10.138  22.438  24.431  1.00  0.00     0.000 C 
BRANCH  11  12
ATOM     12  C   UNL     1      -9.847  23.890  24.009  1.00  0.00     0.000 C 
BRANCH  12  13
ATOM     13  C   UNL     1     -10.560  24.296  22.704  1.00  0.00     0.006 C 
BRANCH  13  14
ATOM     14  C   UNL     1     -11.467  23.198  22.120  1.00  0.00     0.053 C 
BRANCH  14  15
ATOM     15  C   UNL     1     -12.020  23.562  20.775  1.00  0.00     0.041 C 
ATOM     16  O   UNL     1     -12.144  24.775  20.451  1.00  0.00    -0.550 OA
ATOM     17  O   UNL     1     -12.364  22.567  19.865  1.00  0.00    -0.550 OA
ENDBRANCH  14  15
ENDBRANCH  13  14
ENDBRANCH  12  13
ENDBRANCH  11  12
ENDBRANCH  10  11
ENDBRANCH   9  10
ENDBRANCH   8   9
ENDBRANCH   7   8
ENDBRANCH   6   7
ENDBRANCH   5   6
ENDBRANCH   4   5
ENDBRANCH   3   4
ENDBRANCH   2   3
ENDBRANCH   1   2
BRANCH   1  18
ATOM     18  C   UNL     1      -0.055  28.102  24.990  1.00  0.00     0.000 C 
BRANCH  18  19
ATOM     19  C   UNL     1       0.675  26.785  24.653  1.00  0.00     0.000 C 
BRANCH  19  20
ATOM     20  C   UNL     1       0.466  26.348  23.191  1.00  0.00     0.000 C 
BRANCH  20  21
ATOM     21  C   UNL     1       1.583  25.423  22.684  1.00  0.00     0.000 C 
BRANCH  21  22
ATOM     22  C   UNL     1       1.603  25.311  21.149  1.00  0.00     0.000 C 
BRANCH  22  23
ATOM     23  C   UNL     1       0.679  26.336  20.474  1.00  0.00     0.000 C 
BRANCH  23  24
ATOM     24  C   UNL     1       0.922  26.452  18.956  1.00  0.00    -0.000 C 
BRANCH  24  25
ATOM     25  C   UNL     1      -0.367  26.190  18.159  1.00  0.00    -0.000 C 
BRANCH  25  26
ATOM     26  C   UNL     1      -0.201  25.042  17.141  1.00  0.00    -0.000 C 
BRANCH  26  27
ATOM     27  C   UNL     1       0.894  24.042  17.550  1.00  0.00    -0.000 C 
BRANCH  27  28
ATOM     28  C   UNL     1       0.378  22.993  18.558  1.00  0.00    -0.000 C 
BRANCH  28  29
ATOM     29  C   UNL     1      -0.543  21.946  17.896  1.00  0.00    -0.000 C 
BRANCH  29  30
ATOM     30  C   UNL     1       0.218  20.842  17.130  1.00  0.00    -0.000 C 
BRANCH  30  31
ATOM     31  C   UNL     1       0.460  19.557  17.948  1.00  0.00    -0.003 C 
ATOM     32  C   UNL     1      -0.095  18.304  17.265  1.00  0.00     0.004 C 
ENDBRANCH  30  31
ENDBRANCH  29  30
ENDBRANCH  28  29
ENDBRANCH  27  28
ENDBRANCH  26  27
ENDBRANCH  25  26
ENDBRANCH  24  25
ENDBRANCH  23  24
ENDBRANCH  22  23
ENDBRANCH  21  22
ENDBRANCH  20  21
ENDBRANCH  19  20
ENDBRANCH  18  19
ENDBRANCH   1  18
TORSDOF 28
ENDMDL
MODEL 6
REMARK VINA RESULT:    -1.200      3.627      9.983
REMARK INTER + INTRA:          -7.020
REMARK INTER:                  -6.372
REMARK INTRA:                  -0.648
REMARK UNBOUND:                -3.857
REMARK SMILES CCCCCCCCCCCCCCCCCCCCCCCCCCCCCC(=O)[O-]
REMARK SMILES IDX 16 1 17 2 18 3 19 4 20 5 21 6 22 7 23 8 24 9 25 10 26 11
REMARK SMILES IDX 27 12 28 13 29 14 30 15 31 16 32 17 15 18 14 19 13 20 12 21
REMARK SMILES IDX 11 22 10 23 9 24 8 25 7 26 6 27 5 28 4 29 3 30 2 31 1 32
REMARK H PARENT
REMARK Flexibility Score: inf
ROOT
ATOM      1  C   UNL     1      -0.939  25.942  24.367  1.00  0.00     0.000 C 
ENDROOT
BRANCH   1   2
ATOM      2  C   UNL     1      -1.285  27.436  24.302  1.00  0.00     0.000 C 
BRANCH   2   3
ATOM      3  C   UNL     1      -2.686  27.756  24.853  1.00  0.00     0.000 C 
BRANCH   3   4
ATOM      4  C   UNL     1      -3.152  26.806  25.976  1.00  0.00     0.000 C 
BRANCH   4   5
ATOM      5  C   UNL     1      -3.233  25.341  25.509  1.00  0.00     0.000 C 
BRANCH   5   6
ATOM      6  C   UNL     1      -4.053  24.459  26.464  1.00  0.00     0.000 C 
BRANCH   6   7
ATOM      7  C   UNL     1      -4.938  23.445  25.715  1.00  0.00     0.000 C 
BRANCH   7   8
ATOM      8  C   UNL     1      -6.326  24.012  25.376  1.00  0.00     0.000 C 
BRANCH   8   9
ATOM      9  C   UNL     1      -7.417  23.510  26.337  1.00  0.00     0.000 C 
BRANCH   9  10
ATOM     10  C   UNL     1      -8.822  23.543  25.705  1.00  0.00     0.000 C 
BRANCH  10  11
ATOM     11  C   UNL     1      -9.455  22.153  25.514  1.00  0.00     0.000 C 
BRANCH  11  12
ATOM     12  C   UNL     1     -10.661  22.168  24.557  1.00  0.00     0.000 C 
BRANCH  12  13
ATOM     13  C   UNL     1     -10.528  23.214  23.431  1.00  0.00     0.006 C 
BRANCH  13  14
ATOM     14  C   UNL     1     -11.866  23.597  22.774  1.00  0.00     0.053 C 
BRANCH  14  15
ATOM     15  C   UNL     1     -11.760  23.728  21.284  1.00  0.00     0.041 C 
ATOM     16  O   UNL     1     -12.083  22.762  20.541  1.00  0.00    -0.550 OA
ATOM     17  O   UNL     1     -11.343  24.928  20.713  1.00  0.00    -0.550 OA
ENDBRANCH  14  15
ENDBRANCH  13  14
ENDBRANCH  12  13
ENDBRANCH  11  12
ENDBRANCH  10  11
ENDBRANCH   9  10
ENDBRANCH   8   9
ENDBRANCH   7   8
ENDBRANCH   6   7
ENDBRANCH   5   6
ENDBRANCH   4   5
ENDBRANCH   3   4
ENDBRANCH   2   3
ENDBRANCH   1   2
BRANCH   1  18
ATOM     18  C   UNL     1       0.282  25.563  23.510  1.00  0.00     0.000 C 
BRANCH  18  19
ATOM     19  C   UNL     1       0.761  26.684  22.563  1.00  0.00     0.000 C 
BRANCH  19  20
ATOM     20  C   UNL     1       2.106  26.354  21.887  1.00  0.00     0.000 C 
BRANCH  20  21
ATOM     21  C   UNL     1       2.069  26.558  20.364  1.00  0.00     0.000 C 
BRANCH  21  22
ATOM     22  C   UNL     1       1.452  25.358  19.624  1.00  0.00     0.000 C 
BRANCH  22  23
ATOM     23  C   UNL     1       0.259  25.762  18.744  1.00  0.00     0.000 C 
BRANCH  23  24
ATOM     24  C   UNL     1       0.505  25.498  17.246  1.00  0.00    -0.000 C 
BRANCH  24  25
ATOM     25  C   UNL     1       0.804  24.014  16.978  1.00  0.00    -0.000 C 
BRANCH  25  26
ATOM     26  C   UNL     1      -0.407  23.109  17.293  1.00  0.00    -0.000 C 
BRANCH  26  27
ATOM     27  C   UNL     1       0.010  21.701  17.751  1.00  0.00    -0.000 C 
BRANCH  27  28
ATOM     28  C   UNL     1       0.920  21.739  18.997  1.00  0.00    -0.000 C 
BRANCH  28  29
ATOM     29  C   UNL     1       0.528  20.674  20.044  1.00  0.00    -0.000 C 
BRANCH  29  30
ATOM     30  C   UNL     1       1.244  19.320  19.852  1.00  0.00    -0.000 C 
BRANCH  30  31
ATOM     31  C   UNL     1       0.531  18.359  18.878  1.00  0.00    -0.003 C 
ATOM     32  C   UNL     1       0.699  16.887  19.264  1.00  0.00     0.004 C 
ENDBRANCH  30  31
ENDBRANCH  29  30
ENDBRANCH  28  29
ENDBRANCH  27  28
ENDBRANCH  26  27
ENDBRANCH  25  26
ENDBRANCH  24  25
ENDBRANCH  23  24
ENDBRANCH  22  23
ENDBRANCH  21  22
ENDBRANCH  20  21
ENDBRANCH  19  20
ENDBRANCH  18  19
ENDBRANCH   1  18
TORSDOF 28
ENDMDL
MODEL 7
REMARK VINA RESULT:    -1.111      3.632     10.022
REMARK INTER + INTRA:          -6.786
REMARK INTER:                  -5.336
REMARK INTRA:                  -1.450
REMARK UNBOUND:                -3.857
REMARK SMILES CCCCCCCCCCCCCCCCCCCCCCCCCCCCCC(=O)[O-]
REMARK SMILES IDX 16 1 17 2 18 3 19 4 20 5 21 6 22 7 23 8 24 9 25 10 26 11
REMARK SMILES IDX 27 12 28 13 29 14 30 15 31 16 32 17 15 18 14 19 13 20 12 21
REMARK SMILES IDX 11 22 10 23 9 24 8 25 7 26 6 27 5 28 4 29 3 30 2 31 1 32
REMARK H PARENT
REMARK Flexibility Score: inf
ROOT
ATOM      1  C   UNL     1       0.394  27.183  22.889  1.00  0.00     0.000 C 
ENDROOT
BRANCH   1   2
ATOM      2  C   UNL     1      -0.745  27.962  22.218  1.00  0.00     0.000 C 
BRANCH   2   3
ATOM      3  C   UNL     1      -2.012  28.050  23.088  1.00  0.00     0.000 C 
BRANCH   3   4
ATOM      4  C   UNL     1      -1.859  27.415  24.486  1.00  0.00     0.000 C 
BRANCH   4   5
ATOM      5  C   UNL     1      -2.670  26.114  24.631  1.00  0.00     0.000 C 
BRANCH   5   6
ATOM      6  C   UNL     1      -3.558  26.105  25.885  1.00  0.00     0.000 C 
BRANCH   6   7
ATOM      7  C   UNL     1      -3.874  24.679  26.374  1.00  0.00     0.000 C 
BRANCH   7   8
ATOM      8  C   UNL     1      -5.262  24.196  25.922  1.00  0.00     0.000 C 
BRANCH   8   9
ATOM      9  C   UNL     1      -5.467  22.691  26.163  1.00  0.00     0.000 C 
BRANCH   9  10
ATOM     10  C   UNL     1      -6.795  22.383  26.880  1.00  0.00     0.000 C 
BRANCH  10  11
ATOM     11  C   UNL     1      -7.981  23.237  26.396  1.00  0.00     0.000 C 
BRANCH  11  12
ATOM     12  C   UNL     1      -9.275  22.421  26.215  1.00  0.00     0.000 C 
BRANCH  12  13
ATOM     13  C   UNL     1      -9.627  22.162  24.736  1.00  0.00     0.006 C 
BRANCH  13  14
ATOM     14  C   UNL     1     -10.901  22.885  24.263  1.00  0.00     0.053 C 
BRANCH  14  15
ATOM     15  C   UNL     1     -10.651  23.782  23.088  1.00  0.00     0.041 C 
ATOM     16  O   UNL     1      -9.832  24.736  23.186  1.00  0.00    -0.550 OA
ATOM     17  O   UNL     1     -11.291  23.545  21.875  1.00  0.00    -0.550 OA
ENDBRANCH  14  15
ENDBRANCH  13  14
ENDBRANCH  12  13
ENDBRANCH  11  12
ENDBRANCH  10  11
ENDBRANCH   9  10
ENDBRANCH   8   9
ENDBRANCH   7   8
ENDBRANCH   6   7
ENDBRANCH   5   6
ENDBRANCH   4   5
ENDBRANCH   3   4
ENDBRANCH   2   3
ENDBRANCH   1   2
BRANCH   1  18
ATOM     18  C   UNL     1       1.780  27.507  22.304  1.00  0.00     0.000 C 
BRANCH  18  19
ATOM     19  C   UNL     1       1.740  28.102  20.881  1.00  0.00     0.000 C 
BRANCH  19  20
ATOM     20  C   UNL     1       2.125  27.075  19.798  1.00  0.00     0.000 C 
BRANCH  20  21
ATOM     21  C   UNL     1       1.214  25.838  19.805  1.00  0.00     0.000 C 
BRANCH  21  22
ATOM     22  C   UNL     1      -0.087  26.060  19.013  1.00  0.00     0.000 C 
BRANCH  22  23
ATOM     23  C   UNL     1      -0.090  25.315  17.669  1.00  0.00     0.000 C 
BRANCH  23  24
ATOM     24  C   UNL     1       1.299  25.285  16.999  1.00  0.00    -0.000 C 
BRANCH  24  25
ATOM     25  C   UNL     1       1.932  23.886  17.082  1.00  0.00    -0.000 C 
BRANCH  25  26
ATOM     26  C   UNL     1       1.009  22.868  17.785  1.00  0.00    -0.000 C 
BRANCH  26  27
ATOM     27  C   UNL     1       0.844  21.566  16.981  1.00  0.00    -0.000 C 
BRANCH  27  28
ATOM     28  C   UNL     1       1.538  20.369  17.663  1.00  0.00    -0.000 C 
BRANCH  28  29
ATOM     29  C   UNL     1       0.530  19.320  18.178  1.00  0.00    -0.000 C 
BRANCH  29  30
ATOM     30  C   UNL     1       0.732  18.936  19.659  1.00  0.00    -0.000 C 
BRANCH  30  31
ATOM     31  C   UNL     1       0.567  17.431  19.951  1.00  0.00    -0.003 C 
ATOM     32  C   UNL     1       1.836  16.792  20.520  1.00  0.00     0.004 C 
ENDBRANCH  30  31
ENDBRANCH  29  30
ENDBRANCH  28  29
ENDBRANCH  27  28
ENDBRANCH  26  27
ENDBRANCH  25  26
ENDBRANCH  24  25
ENDBRANCH  23  24
ENDBRANCH  22  23
ENDBRANCH  21  22
ENDBRANCH  20  21
ENDBRANCH  19  20
ENDBRANCH  18  19
ENDBRANCH   1  18
TORSDOF 28
ENDMDL
MODEL 8
REMARK VINA RESULT:    -1.074      4.954     10.053
REMARK INTER + INTRA:          -6.689
REMARK INTER:                  -4.676
REMARK INTRA:                  -2.012
REMARK UNBOUND:                -3.857
REMARK SMILES CCCCCCCCCCCCCCCCCCCCCCCCCCCCCC(=O)[O-]
REMARK SMILES IDX 16 1 17 2 18 3 19 4 20 5 21 6 22 7 23 8 24 9 25 10 26 11
REMARK SMILES IDX 27 12 28 13 29 14 30 15 31 16 32 17 15 18 14 19 13 20 12 21
REMARK SMILES IDX 11 22 10 23 9 24 8 25 7 26 6 27 5 28 4 29 3 30 2 31 1 32
REMARK H PARENT
REMARK Flexibility Score: inf
ROOT
ATOM      1  C   UNL     1       0.206  21.805  21.802  1.00  0.00     0.000 C 
ENDROOT
BRANCH   1   2
ATOM      2  C   UNL     1       0.909  23.043  22.376  1.00  0.00     0.000 C 
BRANCH   2   3
ATOM      3  C   UNL     1       0.084  23.756  23.462  1.00  0.00     0.000 C 
BRANCH   3   4
ATOM      4  C   UNL     1      -1.075  22.908  24.029  1.00  0.00     0.000 C 
BRANCH   4   5
ATOM      5  C   UNL     1      -1.912  23.679  25.067  1.00  0.00     0.000 C 
BRANCH   5   6
ATOM      6  C   UNL     1      -1.473  25.145  25.211  1.00  0.00     0.000 C 
BRANCH   6   7
ATOM      7  C   UNL     1      -2.472  26.125  24.566  1.00  0.00     0.000 C 
BRANCH   7   8
ATOM      8  C   UNL     1      -1.802  27.430  24.106  1.00  0.00     0.000 C 
BRANCH   8   9
ATOM      9  C   UNL     1      -0.870  27.220  22.902  1.00  0.00     0.000 C 
BRANCH   9  10
ATOM     10  C   UNL     1       0.617  27.381  23.270  1.00  0.00     0.000 C 
BRANCH  10  11
ATOM     11  C   UNL     1       1.589  26.960  22.153  1.00  0.00     0.000 C 
BRANCH  11  12
ATOM     12  C   UNL     1       1.545  27.899  20.932  1.00  0.00     0.000 C 
BRANCH  12  13
ATOM     13  C   UNL     1       0.586  27.412  19.827  1.00  0.00     0.006 C 
BRANCH  13  14
ATOM     14  C   UNL     1       1.027  26.102  19.152  1.00  0.00     0.053 C 
BRANCH  14  15
ATOM     15  C   UNL     1       0.029  25.607  18.148  1.00  0.00     0.041 C 
ATOM     16  O   UNL     1       0.060  24.405  17.766  1.00  0.00    -0.550 OA
ATOM     17  O   UNL     1      -0.958  26.459  17.661  1.00  0.00    -0.550 OA
ENDBRANCH  14  15
ENDBRANCH  13  14
ENDBRANCH  12  13
ENDBRANCH  11  12
ENDBRANCH  10  11
ENDBRANCH   9  10
ENDBRANCH   8   9
ENDBRANCH   7   8
ENDBRANCH   6   7
ENDBRANCH   5   6
ENDBRANCH   4   5
ENDBRANCH   3   4
ENDBRANCH   2   3
ENDBRANCH   1   2
BRANCH   1  18
ATOM     18  C   UNL     1       0.187  21.777  20.263  1.00  0.00     0.000 C 
BRANCH  18  19
ATOM     19  C   UNL     1       0.931  20.574  19.645  1.00  0.00     0.000 C 
BRANCH  19  20
ATOM     20  C   UNL     1       1.721  20.954  18.377  1.00  0.00     0.000 C 
BRANCH  20  21
ATOM     21  C   UNL     1       1.776  19.813  17.350  1.00  0.00     0.000 C 
BRANCH  21  22
ATOM     22  C   UNL     1       1.526  18.434  17.987  1.00  0.00     0.000 C 
BRANCH  22  23
ATOM     23  C   UNL     1       0.080  17.952  17.792  1.00  0.00     0.000 C 
BRANCH  23  24
ATOM     24  C   UNL     1      -0.166  16.548  18.379  1.00  0.00    -0.000 C 
BRANCH  24  25
ATOM     25  C   UNL     1       0.741  15.496  17.718  1.00  0.00    -0.000 C 
BRANCH  25  26
ATOM     26  C   UNL     1       0.470  14.074  18.252  1.00  0.00    -0.000 C 
BRANCH  26  27
ATOM     27  C   UNL     1       1.262  13.762  19.534  1.00  0.00    -0.000 C 
BRANCH  27  28
ATOM     28  C   UNL     1       1.317  12.248  19.831  1.00  0.00    -0.000 C 
BRANCH  28  29
ATOM     29  C   UNL     1       2.116  11.469  18.764  1.00  0.00    -0.000 C 
BRANCH  29  30
ATOM     30  C   UNL     1       1.346  10.278  18.157  1.00  0.00    -0.000 C 
BRANCH  30  31
ATOM     31  C   UNL     1       2.014   8.907  18.391  1.00  0.00    -0.003 C 
ATOM     32  C   UNL     1       2.125   8.073  17.112  1.00  0.00     0.004 C 
ENDBRANCH  30  31
ENDBRANCH  29  30
ENDBRANCH  28  29
ENDBRANCH  27  28
ENDBRANCH  26  27
ENDBRANCH  25  26
ENDBRANCH  24  25
ENDBRANCH  23  24
ENDBRANCH  22  23
ENDBRANCH  21  22
ENDBRANCH  20  21
ENDBRANCH  19  20
ENDBRANCH  18  19
ENDBRANCH   1  18
TORSDOF 28
ENDMDL
MODEL 9
REMARK VINA RESULT:    -0.940      3.403      9.234
REMARK INTER + INTRA:          -6.337
REMARK INTER:                  -4.051
REMARK INTRA:                  -2.286
REMARK UNBOUND:                -3.857
REMARK SMILES CCCCCCCCCCCCCCCCCCCCCCCCCCCCCC(=O)[O-]
REMARK SMILES IDX 16 1 17 2 18 3 19 4 20 5 21 6 22 7 23 8 24 9 25 10 26 11
REMARK SMILES IDX 27 12 28 13 29 14 30 15 31 16 32 17 15 18 14 19 13 20 12 21
REMARK SMILES IDX 11 22 10 23 9 24 8 25 7 26 6 27 5 28 4 29 3 30 2 31 1 32
REMARK H PARENT
REMARK Flexibility Score: inf
ROOT
ATOM      1  C   UNL     1       0.615  22.448  21.324  1.00  0.00     0.000 C 
ENDROOT
BRANCH   1   2
ATOM      2  C   UNL     1       1.152  23.192  22.554  1.00  0.00     0.000 C 
BRANCH   2   3
ATOM      3  C   UNL     1       0.332  24.447  22.906  1.00  0.00     0.000 C 
BRANCH   3   4
ATOM      4  C   UNL     1       1.188  25.653  23.348  1.00  0.00     0.000 C 
BRANCH   4   5
ATOM      5  C   UNL     1       0.550  26.998  22.960  1.00  0.00     0.000 C 
BRANCH   5   6
ATOM      6  C   UNL     1      -0.780  27.256  23.688  1.00  0.00     0.000 C 
BRANCH   6   7
ATOM      7  C   UNL     1      -0.575  27.835  25.101  1.00  0.00     0.000 C 
BRANCH   7   8
ATOM      8  C   UNL     1      -1.751  27.522  26.041  1.00  0.00     0.000 C 
BRANCH   8   9
ATOM      9  C   UNL     1      -2.966  26.948  25.293  1.00  0.00     0.000 C 
BRANCH   9  10
ATOM     10  C   UNL     1      -3.831  26.035  26.182  1.00  0.00     0.000 C 
BRANCH  10  11
ATOM     11  C   UNL     1      -4.157  24.670  25.548  1.00  0.00     0.000 C 
BRANCH  11  12
ATOM     12  C   UNL     1      -4.418  23.569  26.593  1.00  0.00     0.000 C 
BRANCH  12  13
ATOM     13  C   UNL     1      -5.786  22.878  26.415  1.00  0.00     0.006 C 
BRANCH  13  14
ATOM     14  C   UNL     1      -6.915  23.831  25.987  1.00  0.00     0.053 C 
BRANCH  14  15
ATOM     15  C   UNL     1      -8.268  23.187  26.050  1.00  0.00     0.041 C 
ATOM     16  O   UNL     1      -9.122  23.424  25.153  1.00  0.00    -0.550 OA
ATOM     17  O   UNL     1      -8.574  22.296  27.075  1.00  0.00    -0.550 OA
ENDBRANCH  14  15
ENDBRANCH  13  14
ENDBRANCH  12  13
ENDBRANCH  11  12
ENDBRANCH  10  11
ENDBRANCH   9  10
ENDBRANCH   8   9
ENDBRANCH   7   8
ENDBRANCH   6   7
ENDBRANCH   5   6
ENDBRANCH   4   5
ENDBRANCH   3   4
ENDBRANCH   2   3
ENDBRANCH   1   2
BRANCH   1  18
ATOM     18  C   UNL     1       1.015  20.962  21.290  1.00  0.00     0.000 C 
BRANCH  18  19
ATOM     19  C   UNL     1       1.508  20.472  19.913  1.00  0.00     0.000 C 
BRANCH  19  20
ATOM     20  C   UNL     1       0.547  19.454  19.268  1.00  0.00     0.000 C 
BRANCH  20  21
ATOM     21  C   UNL     1      -0.126  19.998  17.998  1.00  0.00     0.000 C 
BRANCH  21  22
ATOM     22  C   UNL     1       0.869  20.706  17.061  1.00  0.00     0.000 C 
BRANCH  22  23
ATOM     23  C   UNL     1       0.541  22.195  16.875  1.00  0.00     0.000 C 
BRANCH  23  24
ATOM     24  C   UNL     1       0.687  23.007  18.178  1.00  0.00    -0.000 C 
BRANCH  24  25
ATOM     25  C   UNL     1       2.105  23.584  18.323  1.00  0.00    -0.000 C 
BRANCH  25  26
ATOM     26  C   UNL     1       2.116  25.126  18.265  1.00  0.00    -0.000 C 
BRANCH  26  27
ATOM     27  C   UNL     1       1.677  25.772  19.591  1.00  0.00    -0.000 C 
BRANCH  27  28
ATOM     28  C   UNL     1       2.078  27.260  19.675  1.00  0.00    -0.000 C 
BRANCH  28  29
ATOM     29  C   UNL     1       1.394  28.116  18.588  1.00  0.00    -0.000 C 
BRANCH  29  30
ATOM     30  C   UNL     1      -0.145  28.002  18.583  1.00  0.00    -0.000 C 
BRANCH  30  31
ATOM     31  C   UNL     1      -0.724  27.315  17.329  1.00  0.00    -0.003 C 
ATOM     32  C   UNL     1      -2.207  27.626  17.111  1.00  0.00     0.004 C 
ENDBRANCH  30  31
ENDBRANCH  29  30
ENDBRANCH  28  29
ENDBRANCH  27  28
ENDBRANCH  26  27
ENDBRANCH  25  26
ENDBRANCH  24  25
ENDBRANCH  23  24
ENDBRANCH  22  23
ENDBRANCH  21  22
ENDBRANCH  20  21
ENDBRANCH  19  20
ENDBRANCH  18  19
ENDBRANCH   1  18
TORSDOF 28
ENDMDL
