MODEL 1
REMARK VINA RESULT:    -3.787      0.000      0.000
REMARK INTER + INTRA:          -8.807
REMARK INTER:                  -6.886
REMARK INTRA:                  -1.921
REMARK UNBOUND:                -1.921
REMARK SMILES CCCCCCCCCCCCCCCC(=O)[O-]
REMARK SMILES IDX 9 1 10 2 11 3 12 4 13 5 14 6 15 7 16 8 17 9 18 10 8 11 7 12
REMARK SMILES IDX 6 13 5 14 4 15 3 16 2 17 1 18
REMARK H PARENT
REMARK Flexibility Score: inf
ROOT
ATOM      1  C   UNL     1      -2.440  -4.271 -26.338  1.00  0.00     0.000 C 
ENDROOT
BRANCH   1   2
ATOM      2  C   UNL     1      -1.352  -4.839 -27.266  1.00  0.00     0.000 C 
BRANCH   2   3
ATOM      3  C   UNL     1      -0.665  -3.753 -28.113  1.00  0.00     0.000 C 
BRANCH   3   4
ATOM      4  C   UNL     1      -1.242  -2.333 -27.941  1.00  0.00     0.000 C 
BRANCH   4   5
ATOM      5  C   UNL     1      -0.769  -1.303 -28.985  1.00  0.00     0.000 C 
BRANCH   5   6
ATOM      6  C   UNL     1      -1.651  -0.046 -29.103  1.00  0.00     0.006 C 
BRANCH   6   7
ATOM      7  C   UNL     1      -1.910   0.364 -30.558  1.00  0.00     0.053 C 
BRANCH   7   8
ATOM      8  C   UNL     1      -1.007   1.491 -30.950  1.00  0.00     0.041 C 
ATOM      9  O   UNL     1      -1.032   1.945 -32.124  1.00  0.00    -0.550 OA
ATOM     10  O   UNL     1      -0.102   2.007 -30.032  1.00  0.00    -0.550 OA
ENDBRANCH   7   8
ENDBRANCH   6   7
ENDBRANCH   5   6
ENDBRANCH   4   5
ENDBRANCH   3   4
ENDBRANCH   2   3
ENDBRANCH   1   2
BRANCH   1  11
ATOM     11  C   UNL     1      -3.848  -4.761 -26.714  1.00  0.00     0.000 C 
BRANCH  11  12
ATOM     12  C   UNL     1      -4.952  -3.812 -26.215  1.00  0.00    -0.000 C 
BRANCH  12  13
ATOM     13  C   UNL     1      -5.009  -2.499 -27.010  1.00  0.00    -0.000 C 
BRANCH  13  14
ATOM     14  C   UNL     1      -5.090  -1.259 -26.105  1.00  0.00    -0.000 C 
BRANCH  14  15
ATOM     15  C   UNL     1      -3.725  -0.559 -26.012  1.00  0.00    -0.000 C 
BRANCH  15  16
ATOM     16  C   UNL     1      -3.057  -0.727 -24.636  1.00  0.00    -0.000 C 
BRANCH  16  17
ATOM     17  C   UNL     1      -1.520  -0.668 -24.649  1.00  0.00    -0.003 C 
ATOM     18  C   UNL     1      -0.973   0.525 -25.432  1.00  0.00     0.004 C 
ENDBRANCH  16  17
ENDBRANCH  15  16
ENDBRANCH  14  15
ENDBRANCH  13  14
ENDBRANCH  12  13
ENDBRANCH  11  12
ENDBRANCH   1  11
TORSDOF 14
ENDMDL
MODEL 2
REMARK VINA RESULT:    -3.668      1.193      1.855
REMARK INTER + INTRA:          -8.590
REMARK INTER:                  -6.447
REMARK INTRA:                  -2.143
REMARK UNBOUND:                -1.921
REMARK SMILES CCCCCCCCCCCCCCCC(=O)[O-]
REMARK SMILES IDX 9 1 10 2 11 3 12 4 13 5 14 6 15 7 16 8 17 9 18 10 8 11 7 12
REMARK SMILES IDX 6 13 5 14 4 15 3 16 2 17 1 18
REMARK H PARENT
REMARK Flexibility Score: inf
ROOT
ATOM      1  C   UNL     1      -4.362  -4.096 -26.948  1.00  0.00     0.000 C 
ENDROOT
BRANCH   1   2
ATOM      2  C   UNL     1      -2.980  -3.853 -26.318  1.00  0.00     0.000 C 
BRANCH   2   3
ATOM      3  C   UNL     1      -1.822  -4.144 -27.290  1.00  0.00     0.000 C 
BRANCH   3   4
ATOM      4  C   UNL     1      -1.140  -2.893 -27.881  1.00  0.00     0.000 C 
BRANCH   4   5
ATOM      5  C   UNL     1      -1.637  -1.548 -27.316  1.00  0.00     0.000 C 
BRANCH   5   6
ATOM      6  C   UNL     1      -2.072  -0.519 -28.376  1.00  0.00     0.006 C 
BRANCH   6   7
ATOM      7  C   UNL     1      -1.028  -0.328 -29.483  1.00  0.00     0.053 C 
BRANCH   7   8
ATOM      8  C   UNL     1      -1.365   0.869 -30.315  1.00  0.00     0.041 C 
ATOM      9  O   UNL     1      -2.396   0.870 -31.037  1.00  0.00    -0.550 OA
ATOM     10  O   UNL     1      -0.512   1.965 -30.332  1.00  0.00    -0.550 OA
ENDBRANCH   7   8
ENDBRANCH   6   7
ENDBRANCH   5   6
ENDBRANCH   4   5
ENDBRANCH   3   4
ENDBRANCH   2   3
ENDBRANCH   1   2
BRANCH   1  11
ATOM     11  C   UNL     1      -5.289  -2.876 -26.825  1.00  0.00     0.000 C 
BRANCH  11  12
ATOM     12  C   UNL     1      -4.964  -2.014 -25.592  1.00  0.00    -0.000 C 
BRANCH  12  13
ATOM     13  C   UNL     1      -4.965  -0.509 -25.903  1.00  0.00    -0.000 C 
BRANCH  13  14
ATOM     14  C   UNL     1      -4.574   0.349 -24.689  1.00  0.00    -0.000 C 
BRANCH  14  15
ATOM     15  C   UNL     1      -3.054   0.327 -24.469  1.00  0.00    -0.000 C 
BRANCH  15  16
ATOM     16  C   UNL     1      -2.650  -0.327 -23.136  1.00  0.00    -0.000 C 
BRANCH  16  17
ATOM     17  C   UNL     1      -2.246  -1.808 -23.236  1.00  0.00    -0.003 C 
ATOM     18  C   UNL     1      -0.826  -2.007 -23.765  1.00  0.00     0.004 C 
ENDBRANCH  16  17
ENDBRANCH  15  16
ENDBRANCH  14  15
ENDBRANCH  13  14
ENDBRANCH  12  13
ENDBRANCH  11  12
ENDBRANCH   1  11
TORSDOF 14
ENDMDL
MODEL 3
REMARK VINA RESULT:    -3.506      1.705      2.845
REMARK INTER + INTRA:          -8.295
REMARK INTER:                  -5.812
REMARK INTRA:                  -2.484
REMARK UNBOUND:                -1.921
REMARK SMILES CCCCCCCCCCCCCCCC(=O)[O-]
REMARK SMILES IDX 9 1 10 2 11 3 12 4 13 5 14 6 15 7 16 8 17 9 18 10 8 11 7 12
REMARK SMILES IDX 6 13 5 14 4 15 3 16 2 17 1 18
REMARK H PARENT
REMARK Flexibility Score: inf
ROOT
ATOM      1  C   UNL     1      -1.892  -3.511 -24.021  1.00  0.00     0.000 C 
ENDROOT
BRANCH   1   2
ATOM      2  C   UNL     1      -0.926  -3.369 -25.209  1.00  0.00     0.000 C 
BRANCH   2   3
ATOM      3  C   UNL     1      -0.973  -4.575 -26.165  1.00  0.00     0.000 C 
BRANCH   3   4
ATOM      4  C   UNL     1      -1.125  -4.216 -27.657  1.00  0.00     0.000 C 
BRANCH   4   5
ATOM      5  C   UNL     1       0.198  -4.059 -28.431  1.00  0.00     0.000 C 
BRANCH   5   6
ATOM      6  C   UNL     1       0.398  -2.690 -29.104  1.00  0.00     0.006 C 
BRANCH   6   7
ATOM      7  C   UNL     1      -0.420  -1.575 -28.441  1.00  0.00     0.053 C 
BRANCH   7   8
ATOM      8  C   UNL     1      -0.750  -0.508 -29.436  1.00  0.00     0.041 C 
ATOM      9  O   UNL     1      -1.836   0.123 -29.353  1.00  0.00    -0.550 OA
ATOM     10  O   UNL     1       0.121  -0.245 -30.486  1.00  0.00    -0.550 OA
ENDBRANCH   7   8
ENDBRANCH   6   7
ENDBRANCH   5   6
ENDBRANCH   4   5
ENDBRANCH   3   4
ENDBRANCH   2   3
ENDBRANCH   1   2
BRANCH   1  11
ATOM     11  C   UNL     1      -2.947  -4.606 -24.247  1.00  0.00     0.000 C 
BRANCH  11  12
ATOM     12  C   UNL     1      -4.375  -4.116 -23.947  1.00  0.00    -0.000 C 
BRANCH  12  13
ATOM     13  C   UNL     1      -5.353  -4.400 -25.097  1.00  0.00    -0.000 C 
BRANCH  13  14
ATOM     14  C   UNL     1      -4.700  -4.264 -26.482  1.00  0.00    -0.000 C 
BRANCH  14  15
ATOM     15  C   UNL     1      -5.027  -2.901 -27.110  1.00  0.00    -0.000 C 
BRANCH  15  16
ATOM     16  C   UNL     1      -3.799  -1.980 -27.216  1.00  0.00    -0.000 C 
BRANCH  16  17
ATOM     17  C   UNL     1      -3.676  -0.931 -26.097  1.00  0.00    -0.003 C 
ATOM     18  C   UNL     1      -5.005  -0.642 -25.399  1.00  0.00     0.004 C 
ENDBRANCH  16  17
ENDBRANCH  15  16
ENDBRANCH  14  15
ENDBRANCH  13  14
ENDBRANCH  12  13
ENDBRANCH  11  12
ENDBRANCH   1  11
TORSDOF 14
ENDMDL
MODEL 4
REMARK VINA RESULT:    -3.492     14.838     16.751
REMARK INTER + INTRA:          -8.271
REMARK INTER:                  -5.844
REMARK INTRA:                  -2.427
REMARK UNBOUND:                -1.921
REMARK SMILES CCCCCCCCCCCCCCCC(=O)[O-]
REMARK SMILES IDX 9 1 10 2 11 3 12 4 13 5 14 6 15 7 16 8 17 9 18 10 8 11 7 12
REMARK SMILES IDX 6 13 5 14 4 15 3 16 2 17 1 18
REMARK H PARENT
REMARK Flexibility Score: inf
ROOT
ATOM      1  C   UNL     1      10.680  -5.644 -24.349  1.00  0.00     0.000 C 
ENDROOT
BRANCH   1   2
ATOM      2  C   UNL     1      10.830  -6.292 -25.736  1.00  0.00     0.000 C 
BRANCH   2   3
ATOM      3  C   UNL     1      10.382  -7.765 -25.759  1.00  0.00     0.000 C 
BRANCH   3   4
ATOM      4  C   UNL     1      11.495  -8.777 -26.093  1.00  0.00     0.000 C 
BRANCH   4   5
ATOM      5  C   UNL     1      12.933  -8.275 -25.852  1.00  0.00     0.000 C 
BRANCH   5   6
ATOM      6  C   UNL     1      13.743  -9.090 -24.829  1.00  0.00     0.006 C 
BRANCH   6   7
ATOM      7  C   UNL     1      12.859  -9.767 -23.774  1.00  0.00     0.053 C 
BRANCH   7   8
ATOM      8  C   UNL     1      12.971 -11.255 -23.878  1.00  0.00     0.041 C 
ATOM      9  O   UNL     1      12.175 -11.902 -24.608  1.00  0.00    -0.550 OA
ATOM     10  O   UNL     1      13.924 -11.934 -23.129  1.00  0.00    -0.550 OA
ENDBRANCH   7   8
ENDBRANCH   6   7
ENDBRANCH   5   6
ENDBRANCH   4   5
ENDBRANCH   3   4
ENDBRANCH   2   3
ENDBRANCH   1   2
BRANCH   1  11
ATOM     11  C   UNL     1      10.630  -6.682 -23.216  1.00  0.00     0.000 C 
BRANCH  11  12
ATOM     12  C   UNL     1      11.771  -6.498 -22.200  1.00  0.00    -0.000 C 
BRANCH  12  13
ATOM     13  C   UNL     1      13.055  -5.951 -22.843  1.00  0.00    -0.000 C 
BRANCH  13  14
ATOM     14  C   UNL     1      13.579  -4.687 -22.143  1.00  0.00    -0.000 C 
BRANCH  14  15
ATOM     15  C   UNL     1      13.433  -3.457 -23.051  1.00  0.00    -0.000 C 
BRANCH  15  16
ATOM     16  C   UNL     1      12.139  -2.667 -22.789  1.00  0.00    -0.000 C 
BRANCH  16  17
ATOM     17  C   UNL     1      11.567  -2.813 -21.368  1.00  0.00    -0.003 C 
ATOM     18  C   UNL     1      10.103  -3.253 -21.354  1.00  0.00     0.004 C 
ENDBRANCH  16  17
ENDBRANCH  15  16
ENDBRANCH  14  15
ENDBRANCH  13  14
ENDBRANCH  12  13
ENDBRANCH  11  12
ENDBRANCH   1  11
TORSDOF 14
ENDMDL
MODEL 5
REMARK VINA RESULT:    -3.468     12.295     14.616
REMARK INTER + INTRA:          -8.228
REMARK INTER:                  -6.088
REMARK INTRA:                  -2.140
REMARK UNBOUND:                -1.921
REMARK SMILES CCCCCCCCCCCCCCCC(=O)[O-]
REMARK SMILES IDX 9 1 10 2 11 3 12 4 13 5 14 6 15 7 16 8 17 9 18 10 8 11 7 12
REMARK SMILES IDX 6 13 5 14 4 15 3 16 2 17 1 18
REMARK H PARENT
REMARK Flexibility Score: inf
ROOT
ATOM      1  C   UNL     1      -3.394 -13.922 -18.917  1.00  0.00     0.000 C 
ENDROOT
BRANCH   1   2
ATOM      2  C   UNL     1      -4.791 -14.518 -18.674  1.00  0.00     0.000 C 
BRANCH   2   3
ATOM      3  C   UNL     1      -5.591 -13.747 -17.608  1.00  0.00     0.000 C 
BRANCH   3   4
ATOM      4  C   UNL     1      -4.754 -12.794 -16.731  1.00  0.00     0.000 C 
BRANCH   4   5
ATOM      5  C   UNL     1      -5.457 -11.481 -16.335  1.00  0.00     0.000 C 
BRANCH   5   6
ATOM      6  C   UNL     1      -5.026 -10.244 -17.144  1.00  0.00     0.006 C 
BRANCH   6   7
ATOM      7  C   UNL     1      -5.786 -10.104 -18.469  1.00  0.00     0.053 C 
BRANCH   7   8
ATOM      8  C   UNL     1      -5.659  -8.711 -18.998  1.00  0.00     0.041 C 
ATOM      9  O   UNL     1      -5.319  -7.770 -18.233  1.00  0.00    -0.550 OA
ATOM     10  O   UNL     1      -5.966  -8.441 -20.325  1.00  0.00    -0.550 OA
ENDBRANCH   7   8
ENDBRANCH   6   7
ENDBRANCH   5   6
ENDBRANCH   4   5
ENDBRANCH   3   4
ENDBRANCH   2   3
ENDBRANCH   1   2
BRANCH   1  11
ATOM     11  C   UNL     1      -3.344 -13.022 -20.163  1.00  0.00     0.000 C 
BRANCH  11  12
ATOM     12  C   UNL     1      -2.822 -11.610 -19.847  1.00  0.00    -0.000 C 
BRANCH  12  13
ATOM     13  C   UNL     1      -1.477 -11.627 -19.104  1.00  0.00    -0.000 C 
BRANCH  13  14
ATOM     14  C   UNL     1      -1.499 -10.790 -17.815  1.00  0.00    -0.000 C 
BRANCH  14  15
ATOM     15  C   UNL     1      -1.330 -11.686 -16.578  1.00  0.00    -0.000 C 
BRANCH  15  16
ATOM     16  C   UNL     1      -1.805 -11.011 -15.279  1.00  0.00    -0.000 C 
BRANCH  16  17
ATOM     17  C   UNL     1      -0.741 -10.911 -14.173  1.00  0.00    -0.003 C 
ATOM     18  C   UNL     1      -0.158  -9.505 -14.029  1.00  0.00     0.004 C 
ENDBRANCH  16  17
ENDBRANCH  15  16
ENDBRANCH  14  15
ENDBRANCH  13  14
ENDBRANCH  12  13
ENDBRANCH  11  12
ENDBRANCH   1  11
TORSDOF 14
ENDMDL
MODEL 6
REMARK VINA RESULT:    -3.463     13.112     15.313
REMARK INTER + INTRA:          -8.217
REMARK INTER:                  -6.187
REMARK INTRA:                  -2.031
REMARK UNBOUND:                -1.921
REMARK SMILES CCCCCCCCCCCCCCCC(=O)[O-]
REMARK SMILES IDX 9 1 10 2 11 3 12 4 13 5 14 6 15 7 16 8 17 9 18 10 8 11 7 12
REMARK SMILES IDX 6 13 5 14 4 15 3 16 2 17 1 18
REMARK H PARENT
REMARK Flexibility Score: inf
ROOT
ATOM      1  C   UNL     1      -2.815 -13.710 -18.215  1.00  0.00     0.000 C 
ENDROOT
BRANCH   1   2
ATOM      2  C   UNL     1      -4.057 -14.519 -18.626  1.00  0.00     0.000 C 
BRANCH   2   3
ATOM      3  C   UNL     1      -5.369 -13.901 -18.111  1.00  0.00     0.000 C 
BRANCH   3   4
ATOM      4  C   UNL     1      -5.382 -12.360 -18.051  1.00  0.00     0.000 C 
BRANCH   4   5
ATOM      5  C   UNL     1      -5.738 -11.761 -16.677  1.00  0.00     0.000 C 
BRANCH   5   6
ATOM      6  C   UNL     1      -5.096 -10.394 -16.378  1.00  0.00     0.006 C 
BRANCH   6   7
ATOM      7  C   UNL     1      -4.408  -9.779 -17.603  1.00  0.00     0.053 C 
BRANCH   7   8
ATOM      8  C   UNL     1      -4.605  -8.296 -17.621  1.00  0.00     0.041 C 
ATOM      9  O   UNL     1      -4.104  -7.579 -16.715  1.00  0.00    -0.550 OA
ATOM     10  O   UNL     1      -5.384  -7.711 -18.610  1.00  0.00    -0.550 OA
ENDBRANCH   7   8
ENDBRANCH   6   7
ENDBRANCH   5   6
ENDBRANCH   4   5
ENDBRANCH   3   4
ENDBRANCH   2   3
ENDBRANCH   1   2
BRANCH   1  11
ATOM     11  C   UNL     1      -2.044 -14.361 -17.055  1.00  0.00     0.000 C 
BRANCH  11  12
ATOM     12  C   UNL     1      -2.711 -14.107 -15.691  1.00  0.00    -0.000 C 
BRANCH  12  13
ATOM     13  C   UNL     1      -2.555 -12.655 -15.216  1.00  0.00    -0.000 C 
BRANCH  13  14
ATOM     14  C   UNL     1      -1.242 -12.417 -14.452  1.00  0.00    -0.000 C 
BRANCH  14  15
ATOM     15  C   UNL     1      -0.309 -11.487 -15.243  1.00  0.00    -0.000 C 
BRANCH  15  16
ATOM     16  C   UNL     1      -1.063 -10.369 -15.984  1.00  0.00    -0.000 C 
BRANCH  16  17
ATOM     17  C   UNL     1      -1.282  -9.083 -15.168  1.00  0.00    -0.003 C 
ATOM     18  C   UNL     1      -0.182  -8.835 -14.136  1.00  0.00     0.004 C 
ENDBRANCH  16  17
ENDBRANCH  15  16
ENDBRANCH  14  15
ENDBRANCH  13  14
ENDBRANCH  12  13
ENDBRANCH  11  12
ENDBRANCH   1  11
TORSDOF 14
ENDMDL
MODEL 7
REMARK VINA RESULT:    -3.462     14.794     17.363
REMARK INTER + INTRA:          -8.215
REMARK INTER:                  -6.831
REMARK INTRA:                  -1.385
REMARK UNBOUND:                -1.921
REMARK SMILES CCCCCCCCCCCCCCCC(=O)[O-]
REMARK SMILES IDX 9 1 10 2 11 3 12 4 13 5 14 6 15 7 16 8 17 9 18 10 8 11 7 12
REMARK SMILES IDX 6 13 5 14 4 15 3 16 2 17 1 18
REMARK H PARENT
REMARK Flexibility Score: inf
ROOT
ATOM      1  C   UNL     1      -2.972  -9.672 -17.380  1.00  0.00     0.000 C 
ENDROOT
BRANCH   1   2
ATOM      2  C   UNL     1      -2.026  -9.107 -16.307  1.00  0.00     0.000 C 
BRANCH   2   3
ATOM      3  C   UNL     1      -1.587 -10.167 -15.281  1.00  0.00     0.000 C 
BRANCH   3   4
ATOM      4  C   UNL     1      -2.161 -11.578 -15.520  1.00  0.00     0.000 C 
BRANCH   4   5
ATOM      5  C   UNL     1      -1.642 -12.668 -14.561  1.00  0.00     0.000 C 
BRANCH   5   6
ATOM      6  C   UNL     1      -2.294 -14.051 -14.735  1.00  0.00     0.006 C 
BRANCH   6   7
ATOM      7  C   UNL     1      -2.497 -14.786 -13.404  1.00  0.00     0.053 C 
BRANCH   7   8
ATOM      8  C   UNL     1      -1.341 -15.697 -13.132  1.00  0.00     0.041 C 
ATOM      9  O   UNL     1      -0.529 -15.984 -14.050  1.00  0.00    -0.550 OA
ATOM     10  O   UNL     1      -1.190 -16.269 -11.875  1.00  0.00    -0.550 OA
ENDBRANCH   7   8
ENDBRANCH   6   7
ENDBRANCH   5   6
ENDBRANCH   4   5
ENDBRANCH   3   4
ENDBRANCH   2   3
ENDBRANCH   1   2
BRANCH   1  11
ATOM     11  C   UNL     1      -4.445  -9.328 -17.108  1.00  0.00     0.000 C 
BRANCH  11  12
ATOM     12  C   UNL     1      -5.407 -10.401 -17.649  1.00  0.00    -0.000 C 
BRANCH  12  13
ATOM     13  C   UNL     1      -5.762 -11.463 -16.597  1.00  0.00    -0.000 C 
BRANCH  13  14
ATOM     14  C   UNL     1      -5.432 -12.892 -17.060  1.00  0.00    -0.000 C 
BRANCH  14  15
ATOM     15  C   UNL     1      -4.601 -12.871 -18.352  1.00  0.00    -0.000 C 
BRANCH  15  16
ATOM     16  C   UNL     1      -4.243 -14.279 -18.857  1.00  0.00    -0.000 C 
BRANCH  16  17
ATOM     17  C   UNL     1      -2.876 -14.389 -19.555  1.00  0.00    -0.003 C 
ATOM     18  C   UNL     1      -2.986 -14.762 -21.033  1.00  0.00     0.004 C 
ENDBRANCH  16  17
ENDBRANCH  15  16
ENDBRANCH  14  15
ENDBRANCH  13  14
ENDBRANCH  12  13
ENDBRANCH  11  12
ENDBRANCH   1  11
TORSDOF 14
ENDMDL
MODEL 8
REMARK VINA RESULT:    -3.449      1.040      3.154
REMARK INTER + INTRA:          -8.193
REMARK INTER:                  -5.734
REMARK INTRA:                  -2.459
REMARK UNBOUND:                -1.921
REMARK SMILES CCCCCCCCCCCCCCCC(=O)[O-]
REMARK SMILES IDX 9 1 10 2 11 3 12 4 13 5 14 6 15 7 16 8 17 9 18 10 8 11 7 12
REMARK SMILES IDX 6 13 5 14 4 15 3 16 2 17 1 18
REMARK H PARENT
REMARK Flexibility Score: inf
ROOT
ATOM      1  C   UNL     1      -2.226  -1.033 -24.733  1.00  0.00     0.000 C 
ENDROOT
BRANCH   1   2
ATOM      2  C   UNL     1      -1.515   0.240 -25.222  1.00  0.00     0.000 C 
BRANCH   2   3
ATOM      3  C   UNL     1      -1.044   0.136 -26.684  1.00  0.00     0.000 C 
BRANCH   3   4
ATOM      4  C   UNL     1      -2.161  -0.158 -27.706  1.00  0.00     0.000 C 
BRANCH   4   5
ATOM      5  C   UNL     1      -1.724  -0.977 -28.937  1.00  0.00     0.000 C 
BRANCH   5   6
ATOM      6  C   UNL     1      -0.260  -0.773 -29.367  1.00  0.00     0.006 C 
BRANCH   6   7
ATOM      7  C   UNL     1      -0.131  -0.154 -30.764  1.00  0.00     0.053 C 
BRANCH   7   8
ATOM      8  C   UNL     1      -0.721   1.221 -30.780  1.00  0.00     0.041 C 
ATOM      9  O   UNL     1      -0.248   2.123 -30.039  1.00  0.00    -0.550 OA
ATOM     10  O   UNL     1      -1.825   1.494 -31.577  1.00  0.00    -0.550 OA
ENDBRANCH   7   8
ENDBRANCH   6   7
ENDBRANCH   5   6
ENDBRANCH   4   5
ENDBRANCH   3   4
ENDBRANCH   2   3
ENDBRANCH   1   2
BRANCH   1  11
ATOM     11  C   UNL     1      -3.695  -0.779 -24.355  1.00  0.00     0.000 C 
BRANCH  11  12
ATOM     12  C   UNL     1      -4.632  -1.886 -24.868  1.00  0.00    -0.000 C 
BRANCH  12  13
ATOM     13  C   UNL     1      -5.043  -1.683 -26.334  1.00  0.00    -0.000 C 
BRANCH  13  14
ATOM     14  C   UNL     1      -4.921  -2.967 -27.170  1.00  0.00    -0.000 C 
BRANCH  14  15
ATOM     15  C   UNL     1      -3.961  -3.965 -26.504  1.00  0.00    -0.000 C 
BRANCH  15  16
ATOM     16  C   UNL     1      -2.574  -3.999 -27.170  1.00  0.00    -0.000 C 
BRANCH  16  17
ATOM     17  C   UNL     1      -1.391  -4.144 -26.198  1.00  0.00    -0.003 C 
ATOM     18  C   UNL     1      -0.092  -3.552 -26.744  1.00  0.00     0.004 C 
ENDBRANCH  16  17
ENDBRANCH  15  16
ENDBRANCH  14  15
ENDBRANCH  13  14
ENDBRANCH  12  13
ENDBRANCH  11  12
ENDBRANCH   1  11
TORSDOF 14
ENDMDL
MODEL 9
REMARK VINA RESULT:    -3.442      2.755      5.540
REMARK INTER + INTRA:          -8.179
REMARK INTER:                  -6.648
REMARK INTRA:                  -1.531
REMARK UNBOUND:                -1.921
REMARK SMILES CCCCCCCCCCCCCCCC(=O)[O-]
REMARK SMILES IDX 9 1 10 2 11 3 12 4 13 5 14 6 15 7 16 8 17 9 18 10 8 11 7 12
REMARK SMILES IDX 6 13 5 14 4 15 3 16 2 17 1 18
REMARK H PARENT
REMARK Flexibility Score: inf
ROOT
ATOM      1  C   UNL     1      -1.499  -4.203 -27.600  1.00  0.00     0.000 C 
ENDROOT
BRANCH   1   2
ATOM      2  C   UNL     1      -1.948  -4.979 -26.350  1.00  0.00     0.000 C 
BRANCH   2   3
ATOM      3  C   UNL     1      -3.479  -5.104 -26.244  1.00  0.00     0.000 C 
BRANCH   3   4
ATOM      4  C   UNL     1      -4.273  -4.187 -27.196  1.00  0.00     0.000 C 
BRANCH   4   5
ATOM      5  C   UNL     1      -5.279  -3.242 -26.509  1.00  0.00     0.000 C 
BRANCH   5   6
ATOM      6  C   UNL     1      -4.832  -2.704 -25.137  1.00  0.00     0.006 C 
BRANCH   6   7
ATOM      7  C   UNL     1      -3.919  -1.476 -25.249  1.00  0.00     0.053 C 
BRANCH   7   8
ATOM      8  C   UNL     1      -4.725  -0.219 -25.165  1.00  0.00     0.041 C 
ATOM      9  O   UNL     1      -5.477   0.118 -26.118  1.00  0.00    -0.550 OA
ATOM     10  O   UNL     1      -4.607   0.609 -24.056  1.00  0.00    -0.550 OA
ENDBRANCH   7   8
ENDBRANCH   6   7
ENDBRANCH   5   6
ENDBRANCH   4   5
ENDBRANCH   3   4
ENDBRANCH   2   3
ENDBRANCH   1   2
BRANCH   1  11
ATOM     11  C   UNL     1      -0.956  -2.805 -27.263  1.00  0.00     0.000 C 
BRANCH  11  12
ATOM     12  C   UNL     1      -0.986  -1.856 -28.474  1.00  0.00    -0.000 C 
BRANCH  12  13
ATOM     13  C   UNL     1      -2.021  -0.731 -28.322  1.00  0.00    -0.000 C 
BRANCH  13  14
ATOM     14  C   UNL     1      -1.693   0.500 -29.182  1.00  0.00    -0.000 C 
BRANCH  14  15
ATOM     15  C   UNL     1      -1.656   0.132 -30.673  1.00  0.00    -0.000 C 
BRANCH  15  16
ATOM     16  C   UNL     1      -0.646   0.974 -31.474  1.00  0.00    -0.000 C 
BRANCH  16  17
ATOM     17  C   UNL     1       0.774   0.385 -31.548  1.00  0.00    -0.003 C 
ATOM     18  C   UNL     1       0.783  -1.134 -31.715  1.00  0.00     0.004 C 
ENDBRANCH  16  17
ENDBRANCH  15  16
ENDBRANCH  14  15
ENDBRANCH  13  14
ENDBRANCH  12  13
ENDBRANCH  11  12
ENDBRANCH   1  11
TORSDOF 14
ENDMDL
