MODEL 1
REMARK VINA RESULT:    -0.840      0.000      0.000
REMARK INTER + INTRA:          -3.464
REMARK INTER:                  -1.920
REMARK INTRA:                  -1.544
REMARK UNBOUND:                -1.544
REMARK SMILES CCCCCCCCCCCCCCCCCCCCCCCC(=O)[O-]
REMARK SMILES IDX 13 1 14 2 15 3 16 4 17 5 18 6 19 7 20 8 21 9 22 10 23 11
REMARK SMILES IDX 24 12 25 13 26 14 12 15 11 16 10 17 9 18 8 19 7 20 6 21 5 22
REMARK SMILES IDX 4 23 3 24 2 25 1 26
REMARK H PARENT
REMARK Flexibility Score: inf
ROOT
ATOM      1  C   UNL     1      15.201  16.035   7.126  1.00  0.00     0.000 C 
ENDROOT
BRANCH   1   2
ATOM      2  C   UNL     1      15.880  14.682   7.412  1.00  0.00     0.000 C 
BRANCH   2   3
ATOM      3  C   UNL     1      15.065  13.481   6.906  1.00  0.00     0.000 C 
BRANCH   3   4
ATOM      4  C   UNL     1      14.118  12.911   7.976  1.00  0.00     0.000 C 
BRANCH   4   5
ATOM      5  C   UNL     1      14.314  13.540   9.373  1.00  0.00     0.000 C 
BRANCH   5   6
ATOM      6  C   UNL     1      14.520  12.475  10.463  1.00  0.00     0.000 C 
BRANCH   6   7
ATOM      7  C   UNL     1      15.634  12.847  11.456  1.00  0.00     0.000 C 
BRANCH   7   8
ATOM      8  C   UNL     1      16.299  14.193  11.122  1.00  0.00     0.000 C 
BRANCH   8   9
ATOM      9  C   UNL     1      16.066  15.262  12.204  1.00  0.00     0.000 C 
BRANCH   9  10
ATOM     10  C   UNL     1      16.571  16.673  11.843  1.00  0.00     0.006 C 
BRANCH  10  11
ATOM     11  C   UNL     1      16.613  16.924  10.330  1.00  0.00     0.053 C 
BRANCH  11  12
ATOM     12  C   UNL     1      16.039  18.265   9.998  1.00  0.00     0.041 C 
ATOM     13  O   UNL     1      15.113  18.750  10.703  1.00  0.00    -0.550 OA
ATOM     14  O   UNL     1      16.507  18.968   8.894  1.00  0.00    -0.550 OA
ENDBRANCH  11  12
ENDBRANCH  10  11
ENDBRANCH   9  10
ENDBRANCH   8   9
ENDBRANCH   7   8
ENDBRANCH   6   7
ENDBRANCH   5   6
ENDBRANCH   4   5
ENDBRANCH   3   4
ENDBRANCH   2   3
ENDBRANCH   1   2
BRANCH   1  15
ATOM     15  C   UNL     1      15.162  16.452   5.642  1.00  0.00     0.000 C 
BRANCH  15  16
ATOM     16  C   UNL     1      13.775  16.372   4.975  1.00  0.00     0.000 C 
BRANCH  16  17
ATOM     17  C   UNL     1      13.710  16.954   3.550  1.00  0.00     0.000 C 
BRANCH  17  18
ATOM     18  C   UNL     1      12.629  16.337   2.644  1.00  0.00    -0.000 C 
BRANCH  18  19
ATOM     19  C   UNL     1      12.638  16.922   1.223  1.00  0.00    -0.000 C 
BRANCH  19  20
ATOM     20  C   UNL     1      13.728  17.993   1.071  1.00  0.00    -0.000 C 
BRANCH  20  21
ATOM     21  C   UNL     1      13.378  19.064   0.021  1.00  0.00    -0.000 C 
BRANCH  21  22
ATOM     22  C   UNL     1      14.362  20.247  -0.057  1.00  0.00    -0.000 C 
BRANCH  22  23
ATOM     23  C   UNL     1      14.165  21.110  -1.313  1.00  0.00    -0.000 C 
BRANCH  23  24
ATOM     24  C   UNL     1      15.374  22.033  -1.534  1.00  0.00    -0.000 C 
BRANCH  24  25
ATOM     25  C   UNL     1      16.677  21.444  -0.976  1.00  0.00    -0.003 C 
ATOM     26  C   UNL     1      17.111  22.107   0.332  1.00  0.00     0.004 C 
ENDBRANCH  24  25
ENDBRANCH  23  24
ENDBRANCH  22  23
ENDBRANCH  21  22
ENDBRANCH  20  21
ENDBRANCH  19  20
ENDBRANCH  18  19
ENDBRANCH  17  18
ENDBRANCH  16  17
ENDBRANCH  15  16
ENDBRANCH   1  15
TORSDOF 22
ENDMDL
MODEL 2
REMARK VINA RESULT:    -0.510      3.285     10.797
REMARK INTER + INTRA:          -2.709
REMARK INTER:                  -0.820
REMARK INTRA:                  -1.890
REMARK UNBOUND:                -1.544
REMARK SMILES CCCCCCCCCCCCCCCCCCCCCCCC(=O)[O-]
REMARK SMILES IDX 13 1 14 2 15 3 16 4 17 5 18 6 19 7 20 8 21 9 22 10 23 11
REMARK SMILES IDX 24 12 25 13 26 14 12 15 11 16 10 17 9 18 8 19 7 20 6 21 5 22
REMARK SMILES IDX 4 23 3 24 2 25 1 26
REMARK H PARENT
REMARK Flexibility Score: inf
ROOT
ATOM      1  C   UNL     1      15.653  15.749   7.172  1.00  0.00     0.000 C 
ENDROOT
BRANCH   1   2
ATOM      2  C   UNL     1      15.375  16.501   5.858  1.00  0.00     0.000 C 
BRANCH   2   3
ATOM      3  C   UNL     1      13.981  16.209   5.280  1.00  0.00     0.000 C 
BRANCH   3   4
ATOM      4  C   UNL     1      13.714  16.955   3.962  1.00  0.00     0.000 C 
BRANCH   4   5
ATOM      5  C   UNL     1      12.622  16.298   3.091  1.00  0.00     0.000 C 
BRANCH   5   6
ATOM      6  C   UNL     1      12.936  16.407   1.589  1.00  0.00     0.000 C 
BRANCH   6   7
ATOM      7  C   UNL     1      12.029  17.414   0.862  1.00  0.00     0.000 C 
BRANCH   7   8
ATOM      8  C   UNL     1      12.794  18.260  -0.170  1.00  0.00     0.000 C 
BRANCH   8   9
ATOM      9  C   UNL     1      14.156  18.753   0.349  1.00  0.00     0.000 C 
BRANCH   9  10
ATOM     10  C   UNL     1      14.358  20.280   0.296  1.00  0.00     0.006 C 
BRANCH  10  11
ATOM     11  C   UNL     1      13.996  20.885  -1.067  1.00  0.00     0.053 C 
BRANCH  11  12
ATOM     12  C   UNL     1      15.146  21.662  -1.625  1.00  0.00     0.041 C 
ATOM     13  O   UNL     1      15.167  21.975  -2.847  1.00  0.00    -0.550 OA
ATOM     14  O   UNL     1      16.208  22.019  -0.803  1.00  0.00    -0.550 OA
ENDBRANCH  11  12
ENDBRANCH  10  11
ENDBRANCH   9  10
ENDBRANCH   8   9
ENDBRANCH   7   8
ENDBRANCH   6   7
ENDBRANCH   5   6
ENDBRANCH   4   5
ENDBRANCH   3   4
ENDBRANCH   2   3
ENDBRANCH   1   2
BRANCH   1  15
ATOM     15  C   UNL     1      17.053  15.977   7.779  1.00  0.00     0.000 C 
BRANCH  15  16
ATOM     16  C   UNL     1      17.081  16.848   9.050  1.00  0.00     0.000 C 
BRANCH  16  17
ATOM     17  C   UNL     1      15.907  17.838   9.179  1.00  0.00     0.000 C 
BRANCH  17  18
ATOM     18  C   UNL     1      16.010  18.817  10.363  1.00  0.00    -0.000 C 
BRANCH  18  19
ATOM     19  C   UNL     1      15.679  18.158  11.711  1.00  0.00    -0.000 C 
BRANCH  19  20
ATOM     20  C   UNL     1      16.956  17.712  12.439  1.00  0.00    -0.000 C 
BRANCH  20  21
ATOM     21  C   UNL     1      16.825  16.324  13.092  1.00  0.00    -0.000 C 
BRANCH  21  22
ATOM     22  C   UNL     1      16.186  15.242  12.201  1.00  0.00    -0.000 C 
BRANCH  22  23
ATOM     23  C   UNL     1      17.059  13.986  12.063  1.00  0.00    -0.000 C 
BRANCH  23  24
ATOM     24  C   UNL     1      16.546  13.088  10.926  1.00  0.00    -0.000 C 
BRANCH  24  25
ATOM     25  C   UNL     1      15.379  13.721  10.155  1.00  0.00    -0.003 C 
ATOM     26  C   UNL     1      14.259  12.724   9.857  1.00  0.00     0.004 C 
ENDBRANCH  24  25
ENDBRANCH  23  24
ENDBRANCH  22  23
ENDBRANCH  21  22
ENDBRANCH  20  21
ENDBRANCH  19  20
ENDBRANCH  18  19
ENDBRANCH  17  18
ENDBRANCH  16  17
ENDBRANCH  15  16
ENDBRANCH   1  15
TORSDOF 22
ENDMDL
MODEL 3
REMARK VINA RESULT:    -0.352      2.936     10.888
REMARK INTER + INTRA:          -2.349
REMARK INTER:                  -0.233
REMARK INTRA:                  -2.116
REMARK UNBOUND:                -1.544
REMARK SMILES CCCCCCCCCCCCCCCCCCCCCCCC(=O)[O-]
REMARK SMILES IDX 13 1 14 2 15 3 16 4 17 5 18 6 19 7 20 8 21 9 22 10 23 11
REMARK SMILES IDX 24 12 25 13 26 14 12 15 11 16 10 17 9 18 8 19 7 20 6 21 5 22
REMARK SMILES IDX 4 23 3 24 2 25 1 26
REMARK H PARENT
REMARK Flexibility Score: inf
ROOT
ATOM      1  C   UNL     1      15.496  16.722   6.483  1.00  0.00     0.000 C 
ENDROOT
BRANCH   1   2
ATOM      2  C   UNL     1      14.217  16.103   5.888  1.00  0.00     0.000 C 
BRANCH   2   3
ATOM      3  C   UNL     1      13.950  16.549   4.442  1.00  0.00     0.000 C 
BRANCH   3   4
ATOM      4  C   UNL     1      12.585  16.075   3.915  1.00  0.00     0.000 C 
BRANCH   4   5
ATOM      5  C   UNL     1      12.551  15.865   2.386  1.00  0.00     0.000 C 
BRANCH   5   6
ATOM      6  C   UNL     1      13.068  17.096   1.621  1.00  0.00     0.000 C 
BRANCH   6   7
ATOM      7  C   UNL     1      11.979  17.767   0.768  1.00  0.00     0.000 C 
BRANCH   7   8
ATOM      8  C   UNL     1      12.356  17.839  -0.722  1.00  0.00     0.000 C 
BRANCH   8   9
ATOM      9  C   UNL     1      12.269  19.265  -1.295  1.00  0.00     0.000 C 
BRANCH   9  10
ATOM     10  C   UNL     1      12.937  20.353  -0.433  1.00  0.00     0.006 C 
BRANCH  10  11
ATOM     11  C   UNL     1      14.193  20.947  -1.086  1.00  0.00     0.053 C 
BRANCH  11  12
ATOM     12  C   UNL     1      15.421  20.566  -0.320  1.00  0.00     0.041 C 
ATOM     13  O   UNL     1      16.405  21.352  -0.269  1.00  0.00    -0.550 OA
ATOM     14  O   UNL     1      15.489  19.331   0.314  1.00  0.00    -0.550 OA
ENDBRANCH  11  12
ENDBRANCH  10  11
ENDBRANCH   9  10
ENDBRANCH   8   9
ENDBRANCH   7   8
ENDBRANCH   6   7
ENDBRANCH   5   6
ENDBRANCH   4   5
ENDBRANCH   3   4
ENDBRANCH   2   3
ENDBRANCH   1   2
BRANCH   1  15
ATOM     15  C   UNL     1      15.684  16.515   8.000  1.00  0.00     0.000 C 
BRANCH  15  16
ATOM     16  C   UNL     1      17.094  16.064   8.429  1.00  0.00     0.000 C 
BRANCH  16  17
ATOM     17  C   UNL     1      17.125  15.114   9.642  1.00  0.00     0.000 C 
BRANCH  17  18
ATOM     18  C   UNL     1      16.601  15.721  10.957  1.00  0.00    -0.000 C 
BRANCH  18  19
ATOM     19  C   UNL     1      16.813  14.796  12.165  1.00  0.00    -0.000 C 
BRANCH  19  20
ATOM     20  C   UNL     1      15.479  14.466  12.852  1.00  0.00    -0.000 C 
BRANCH  20  21
ATOM     21  C   UNL     1      15.194  12.954  12.918  1.00  0.00    -0.000 C 
BRANCH  21  22
ATOM     22  C   UNL     1      15.863  12.114  11.813  1.00  0.00    -0.000 C 
BRANCH  22  23
ATOM     23  C   UNL     1      14.854  11.504  10.829  1.00  0.00    -0.000 C 
BRANCH  23  24
ATOM     24  C   UNL     1      13.700  12.482  10.555  1.00  0.00    -0.000 C 
BRANCH  24  25
ATOM     25  C   UNL     1      14.062  13.543   9.506  1.00  0.00    -0.003 C 
ATOM     26  C   UNL     1      14.454  12.932   8.160  1.00  0.00     0.004 C 
ENDBRANCH  24  25
ENDBRANCH  23  24
ENDBRANCH  22  23
ENDBRANCH  21  22
ENDBRANCH  20  21
ENDBRANCH  19  20
ENDBRANCH  18  19
ENDBRANCH  17  18
ENDBRANCH  16  17
ENDBRANCH  15  16
ENDBRANCH   1  15
TORSDOF 22
ENDMDL
MODEL 4
REMARK VINA RESULT:    -0.091      3.093     10.088
REMARK INTER + INTRA:          -1.753
REMARK INTER:                  -0.085
REMARK INTRA:                  -1.668
REMARK UNBOUND:                -1.544
REMARK SMILES CCCCCCCCCCCCCCCCCCCCCCCC(=O)[O-]
REMARK SMILES IDX 13 1 14 2 15 3 16 4 17 5 18 6 19 7 20 8 21 9 22 10 23 11
REMARK SMILES IDX 24 12 25 13 26 14 12 15 11 16 10 17 9 18 8 19 7 20 6 21 5 22
REMARK SMILES IDX 4 23 3 24 2 25 1 26
REMARK H PARENT
REMARK Flexibility Score: inf
ROOT
ATOM      1  C   UNL     1      14.525  15.013   6.362  1.00  0.00     0.000 C 
ENDROOT
BRANCH   1   2
ATOM      2  C   UNL     1      14.566  16.502   5.971  1.00  0.00     0.000 C 
BRANCH   2   3
ATOM      3  C   UNL     1      14.069  16.762   4.540  1.00  0.00     0.000 C 
BRANCH   3   4
ATOM      4  C   UNL     1      12.846  15.906   4.170  1.00  0.00     0.000 C 
BRANCH   4   5
ATOM      5  C   UNL     1      12.506  15.933   2.665  1.00  0.00     0.000 C 
BRANCH   5   6
ATOM      6  C   UNL     1      13.128  17.145   1.951  1.00  0.00     0.000 C 
BRANCH   6   7
ATOM      7  C   UNL     1      12.877  17.138   0.435  1.00  0.00     0.000 C 
BRANCH   7   8
ATOM      8  C   UNL     1      11.911  18.248  -0.011  1.00  0.00     0.000 C 
BRANCH   8   9
ATOM      9  C   UNL     1      12.580  19.300  -0.914  1.00  0.00     0.000 C 
BRANCH   9  10
ATOM     10  C   UNL     1      13.699  20.117  -0.240  1.00  0.00     0.006 C 
BRANCH  10  11
ATOM     11  C   UNL     1      14.235  21.247  -1.131  1.00  0.00     0.053 C 
BRANCH  11  12
ATOM     12  C   UNL     1      15.713  21.401  -0.960  1.00  0.00     0.041 C 
ATOM     13  O   UNL     1      16.250  21.169   0.157  1.00  0.00    -0.550 OA
ATOM     14  O   UNL     1      16.496  21.829  -2.026  1.00  0.00    -0.550 OA
ENDBRANCH  11  12
ENDBRANCH  10  11
ENDBRANCH   9  10
ENDBRANCH   8   9
ENDBRANCH   7   8
ENDBRANCH   6   7
ENDBRANCH   5   6
ENDBRANCH   4   5
ENDBRANCH   3   4
ENDBRANCH   2   3
ENDBRANCH   1   2
BRANCH   1  15
ATOM     15  C   UNL     1      15.879  14.403   6.778  1.00  0.00     0.000 C 
BRANCH  15  16
ATOM     16  C   UNL     1      15.787  13.161   7.686  1.00  0.00     0.000 C 
BRANCH  16  17
ATOM     17  C   UNL     1      14.468  13.035   8.473  1.00  0.00     0.000 C 
BRANCH  17  18
ATOM     18  C   UNL     1      14.500  13.626   9.893  1.00  0.00    -0.000 C 
BRANCH  18  19
ATOM     19  C   UNL     1      15.851  13.418  10.594  1.00  0.00    -0.000 C 
BRANCH  19  20
ATOM     20  C   UNL     1      16.408  14.745  11.131  1.00  0.00    -0.000 C 
BRANCH  20  21
ATOM     21  C   UNL     1      16.118  15.939  10.203  1.00  0.00    -0.000 C 
BRANCH  21  22
ATOM     22  C   UNL     1      16.196  17.323  10.877  1.00  0.00    -0.000 C 
BRANCH  22  23
ATOM     23  C   UNL     1      15.968  18.482   9.896  1.00  0.00    -0.000 C 
BRANCH  23  24
ATOM     24  C   UNL     1      15.524  19.749  10.643  1.00  0.00    -0.000 C 
BRANCH  24  25
ATOM     25  C   UNL     1      15.009  19.450  12.058  1.00  0.00    -0.003 C 
ATOM     26  C   UNL     1      13.482  19.448  12.142  1.00  0.00     0.004 C 
ENDBRANCH  24  25
ENDBRANCH  23  24
ENDBRANCH  22  23
ENDBRANCH  21  22
ENDBRANCH  20  21
ENDBRANCH  19  20
ENDBRANCH  18  19
ENDBRANCH  17  18
ENDBRANCH  16  17
ENDBRANCH  15  16
ENDBRANCH   1  15
TORSDOF 22
ENDMDL
MODEL 5
REMARK VINA RESULT:    -0.035      2.049      3.333
REMARK INTER + INTRA:          -1.623
REMARK INTER:                  -0.278
REMARK INTRA:                  -1.345
REMARK UNBOUND:                -1.544
REMARK SMILES CCCCCCCCCCCCCCCCCCCCCCCC(=O)[O-]
REMARK SMILES IDX 13 1 14 2 15 3 16 4 17 5 18 6 19 7 20 8 21 9 22 10 23 11
REMARK SMILES IDX 24 12 25 13 26 14 12 15 11 16 10 17 9 18 8 19 7 20 6 21 5 22
REMARK SMILES IDX 4 23 3 24 2 25 1 26
REMARK H PARENT
REMARK Flexibility Score: inf
ROOT
ATOM      1  C   UNL     1      13.984  16.075   5.264  1.00  0.00     0.000 C 
ENDROOT
BRANCH   1   2
ATOM      2  C   UNL     1      15.143  16.487   6.191  1.00  0.00     0.000 C 
BRANCH   2   3
ATOM      3  C   UNL     1      15.615  15.347   7.107  1.00  0.00     0.000 C 
BRANCH   3   4
ATOM      4  C   UNL     1      17.038  15.568   7.647  1.00  0.00     0.000 C 
BRANCH   4   5
ATOM      5  C   UNL     1      17.124  16.665   8.730  1.00  0.00     0.000 C 
BRANCH   5   6
ATOM      6  C   UNL     1      16.244  16.345   9.950  1.00  0.00     0.000 C 
BRANCH   6   7
ATOM      7  C   UNL     1      16.810  16.917  11.260  1.00  0.00     0.000 C 
BRANCH   7   8
ATOM      8  C   UNL     1      17.016  15.839  12.337  1.00  0.00     0.000 C 
BRANCH   8   9
ATOM      9  C   UNL     1      15.692  15.261  12.869  1.00  0.00     0.000 C 
BRANCH   9  10
ATOM     10  C   UNL     1      15.599  13.722  12.844  1.00  0.00     0.006 C 
BRANCH  10  11
ATOM     11  C   UNL     1      15.676  13.141  11.425  1.00  0.00     0.053 C 
BRANCH  11  12
ATOM     12  C   UNL     1      14.306  12.934  10.861  1.00  0.00     0.041 C 
ATOM     13  O   UNL     1      13.365  12.550  11.608  1.00  0.00    -0.550 OA
ATOM     14  O   UNL     1      14.073  13.138   9.506  1.00  0.00    -0.550 OA
ENDBRANCH  11  12
ENDBRANCH  10  11
ENDBRANCH   9  10
ENDBRANCH   8   9
ENDBRANCH   7   8
ENDBRANCH   6   7
ENDBRANCH   5   6
ENDBRANCH   4   5
ENDBRANCH   3   4
ENDBRANCH   2   3
ENDBRANCH   1   2
BRANCH   1  15
ATOM     15  C   UNL     1      13.844  16.908   3.973  1.00  0.00     0.000 C 
BRANCH  15  16
ATOM     16  C   UNL     1      12.730  16.446   3.013  1.00  0.00     0.000 C 
BRANCH  16  17
ATOM     17  C   UNL     1      13.021  16.695   1.521  1.00  0.00     0.000 C 
BRANCH  17  18
ATOM     18  C   UNL     1      12.106  17.732   0.845  1.00  0.00    -0.000 C 
BRANCH  18  19
ATOM     19  C   UNL     1      12.437  17.939  -0.642  1.00  0.00    -0.000 C 
BRANCH  19  20
ATOM     20  C   UNL     1      12.371  19.425  -1.024  1.00  0.00    -0.000 C 
BRANCH  20  21
ATOM     21  C   UNL     1      13.465  20.270  -0.346  1.00  0.00    -0.000 C 
BRANCH  21  22
ATOM     22  C   UNL     1      14.641  20.670  -1.258  1.00  0.00    -0.000 C 
BRANCH  22  23
ATOM     23  C   UNL     1      15.462  21.842  -0.702  1.00  0.00    -0.000 C 
BRANCH  23  24
ATOM     24  C   UNL     1      16.604  21.332   0.191  1.00  0.00    -0.000 C 
BRANCH  24  25
ATOM     25  C   UNL     1      17.036  19.902  -0.161  1.00  0.00    -0.003 C 
ATOM     26  C   UNL     1      16.635  18.885   0.908  1.00  0.00     0.004 C 
ENDBRANCH  24  25
ENDBRANCH  23  24
ENDBRANCH  22  23
ENDBRANCH  21  22
ENDBRANCH  20  21
ENDBRANCH  19  20
ENDBRANCH  18  19
ENDBRANCH  17  18
ENDBRANCH  16  17
ENDBRANCH  15  16
ENDBRANCH   1  15
TORSDOF 22
ENDMDL
MODEL 6
REMARK VINA RESULT:    -0.023      3.041     11.221
REMARK INTER + INTRA:          -1.596
REMARK INTER:                   0.142
REMARK INTRA:                  -1.738
REMARK UNBOUND:                -1.544
REMARK SMILES CCCCCCCCCCCCCCCCCCCCCCCC(=O)[O-]
REMARK SMILES IDX 13 1 14 2 15 3 16 4 17 5 18 6 19 7 20 8 21 9 22 10 23 11
REMARK SMILES IDX 24 12 25 13 26 14 12 15 11 16 10 17 9 18 8 19 7 20 6 21 5 22
REMARK SMILES IDX 4 23 3 24 2 25 1 26
REMARK H PARENT
REMARK Flexibility Score: inf
ROOT
ATOM      1  C   UNL     1      16.339  17.074   4.908  1.00  0.00     0.000 C 
ENDROOT
BRANCH   1   2
ATOM      2  C   UNL     1      17.125  17.781   3.788  1.00  0.00     0.000 C 
BRANCH   2   3
ATOM      3  C   UNL     1      16.290  18.006   2.517  1.00  0.00     0.000 C 
BRANCH   3   4
ATOM      4  C   UNL     1      17.121  18.567   1.351  1.00  0.00     0.000 C 
BRANCH   4   5
ATOM      5  C   UNL     1      17.096  20.108   1.260  1.00  0.00     0.000 C 
BRANCH   5   6
ATOM      6  C   UNL     1      17.069  20.602  -0.196  1.00  0.00     0.000 C 
BRANCH   6   7
ATOM      7  C   UNL     1      15.930  21.598  -0.467  1.00  0.00     0.000 C 
BRANCH   7   8
ATOM      8  C   UNL     1      14.930  21.083  -1.516  1.00  0.00     0.000 C 
BRANCH   8   9
ATOM      9  C   UNL     1      13.463  21.257  -1.084  1.00  0.00     0.000 C 
BRANCH   9  10
ATOM     10  C   UNL     1      12.740  19.951  -0.700  1.00  0.00     0.006 C 
BRANCH  10  11
ATOM     11  C   UNL     1      13.556  19.076   0.263  1.00  0.00     0.053 C 
BRANCH  11  12
ATOM     12  C   UNL     1      12.911  17.738   0.439  1.00  0.00     0.041 C 
ATOM     13  O   UNL     1      12.287  17.204  -0.518  1.00  0.00    -0.550 OA
ATOM     14  O   UNL     1      12.976  17.091   1.668  1.00  0.00    -0.550 OA
ENDBRANCH  11  12
ENDBRANCH  10  11
ENDBRANCH   9  10
ENDBRANCH   8   9
ENDBRANCH   7   8
ENDBRANCH   6   7
ENDBRANCH   5   6
ENDBRANCH   4   5
ENDBRANCH   3   4
ENDBRANCH   2   3
ENDBRANCH   1   2
BRANCH   1  15
ATOM     15  C   UNL     1      17.124  16.834   6.214  1.00  0.00     0.000 C 
BRANCH  15  16
ATOM     16  C   UNL     1      16.836  15.492   6.914  1.00  0.00     0.000 C 
BRANCH  16  17
ATOM     17  C   UNL     1      16.101  15.614   8.263  1.00  0.00     0.000 C 
BRANCH  17  18
ATOM     18  C   UNL     1      14.779  14.831   8.357  1.00  0.00    -0.000 C 
BRANCH  18  19
ATOM     19  C   UNL     1      14.975  13.313   8.218  1.00  0.00    -0.000 C 
BRANCH  19  20
ATOM     20  C   UNL     1      13.827  12.542   8.888  1.00  0.00    -0.000 C 
BRANCH  20  21
ATOM     21  C   UNL     1      14.065  12.291  10.388  1.00  0.00    -0.000 C 
BRANCH  21  22
ATOM     22  C   UNL     1      15.362  11.530  10.725  1.00  0.00    -0.000 C 
BRANCH  22  23
ATOM     23  C   UNL     1      15.830  11.751  12.171  1.00  0.00    -0.000 C 
BRANCH  23  24
ATOM     24  C   UNL     1      16.864  12.886  12.241  1.00  0.00    -0.000 C 
BRANCH  24  25
ATOM     25  C   UNL     1      16.279  14.183  12.817  1.00  0.00    -0.003 C 
ATOM     26  C   UNL     1      16.101  15.272  11.757  1.00  0.00     0.004 C 
ENDBRANCH  24  25
ENDBRANCH  23  24
ENDBRANCH  22  23
ENDBRANCH  21  22
ENDBRANCH  20  21
ENDBRANCH  19  20
ENDBRANCH  18  19
ENDBRANCH  17  18
ENDBRANCH  16  17
ENDBRANCH  15  16
ENDBRANCH   1  15
TORSDOF 22
ENDMDL
MODEL 7
REMARK VINA RESULT:    -0.012      1.299      2.201
REMARK INTER + INTRA:          -1.572
REMARK INTER:                  -0.795
REMARK INTRA:                  -0.777
REMARK UNBOUND:                -1.544
REMARK SMILES CCCCCCCCCCCCCCCCCCCCCCCC(=O)[O-]
REMARK SMILES IDX 13 1 14 2 15 3 16 4 17 5 18 6 19 7 20 8 21 9 22 10 23 11
REMARK SMILES IDX 24 12 25 13 26 14 12 15 11 16 10 17 9 18 8 19 7 20 6 21 5 22
REMARK SMILES IDX 4 23 3 24 2 25 1 26
REMARK H PARENT
REMARK Flexibility Score: inf
ROOT
ATOM      1  C   UNL     1      15.076  14.138   7.120  1.00  0.00     0.000 C 
ENDROOT
BRANCH   1   2
ATOM      2  C   UNL     1      16.229  13.136   7.317  1.00  0.00     0.000 C 
BRANCH   2   3
ATOM      3  C   UNL     1      17.048  13.404   8.590  1.00  0.00     0.000 C 
BRANCH   3   4
ATOM      4  C   UNL     1      16.414  12.784   9.846  1.00  0.00     0.000 C 
BRANCH   4   5
ATOM      5  C   UNL     1      14.871  12.821   9.843  1.00  0.00     0.000 C 
BRANCH   5   6
ATOM      6  C   UNL     1      14.269  11.982  10.983  1.00  0.00     0.000 C 
BRANCH   6   7
ATOM      7  C   UNL     1      14.092  12.783  12.283  1.00  0.00     0.000 C 
BRANCH   7   8
ATOM      8  C   UNL     1      15.434  13.178  12.923  1.00  0.00     0.000 C 
BRANCH   8   9
ATOM      9  C   UNL     1      15.581  14.697  13.123  1.00  0.00     0.000 C 
BRANCH   9  10
ATOM     10  C   UNL     1      16.896  15.299  12.590  1.00  0.00     0.006 C 
BRANCH  10  11
ATOM     11  C   UNL     1      17.050  16.789  12.924  1.00  0.00     0.053 C 
BRANCH  11  12
ATOM     12  C   UNL     1      15.952  17.589  12.296  1.00  0.00     0.041 C 
ATOM     13  O   UNL     1      15.910  17.735  11.045  1.00  0.00    -0.550 OA
ATOM     14  O   UNL     1      14.991  18.198  13.095  1.00  0.00    -0.550 OA
ENDBRANCH  11  12
ENDBRANCH  10  11
ENDBRANCH   9  10
ENDBRANCH   8   9
ENDBRANCH   7   8
ENDBRANCH   6   7
ENDBRANCH   5   6
ENDBRANCH   4   5
ENDBRANCH   3   4
ENDBRANCH   2   3
ENDBRANCH   1   2
BRANCH   1  15
ATOM     15  C   UNL     1      15.457  15.623   7.289  1.00  0.00     0.000 C 
BRANCH  15  16
ATOM     16  C   UNL     1      15.170  16.516   6.066  1.00  0.00     0.000 C 
BRANCH  16  17
ATOM     17  C   UNL     1      13.913  16.126   5.264  1.00  0.00     0.000 C 
BRANCH  17  18
ATOM     18  C   UNL     1      13.719  16.895   3.945  1.00  0.00    -0.000 C 
BRANCH  18  19
ATOM     19  C   UNL     1      12.674  16.245   3.025  1.00  0.00    -0.000 C 
BRANCH  19  20
ATOM     20  C   UNL     1      12.959  16.563   1.549  1.00  0.00    -0.000 C 
BRANCH  20  21
ATOM     21  C   UNL     1      12.040  17.660   0.981  1.00  0.00    -0.000 C 
BRANCH  21  22
ATOM     22  C   UNL     1      12.286  18.016  -0.498  1.00  0.00    -0.000 C 
BRANCH  22  23
ATOM     23  C   UNL     1      12.515  19.518  -0.724  1.00  0.00    -0.000 C 
BRANCH  23  24
ATOM     24  C   UNL     1      13.912  19.935  -0.239  1.00  0.00    -0.000 C 
BRANCH  24  25
ATOM     25  C   UNL     1      14.506  21.083  -1.067  1.00  0.00    -0.003 C 
ATOM     26  C   UNL     1      15.885  21.517  -0.568  1.00  0.00     0.004 C 
ENDBRANCH  24  25
ENDBRANCH  23  24
ENDBRANCH  22  23
ENDBRANCH  21  22
ENDBRANCH  20  21
ENDBRANCH  19  20
ENDBRANCH  18  19
ENDBRANCH  17  18
ENDBRANCH  16  17
ENDBRANCH  15  16
ENDBRANCH   1  15
TORSDOF 22
ENDMDL
MODEL 8
REMARK VINA RESULT:     0.016      1.489      2.565
REMARK INTER + INTRA:          -1.508
REMARK INTER:                  -0.394
REMARK INTRA:                  -1.114
REMARK UNBOUND:                -1.544
REMARK SMILES CCCCCCCCCCCCCCCCCCCCCCCC(=O)[O-]
REMARK SMILES IDX 13 1 14 2 15 3 16 4 17 5 18 6 19 7 20 8 21 9 22 10 23 11
REMARK SMILES IDX 24 12 25 13 26 14 12 15 11 16 10 17 9 18 8 19 7 20 6 21 5 22
REMARK SMILES IDX 4 23 3 24 2 25 1 26
REMARK H PARENT
REMARK Flexibility Score: inf
ROOT
ATOM      1  C   UNL     1      15.343  15.046   7.929  1.00  0.00     0.000 C 
ENDROOT
BRANCH   1   2
ATOM      2  C   UNL     1      15.609  13.529   7.931  1.00  0.00     0.000 C 
BRANCH   2   3
ATOM      3  C   UNL     1      17.012  13.165   8.443  1.00  0.00     0.000 C 
BRANCH   3   4
ATOM      4  C   UNL     1      17.118  13.214   9.976  1.00  0.00     0.000 C 
BRANCH   4   5
ATOM      5  C   UNL     1      15.828  13.705  10.669  1.00  0.00     0.000 C 
BRANCH   5   6
ATOM      6  C   UNL     1      15.944  13.667  12.203  1.00  0.00     0.000 C 
BRANCH   6   7
ATOM      7  C   UNL     1      15.905  15.066  12.838  1.00  0.00     0.000 C 
BRANCH   7   8
ATOM      8  C   UNL     1      16.558  16.138  11.949  1.00  0.00     0.000 C 
BRANCH   8   9
ATOM      9  C   UNL     1      16.584  17.529  12.608  1.00  0.00     0.000 C 
BRANCH   9  10
ATOM     10  C   UNL     1      16.490  18.714  11.627  1.00  0.00     0.006 C 
BRANCH  10  11
ATOM     11  C   UNL     1      15.141  18.782  10.897  1.00  0.00     0.053 C 
BRANCH  11  12
ATOM     12  C   UNL     1      14.254  19.815  11.517  1.00  0.00     0.041 C 
ATOM     13  O   UNL     1      13.217  19.467  12.144  1.00  0.00    -0.550 OA
ATOM     14  O   UNL     1      14.557  21.165  11.379  1.00  0.00    -0.550 OA
ENDBRANCH  11  12
ENDBRANCH  10  11
ENDBRANCH   9  10
ENDBRANCH   8   9
ENDBRANCH   7   8
ENDBRANCH   6   7
ENDBRANCH   5   6
ENDBRANCH   4   5
ENDBRANCH   3   4
ENDBRANCH   2   3
ENDBRANCH   1   2
BRANCH   1  15
ATOM     15  C   UNL     1      16.368  15.894   7.147  1.00  0.00     0.000 C 
BRANCH  15  16
ATOM     16  C   UNL     1      15.845  16.501   5.830  1.00  0.00     0.000 C 
BRANCH  16  17
ATOM     17  C   UNL     1      14.324  16.372   5.620  1.00  0.00     0.000 C 
BRANCH  17  18
ATOM     18  C   UNL     1      13.821  16.805   4.231  1.00  0.00    -0.000 C 
BRANCH  18  19
ATOM     19  C   UNL     1      12.574  16.028   3.780  1.00  0.00    -0.000 C 
BRANCH  19  20
ATOM     20  C   UNL     1      12.579  15.806   2.260  1.00  0.00    -0.000 C 
BRANCH  20  21
ATOM     21  C   UNL     1      13.089  17.027   1.474  1.00  0.00    -0.000 C 
BRANCH  21  22
ATOM     22  C   UNL     1      12.123  17.560   0.398  1.00  0.00    -0.000 C 
BRANCH  22  23
ATOM     23  C   UNL     1      12.670  18.788  -0.344  1.00  0.00    -0.000 C 
BRANCH  23  24
ATOM     24  C   UNL     1      13.941  19.317   0.339  1.00  0.00    -0.000 C 
BRANCH  24  25
ATOM     25  C   UNL     1      14.684  20.353  -0.516  1.00  0.00    -0.003 C 
ATOM     26  C   UNL     1      16.072  20.685   0.033  1.00  0.00     0.004 C 
ENDBRANCH  24  25
ENDBRANCH  23  24
ENDBRANCH  22  23
ENDBRANCH  21  22
ENDBRANCH  20  21
ENDBRANCH  19  20
ENDBRANCH  18  19
ENDBRANCH  17  18
ENDBRANCH  16  17
ENDBRANCH  15  16
ENDBRANCH   1  15
TORSDOF 22
ENDMDL
MODEL 9
REMARK VINA RESULT:     0.119      3.245      9.771
REMARK INTER + INTRA:          -1.271
REMARK INTER:                   0.364
REMARK INTRA:                  -1.636
REMARK UNBOUND:                -1.544
REMARK SMILES CCCCCCCCCCCCCCCCCCCCCCCC(=O)[O-]
REMARK SMILES IDX 13 1 14 2 15 3 16 4 17 5 18 6 19 7 20 8 21 9 22 10 23 11
REMARK SMILES IDX 24 12 25 13 26 14 12 15 11 16 10 17 9 18 8 19 7 20 6 21 5 22
REMARK SMILES IDX 4 23 3 24 2 25 1 26
REMARK H PARENT
REMARK Flexibility Score: inf
ROOT
ATOM      1  C   UNL     1      14.144  12.477   9.956  1.00  0.00     0.000 C 
ENDROOT
BRANCH   1   2
ATOM      2  C   UNL     1      14.133  13.024   8.516  1.00  0.00     0.000 C 
BRANCH   2   3
ATOM      3  C   UNL     1      15.511  13.520   8.051  1.00  0.00     0.000 C 
BRANCH   3   4
ATOM      4  C   UNL     1      15.642  15.051   8.103  1.00  0.00     0.000 C 
BRANCH   4   5
ATOM      5  C   UNL     1      15.997  15.688   6.742  1.00  0.00     0.000 C 
BRANCH   5   6
ATOM      6  C   UNL     1      14.839  16.527   6.175  1.00  0.00     0.000 C 
BRANCH   6   7
ATOM      7  C   UNL     1      14.284  15.964   4.857  1.00  0.00     0.000 C 
BRANCH   7   8
ATOM      8  C   UNL     1      13.144  16.820   4.280  1.00  0.00     0.000 C 
BRANCH   8   9
ATOM      9  C   UNL     1      12.421  16.143   3.102  1.00  0.00     0.000 C 
BRANCH   9  10
ATOM     10  C   UNL     1      13.037  16.420   1.716  1.00  0.00     0.006 C 
BRANCH  10  11
ATOM     11  C   UNL     1      12.342  17.567   0.971  1.00  0.00     0.053 C 
BRANCH  11  12
ATOM     12  C   UNL     1      13.349  18.484   0.350  1.00  0.00     0.041 C 
ATOM     13  O   UNL     1      14.514  18.560   0.826  1.00  0.00    -0.550 OA
ATOM     14  O   UNL     1      12.993  19.274  -0.736  1.00  0.00    -0.550 OA
ENDBRANCH  11  12
ENDBRANCH  10  11
ENDBRANCH   9  10
ENDBRANCH   8   9
ENDBRANCH   7   8
ENDBRANCH   6   7
ENDBRANCH   5   6
ENDBRANCH   4   5
ENDBRANCH   3   4
ENDBRANCH   2   3
ENDBRANCH   1   2
BRANCH   1  15
ATOM     15  C   UNL     1      15.538  12.132  10.519  1.00  0.00     0.000 C 
BRANCH  15  16
ATOM     16  C   UNL     1      15.673  12.251  12.050  1.00  0.00     0.000 C 
BRANCH  16  17
ATOM     17  C   UNL     1      17.062  12.706  12.541  1.00  0.00     0.000 C 
BRANCH  17  18
ATOM     18  C   UNL     1      17.111  14.131  13.122  1.00  0.00    -0.000 C 
BRANCH  18  19
ATOM     19  C   UNL     1      15.946  15.010  12.642  1.00  0.00    -0.000 C 
BRANCH  19  20
ATOM     20  C   UNL     1      16.421  16.049  11.615  1.00  0.00    -0.000 C 
BRANCH  20  21
ATOM     21  C   UNL     1      17.029  17.305  12.267  1.00  0.00    -0.000 C 
BRANCH  21  22
ATOM     22  C   UNL     1      16.005  18.303  12.841  1.00  0.00    -0.000 C 
BRANCH  22  23
ATOM     23  C   UNL     1      16.452  19.766  12.707  1.00  0.00    -0.000 C 
BRANCH  23  24
ATOM     24  C   UNL     1      15.704  20.462  11.559  1.00  0.00    -0.000 C 
BRANCH  24  25
ATOM     25  C   UNL     1      14.228  20.048  11.479  1.00  0.00    -0.003 C 
ATOM     26  C   UNL     1      13.279  21.156  11.936  1.00  0.00     0.004 C 
ENDBRANCH  24  25
ENDBRANCH  23  24
ENDBRANCH  22  23
ENDBRANCH  21  22
ENDBRANCH  20  21
ENDBRANCH  19  20
ENDBRANCH  18  19
ENDBRANCH  17  18
ENDBRANCH  16  17
ENDBRANCH  15  16
ENDBRANCH   1  15
TORSDOF 22
ENDMDL
