MODEL 1
REMARK VINA RESULT:    -4.864      0.000      0.000
REMARK INTER + INTRA:          -9.583
REMARK INTER:                  -8.276
REMARK INTRA:                  -1.307
REMARK UNBOUND:                -1.307
REMARK SMILES CCCCCCCCCCCCCC(=O)[O-]
REMARK SMILES IDX 8 1 9 2 10 3 11 4 12 5 13 6 14 7 15 8 16 9 7 10 6 11 5 12
REMARK SMILES IDX 4 13 3 14 2 15 1 16
REMARK H PARENT
REMARK Flexibility Score: inf
ROOT
ATOM      1  C   UNL     1      19.774 -44.218 -24.925  1.00  0.00     0.000 C 
ENDROOT
BRANCH   1   2
ATOM      2  C   UNL     1      20.017 -42.706 -25.059  1.00  0.00     0.000 C 
BRANCH   2   3
ATOM      3  C   UNL     1      20.147 -42.001 -23.699  1.00  0.00     0.000 C 
BRANCH   3   4
ATOM      4  C   UNL     1      18.838 -42.099 -22.903  1.00  0.00     0.000 C 
BRANCH   4   5
ATOM      5  C   UNL     1      17.680 -41.314 -23.545  1.00  0.00     0.006 C 
BRANCH   5   6
ATOM      6  C   UNL     1      16.437 -42.170 -23.849  1.00  0.00     0.053 C 
BRANCH   6   7
ATOM      7  C   UNL     1      15.372 -42.035 -22.805  1.00  0.00     0.041 C 
ATOM      8  O   UNL     1      15.661 -41.633 -21.647  1.00  0.00    -0.550 OA
ATOM      9  O   UNL     1      14.049 -42.324 -23.120  1.00  0.00    -0.550 OA
ENDBRANCH   6   7
ENDBRANCH   5   6
ENDBRANCH   4   5
ENDBRANCH   3   4
ENDBRANCH   2   3
ENDBRANCH   1   2
BRANCH   1  10
ATOM     10  C   UNL     1      18.514 -44.683 -25.674  1.00  0.00     0.000 C 
BRANCH  10  11
ATOM     11  C   UNL     1      17.743 -45.774 -24.913  1.00  0.00    -0.000 C 
BRANCH  11  12
ATOM     12  C   UNL     1      17.838 -45.609 -23.386  1.00  0.00    -0.000 C 
BRANCH  12  13
ATOM     13  C   UNL     1      16.540 -46.008 -22.666  1.00  0.00    -0.000 C 
BRANCH  13  14
ATOM     14  C   UNL     1      16.651 -47.370 -21.958  1.00  0.00    -0.000 C 
BRANCH  14  15
ATOM     15  C   UNL     1      15.279 -47.949 -21.575  1.00  0.00    -0.003 C 
ATOM     16  C   UNL     1      15.384 -49.277 -20.825  1.00  0.00     0.004 C 
ENDBRANCH  14  15
ENDBRANCH  13  14
ENDBRANCH  12  13
ENDBRANCH  11  12
ENDBRANCH  10  11
ENDBRANCH   1  10
TORSDOF 12
ENDMDL
MODEL 2
REMARK VINA RESULT:    -4.822      2.557      4.909
REMARK INTER + INTRA:          -9.512
REMARK INTER:                  -7.365
REMARK INTRA:                  -2.147
REMARK UNBOUND:                -1.307
REMARK SMILES CCCCCCCCCCCCCC(=O)[O-]
REMARK SMILES IDX 8 1 9 2 10 3 11 4 12 5 13 6 14 7 15 8 16 9 7 10 6 11 5 12
REMARK SMILES IDX 4 13 3 14 2 15 1 16
REMARK H PARENT
REMARK Flexibility Score: inf
ROOT
ATOM      1  C   UNL     1      19.134 -42.152 -24.377  1.00  0.00     0.000 C 
ENDROOT
BRANCH   1   2
ATOM      2  C   UNL     1      18.086 -43.127 -24.938  1.00  0.00     0.000 C 
BRANCH   2   3
ATOM      3  C   UNL     1      18.672 -44.512 -25.253  1.00  0.00     0.000 C 
BRANCH   3   4
ATOM      4  C   UNL     1      17.857 -45.621 -24.571  1.00  0.00     0.000 C 
BRANCH   4   5
ATOM      5  C   UNL     1      16.925 -45.094 -23.466  1.00  0.00     0.006 C 
BRANCH   5   6
ATOM      6  C   UNL     1      17.259 -45.626 -22.060  1.00  0.00     0.053 C 
BRANCH   6   7
ATOM      7  C   UNL     1      17.081 -47.109 -21.946  1.00  0.00     0.041 C 
ATOM      8  O   UNL     1      15.930 -47.617 -21.979  1.00  0.00    -0.550 OA
ATOM      9  O   UNL     1      18.193 -47.936 -21.834  1.00  0.00    -0.550 OA
ENDBRANCH   6   7
ENDBRANCH   5   6
ENDBRANCH   4   5
ENDBRANCH   3   4
ENDBRANCH   2   3
ENDBRANCH   1   2
BRANCH   1  10
ATOM     10  C   UNL     1      20.169 -42.849 -23.478  1.00  0.00     0.000 C 
BRANCH  10  11
ATOM     11  C   UNL     1      19.743 -42.878 -22.001  1.00  0.00    -0.000 C 
BRANCH  11  12
ATOM     12  C   UNL     1      18.895 -41.656 -21.607  1.00  0.00    -0.000 C 
BRANCH  12  13
ATOM     13  C   UNL     1      17.937 -41.953 -20.441  1.00  0.00    -0.000 C 
BRANCH  13  14
ATOM     14  C   UNL     1      16.489 -42.183 -20.909  1.00  0.00    -0.000 C 
BRANCH  14  15
ATOM     15  C   UNL     1      16.164 -41.433 -22.211  1.00  0.00    -0.003 C 
ATOM     16  C   UNL     1      15.042 -42.094 -23.012  1.00  0.00     0.004 C 
ENDBRANCH  14  15
ENDBRANCH  13  14
ENDBRANCH  12  13
ENDBRANCH  11  12
ENDBRANCH  10  11
ENDBRANCH   1  10
TORSDOF 12
ENDMDL
MODEL 3
REMARK VINA RESULT:    -4.787      3.183      5.303
REMARK INTER + INTRA:          -9.453
REMARK INTER:                  -7.453
REMARK INTRA:                  -1.999
REMARK UNBOUND:                -1.307
REMARK SMILES CCCCCCCCCCCCCC(=O)[O-]
REMARK SMILES IDX 8 1 9 2 10 3 11 4 12 5 13 6 14 7 15 8 16 9 7 10 6 11 5 12
REMARK SMILES IDX 4 13 3 14 2 15 1 16
REMARK H PARENT
REMARK Flexibility Score: inf
ROOT
ATOM      1  C   UNL     1      18.413 -44.133 -25.382  1.00  0.00     0.000 C 
ENDROOT
BRANCH   1   2
ATOM      2  C   UNL     1      18.438 -45.671 -25.366  1.00  0.00     0.000 C 
BRANCH   2   3
ATOM      3  C   UNL     1      17.654 -46.266 -24.187  1.00  0.00     0.000 C 
BRANCH   3   4
ATOM      4  C   UNL     1      17.223 -45.168 -23.204  1.00  0.00     0.000 C 
BRANCH   4   5
ATOM      5  C   UNL     1      17.896 -45.292 -21.825  1.00  0.00     0.006 C 
BRANCH   5   6
ATOM      6  C   UNL     1      19.405 -44.989 -21.837  1.00  0.00     0.053 C 
BRANCH   6   7
ATOM      7  C   UNL     1      20.236 -46.171 -21.441  1.00  0.00     0.041 C 
ATOM      8  O   UNL     1      19.783 -47.339 -21.566  1.00  0.00    -0.550 OA
ATOM      9  O   UNL     1      21.528 -45.984 -20.964  1.00  0.00    -0.550 OA
ENDBRANCH   6   7
ENDBRANCH   5   6
ENDBRANCH   4   5
ENDBRANCH   3   4
ENDBRANCH   2   3
ENDBRANCH   1   2
BRANCH   1  10
ATOM     10  C   UNL     1      19.823 -43.519 -25.380  1.00  0.00     0.000 C 
BRANCH  10  11
ATOM     11  C   UNL     1      19.832 -42.062 -24.887  1.00  0.00    -0.000 C 
BRANCH  11  12
ATOM     12  C   UNL     1      18.454 -41.603 -24.379  1.00  0.00    -0.000 C 
BRANCH  12  13
ATOM     13  C   UNL     1      18.387 -41.522 -22.845  1.00  0.00    -0.000 C 
BRANCH  13  14
ATOM     14  C   UNL     1      16.949 -41.632 -22.309  1.00  0.00    -0.000 C 
BRANCH  14  15
ATOM     15  C   UNL     1      15.895 -41.550 -23.426  1.00  0.00    -0.003 C 
ATOM     16  C   UNL     1      14.632 -42.350 -23.109  1.00  0.00     0.004 C 
ENDBRANCH  14  15
ENDBRANCH  13  14
ENDBRANCH  12  13
ENDBRANCH  11  12
ENDBRANCH  10  11
ENDBRANCH   1  10
TORSDOF 12
ENDMDL
MODEL 4
REMARK VINA RESULT:    -4.749      1.316      2.034
REMARK INTER + INTRA:          -9.388
REMARK INTER:                  -8.305
REMARK INTRA:                  -1.083
REMARK UNBOUND:                -1.307
REMARK SMILES CCCCCCCCCCCCCC(=O)[O-]
REMARK SMILES IDX 8 1 9 2 10 3 11 4 12 5 13 6 14 7 15 8 16 9 7 10 6 11 5 12
REMARK SMILES IDX 4 13 3 14 2 15 1 16
REMARK H PARENT
REMARK Flexibility Score: inf
ROOT
ATOM      1  C   UNL     1      17.677 -45.127 -24.662  1.00  0.00     0.000 C 
ENDROOT
BRANCH   1   2
ATOM      2  C   UNL     1      18.310 -43.945 -25.414  1.00  0.00     0.000 C 
BRANCH   2   3
ATOM      3  C   UNL     1      19.066 -42.984 -24.482  1.00  0.00     0.000 C 
BRANCH   3   4
ATOM      4  C   UNL     1      18.295 -41.667 -24.310  1.00  0.00     0.000 C 
BRANCH   4   5
ATOM      5  C   UNL     1      18.010 -41.322 -22.837  1.00  0.00     0.006 C 
BRANCH   5   6
ATOM      6  C   UNL     1      16.513 -41.197 -22.503  1.00  0.00     0.053 C 
BRANCH   6   7
ATOM      7  C   UNL     1      16.185 -41.683 -21.124  1.00  0.00     0.041 C 
ATOM      8  O   UNL     1      15.037 -41.501 -20.641  1.00  0.00    -0.550 OA
ATOM      9  O   UNL     1      17.140 -42.368 -20.383  1.00  0.00    -0.550 OA
ENDBRANCH   6   7
ENDBRANCH   5   6
ENDBRANCH   4   5
ENDBRANCH   3   4
ENDBRANCH   2   3
ENDBRANCH   1   2
BRANCH   1  10
ATOM     10  C   UNL     1      16.774 -44.675 -23.502  1.00  0.00     0.000 C 
BRANCH  10  11
ATOM     11  C   UNL     1      17.141 -45.351 -22.170  1.00  0.00    -0.000 C 
BRANCH  11  12
ATOM     12  C   UNL     1      17.867 -46.693 -22.370  1.00  0.00    -0.000 C 
BRANCH  12  13
ATOM     13  C   UNL     1      17.130 -47.869 -21.708  1.00  0.00    -0.000 C 
BRANCH  13  14
ATOM     14  C   UNL     1      15.615 -47.843 -21.976  1.00  0.00    -0.000 C 
BRANCH  14  15
ATOM     15  C   UNL     1      14.815 -48.616 -20.915  1.00  0.00    -0.003 C 
ATOM     16  C   UNL     1      15.437 -49.969 -20.572  1.00  0.00     0.004 C 
ENDBRANCH  14  15
ENDBRANCH  13  14
ENDBRANCH  12  13
ENDBRANCH  11  12
ENDBRANCH  10  11
ENDBRANCH   1  10
TORSDOF 12
ENDMDL
MODEL 5
REMARK VINA RESULT:    -4.706      2.434      4.775
REMARK INTER + INTRA:          -9.314
REMARK INTER:                  -7.442
REMARK INTRA:                  -1.873
REMARK UNBOUND:                -1.307
REMARK SMILES CCCCCCCCCCCCCC(=O)[O-]
REMARK SMILES IDX 8 1 9 2 10 3 11 4 12 5 13 6 14 7 15 8 16 9 7 10 6 11 5 12
REMARK SMILES IDX 4 13 3 14 2 15 1 16
REMARK H PARENT
REMARK Flexibility Score: inf
ROOT
ATOM      1  C   UNL     1      19.770 -42.011 -23.950  1.00  0.00     0.000 C 
ENDROOT
BRANCH   1   2
ATOM      2  C   UNL     1      19.714 -43.494 -23.549  1.00  0.00     0.000 C 
BRANCH   2   3
ATOM      3  C   UNL     1      20.272 -43.751 -22.141  1.00  0.00     0.000 C 
BRANCH   3   4
ATOM      4  C   UNL     1      19.932 -45.172 -21.666  1.00  0.00     0.000 C 
BRANCH   4   5
ATOM      5  C   UNL     1      19.044 -45.944 -22.658  1.00  0.00     0.006 C 
BRANCH   5   6
ATOM      6  C   UNL     1      18.109 -46.969 -21.992  1.00  0.00     0.053 C 
BRANCH   6   7
ATOM      7  C   UNL     1      16.660 -46.668 -22.224  1.00  0.00     0.041 C 
ATOM      8  O   UNL     1      16.315 -45.600 -22.794  1.00  0.00    -0.550 OA
ATOM      9  O   UNL     1      15.689 -47.584 -21.839  1.00  0.00    -0.550 OA
ENDBRANCH   6   7
ENDBRANCH   5   6
ENDBRANCH   4   5
ENDBRANCH   3   4
ENDBRANCH   2   3
ENDBRANCH   1   2
BRANCH   1  10
ATOM     10  C   UNL     1      18.385 -41.442 -24.305  1.00  0.00     0.000 C 
BRANCH  10  11
ATOM     11  C   UNL     1      17.238 -42.374 -23.881  1.00  0.00    -0.000 C 
BRANCH  11  12
ATOM     12  C   UNL     1      16.007 -41.603 -23.371  1.00  0.00    -0.000 C 
BRANCH  12  13
ATOM     13  C   UNL     1      15.755 -41.817 -21.870  1.00  0.00    -0.000 C 
BRANCH  13  14
ATOM     14  C   UNL     1      16.876 -42.624 -21.191  1.00  0.00    -0.000 C 
BRANCH  14  15
ATOM     15  C   UNL     1      17.518 -41.867 -20.017  1.00  0.00    -0.003 C 
ATOM     16  C   UNL     1      18.600 -40.885 -20.466  1.00  0.00     0.004 C 
ENDBRANCH  14  15
ENDBRANCH  13  14
ENDBRANCH  12  13
ENDBRANCH  11  12
ENDBRANCH  10  11
ENDBRANCH   1  10
TORSDOF 12
ENDMDL
MODEL 6
REMARK VINA RESULT:    -4.694      2.690      5.218
REMARK INTER + INTRA:          -9.294
REMARK INTER:                  -7.558
REMARK INTRA:                  -1.736
REMARK UNBOUND:                -1.307
REMARK SMILES CCCCCCCCCCCCCC(=O)[O-]
REMARK SMILES IDX 8 1 9 2 10 3 11 4 12 5 13 6 14 7 15 8 16 9 7 10 6 11 5 12
REMARK SMILES IDX 4 13 3 14 2 15 1 16
REMARK H PARENT
REMARK Flexibility Score: inf
ROOT
ATOM      1  C   UNL     1      19.843 -44.564 -24.007  1.00  0.00     0.000 C 
ENDROOT
BRANCH   1   2
ATOM      2  C   UNL     1      18.854 -45.319 -24.911  1.00  0.00     0.000 C 
BRANCH   2   3
ATOM      3  C   UNL     1      17.819 -46.127 -24.114  1.00  0.00     0.000 C 
BRANCH   3   4
ATOM      4  C   UNL     1      18.398 -46.587 -22.768  1.00  0.00     0.000 C 
BRANCH   4   5
ATOM      5  C   UNL     1      17.547 -47.669 -22.081  1.00  0.00     0.006 C 
BRANCH   5   6
ATOM      6  C   UNL     1      16.050 -47.324 -21.992  1.00  0.00     0.053 C 
BRANCH   6   7
ATOM      7  C   UNL     1      15.265 -48.343 -21.222  1.00  0.00     0.041 C 
ATOM      8  O   UNL     1      14.034 -48.177 -21.018  1.00  0.00    -0.550 OA
ATOM      9  O   UNL     1      15.889 -49.495 -20.758  1.00  0.00    -0.550 OA
ENDBRANCH   6   7
ENDBRANCH   5   6
ENDBRANCH   4   5
ENDBRANCH   3   4
ENDBRANCH   2   3
ENDBRANCH   1   2
BRANCH   1  10
ATOM     10  C   UNL     1      20.438 -43.321 -24.692  1.00  0.00     0.000 C 
BRANCH  10  11
ATOM     11  C   UNL     1      20.017 -42.011 -24.005  1.00  0.00    -0.000 C 
BRANCH  11  12
ATOM     12  C   UNL     1      18.685 -41.462 -24.547  1.00  0.00    -0.000 C 
BRANCH  12  13
ATOM     13  C   UNL     1      17.609 -41.340 -23.456  1.00  0.00    -0.000 C 
BRANCH  13  14
ATOM     14  C   UNL     1      16.501 -42.398 -23.596  1.00  0.00    -0.000 C 
BRANCH  14  15
ATOM     15  C   UNL     1      16.333 -43.247 -22.326  1.00  0.00    -0.003 C 
ATOM     16  C   UNL     1      17.580 -43.244 -21.441  1.00  0.00     0.004 C 
ENDBRANCH  14  15
ENDBRANCH  13  14
ENDBRANCH  12  13
ENDBRANCH  11  12
ENDBRANCH  10  11
ENDBRANCH   1  10
TORSDOF 12
ENDMDL
MODEL 7
REMARK VINA RESULT:    -4.691      2.626      5.734
REMARK INTER + INTRA:          -9.290
REMARK INTER:                  -7.398
REMARK INTRA:                  -1.892
REMARK UNBOUND:                -1.307
REMARK SMILES CCCCCCCCCCCCCC(=O)[O-]
REMARK SMILES IDX 8 1 9 2 10 3 11 4 12 5 13 6 14 7 15 8 16 9 7 10 6 11 5 12
REMARK SMILES IDX 4 13 3 14 2 15 1 16
REMARK H PARENT
REMARK Flexibility Score: inf
ROOT
ATOM      1  C   UNL     1      15.881 -41.633 -21.285  1.00  0.00     0.000 C 
ENDROOT
BRANCH   1   2
ATOM      2  C   UNL     1      16.425 -41.188 -22.652  1.00  0.00     0.000 C 
BRANCH   2   3
ATOM      3  C   UNL     1      16.412 -42.317 -23.694  1.00  0.00     0.000 C 
BRANCH   3   4
ATOM      4  C   UNL     1      15.880 -43.622 -23.083  1.00  0.00     0.000 C 
BRANCH   4   5
ATOM      5  C   UNL     1      16.822 -44.819 -23.298  1.00  0.00     0.006 C 
BRANCH   5   6
ATOM      6  C   UNL     1      17.293 -45.486 -21.993  1.00  0.00     0.053 C 
BRANCH   6   7
ATOM      7  C   UNL     1      17.073 -46.968 -21.988  1.00  0.00     0.041 C 
ATOM      8  O   UNL     1      15.905 -47.438 -21.978  1.00  0.00    -0.550 OA
ATOM      9  O   UNL     1      18.160 -47.833 -22.027  1.00  0.00    -0.550 OA
ENDBRANCH   6   7
ENDBRANCH   5   6
ENDBRANCH   4   5
ENDBRANCH   3   4
ENDBRANCH   2   3
ENDBRANCH   1   2
BRANCH   1  10
ATOM     10  C   UNL     1      16.964 -41.644 -20.192  1.00  0.00     0.000 C 
BRANCH  10  11
ATOM     11  C   UNL     1      18.346 -41.233 -20.728  1.00  0.00    -0.000 C 
BRANCH  11  12
ATOM     12  C   UNL     1      19.198 -42.442 -21.152  1.00  0.00    -0.000 C 
BRANCH  12  13
ATOM     13  C   UNL     1      20.120 -42.127 -22.342  1.00  0.00    -0.000 C 
BRANCH  13  14
ATOM     14  C   UNL     1      20.403 -43.361 -23.215  1.00  0.00    -0.000 C 
BRANCH  14  15
ATOM     15  C   UNL     1      19.851 -43.213 -24.642  1.00  0.00    -0.003 C 
ATOM     16  C   UNL     1      20.058 -41.811 -25.215  1.00  0.00     0.004 C 
ENDBRANCH  14  15
ENDBRANCH  13  14
ENDBRANCH  12  13
ENDBRANCH  11  12
ENDBRANCH  10  11
ENDBRANCH   1  10
TORSDOF 12
ENDMDL
MODEL 8
REMARK VINA RESULT:    -4.690      1.351      2.148
REMARK INTER + INTRA:          -9.288
REMARK INTER:                  -7.897
REMARK INTRA:                  -1.391
REMARK UNBOUND:                -1.307
REMARK SMILES CCCCCCCCCCCCCC(=O)[O-]
REMARK SMILES IDX 8 1 9 2 10 3 11 4 12 5 13 6 14 7 15 8 16 9 7 10 6 11 5 12
REMARK SMILES IDX 4 13 3 14 2 15 1 16
REMARK H PARENT
REMARK Flexibility Score: inf
ROOT
ATOM      1  C   UNL     1      20.333 -42.441 -22.030  1.00  0.00     0.000 C 
ENDROOT
BRANCH   1   2
ATOM      2  C   UNL     1      20.832 -42.056 -23.432  1.00  0.00     0.000 C 
BRANCH   2   3
ATOM      3  C   UNL     1      19.864 -42.485 -24.546  1.00  0.00     0.000 C 
BRANCH   3   4
ATOM      4  C   UNL     1      18.755 -41.441 -24.742  1.00  0.00     0.000 C 
BRANCH   4   5
ATOM      5  C   UNL     1      17.385 -41.909 -24.220  1.00  0.00     0.006 C 
BRANCH   5   6
ATOM      6  C   UNL     1      16.869 -41.109 -23.011  1.00  0.00     0.053 C 
BRANCH   6   7
ATOM      7  C   UNL     1      15.679 -41.746 -22.361  1.00  0.00     0.041 C 
ATOM      8  O   UNL     1      14.829 -42.364 -23.053  1.00  0.00    -0.550 OA
ATOM      9  O   UNL     1      15.525 -41.685 -20.980  1.00  0.00    -0.550 OA
ENDBRANCH   6   7
ENDBRANCH   5   6
ENDBRANCH   4   5
ENDBRANCH   3   4
ENDBRANCH   2   3
ENDBRANCH   1   2
BRANCH   1  10
ATOM     10  C   UNL     1      19.976 -43.933 -21.918  1.00  0.00     0.000 C 
BRANCH  10  11
ATOM     11  C   UNL     1      18.487 -44.162 -21.611  1.00  0.00    -0.000 C 
BRANCH  11  12
ATOM     12  C   UNL     1      17.840 -45.188 -22.558  1.00  0.00    -0.000 C 
BRANCH  12  13
ATOM     13  C   UNL     1      18.527 -46.562 -22.498  1.00  0.00    -0.000 C 
BRANCH  13  14
ATOM     14  C   UNL     1      17.538 -47.707 -22.219  1.00  0.00    -0.000 C 
BRANCH  14  15
ATOM     15  C   UNL     1      16.100 -47.206 -22.008  1.00  0.00    -0.003 C 
ATOM     16  C   UNL     1      15.212 -48.230 -21.302  1.00  0.00     0.004 C 
ENDBRANCH  14  15
ENDBRANCH  13  14
ENDBRANCH  12  13
ENDBRANCH  11  12
ENDBRANCH  10  11
ENDBRANCH   1  10
TORSDOF 12
ENDMDL
MODEL 9
REMARK VINA RESULT:    -4.520      1.817      3.259
REMARK INTER + INTRA:          -8.998
REMARK INTER:                  -6.779
REMARK INTRA:                  -2.218
REMARK UNBOUND:                -1.307
REMARK SMILES CCCCCCCCCCCCCC(=O)[O-]
REMARK SMILES IDX 8 1 9 2 10 3 11 4 12 5 13 6 14 7 15 8 16 9 7 10 6 11 5 12
REMARK SMILES IDX 4 13 3 14 2 15 1 16
REMARK H PARENT
REMARK Flexibility Score: inf
ROOT
ATOM      1  C   UNL     1      21.358 -44.586 -23.399  1.00  0.00     0.000 C 
ENDROOT
BRANCH   1   2
ATOM      2  C   UNL     1      21.263 -43.376 -24.342  1.00  0.00     0.000 C 
BRANCH   2   3
ATOM      3  C   UNL     1      20.317 -42.285 -23.817  1.00  0.00     0.000 C 
BRANCH   3   4
ATOM      4  C   UNL     1      19.253 -41.930 -24.866  1.00  0.00     0.000 C 
BRANCH   4   5
ATOM      5  C   UNL     1      17.896 -41.549 -24.246  1.00  0.00     0.006 C 
BRANCH   5   6
ATOM      6  C   UNL     1      17.728 -42.000 -22.784  1.00  0.00     0.053 C 
BRANCH   6   7
ATOM      7  C   UNL     1      16.292 -42.074 -22.363  1.00  0.00     0.041 C 
ATOM      8  O   UNL     1      15.443 -42.653 -23.090  1.00  0.00    -0.550 OA
ATOM      9  O   UNL     1      15.895 -41.530 -21.147  1.00  0.00    -0.550 OA
ENDBRANCH   6   7
ENDBRANCH   5   6
ENDBRANCH   4   5
ENDBRANCH   3   4
ENDBRANCH   2   3
ENDBRANCH   1   2
BRANCH   1  10
ATOM     10  C   UNL     1      20.774 -44.297 -22.005  1.00  0.00     0.000 C 
BRANCH  10  11
ATOM     11  C   UNL     1      19.643 -45.268 -21.627  1.00  0.00    -0.000 C 
BRANCH  11  12
ATOM     12  C   UNL     1      19.259 -46.208 -22.784  1.00  0.00    -0.000 C 
BRANCH  12  13
ATOM     13  C   UNL     1      17.767 -46.121 -23.145  1.00  0.00    -0.000 C 
BRANCH  13  14
ATOM     14  C   UNL     1      17.510 -45.262 -24.396  1.00  0.00    -0.000 C 
BRANCH  14  15
ATOM     15  C   UNL     1      18.488 -45.578 -25.539  1.00  0.00    -0.003 C 
ATOM     16  C   UNL     1      18.042 -44.994 -26.879  1.00  0.00     0.004 C 
ENDBRANCH  14  15
ENDBRANCH  13  14
ENDBRANCH  12  13
ENDBRANCH  11  12
ENDBRANCH  10  11
ENDBRANCH   1  10
TORSDOF 12
ENDMDL
