MODEL 1
REMARK VINA RESULT:    -2.750      0.000      0.000
REMARK INTER + INTRA:          -5.930
REMARK INTER:                  -5.966
REMARK INTRA:                   0.037
REMARK UNBOUND:                 0.037
REMARK SMILES CCCCCCCCCCCCCCCCCCCCCC(=O)[O-]
REMARK SMILES IDX 12 1 11 2 10 3 9 4 8 5 7 6 6 7 5 8 4 9 3 10 2 11 1 12 13 13
REMARK SMILES IDX 14 14 15 15 16 16 17 17 18 18 19 19 20 20 21 21 22 22 23 23
REMARK SMILES IDX 24 24
REMARK H PARENT
REMARK Flexibility Score: inf
ROOT
ATOM      1  C   UNL     1      -8.247   8.410   7.438  1.00  0.00     0.000 C 
ENDROOT
BRANCH   1   2
ATOM      2  C   UNL     1      -9.193   9.628   7.450  1.00  0.00     0.000 C 
BRANCH   2   3
ATOM      3  C   UNL     1     -10.089   9.763   6.206  1.00  0.00     0.000 C 
BRANCH   3   4
ATOM      4  C   UNL     1      -9.282   9.899   4.904  1.00  0.00    -0.000 C 
BRANCH   4   5
ATOM      5  C   UNL     1     -10.051   9.389   3.676  1.00  0.00    -0.000 C 
BRANCH   5   6
ATOM      6  C   UNL     1      -9.284   8.296   2.914  1.00  0.00    -0.000 C 
BRANCH   6   7
ATOM      7  C   UNL     1     -10.025   7.900   1.629  1.00  0.00    -0.000 C 
BRANCH   7   8
ATOM      8  C   UNL     1     -10.125   9.055   0.615  1.00  0.00    -0.000 C 
BRANCH   8   9
ATOM      9  C   UNL     1      -9.679   8.706  -0.820  1.00  0.00    -0.000 C 
BRANCH   9  10
ATOM     10  C   UNL     1      -8.862   9.798  -1.533  1.00  0.00    -0.000 C 
BRANCH  10  11
ATOM     11  C   UNL     1      -9.400  10.125  -2.934  1.00  0.00    -0.003 C 
ATOM     12  C   UNL     1     -10.120   8.924  -3.540  1.00  0.00     0.004 C 
ENDBRANCH  10  11
ENDBRANCH   9  10
ENDBRANCH   8   9
ENDBRANCH   7   8
ENDBRANCH   6   7
ENDBRANCH   5   6
ENDBRANCH   4   5
ENDBRANCH   3   4
ENDBRANCH   2   3
ENDBRANCH   1   2
BRANCH   1  13
ATOM     13  C   UNL     1      -8.143   7.673   6.088  1.00  0.00     0.000 C 
BRANCH  13  14
ATOM     14  C   UNL     1      -8.947   6.363   6.004  1.00  0.00     0.000 C 
BRANCH  14  15
ATOM     15  C   UNL     1      -9.919   6.186   7.183  1.00  0.00     0.000 C 
BRANCH  15  16
ATOM     16  C   UNL     1      -9.321   5.338   8.316  1.00  0.00     0.000 C 
BRANCH  16  17
ATOM     17  C   UNL     1      -7.809   5.569   8.489  1.00  0.00     0.000 C 
BRANCH  17  18
ATOM     18  C   UNL     1      -7.426   5.931   9.933  1.00  0.00     0.000 C 
BRANCH  18  19
ATOM     19  C   UNL     1      -5.915   6.162  10.102  1.00  0.00     0.000 C 
BRANCH  19  20
ATOM     20  C   UNL     1      -5.272   6.822   8.868  1.00  0.00     0.006 C 
BRANCH  20  21
ATOM     21  C   UNL     1      -4.547   8.145   9.160  1.00  0.00     0.053 C 
BRANCH  21  22
ATOM     22  C   UNL     1      -5.266   9.320   8.573  1.00  0.00     0.041 C 
ATOM     23  O   UNL     1      -5.123   9.607   7.355  1.00  0.00    -0.550 OA
ATOM     24  O   UNL     1      -6.069  10.119   9.378  1.00  0.00    -0.550 OA
ENDBRANCH  21  22
ENDBRANCH  20  21
ENDBRANCH  19  20
ENDBRANCH  18  19
ENDBRANCH  17  18
ENDBRANCH  16  17
ENDBRANCH  15  16
ENDBRANCH  14  15
ENDBRANCH  13  14
ENDBRANCH   1  13
TORSDOF 20
ENDMDL
MODEL 2
REMARK VINA RESULT:    -2.518      1.852      2.464
REMARK INTER + INTRA:          -5.425
REMARK INTER:                  -5.034
REMARK INTRA:                  -0.391
REMARK UNBOUND:                 0.037
REMARK SMILES CCCCCCCCCCCCCCCCCCCCCC(=O)[O-]
REMARK SMILES IDX 12 1 11 2 10 3 9 4 8 5 7 6 6 7 5 8 4 9 3 10 2 11 1 12 13 13
REMARK SMILES IDX 14 14 15 15 16 16 17 17 18 18 19 19 20 20 21 21 22 22 23 23
REMARK SMILES IDX 24 24
REMARK H PARENT
REMARK Flexibility Score: inf
ROOT
ATOM      1  C   UNL     1      -8.383   6.917   6.154  1.00  0.00     0.000 C 
ENDROOT
BRANCH   1   2
ATOM      2  C   UNL     1      -9.644   7.762   5.885  1.00  0.00     0.000 C 
BRANCH   2   3
ATOM      3  C   UNL     1      -9.371   9.191   5.384  1.00  0.00     0.000 C 
BRANCH   3   4
ATOM      4  C   UNL     1      -7.877   9.455   5.130  1.00  0.00    -0.000 C 
BRANCH   4   5
ATOM      5  C   UNL     1      -7.618  10.124   3.771  1.00  0.00    -0.000 C 
BRANCH   5   6
ATOM      6  C   UNL     1      -8.833  10.041   2.834  1.00  0.00    -0.000 C 
BRANCH   6   7
ATOM      7  C   UNL     1      -8.901   8.672   2.143  1.00  0.00    -0.000 C 
BRANCH   7   8
ATOM      8  C   UNL     1      -8.904   8.776   0.607  1.00  0.00    -0.000 C 
BRANCH   8   9
ATOM      9  C   UNL     1     -10.125   8.140  -0.090  1.00  0.00    -0.000 C 
BRANCH   9  10
ATOM     10  C   UNL     1     -10.106   8.203  -1.627  1.00  0.00    -0.000 C 
BRANCH  10  11
ATOM     11  C   UNL     1      -9.238   9.350  -2.166  1.00  0.00    -0.003 C 
ATOM     12  C   UNL     1      -9.937  10.076  -3.311  1.00  0.00     0.004 C 
ENDBRANCH  10  11
ENDBRANCH   9  10
ENDBRANCH   8   9
ENDBRANCH   7   8
ENDBRANCH   6   7
ENDBRANCH   5   6
ENDBRANCH   4   5
ENDBRANCH   3   4
ENDBRANCH   2   3
ENDBRANCH   1   2
BRANCH   1  13
ATOM     13  C   UNL     1      -8.583   5.728   7.116  1.00  0.00     0.000 C 
BRANCH  13  14
ATOM     14  C   UNL     1      -9.917   5.736   7.884  1.00  0.00     0.000 C 
BRANCH  14  15
ATOM     15  C   UNL     1      -9.725   5.798   9.408  1.00  0.00     0.000 C 
BRANCH  15  16
ATOM     16  C   UNL     1      -8.898   7.017   9.848  1.00  0.00     0.000 C 
BRANCH  16  17
ATOM     17  C   UNL     1      -9.101   8.230   8.922  1.00  0.00     0.000 C 
BRANCH  17  18
ATOM     18  C   UNL     1      -7.841   9.103   8.805  1.00  0.00     0.000 C 
BRANCH  18  19
ATOM     19  C   UNL     1      -6.959   9.037  10.064  1.00  0.00     0.000 C 
BRANCH  19  20
ATOM     20  C   UNL     1      -6.098   7.763  10.122  1.00  0.00     0.006 C 
BRANCH  20  21
ATOM     21  C   UNL     1      -5.442   7.377   8.786  1.00  0.00     0.053 C 
BRANCH  21  22
ATOM     22  C   UNL     1      -4.620   6.131   8.903  1.00  0.00     0.041 C 
ATOM     23  O   UNL     1      -3.363   6.196   8.881  1.00  0.00    -0.550 OA
ATOM     24  O   UNL     1      -5.243   4.892   9.004  1.00  0.00    -0.550 OA
ENDBRANCH  21  22
ENDBRANCH  20  21
ENDBRANCH  19  20
ENDBRANCH  18  19
ENDBRANCH  17  18
ENDBRANCH  16  17
ENDBRANCH  15  16
ENDBRANCH  14  15
ENDBRANCH  13  14
ENDBRANCH   1  13
TORSDOF 20
ENDMDL
MODEL 3
REMARK VINA RESULT:    -2.500      2.069      3.269
REMARK INTER + INTRA:          -5.387
REMARK INTER:                  -4.257
REMARK INTRA:                  -1.130
REMARK UNBOUND:                 0.037
REMARK SMILES CCCCCCCCCCCCCCCCCCCCCC(=O)[O-]
REMARK SMILES IDX 12 1 11 2 10 3 9 4 8 5 7 6 6 7 5 8 4 9 3 10 2 11 1 12 13 13
REMARK SMILES IDX 14 14 15 15 16 16 17 17 18 18 19 19 20 20 21 21 22 22 23 23
REMARK SMILES IDX 24 24
REMARK H PARENT
REMARK Flexibility Score: inf
ROOT
ATOM      1  C   UNL     1      -9.180   7.662   6.173  1.00  0.00     0.000 C 
ENDROOT
BRANCH   1   2
ATOM      2  C   UNL     1      -7.738   7.635   5.626  1.00  0.00     0.000 C 
BRANCH   2   3
ATOM      3  C   UNL     1      -7.362   8.831   4.734  1.00  0.00     0.000 C 
BRANCH   3   4
ATOM      4  C   UNL     1      -8.447   9.921   4.714  1.00  0.00    -0.000 C 
BRANCH   4   5
ATOM      5  C   UNL     1      -9.056  10.122   3.317  1.00  0.00    -0.000 C 
BRANCH   5   6
ATOM      6  C   UNL     1      -9.721   8.847   2.777  1.00  0.00    -0.000 C 
BRANCH   6   7
ATOM      7  C   UNL     1     -10.125   9.020   1.305  1.00  0.00    -0.000 C 
BRANCH   7   8
ATOM      8  C   UNL     1      -9.615   7.878   0.406  1.00  0.00    -0.000 C 
BRANCH   8   9
ATOM      9  C   UNL     1      -9.403   8.256  -1.074  1.00  0.00    -0.000 C 
BRANCH   9  10
ATOM     10  C   UNL     1      -8.922   9.697  -1.319  1.00  0.00    -0.000 C 
BRANCH  10  11
ATOM     11  C   UNL     1      -8.792  10.036  -2.810  1.00  0.00    -0.003 C 
ATOM     12  C   UNL     1     -10.076   9.702  -3.564  1.00  0.00     0.004 C 
ENDBRANCH  10  11
ENDBRANCH   9  10
ENDBRANCH   8   9
ENDBRANCH   7   8
ENDBRANCH   6   7
ENDBRANCH   5   6
ENDBRANCH   4   5
ENDBRANCH   3   4
ENDBRANCH   2   3
ENDBRANCH   1   2
BRANCH   1  13
ATOM     13  C   UNL     1      -9.325   8.189   7.614  1.00  0.00     0.000 C 
BRANCH  13  14
ATOM     14  C   UNL     1      -9.084   9.701   7.776  1.00  0.00     0.000 C 
BRANCH  14  15
ATOM     15  C   UNL     1      -7.978  10.019   8.796  1.00  0.00     0.000 C 
BRANCH  15  16
ATOM     16  C   UNL     1      -6.576  10.014   8.164  1.00  0.00     0.000 C 
BRANCH  16  17
ATOM     17  C   UNL     1      -6.028   8.590   7.962  1.00  0.00     0.000 C 
BRANCH  17  18
ATOM     18  C   UNL     1      -4.699   8.356   8.699  1.00  0.00     0.000 C 
BRANCH  18  19
ATOM     19  C   UNL     1      -4.848   7.398   9.893  1.00  0.00     0.000 C 
BRANCH  19  20
ATOM     20  C   UNL     1      -6.251   6.772   9.982  1.00  0.00     0.006 C 
BRANCH  20  21
ATOM     21  C   UNL     1      -6.291   5.258   9.717  1.00  0.00     0.053 C 
BRANCH  21  22
ATOM     22  C   UNL     1      -7.686   4.716   9.761  1.00  0.00     0.041 C 
ATOM     23  O   UNL     1      -8.669   5.501   9.815  1.00  0.00    -0.550 OA
ATOM     24  O   UNL     1      -7.900   3.343   9.775  1.00  0.00    -0.550 OA
ENDBRANCH  21  22
ENDBRANCH  20  21
ENDBRANCH  19  20
ENDBRANCH  18  19
ENDBRANCH  17  18
ENDBRANCH  16  17
ENDBRANCH  15  16
ENDBRANCH  14  15
ENDBRANCH  13  14
ENDBRANCH   1  13
TORSDOF 20
ENDMDL
MODEL 4
REMARK VINA RESULT:    -2.348      2.358      3.585
REMARK INTER + INTRA:          -5.056
REMARK INTER:                  -3.277
REMARK INTRA:                  -1.779
REMARK UNBOUND:                 0.037
REMARK SMILES CCCCCCCCCCCCCCCCCCCCCC(=O)[O-]
REMARK SMILES IDX 12 1 11 2 10 3 9 4 8 5 7 6 6 7 5 8 4 9 3 10 2 11 1 12 13 13
REMARK SMILES IDX 14 14 15 15 16 16 17 17 18 18 19 19 20 20 21 21 22 22 23 23
REMARK SMILES IDX 24 24
REMARK H PARENT
REMARK Flexibility Score: inf
ROOT
ATOM      1  C   UNL     1      -8.410   8.367   7.661  1.00  0.00     0.000 C 
ENDROOT
BRANCH   1   2
ATOM      2  C   UNL     1      -9.544   8.914   6.770  1.00  0.00     0.000 C 
BRANCH   2   3
ATOM      3  C   UNL     1      -9.089   9.891   5.672  1.00  0.00     0.000 C 
BRANCH   3   4
ATOM      4  C   UNL     1      -8.082   9.261   4.696  1.00  0.00    -0.000 C 
BRANCH   4   5
ATOM      5  C   UNL     1      -8.170   9.864   3.285  1.00  0.00    -0.000 C 
BRANCH   5   6
ATOM      6  C   UNL     1      -9.620  10.105   2.838  1.00  0.00    -0.000 C 
BRANCH   6   7
ATOM      7  C   UNL     1     -10.125   8.947   1.965  1.00  0.00    -0.000 C 
BRANCH   7   8
ATOM      8  C   UNL     1      -9.527   8.962   0.546  1.00  0.00    -0.000 C 
BRANCH   8   9
ATOM      9  C   UNL     1      -9.900   7.751  -0.334  1.00  0.00    -0.000 C 
BRANCH   9  10
ATOM     10  C   UNL     1      -9.741   7.971  -1.849  1.00  0.00    -0.000 C 
BRANCH  10  11
ATOM     11  C   UNL     1      -9.854   9.448  -2.252  1.00  0.00    -0.003 C 
ATOM     12  C   UNL     1      -9.616   9.629  -3.748  1.00  0.00     0.004 C 
ENDBRANCH  10  11
ENDBRANCH   9  10
ENDBRANCH   8   9
ENDBRANCH   7   8
ENDBRANCH   6   7
ENDBRANCH   5   6
ENDBRANCH   4   5
ENDBRANCH   3   4
ENDBRANCH   2   3
ENDBRANCH   1   2
BRANCH   1  13
ATOM     13  C   UNL     1      -8.209   9.111   8.997  1.00  0.00     0.000 C 
BRANCH  13  14
ATOM     14  C   UNL     1      -6.794   8.998   9.592  1.00  0.00     0.000 C 
BRANCH  14  15
ATOM     15  C   UNL     1      -5.813   8.268   8.658  1.00  0.00     0.000 C 
BRANCH  15  16
ATOM     16  C   UNL     1      -4.491   7.912   9.356  1.00  0.00     0.000 C 
BRANCH  16  17
ATOM     17  C   UNL     1      -3.903   6.579   8.858  1.00  0.00     0.000 C 
BRANCH  17  18
ATOM     18  C   UNL     1      -4.966   5.477   8.723  1.00  0.00     0.000 C 
BRANCH  18  19
ATOM     19  C   UNL     1      -5.454   4.957  10.086  1.00  0.00     0.000 C 
BRANCH  19  20
ATOM     20  C   UNL     1      -6.898   4.425  10.038  1.00  0.00     0.006 C 
BRANCH  20  21
ATOM     21  C   UNL     1      -7.757   5.017   8.909  1.00  0.00     0.053 C 
BRANCH  21  22
ATOM     22  C   UNL     1      -9.149   4.467   8.916  1.00  0.00     0.041 C 
ATOM     23  O   UNL     1     -10.081   5.095   8.348  1.00  0.00    -0.550 OA
ATOM     24  O   UNL     1      -9.425   3.276   9.576  1.00  0.00    -0.550 OA
ENDBRANCH  21  22
ENDBRANCH  20  21
ENDBRANCH  19  20
ENDBRANCH  18  19
ENDBRANCH  17  18
ENDBRANCH  16  17
ENDBRANCH  15  16
ENDBRANCH  14  15
ENDBRANCH  13  14
ENDBRANCH   1  13
TORSDOF 20
ENDMDL
MODEL 5
REMARK VINA RESULT:    -1.581      2.239      3.598
REMARK INTER + INTRA:          -3.392
REMARK INTER:                  -2.353
REMARK INTRA:                  -1.040
REMARK UNBOUND:                 0.037
REMARK SMILES CCCCCCCCCCCCCCCCCCCCCC(=O)[O-]
REMARK SMILES IDX 12 1 11 2 10 3 9 4 8 5 7 6 6 7 5 8 4 9 3 10 2 11 1 12 13 13
REMARK SMILES IDX 14 14 15 15 16 16 17 17 18 18 19 19 20 20 21 21 22 22 23 23
REMARK SMILES IDX 24 24
REMARK H PARENT
REMARK Flexibility Score: inf
ROOT
ATOM      1  C   UNL     1      -6.682   9.933   4.516  1.00  0.00     0.000 C 
ENDROOT
BRANCH   1   2
ATOM      2  C   UNL     1      -7.096  10.100   3.041  1.00  0.00     0.000 C 
BRANCH   2   3
ATOM      3  C   UNL     1      -8.582   9.822   2.750  1.00  0.00     0.000 C 
BRANCH   3   4
ATOM      4  C   UNL     1      -8.965  10.115   1.290  1.00  0.00    -0.000 C 
BRANCH   4   5
ATOM      5  C   UNL     1      -8.137   9.297   0.286  1.00  0.00    -0.000 C 
BRANCH   5   6
ATOM      6  C   UNL     1      -8.104   9.938  -1.110  1.00  0.00    -0.000 C 
BRANCH   6   7
ATOM      7  C   UNL     1      -9.392   9.628  -1.887  1.00  0.00    -0.000 C 
BRANCH   7   8
ATOM      8  C   UNL     1      -9.745   8.129  -1.885  1.00  0.00    -0.000 C 
BRANCH   8   9
ATOM      9  C   UNL     1     -10.038   7.523  -3.272  1.00  0.00    -0.000 C 
BRANCH   9  10
ATOM     10  C   UNL     1      -9.987   5.986  -3.339  1.00  0.00    -0.000 C 
BRANCH  10  11
ATOM     11  C   UNL     1     -10.125   5.447  -4.769  1.00  0.00    -0.003 C 
ATOM     12  C   UNL     1      -9.092   4.359  -5.048  1.00  0.00     0.004 C 
ENDBRANCH  10  11
ENDBRANCH   9  10
ENDBRANCH   8   9
ENDBRANCH   7   8
ENDBRANCH   6   7
ENDBRANCH   5   6
ENDBRANCH   4   5
ENDBRANCH   3   4
ENDBRANCH   2   3
ENDBRANCH   1   2
BRANCH   1  13
ATOM     13  C   UNL     1      -7.817  10.122   5.542  1.00  0.00     0.000 C 
BRANCH  13  14
ATOM     14  C   UNL     1      -7.528   9.543   6.939  1.00  0.00     0.000 C 
BRANCH  14  15
ATOM     15  C   UNL     1      -8.787   9.462   7.819  1.00  0.00     0.000 C 
BRANCH  15  16
ATOM     16  C   UNL     1      -8.454   9.427   9.320  1.00  0.00     0.000 C 
BRANCH  16  17
ATOM     17  C   UNL     1      -8.133   8.006   9.818  1.00  0.00     0.000 C 
BRANCH  17  18
ATOM     18  C   UNL     1      -8.606   6.916   8.843  1.00  0.00     0.000 C 
BRANCH  18  19
ATOM     19  C   UNL     1      -7.920   5.562   9.096  1.00  0.00     0.000 C 
BRANCH  19  20
ATOM     20  C   UNL     1      -6.642   5.691   9.943  1.00  0.00     0.006 C 
BRANCH  20  21
ATOM     21  C   UNL     1      -5.337   5.685   9.131  1.00  0.00     0.053 C 
BRANCH  21  22
ATOM     22  C   UNL     1      -4.487   6.882   9.426  1.00  0.00     0.041 C 
ATOM     23  O   UNL     1      -4.882   8.035   9.109  1.00  0.00    -0.550 OA
ATOM     24  O   UNL     1      -3.241   6.722  10.022  1.00  0.00    -0.550 OA
ENDBRANCH  21  22
ENDBRANCH  20  21
ENDBRANCH  19  20
ENDBRANCH  18  19
ENDBRANCH  17  18
ENDBRANCH  16  17
ENDBRANCH  15  16
ENDBRANCH  14  15
ENDBRANCH  13  14
ENDBRANCH   1  13
TORSDOF 20
ENDMDL
MODEL 6
REMARK VINA RESULT:    -0.762      4.627     10.310
REMARK INTER + INTRA:          -1.616
REMARK INTER:                  -0.247
REMARK INTRA:                  -1.369
REMARK UNBOUND:                 0.037
REMARK SMILES CCCCCCCCCCCCCCCCCCCCCC(=O)[O-]
REMARK SMILES IDX 12 1 11 2 10 3 9 4 8 5 7 6 6 7 5 8 4 9 3 10 2 11 1 12 13 13
REMARK SMILES IDX 14 14 15 15 16 16 17 17 18 18 19 19 20 20 21 21 22 22 23 23
REMARK SMILES IDX 24 24
REMARK H PARENT
REMARK Flexibility Score: inf
ROOT
ATOM      1  C   UNL     1      -9.254   9.341   5.757  1.00  0.00     0.000 C 
ENDROOT
BRANCH   1   2
ATOM      2  C   UNL     1      -9.906   7.945   5.703  1.00  0.00     0.000 C 
BRANCH   2   3
ATOM      3  C   UNL     1     -10.115   7.274   7.073  1.00  0.00     0.000 C 
BRANCH   3   4
ATOM      4  C   UNL     1      -8.861   7.338   7.961  1.00  0.00    -0.000 C 
BRANCH   4   5
ATOM      5  C   UNL     1      -8.617   6.030   8.731  1.00  0.00    -0.000 C 
BRANCH   5   6
ATOM      6  C   UNL     1      -7.480   6.156   9.758  1.00  0.00    -0.000 C 
BRANCH   6   7
ATOM      7  C   UNL     1      -6.129   5.789   9.128  1.00  0.00    -0.000 C 
BRANCH   7   8
ATOM      8  C   UNL     1      -4.932   6.143  10.030  1.00  0.00    -0.000 C 
BRANCH   8   9
ATOM      9  C   UNL     1      -4.550   7.637  10.054  1.00  0.00    -0.000 C 
BRANCH   9  10
ATOM     10  C   UNL     1      -4.491   8.318   8.675  1.00  0.00    -0.000 C 
BRANCH  10  11
ATOM     11  C   UNL     1      -5.699   9.226   8.406  1.00  0.00    -0.003 C 
ATOM     12  C   UNL     1      -6.273   9.777   9.708  1.00  0.00     0.004 C 
ENDBRANCH  10  11
ENDBRANCH   9  10
ENDBRANCH   8   9
ENDBRANCH   7   8
ENDBRANCH   6   7
ENDBRANCH   5   6
ENDBRANCH   4   5
ENDBRANCH   3   4
ENDBRANCH   2   3
ENDBRANCH   1   2
BRANCH   1  13
ATOM     13  C   UNL     1      -8.634   9.827   4.432  1.00  0.00     0.000 C 
BRANCH  13  14
ATOM     14  C   UNL     1      -9.594   9.817   3.228  1.00  0.00     0.000 C 
BRANCH  14  15
ATOM     15  C   UNL     1      -9.051   9.001   2.043  1.00  0.00     0.000 C 
BRANCH  15  16
ATOM     16  C   UNL     1     -10.079   8.854   0.910  1.00  0.00     0.000 C 
BRANCH  16  17
ATOM     17  C   UNL     1     -10.082   7.441   0.299  1.00  0.00     0.000 C 
BRANCH  17  18
ATOM     18  C   UNL     1      -9.958   7.457  -1.233  1.00  0.00     0.000 C 
BRANCH  18  19
ATOM     19  C   UNL     1     -10.110   6.057  -1.852  1.00  0.00     0.000 C 
BRANCH  19  20
ATOM     20  C   UNL     1      -9.242   5.864  -3.109  1.00  0.00     0.006 C 
BRANCH  20  21
ATOM     21  C   UNL     1      -9.951   6.201  -4.430  1.00  0.00     0.053 C 
BRANCH  21  22
ATOM     22  C   UNL     1      -9.833   5.092  -5.429  1.00  0.00     0.041 C 
ATOM     23  O   UNL     1      -9.528   3.930  -5.053  1.00  0.00    -0.550 OA
ATOM     24  O   UNL     1     -10.029   5.348  -6.781  1.00  0.00    -0.550 OA
ENDBRANCH  21  22
ENDBRANCH  20  21
ENDBRANCH  19  20
ENDBRANCH  18  19
ENDBRANCH  17  18
ENDBRANCH  16  17
ENDBRANCH  15  16
ENDBRANCH  14  15
ENDBRANCH  13  14
ENDBRANCH   1  13
TORSDOF 20
ENDMDL
MODEL 7
REMARK VINA RESULT:    -0.438      2.439      3.285
REMARK INTER + INTRA:          -0.914
REMARK INTER:                   0.145
REMARK INTRA:                  -1.059
REMARK UNBOUND:                 0.037
REMARK SMILES CCCCCCCCCCCCCCCCCCCCCC(=O)[O-]
REMARK SMILES IDX 12 1 11 2 10 3 9 4 8 5 7 6 6 7 5 8 4 9 3 10 2 11 1 12 13 13
REMARK SMILES IDX 14 14 15 15 16 16 17 17 18 18 19 19 20 20 21 21 22 22 23 23
REMARK SMILES IDX 24 24
REMARK H PARENT
REMARK Flexibility Score: inf
ROOT
ATOM      1  C   UNL     1      -8.328   8.538   4.979  1.00  0.00     0.000 C 
ENDROOT
BRANCH   1   2
ATOM      2  C   UNL     1      -8.260   9.901   4.260  1.00  0.00     0.000 C 
BRANCH   2   3
ATOM      3  C   UNL     1      -9.303  10.097   3.145  1.00  0.00     0.000 C 
BRANCH   3   4
ATOM      4  C   UNL     1      -8.749   9.768   1.749  1.00  0.00    -0.000 C 
BRANCH   4   5
ATOM      5  C   UNL     1      -9.584   8.705   1.018  1.00  0.00    -0.000 C 
BRANCH   5   6
ATOM      6  C   UNL     1      -9.258   8.630  -0.482  1.00  0.00    -0.000 C 
BRANCH   6   7
ATOM      7  C   UNL     1      -9.528   7.222  -1.033  1.00  0.00    -0.000 C 
BRANCH   7   8
ATOM      8  C   UNL     1     -10.064   7.236  -2.476  1.00  0.00    -0.000 C 
BRANCH   8   9
ATOM      9  C   UNL     1      -9.990   5.885  -3.216  1.00  0.00    -0.000 C 
BRANCH   9  10
ATOM     10  C   UNL     1     -10.125   5.969  -4.746  1.00  0.00    -0.000 C 
BRANCH  10  11
ATOM     11  C   UNL     1      -9.195   4.994  -5.481  1.00  0.00    -0.003 C 
ATOM     12  C   UNL     1      -9.545   4.913  -6.964  1.00  0.00     0.004 C 
ENDBRANCH  10  11
ENDBRANCH   9  10
ENDBRANCH   8   9
ENDBRANCH   7   8
ENDBRANCH   6   7
ENDBRANCH   5   6
ENDBRANCH   4   5
ENDBRANCH   3   4
ENDBRANCH   2   3
ENDBRANCH   1   2
BRANCH   1  13
ATOM     13  C   UNL     1      -9.664   7.783   4.827  1.00  0.00     0.000 C 
BRANCH  13  14
ATOM     14  C   UNL     1      -9.548   6.249   4.890  1.00  0.00     0.000 C 
BRANCH  14  15
ATOM     15  C   UNL     1      -9.898   5.684   6.277  1.00  0.00     0.000 C 
BRANCH  15  16
ATOM     16  C   UNL     1      -8.699   5.702   7.239  1.00  0.00     0.000 C 
BRANCH  16  17
ATOM     17  C   UNL     1      -8.839   6.776   8.333  1.00  0.00     0.000 C 
BRANCH  17  18
ATOM     18  C   UNL     1      -7.649   6.790   9.306  1.00  0.00     0.000 C 
BRANCH  18  19
ATOM     19  C   UNL     1      -7.026   8.189   9.455  1.00  0.00     0.000 C 
BRANCH  19  20
ATOM     20  C   UNL     1      -5.499   8.143   9.641  1.00  0.00     0.006 C 
BRANCH  20  21
ATOM     21  C   UNL     1      -4.955   6.782  10.103  1.00  0.00     0.053 C 
BRANCH  21  22
ATOM     22  C   UNL     1      -4.225   6.068   9.008  1.00  0.00     0.041 C 
ATOM     23  O   UNL     1      -4.856   5.355   8.184  1.00  0.00    -0.550 OA
ATOM     24  O   UNL     1      -2.841   6.164   8.915  1.00  0.00    -0.550 OA
ENDBRANCH  21  22
ENDBRANCH  20  21
ENDBRANCH  19  20
ENDBRANCH  18  19
ENDBRANCH  17  18
ENDBRANCH  16  17
ENDBRANCH  15  16
ENDBRANCH  14  15
ENDBRANCH  13  14
ENDBRANCH   1  13
TORSDOF 20
ENDMDL
