MODEL 1
REMARK VINA RESULT:    -6.007      0.000      0.000
REMARK INTER + INTRA:          -7.410
REMARK INTER:                  -7.236
REMARK INTRA:                  -0.174
REMARK UNBOUND:                -0.174
REMARK SMILES O=c1c(O)c(-c2ccc(O)c(O)c2)oc2cc(O)cc(O)c12
REMARK SMILES IDX 5 1 3 2 2 3 1 4 22 5 20 6 19 7 17 8 16 9 15 10 14 11 6 12
REMARK SMILES IDX 7 13 8 14 9 15 13 16 11 17 10 18 12 20 4 22 21 24 18 26
REMARK H PARENT 10 19 12 21 4 23 21 25 18 27
REMARK Flexibility Score: inf
ROOT
ATOM      1  C   UNL     1     -33.002 -54.776  67.072  1.00  0.00     0.180 A 
ATOM      2  C   UNL     1     -33.326 -54.126  65.869  1.00  0.00     0.208 A 
ATOM      3  C   UNL     1     -33.176 -52.731  65.787  1.00  0.00     0.238 A 
ATOM      4  O   UNL     1     -33.518 -52.149  64.725  1.00  0.00    -0.285 OA
ATOM      5  C   UNL     1     -32.689 -52.009  66.903  1.00  0.00     0.111 A 
ATOM      6  C   UNL     1     -32.459 -50.600  66.917  1.00  0.00     0.134 A 
ATOM      7  C   UNL     1     -32.100 -49.972  68.117  1.00  0.00     0.093 A 
ATOM      8  C   UNL     1     -31.899 -50.710  69.285  1.00  0.00     0.123 A 
ATOM      9  C   UNL     1     -32.063 -52.094  69.265  1.00  0.00     0.094 A 
ATOM     10  C   UNL     1     -32.456 -52.744  68.093  1.00  0.00     0.146 A 
ATOM     11  O   UNL     1     -32.611 -54.063  68.121  1.00  0.00    -0.452 OA
ENDROOT
BRANCH   1  12
ATOM     12  C   UNL     1     -33.110 -56.244  67.226  1.00  0.00     0.025 A 
ATOM     13  C   UNL     1     -33.973 -56.775  68.199  1.00  0.00     0.016 A 
ATOM     14  C   UNL     1     -34.075 -58.157  68.376  1.00  0.00     0.051 A 
ATOM     15  C   UNL     1     -33.308 -59.029  67.598  1.00  0.00     0.157 A 
ATOM     16  C   UNL     1     -32.323 -57.122  66.459  1.00  0.00     0.062 A 
ATOM     17  C   UNL     1     -32.424 -58.510  66.637  1.00  0.00     0.158 A 
BRANCH  15  18
ATOM     18  O   UNL     1     -33.432 -60.403  67.796  1.00  0.00    -0.504 OA
ATOM     19  H   UNL     1     -34.159 -60.948  67.347  1.00  0.00     0.293 HD
ENDBRANCH  15  18
BRANCH  17  20
ATOM     20  O   UNL     1     -31.645 -59.372  65.867  1.00  0.00    -0.504 OA
ATOM     21  H   UNL     1     -30.992 -59.024  65.175  1.00  0.00     0.293 HD
ENDBRANCH  17  20
ENDBRANCH   1  12
BRANCH   2  22
ATOM     22  O   UNL     1     -33.825 -54.856  64.787  1.00  0.00    -0.502 OA
ATOM     23  H   UNL     1     -33.872 -55.868  64.789  1.00  0.00     0.293 HD
ENDBRANCH   2  22
BRANCH   6  24
ATOM     24  O   UNL     1     -32.543 -49.783  65.786  1.00  0.00    -0.507 OA
ATOM     25  H   UNL     1     -31.750 -49.451  65.257  1.00  0.00     0.293 HD
ENDBRANCH   6  24
BRANCH   8  26
ATOM     26  O   UNL     1     -31.527 -50.079  70.470  1.00  0.00    -0.508 OA
ATOM     27  H   UNL     1     -31.015 -50.571  71.193  1.00  0.00     0.293 HD
ENDBRANCH   8  26
TORSDOF 6
ENDMDL
MODEL 2
REMARK VINA RESULT:    -5.569     12.030     14.754
REMARK INTER + INTRA:          -6.883
REMARK INTER:                  -6.553
REMARK INTRA:                  -0.329
REMARK UNBOUND:                -0.174
REMARK SMILES O=c1c(O)c(-c2ccc(O)c(O)c2)oc2cc(O)cc(O)c12
REMARK SMILES IDX 5 1 3 2 2 3 1 4 22 5 20 6 19 7 17 8 16 9 15 10 14 11 6 12
REMARK SMILES IDX 7 13 8 14 9 15 13 16 11 17 10 18 12 20 4 22 21 24 18 26
REMARK H PARENT 10 19 12 21 4 23 21 25 18 27
REMARK Flexibility Score: inf
ROOT
ATOM      1  C   UNL     1     -27.110 -55.466  55.352  1.00  0.00     0.180 A 
ATOM      2  C   UNL     1     -26.240 -56.508  54.990  1.00  0.00     0.208 A 
ATOM      3  C   UNL     1     -26.707 -57.832  55.034  1.00  0.00     0.238 A 
ATOM      4  O   UNL     1     -25.907 -58.764  54.761  1.00  0.00    -0.285 OA
ATOM      5  C   UNL     1     -28.043 -58.095  55.423  1.00  0.00     0.111 A 
ATOM      6  C   UNL     1     -28.634 -59.393  55.463  1.00  0.00     0.134 A 
ATOM      7  C   UNL     1     -29.923 -59.548  55.989  1.00  0.00     0.093 A 
ATOM      8  C   UNL     1     -30.666 -58.445  56.413  1.00  0.00     0.123 A 
ATOM      9  C   UNL     1     -30.119 -57.166  56.321  1.00  0.00     0.094 A 
ATOM     10  C   UNL     1     -28.822 -56.984  55.836  1.00  0.00     0.146 A 
ATOM     11  O   UNL     1     -28.336 -55.750  55.776  1.00  0.00    -0.452 OA
ENDROOT
BRANCH   1  12
ATOM     12  C   UNL     1     -26.698 -54.045  55.307  1.00  0.00     0.025 A 
ATOM     13  C   UNL     1     -26.266 -53.413  56.485  1.00  0.00     0.016 A 
ATOM     14  C   UNL     1     -25.892 -52.067  56.469  1.00  0.00     0.051 A 
ATOM     15  C   UNL     1     -25.958 -51.327  55.285  1.00  0.00     0.157 A 
ATOM     16  C   UNL     1     -26.785 -53.294  54.122  1.00  0.00     0.062 A 
ATOM     17  C   UNL     1     -26.411 -51.941  54.105  1.00  0.00     0.158 A 
BRANCH  15  18
ATOM     18  O   UNL     1     -25.577 -49.987  55.300  1.00  0.00    -0.504 OA
ATOM     19  H   UNL     1     -26.253 -49.234  55.259  1.00  0.00     0.293 HD
ENDBRANCH  15  18
BRANCH  17  20
ATOM     20  O   UNL     1     -26.494 -51.207  52.923  1.00  0.00    -0.504 OA
ATOM     21  H   UNL     1     -27.089 -51.498  52.157  1.00  0.00     0.293 HD
ENDBRANCH  17  20
ENDBRANCH   1  12
BRANCH   2  22
ATOM     22  O   UNL     1     -24.919 -56.228  54.630  1.00  0.00    -0.502 OA
ATOM     23  H   UNL     1     -24.197 -56.039  55.316  1.00  0.00     0.293 HD
ENDBRANCH   2  22
BRANCH   6  24
ATOM     24  O   UNL     1     -28.013 -60.549  54.979  1.00  0.00    -0.507 OA
ATOM     25  H   UNL     1     -27.900 -60.775  54.003  1.00  0.00     0.293 HD
ENDBRANCH   6  24
BRANCH   8  26
ATOM     26  O   UNL     1     -31.954 -58.607  56.920  1.00  0.00    -0.508 OA
ATOM     27  H   UNL     1     -32.767 -58.584  56.316  1.00  0.00     0.293 HD
ENDBRANCH   8  26
TORSDOF 6
ENDMDL
MODEL 3
REMARK VINA RESULT:    -5.515     16.392     18.849
REMARK INTER + INTRA:          -6.817
REMARK INTER:                  -6.503
REMARK INTRA:                  -0.314
REMARK UNBOUND:                -0.174
REMARK SMILES O=c1c(O)c(-c2ccc(O)c(O)c2)oc2cc(O)cc(O)c12
REMARK SMILES IDX 5 1 3 2 2 3 1 4 22 5 20 6 19 7 17 8 16 9 15 10 14 11 6 12
REMARK SMILES IDX 7 13 8 14 9 15 13 16 11 17 10 18 12 20 4 22 21 24 18 26
REMARK H PARENT 10 19 12 21 4 23 21 25 18 27
REMARK Flexibility Score: inf
ROOT
ATOM      1  C   UNL     1     -21.809 -64.397  57.627  1.00  0.00     0.180 A 
ATOM      2  C   UNL     1     -21.227 -65.658  57.846  1.00  0.00     0.208 A 
ATOM      3  C   UNL     1     -22.013 -66.810  57.674  1.00  0.00     0.238 A 
ATOM      4  O   UNL     1     -21.501 -67.932  57.923  1.00  0.00    -0.285 OA
ATOM      5  C   UNL     1     -23.363 -66.687  57.270  1.00  0.00     0.111 A 
ATOM      6  C   UNL     1     -24.239 -67.788  57.026  1.00  0.00     0.134 A 
ATOM      7  C   UNL     1     -25.592 -67.546  56.757  1.00  0.00     0.093 A 
ATOM      8  C   UNL     1     -26.086 -66.244  56.658  1.00  0.00     0.123 A 
ATOM      9  C   UNL     1     -25.226 -65.162  56.836  1.00  0.00     0.094 A 
ATOM     10  C   UNL     1     -23.879 -65.372  57.141  1.00  0.00     0.146 A 
ATOM     11  O   UNL     1     -23.096 -64.313  57.313  1.00  0.00    -0.452 OA
ENDROOT
BRANCH   1  12
ATOM     12  C   UNL     1     -21.039 -63.141  57.764  1.00  0.00     0.025 A 
ATOM     13  C   UNL     1     -20.250 -62.693  56.693  1.00  0.00     0.016 A 
ATOM     14  C   UNL     1     -19.499 -61.521  56.808  1.00  0.00     0.051 A 
ATOM     15  C   UNL     1     -19.512 -60.786  57.997  1.00  0.00     0.157 A 
ATOM     16  C   UNL     1     -21.034 -62.412  58.967  1.00  0.00     0.062 A 
ATOM     17  C   UNL     1     -20.280 -61.235  59.085  1.00  0.00     0.158 A 
BRANCH  15  18
ATOM     18  O   UNL     1     -18.755 -59.619  58.082  1.00  0.00    -0.504 OA
ATOM     19  H   UNL     1     -17.824 -59.609  58.481  1.00  0.00     0.293 HD
ENDBRANCH  15  18
BRANCH  17  20
ATOM     20  O   UNL     1     -20.286 -60.516  60.279  1.00  0.00    -0.504 OA
ATOM     21  H   UNL     1     -20.050 -60.951  61.163  1.00  0.00     0.293 HD
ENDBRANCH  17  20
ENDBRANCH   1  12
BRANCH   2  22
ATOM     22  O   UNL     1     -19.898 -65.755  58.265  1.00  0.00    -0.502 OA
ATOM     23  H   UNL     1     -19.117 -65.582  57.643  1.00  0.00     0.293 HD
ENDBRANCH   2  22
BRANCH   6  24
ATOM     24  O   UNL     1     -23.828 -69.124  57.009  1.00  0.00    -0.507 OA
ATOM     25  H   UNL     1     -24.409 -69.907  57.264  1.00  0.00     0.293 HD
ENDBRANCH   6  24
BRANCH   8  26
ATOM     26  O   UNL     1     -27.431 -66.013  56.375  1.00  0.00    -0.508 OA
ATOM     27  H   UNL     1     -27.716 -65.356  55.658  1.00  0.00     0.293 HD
ENDBRANCH   8  26
TORSDOF 6
ENDMDL
MODEL 4
REMARK VINA RESULT:    -5.409     14.517     17.392
REMARK INTER + INTRA:          -6.690
REMARK INTER:                  -6.356
REMARK INTRA:                  -0.334
REMARK UNBOUND:                -0.174
REMARK SMILES O=c1c(O)c(-c2ccc(O)c(O)c2)oc2cc(O)cc(O)c12
REMARK SMILES IDX 5 1 3 2 2 3 1 4 22 5 20 6 19 7 17 8 16 9 15 10 14 11 6 12
REMARK SMILES IDX 7 13 8 14 9 15 13 16 11 17 10 18 12 20 4 22 21 24 18 26
REMARK H PARENT 10 19 12 21 4 23 21 25 18 27
REMARK Flexibility Score: inf
ROOT
ATOM      1  C   UNL     1     -26.108 -64.208  56.203  1.00  0.00     0.180 A 
ATOM      2  C   UNL     1     -26.651 -63.714  55.005  1.00  0.00     0.208 A 
ATOM      3  C   UNL     1     -27.730 -64.394  54.415  1.00  0.00     0.238 A 
ATOM      4  O   UNL     1     -28.176 -63.977  53.314  1.00  0.00    -0.285 OA
ATOM      5  C   UNL     1     -28.262 -65.547  55.040  1.00  0.00     0.111 A 
ATOM      6  C   UNL     1     -29.380 -66.289  54.552  1.00  0.00     0.134 A 
ATOM      7  C   UNL     1     -29.738 -67.489  55.180  1.00  0.00     0.093 A 
ATOM      8  C   UNL     1     -29.062 -67.938  56.316  1.00  0.00     0.123 A 
ATOM      9  C   UNL     1     -28.008 -67.189  56.834  1.00  0.00     0.094 A 
ATOM     10  C   UNL     1     -27.603 -66.007  56.208  1.00  0.00     0.146 A 
ATOM     11  O   UNL     1     -26.587 -65.330  56.730  1.00  0.00    -0.452 OA
ENDROOT
BRANCH   1  12
ATOM     12  C   UNL     1     -24.988 -63.534  56.897  1.00  0.00     0.025 A 
ATOM     13  C   UNL     1     -23.671 -63.958  56.657  1.00  0.00     0.016 A 
ATOM     14  C   UNL     1     -22.600 -63.349  57.316  1.00  0.00     0.051 A 
ATOM     15  C   UNL     1     -22.827 -62.321  58.236  1.00  0.00     0.157 A 
ATOM     16  C   UNL     1     -25.216 -62.514  57.838  1.00  0.00     0.062 A 
ATOM     17  C   UNL     1     -24.142 -61.903  58.502  1.00  0.00     0.158 A 
BRANCH  15  18
ATOM     18  O   UNL     1     -21.739 -61.731  58.876  1.00  0.00    -0.504 OA
ATOM     19  H   UNL     1     -21.425 -60.794  58.652  1.00  0.00     0.293 HD
ENDBRANCH  15  18
BRANCH  17  20
ATOM     20  O   UNL     1     -24.378 -60.888  59.428  1.00  0.00    -0.504 OA
ATOM     21  H   UNL     1     -24.329 -61.057  60.426  1.00  0.00     0.293 HD
ENDBRANCH  17  20
ENDBRANCH   1  12
BRANCH   2  22
ATOM     22  O   UNL     1     -26.096 -62.587  54.394  1.00  0.00    -0.502 OA
ATOM     23  H   UNL     1     -26.349 -61.643  54.662  1.00  0.00     0.293 HD
ENDBRANCH   2  22
BRANCH   6  24
ATOM     24  O   UNL     1     -30.181 -65.881  53.481  1.00  0.00    -0.507 OA
ATOM     25  H   UNL     1     -30.715 -65.026  53.456  1.00  0.00     0.293 HD
ENDBRANCH   6  24
BRANCH   8  26
ATOM     26  O   UNL     1     -29.435 -69.125  56.944  1.00  0.00    -0.508 OA
ATOM     27  H   UNL     1     -30.131 -69.740  56.541  1.00  0.00     0.293 HD
ENDBRANCH   8  26
TORSDOF 6
ENDMDL
MODEL 5
REMARK VINA RESULT:    -5.295     14.454     17.303
REMARK INTER + INTRA:          -6.553
REMARK INTER:                  -6.263
REMARK INTRA:                  -0.290
REMARK UNBOUND:                -0.174
REMARK SMILES O=c1c(O)c(-c2ccc(O)c(O)c2)oc2cc(O)cc(O)c12
REMARK SMILES IDX 5 1 3 2 2 3 1 4 22 5 20 6 19 7 17 8 16 9 15 10 14 11 6 12
REMARK SMILES IDX 7 13 8 14 9 15 13 16 11 17 10 18 12 20 4 22 21 24 18 26
REMARK H PARENT 10 19 12 21 4 23 21 25 18 27
REMARK Flexibility Score: inf
ROOT
ATOM      1  C   UNL     1     -25.692 -65.537  55.994  1.00  0.00     0.180 A 
ATOM      2  C   UNL     1     -24.405 -65.872  55.539  1.00  0.00     0.208 A 
ATOM      3  C   UNL     1     -23.303 -65.138  56.010  1.00  0.00     0.238 A 
ATOM      4  O   UNL     1     -22.160 -65.407  55.558  1.00  0.00    -0.285 OA
ATOM      5  C   UNL     1     -23.502 -64.092  56.943  1.00  0.00     0.111 A 
ATOM      6  C   UNL     1     -22.454 -63.310  57.518  1.00  0.00     0.134 A 
ATOM      7  C   UNL     1     -22.777 -62.215  58.330  1.00  0.00     0.093 A 
ATOM      8  C   UNL     1     -24.104 -61.914  58.639  1.00  0.00     0.123 A 
ATOM      9  C   UNL     1     -25.131 -62.708  58.131  1.00  0.00     0.094 A 
ATOM     10  C   UNL     1     -24.842 -63.784  57.289  1.00  0.00     0.146 A 
ATOM     11  O   UNL     1     -25.851 -64.508  56.817  1.00  0.00    -0.452 OA
ENDROOT
BRANCH   1  12
ATOM     12  C   UNL     1     -26.897 -66.280  55.562  1.00  0.00     0.025 A 
ATOM     13  C   UNL     1     -27.482 -65.985  54.320  1.00  0.00     0.016 A 
ATOM     14  C   UNL     1     -28.632 -66.659  53.901  1.00  0.00     0.051 A 
ATOM     15  C   UNL     1     -29.224 -67.624  54.721  1.00  0.00     0.157 A 
ATOM     16  C   UNL     1     -27.506 -67.236  56.394  1.00  0.00     0.062 A 
ATOM     17  C   UNL     1     -28.662 -67.912  55.975  1.00  0.00     0.158 A 
BRANCH  15  18
ATOM     18  O   UNL     1     -30.370 -68.282  54.275  1.00  0.00    -0.504 OA
ATOM     19  H   UNL     1     -30.339 -68.982  53.544  1.00  0.00     0.293 HD
ENDBRANCH  15  18
BRANCH  17  20
ATOM     20  O   UNL     1     -29.255 -68.863  56.805  1.00  0.00    -0.504 OA
ATOM     21  H   UNL     1     -29.774 -69.648  56.428  1.00  0.00     0.293 HD
ENDBRANCH  17  20
ENDBRANCH   1  12
BRANCH   2  22
ATOM     22  O   UNL     1     -24.234 -66.894  54.602  1.00  0.00    -0.502 OA
ATOM     23  H   UNL     1     -24.214 -67.873  54.862  1.00  0.00     0.293 HD
ENDBRANCH   2  22
BRANCH   6  24
ATOM     24  O   UNL     1     -21.094 -63.582  57.347  1.00  0.00    -0.507 OA
ATOM     25  H   UNL     1     -20.603 -63.530  56.467  1.00  0.00     0.293 HD
ENDBRANCH   6  24
BRANCH   8  26
ATOM     26  O   UNL     1     -24.416 -60.832  59.461  1.00  0.00    -0.508 OA
ATOM     27  H   UNL     1     -23.719 -60.403  60.058  1.00  0.00     0.293 HD
ENDBRANCH   8  26
TORSDOF 6
ENDMDL
MODEL 6
REMARK VINA RESULT:    -5.240     12.613     14.851
REMARK INTER + INTRA:          -6.487
REMARK INTER:                  -6.230
REMARK INTRA:                  -0.257
REMARK UNBOUND:                -0.174
REMARK SMILES O=c1c(O)c(-c2ccc(O)c(O)c2)oc2cc(O)cc(O)c12
REMARK SMILES IDX 5 1 3 2 2 3 1 4 22 5 20 6 19 7 17 8 16 9 15 10 14 11 6 12
REMARK SMILES IDX 7 13 8 14 9 15 13 16 11 17 10 18 12 20 4 22 21 24 18 26
REMARK H PARENT 10 19 12 21 4 23 21 25 18 27
REMARK Flexibility Score: inf
ROOT
ATOM      1  C   UNL     1     -27.615 -55.455  55.303  1.00  0.00     0.180 A 
ATOM      2  C   UNL     1     -29.003 -55.665  55.231  1.00  0.00     0.208 A 
ATOM      3  C   UNL     1     -29.498 -56.978  55.287  1.00  0.00     0.238 A 
ATOM      4  O   UNL     1     -30.737 -57.162  55.168  1.00  0.00    -0.285 OA
ATOM      5  C   UNL     1     -28.600 -58.063  55.432  1.00  0.00     0.111 A 
ATOM      6  C   UNL     1     -28.994 -59.431  55.541  1.00  0.00     0.134 A 
ATOM      7  C   UNL     1     -28.014 -60.432  55.549  1.00  0.00     0.093 A 
ATOM      8  C   UNL     1     -26.656 -60.112  55.519  1.00  0.00     0.123 A 
ATOM      9  C   UNL     1     -26.261 -58.776  55.473  1.00  0.00     0.094 A 
ATOM     10  C   UNL     1     -27.215 -57.757  55.426  1.00  0.00     0.146 A 
ATOM     11  O   UNL     1     -26.795 -56.498  55.372  1.00  0.00    -0.452 OA
ENDROOT
BRANCH   1  12
ATOM     12  C   UNL     1     -27.020 -54.101  55.275  1.00  0.00     0.025 A 
ATOM     13  C   UNL     1     -26.568 -53.519  56.471  1.00  0.00     0.016 A 
ATOM     14  C   UNL     1     -26.023 -52.233  56.471  1.00  0.00     0.051 A 
ATOM     15  C   UNL     1     -25.934 -51.502  55.282  1.00  0.00     0.157 A 
ATOM     16  C   UNL     1     -26.951 -53.355  54.085  1.00  0.00     0.062 A 
ATOM     17  C   UNL     1     -26.404 -52.063  54.083  1.00  0.00     0.158 A 
BRANCH  15  18
ATOM     18  O   UNL     1     -25.384 -50.222  55.312  1.00  0.00    -0.504 OA
ATOM     19  H   UNL     1     -25.382 -49.656  56.153  1.00  0.00     0.293 HD
ENDBRANCH  15  18
BRANCH  17  20
ATOM     20  O   UNL     1     -26.333 -51.335  52.896  1.00  0.00    -0.504 OA
ATOM     21  H   UNL     1     -25.528 -50.762  52.671  1.00  0.00     0.293 HD
ENDBRANCH  17  20
ENDBRANCH   1  12
BRANCH   2  22
ATOM     22  O   UNL     1     -29.869 -54.581  55.067  1.00  0.00    -0.502 OA
ATOM     23  H   UNL     1     -29.707 -53.854  54.379  1.00  0.00     0.293 HD
ENDBRANCH   2  22
BRANCH   6  24
ATOM     24  O   UNL     1     -30.320 -59.853  55.671  1.00  0.00    -0.507 OA
ATOM     25  H   UNL     1     -31.006 -59.419  56.270  1.00  0.00     0.293 HD
ENDBRANCH   6  24
BRANCH   8  26
ATOM     26  O   UNL     1     -25.688 -61.114  55.543  1.00  0.00    -0.508 OA
ATOM     27  H   UNL     1     -25.680 -61.825  56.264  1.00  0.00     0.293 HD
ENDBRANCH   8  26
TORSDOF 6
ENDMDL
MODEL 7
REMARK VINA RESULT:    -5.181     17.799     19.841
REMARK INTER + INTRA:          -6.414
REMARK INTER:                  -6.204
REMARK INTRA:                  -0.210
REMARK UNBOUND:                -0.174
REMARK SMILES O=c1c(O)c(-c2ccc(O)c(O)c2)oc2cc(O)cc(O)c12
REMARK SMILES IDX 5 1 3 2 2 3 1 4 22 5 20 6 19 7 17 8 16 9 15 10 14 11 6 12
REMARK SMILES IDX 7 13 8 14 9 15 13 16 11 17 10 18 12 20 4 22 21 24 18 26
REMARK H PARENT 10 19 12 21 4 23 21 25 18 27
REMARK Flexibility Score: inf
ROOT
ATOM      1  C   UNL     1     -20.565 -64.326  57.335  1.00  0.00     0.180 A 
ATOM      2  C   UNL     1     -21.821 -64.775  56.893  1.00  0.00     0.208 A 
ATOM      3  C   UNL     1     -22.300 -66.015  57.347  1.00  0.00     0.238 A 
ATOM      4  O   UNL     1     -23.401 -66.435  56.904  1.00  0.00    -0.285 OA
ATOM      5  C   UNL     1     -21.525 -66.781  58.250  1.00  0.00     0.111 A 
ATOM      6  C   UNL     1     -21.931 -68.032  58.806  1.00  0.00     0.134 A 
ATOM      7  C   UNL     1     -21.028 -68.765  59.587  1.00  0.00     0.093 A 
ATOM      8  C   UNL     1     -19.760 -68.263  59.885  1.00  0.00     0.123 A 
ATOM      9  C   UNL     1     -19.377 -67.015  59.396  1.00  0.00     0.094 A 
ATOM     10  C   UNL     1     -20.242 -66.278  58.584  1.00  0.00     0.146 A 
ATOM     11  O   UNL     1     -19.833 -65.098  58.130  1.00  0.00    -0.452 OA
ENDROOT
BRANCH   1  12
ATOM     12  C   UNL     1     -20.005 -63.020  56.921  1.00  0.00     0.025 A 
ATOM     13  C   UNL     1     -19.556 -62.849  55.601  1.00  0.00     0.016 A 
ATOM     14  C   UNL     1     -19.005 -61.631  55.194  1.00  0.00     0.051 A 
ATOM     15  C   UNL     1     -18.878 -60.573  56.100  1.00  0.00     0.157 A 
ATOM     16  C   UNL     1     -19.857 -61.963  57.836  1.00  0.00     0.062 A 
ATOM     17  C   UNL     1     -19.302 -60.740  57.429  1.00  0.00     0.158 A 
BRANCH  15  18
ATOM     18  O   UNL     1     -18.326 -59.370  55.664  1.00  0.00    -0.504 OA
ATOM     19  H   UNL     1     -18.683 -58.472  55.969  1.00  0.00     0.293 HD
ENDBRANCH  15  18
BRANCH  17  20
ATOM     20  O   UNL     1     -19.166 -59.695  58.341  1.00  0.00    -0.504 OA
ATOM     21  H   UNL     1     -18.397 -59.036  58.285  1.00  0.00     0.293 HD
ENDBRANCH  17  20
ENDBRANCH   1  12
BRANCH   2  22
ATOM     22  O   UNL     1     -22.560 -64.012  55.984  1.00  0.00    -0.502 OA
ATOM     23  H   UNL     1     -22.289 -63.074  55.715  1.00  0.00     0.293 HD
ENDBRANCH   2  22
BRANCH   6  24
ATOM     24  O   UNL     1     -23.207 -68.580  58.646  1.00  0.00    -0.507 OA
ATOM     25  H   UNL     1     -23.393 -69.525  58.344  1.00  0.00     0.293 HD
ENDBRANCH   6  24
BRANCH   8  26
ATOM     26  O   UNL     1     -18.873 -68.992  60.675  1.00  0.00    -0.508 OA
ATOM     27  H   UNL     1     -18.054 -69.437  60.279  1.00  0.00     0.293 HD
ENDBRANCH   8  26
TORSDOF 6
ENDMDL
MODEL 8
REMARK VINA RESULT:    -5.180     16.668     18.441
REMARK INTER + INTRA:          -6.414
REMARK INTER:                  -6.136
REMARK INTRA:                  -0.278
REMARK UNBOUND:                -0.174
REMARK SMILES O=c1c(O)c(-c2ccc(O)c(O)c2)oc2cc(O)cc(O)c12
REMARK SMILES IDX 5 1 3 2 2 3 1 4 22 5 20 6 19 7 17 8 16 9 15 10 14 11 6 12
REMARK SMILES IDX 7 13 8 14 9 15 13 16 11 17 10 18 12 20 4 22 21 24 18 26
REMARK H PARENT 10 19 12 21 4 23 21 25 18 27
REMARK Flexibility Score: inf
ROOT
ATOM      1  C   UNL     1     -25.748 -67.176  56.663  1.00  0.00     0.180 A 
ATOM      2  C   UNL     1     -26.150 -66.234  55.701  1.00  0.00     0.208 A 
ATOM      3  C   UNL     1     -27.519 -65.950  55.557  1.00  0.00     0.238 A 
ATOM      4  O   UNL     1     -27.876 -65.146  54.657  1.00  0.00    -0.285 OA
ATOM      5  C   UNL     1     -28.464 -66.599  56.387  1.00  0.00     0.111 A 
ATOM      6  C   UNL     1     -29.870 -66.357  56.355  1.00  0.00     0.134 A 
ATOM      7  C   UNL     1     -30.725 -67.151  57.130  1.00  0.00     0.093 A 
ATOM      8  C   UNL     1     -30.218 -68.132  57.985  1.00  0.00     0.123 A 
ATOM      9  C   UNL     1     -28.842 -68.335  58.067  1.00  0.00     0.094 A 
ATOM     10  C   UNL     1     -27.968 -67.584  57.279  1.00  0.00     0.146 A 
ATOM     11  O   UNL     1     -26.664 -67.816  57.381  1.00  0.00    -0.452 OA
ENDROOT
BRANCH   1  12
ATOM     12  C   UNL     1     -24.324 -67.509  56.891  1.00  0.00     0.025 A 
ATOM     13  C   UNL     1     -23.830 -68.755  56.472  1.00  0.00     0.016 A 
ATOM     14  C   UNL     1     -22.495 -69.099  56.695  1.00  0.00     0.051 A 
ATOM     15  C   UNL     1     -21.636 -68.213  57.353  1.00  0.00     0.157 A 
ATOM     16  C   UNL     1     -23.465 -66.628  57.571  1.00  0.00     0.062 A 
ATOM     17  C   UNL     1     -22.123 -66.972  57.797  1.00  0.00     0.158 A 
BRANCH  15  18
ATOM     18  O   UNL     1     -20.308 -68.582  57.559  1.00  0.00    -0.504 OA
ATOM     19  H   UNL     1     -19.637 -68.624  56.802  1.00  0.00     0.293 HD
ENDBRANCH  15  18
BRANCH  17  20
ATOM     20  O   UNL     1     -21.278 -66.089  58.467  1.00  0.00    -0.504 OA
ATOM     21  H   UNL     1     -21.327 -65.088  58.316  1.00  0.00     0.293 HD
ENDBRANCH  17  20
ENDBRANCH   1  12
BRANCH   2  22
ATOM     22  O   UNL     1     -25.202 -65.621  54.878  1.00  0.00    -0.502 OA
ATOM     23  H   UNL     1     -24.222 -65.877  54.893  1.00  0.00     0.293 HD
ENDBRANCH   2  22
BRANCH   6  24
ATOM     24  O   UNL     1     -30.471 -65.341  55.606  1.00  0.00    -0.507 OA
ATOM     25  H   UNL     1     -30.767 -65.432  54.646  1.00  0.00     0.293 HD
ENDBRANCH   6  24
BRANCH   8  26
ATOM     26  O   UNL     1     -31.074 -68.908  58.765  1.00  0.00    -0.508 OA
ATOM     27  H   UNL     1     -31.032 -69.920  58.751  1.00  0.00     0.293 HD
ENDBRANCH   8  26
TORSDOF 6
ENDMDL
