MODEL 1
REMARK VINA RESULT:     8.265      0.000      0.000
REMARK INTER + INTRA:          20.421
REMARK INTER:                  21.793
REMARK INTRA:                  -1.372
REMARK UNBOUND:                -1.372
REMARK SMILES CCCCCCCCCCCCCCCCCCCCCCCCCCCCCC(=O)[O-]
REMARK SMILES IDX 16 1 17 2 18 3 19 4 20 5 21 6 22 7 23 8 24 9 25 10 26 11
REMARK SMILES IDX 27 12 28 13 29 14 30 15 31 16 32 17 15 18 14 19 13 20 12 21
REMARK SMILES IDX 11 22 10 23 9 24 8 25 7 26 6 27 5 28 4 29 3 30 2 31 1 32
REMARK H PARENT
REMARK Flexibility Score: inf
ROOT
ATOM      1  C   UNL     1      13.359 -20.728  -1.146  1.00  0.00     0.000 C 
ENDROOT
BRANCH   1   2
ATOM      2  C   UNL     1      14.842 -20.602  -0.733  1.00  0.00     0.000 C 
BRANCH   2   3
ATOM      3  C   UNL     1      15.093 -19.821   0.571  1.00  0.00     0.000 C 
BRANCH   3   4
ATOM      4  C   UNL     1      15.125 -18.300   0.363  1.00  0.00     0.000 C 
BRANCH   4   5
ATOM      5  C   UNL     1      14.301 -17.582   1.443  1.00  0.00     0.000 C 
BRANCH   5   6
ATOM      6  C   UNL     1      15.119 -16.531   2.213  1.00  0.00     0.000 C 
BRANCH   6   7
ATOM      7  C   UNL     1      15.025 -16.638   3.750  1.00  0.00     0.000 C 
BRANCH   7   8
ATOM      8  C   UNL     1      14.494 -15.377   4.459  1.00  0.00     0.000 C 
BRANCH   8   9
ATOM      9  C   UNL     1      14.440 -15.533   5.988  1.00  0.00     0.000 C 
BRANCH   9  10
ATOM     10  C   UNL     1      13.762 -16.852   6.390  1.00  0.00     0.000 C 
BRANCH  10  11
ATOM     11  C   UNL     1      12.893 -17.422   5.256  1.00  0.00     0.000 C 
BRANCH  11  12
ATOM     12  C   UNL     1      11.936 -18.519   5.755  1.00  0.00     0.000 C 
BRANCH  12  13
ATOM     13  C   UNL     1      11.597 -19.544   4.660  1.00  0.00     0.006 C 
BRANCH  13  14
ATOM     14  C   UNL     1      10.350 -20.373   5.009  1.00  0.00     0.053 C 
BRANCH  14  15
ATOM     15  C   UNL     1      10.536 -21.802   4.602  1.00  0.00     0.041 C 
ATOM     16  O   UNL     1      11.425 -22.114   3.765  1.00  0.00    -0.550 OA
ATOM     17  O   UNL     1       9.712 -22.787   5.130  1.00  0.00    -0.550 OA
ENDBRANCH  14  15
ENDBRANCH  13  14
ENDBRANCH  12  13
ENDBRANCH  11  12
ENDBRANCH  10  11
ENDBRANCH   9  10
ENDBRANCH   8   9
ENDBRANCH   7   8
ENDBRANCH   6   7
ENDBRANCH   5   6
ENDBRANCH   4   5
ENDBRANCH   3   4
ENDBRANCH   2   3
ENDBRANCH   1   2
BRANCH   1  18
ATOM     18  C   UNL     1      12.890 -19.741  -2.232  1.00  0.00     0.000 C 
BRANCH  18  19
ATOM     19  C   UNL     1      14.007 -18.908  -2.891  1.00  0.00     0.000 C 
BRANCH  19  20
ATOM     20  C   UNL     1      13.555 -18.129  -4.144  1.00  0.00     0.000 C 
BRANCH  20  21
ATOM     21  C   UNL     1      13.936 -16.639  -4.088  1.00  0.00     0.000 C 
BRANCH  21  22
ATOM     22  C   UNL     1      14.248 -16.074  -5.485  1.00  0.00     0.000 C 
BRANCH  22  23
ATOM     23  C   UNL     1      13.670 -14.660  -5.684  1.00  0.00     0.000 C 
BRANCH  23  24
ATOM     24  C   UNL     1      14.732 -13.564  -5.492  1.00  0.00    -0.000 C 
BRANCH  24  25
ATOM     25  C   UNL     1      14.110 -12.159  -5.423  1.00  0.00    -0.000 C 
BRANCH  25  26
ATOM     26  C   UNL     1      13.447 -11.875  -4.065  1.00  0.00    -0.000 C 
BRANCH  26  27
ATOM     27  C   UNL     1      13.896 -12.868  -2.977  1.00  0.00    -0.000 C 
BRANCH  27  28
ATOM     28  C   UNL     1      12.710 -13.508  -2.240  1.00  0.00    -0.000 C 
BRANCH  28  29
ATOM     29  C   UNL     1      13.151 -14.573  -1.221  1.00  0.00    -0.000 C 
BRANCH  29  30
ATOM     30  C   UNL     1      13.441 -13.966   0.168  1.00  0.00    -0.000 C 
BRANCH  30  31
ATOM     31  C   UNL     1      14.207 -12.633   0.111  1.00  0.00    -0.003 C 
ATOM     32  C   UNL     1      14.309 -11.940   1.469  1.00  0.00     0.004 C 
ENDBRANCH  30  31
ENDBRANCH  29  30
ENDBRANCH  28  29
ENDBRANCH  27  28
ENDBRANCH  26  27
ENDBRANCH  25  26
ENDBRANCH  24  25
ENDBRANCH  23  24
ENDBRANCH  22  23
ENDBRANCH  21  22
ENDBRANCH  20  21
ENDBRANCH  19  20
ENDBRANCH  18  19
ENDBRANCH   1  18
TORSDOF 28
ENDMDL
MODEL 2
REMARK VINA RESULT:     8.432     16.546     20.613
REMARK INTER + INTRA:          20.862
REMARK INTER:                  21.746
REMARK INTRA:                  -0.884
REMARK UNBOUND:                -1.372
REMARK SMILES CCCCCCCCCCCCCCCCCCCCCCCCCCCCCC(=O)[O-]
REMARK SMILES IDX 16 1 17 2 18 3 19 4 20 5 21 6 22 7 23 8 24 9 25 10 26 11
REMARK SMILES IDX 27 12 28 13 29 14 30 15 31 16 32 17 15 18 14 19 13 20 12 21
REMARK SMILES IDX 11 22 10 23 9 24 8 25 7 26 6 27 5 28 4 29 3 30 2 31 1 32
REMARK H PARENT
REMARK Flexibility Score: inf
ROOT
ATOM      1  C   UNL     1      -0.474 -32.124  -7.310  1.00  0.00     0.000 C 
ENDROOT
BRANCH   1   2
ATOM      2  C   UNL     1       0.575 -31.715  -6.253  1.00  0.00     0.000 C 
BRANCH   2   3
ATOM      3  C   UNL     1       2.043 -31.899  -6.683  1.00  0.00     0.000 C 
BRANCH   3   4
ATOM      4  C   UNL     1       2.955 -30.759  -6.208  1.00  0.00     0.000 C 
BRANCH   4   5
ATOM      5  C   UNL     1       3.274 -29.796  -7.362  1.00  0.00     0.000 C 
BRANCH   5   6
ATOM      6  C   UNL     1       2.247 -28.656  -7.486  1.00  0.00     0.000 C 
BRANCH   6   7
ATOM      7  C   UNL     1       2.560 -27.409  -6.633  1.00  0.00     0.000 C 
BRANCH   7   8
ATOM      8  C   UNL     1       2.535 -26.073  -7.400  1.00  0.00     0.000 C 
BRANCH   8   9
ATOM      9  C   UNL     1       1.235 -25.282  -7.175  1.00  0.00     0.000 C 
BRANCH   9  10
ATOM     10  C   UNL     1       1.458 -24.104  -6.214  1.00  0.00     0.000 C 
BRANCH  10  11
ATOM     11  C   UNL     1       0.822 -22.805  -6.738  1.00  0.00     0.000 C 
BRANCH  11  12
ATOM     12  C   UNL     1      -0.698 -22.942  -6.934  1.00  0.00     0.000 C 
BRANCH  12  13
ATOM     13  C   UNL     1      -1.483 -22.670  -5.641  1.00  0.00     0.006 C 
BRANCH  13  14
ATOM     14  C   UNL     1      -2.997 -22.576  -5.891  1.00  0.00     0.053 C 
BRANCH  14  15
ATOM     15  C   UNL     1      -3.429 -21.145  -5.982  1.00  0.00     0.041 C 
ATOM     16  O   UNL     1      -4.173 -20.764  -6.926  1.00  0.00    -0.550 OA
ATOM     17  O   UNL     1      -2.993 -20.226  -5.037  1.00  0.00    -0.550 OA
ENDBRANCH  14  15
ENDBRANCH  13  14
ENDBRANCH  12  13
ENDBRANCH  11  12
ENDBRANCH  10  11
ENDBRANCH   9  10
ENDBRANCH   8   9
ENDBRANCH   7   8
ENDBRANCH   6   7
ENDBRANCH   5   6
ENDBRANCH   4   5
ENDBRANCH   3   4
ENDBRANCH   2   3
ENDBRANCH   1   2
BRANCH   1  18
ATOM     18  C   UNL     1      -1.939 -32.083  -6.836  1.00  0.00     0.000 C 
BRANCH  18  19
ATOM     19  C   UNL     1      -2.993 -32.006  -7.959  1.00  0.00     0.000 C 
BRANCH  19  20
ATOM     20  C   UNL     1      -3.950 -30.802  -7.841  1.00  0.00     0.000 C 
BRANCH  20  21
ATOM     21  C   UNL     1      -4.335 -30.488  -6.385  1.00  0.00     0.000 C 
BRANCH  21  22
ATOM     22  C   UNL     1      -4.953 -31.707  -5.678  1.00  0.00     0.000 C 
BRANCH  22  23
ATOM     23  C   UNL     1      -4.156 -32.122  -4.426  1.00  0.00     0.000 C 
BRANCH  23  24
ATOM     24  C   UNL     1      -3.525 -30.915  -3.712  1.00  0.00    -0.000 C 
BRANCH  24  25
ATOM     25  C   UNL     1      -2.109 -30.611  -4.230  1.00  0.00    -0.000 C 
BRANCH  25  26
ATOM     26  C   UNL     1      -1.019 -31.324  -3.412  1.00  0.00    -0.000 C 
BRANCH  26  27
ATOM     27  C   UNL     1      -0.017 -30.337  -2.788  1.00  0.00    -0.000 C 
BRANCH  27  28
ATOM     28  C   UNL     1       1.092 -31.046  -1.994  1.00  0.00    -0.000 C 
BRANCH  28  29
ATOM     29  C   UNL     1       0.612 -31.541  -0.619  1.00  0.00    -0.000 C 
BRANCH  29  30
ATOM     30  C   UNL     1       0.677 -30.434   0.454  1.00  0.00    -0.000 C 
BRANCH  30  31
ATOM     31  C   UNL     1       1.726 -29.349   0.160  1.00  0.00    -0.003 C 
ATOM     32  C   UNL     1       2.355 -28.762   1.422  1.00  0.00     0.004 C 
ENDBRANCH  30  31
ENDBRANCH  29  30
ENDBRANCH  28  29
ENDBRANCH  27  28
ENDBRANCH  26  27
ENDBRANCH  25  26
ENDBRANCH  24  25
ENDBRANCH  23  24
ENDBRANCH  22  23
ENDBRANCH  21  22
ENDBRANCH  20  21
ENDBRANCH  19  20
ENDBRANCH  18  19
ENDBRANCH   1  18
TORSDOF 28
ENDMDL
MODEL 3
REMARK VINA RESULT:     8.946      1.188      3.200
REMARK INTER + INTRA:          22.218
REMARK INTER:                  21.926
REMARK INTRA:                   0.292
REMARK UNBOUND:                -1.372
REMARK SMILES CCCCCCCCCCCCCCCCCCCCCCCCCCCCCC(=O)[O-]
REMARK SMILES IDX 16 1 17 2 18 3 19 4 20 5 21 6 22 7 23 8 24 9 25 10 26 11
REMARK SMILES IDX 27 12 28 13 29 14 30 15 31 16 32 17 15 18 14 19 13 20 12 21
REMARK SMILES IDX 11 22 10 23 9 24 8 25 7 26 6 27 5 28 4 29 3 30 2 31 1 32
REMARK H PARENT
REMARK Flexibility Score: inf
ROOT
ATOM      1  C   UNL     1      13.760 -19.227  -2.895  1.00  0.00     0.000 C 
ENDROOT
BRANCH   1   2
ATOM      2  C   UNL     1      14.912 -19.657  -1.959  1.00  0.00     0.000 C 
BRANCH   2   3
ATOM      3  C   UNL     1      14.533 -19.782  -0.471  1.00  0.00     0.000 C 
BRANCH   3   4
ATOM      4  C   UNL     1      15.098 -18.644   0.390  1.00  0.00     0.000 C 
BRANCH   4   5
ATOM      5  C   UNL     1      13.968 -17.767   0.949  1.00  0.00     0.000 C 
BRANCH   5   6
ATOM      6  C   UNL     1      14.467 -16.394   1.436  1.00  0.00     0.000 C 
BRANCH   6   7
ATOM      7  C   UNL     1      15.122 -16.403   2.833  1.00  0.00     0.000 C 
BRANCH   7   8
ATOM      8  C   UNL     1      14.458 -17.345   3.857  1.00  0.00     0.000 C 
BRANCH   8   9
ATOM      9  C   UNL     1      13.463 -16.618   4.776  1.00  0.00     0.000 C 
BRANCH   9  10
ATOM     10  C   UNL     1      12.594 -17.617   5.558  1.00  0.00     0.000 C 
BRANCH  10  11
ATOM     11  C   UNL     1      11.521 -18.267   4.667  1.00  0.00     0.000 C 
BRANCH  11  12
ATOM     12  C   UNL     1      11.004 -19.591   5.255  1.00  0.00     0.000 C 
BRANCH  12  13
ATOM     13  C   UNL     1      10.173 -20.398   4.244  1.00  0.00     0.006 C 
BRANCH  13  14
ATOM     14  C   UNL     1      10.755 -21.800   4.004  1.00  0.00     0.053 C 
BRANCH  14  15
ATOM     15  C   UNL     1      11.264 -22.386   5.284  1.00  0.00     0.041 C 
ATOM     16  O   UNL     1      10.466 -22.658   6.221  1.00  0.00    -0.550 OA
ATOM     17  O   UNL     1      12.624 -22.613   5.452  1.00  0.00    -0.550 OA
ENDBRANCH  14  15
ENDBRANCH  13  14
ENDBRANCH  12  13
ENDBRANCH  11  12
ENDBRANCH  10  11
ENDBRANCH   9  10
ENDBRANCH   8   9
ENDBRANCH   7   8
ENDBRANCH   6   7
ENDBRANCH   5   6
ENDBRANCH   4   5
ENDBRANCH   3   4
ENDBRANCH   2   3
ENDBRANCH   1   2
BRANCH   1  18
ATOM     18  C   UNL     1      14.196 -18.599  -4.232  1.00  0.00     0.000 C 
BRANCH  18  19
ATOM     19  C   UNL     1      13.459 -17.302  -4.622  1.00  0.00     0.000 C 
BRANCH  19  20
ATOM     20  C   UNL     1      14.261 -16.015  -4.340  1.00  0.00     0.000 C 
BRANCH  20  21
ATOM     21  C   UNL     1      13.381 -14.752  -4.345  1.00  0.00     0.000 C 
BRANCH  21  22
ATOM     22  C   UNL     1      12.083 -14.954  -3.545  1.00  0.00     0.000 C 
BRANCH  22  23
ATOM     23  C   UNL     1      12.340 -15.597  -2.168  1.00  0.00     0.000 C 
BRANCH  23  24
ATOM     24  C   UNL     1      12.011 -14.641  -1.009  1.00  0.00    -0.000 C 
BRANCH  24  25
ATOM     25  C   UNL     1      13.028 -14.752   0.140  1.00  0.00    -0.000 C 
BRANCH  25  26
ATOM     26  C   UNL     1      13.619 -13.388   0.534  1.00  0.00    -0.000 C 
BRANCH  26  27
ATOM     27  C   UNL     1      13.786 -12.451  -0.676  1.00  0.00    -0.000 C 
BRANCH  27  28
ATOM     28  C   UNL     1      14.929 -12.887  -1.605  1.00  0.00    -0.000 C 
BRANCH  28  29
ATOM     29  C   UNL     1      15.125 -11.931  -2.793  1.00  0.00    -0.000 C 
BRANCH  29  30
ATOM     30  C   UNL     1      14.189 -12.268  -3.973  1.00  0.00    -0.000 C 
BRANCH  30  31
ATOM     31  C   UNL     1      14.889 -12.248  -5.342  1.00  0.00    -0.003 C 
ATOM     32  C   UNL     1      13.915 -12.162  -6.515  1.00  0.00     0.004 C 
ENDBRANCH  30  31
ENDBRANCH  29  30
ENDBRANCH  28  29
ENDBRANCH  27  28
ENDBRANCH  26  27
ENDBRANCH  25  26
ENDBRANCH  24  25
ENDBRANCH  23  24
ENDBRANCH  22  23
ENDBRANCH  21  22
ENDBRANCH  20  21
ENDBRANCH  19  20
ENDBRANCH  18  19
ENDBRANCH   1  18
TORSDOF 28
ENDMDL
MODEL 4
REMARK VINA RESULT:    10.199      6.948     11.771
REMARK INTER + INTRA:          25.523
REMARK INTER:                  26.085
REMARK INTRA:                  -0.563
REMARK UNBOUND:                -1.372
REMARK SMILES CCCCCCCCCCCCCCCCCCCCCCCCCCCCCC(=O)[O-]
REMARK SMILES IDX 16 1 17 2 18 3 19 4 20 5 21 6 22 7 23 8 24 9 25 10 26 11
REMARK SMILES IDX 27 12 28 13 29 14 30 15 31 16 32 17 15 18 14 19 13 20 12 21
REMARK SMILES IDX 11 22 10 23 9 24 8 25 7 26 6 27 5 28 4 29 3 30 2 31 1 32
REMARK H PARENT
REMARK Flexibility Score: inf
ROOT
ATOM      1  C   UNL     1       8.370 -15.891   1.470  1.00  0.00     0.000 C 
ENDROOT
BRANCH   1   2
ATOM      2  C   UNL     1       9.828 -16.354   1.255  1.00  0.00     0.000 C 
BRANCH   2   3
ATOM      3  C   UNL     1      10.635 -15.524   0.239  1.00  0.00     0.000 C 
BRANCH   3   4
ATOM      4  C   UNL     1      12.146 -15.782   0.318  1.00  0.00     0.000 C 
BRANCH   4   5
ATOM      5  C   UNL     1      12.850 -15.313  -0.964  1.00  0.00     0.000 C 
BRANCH   5   6
ATOM      6  C   UNL     1      13.594 -13.978  -0.778  1.00  0.00     0.000 C 
BRANCH   6   7
ATOM      7  C   UNL     1      13.077 -12.822  -1.661  1.00  0.00     0.000 C 
BRANCH   7   8
ATOM      8  C   UNL     1      14.084 -12.299  -2.704  1.00  0.00     0.000 C 
BRANCH   8   9
ATOM      9  C   UNL     1      13.563 -12.418  -4.146  1.00  0.00     0.000 C 
BRANCH   9  10
ATOM     10  C   UNL     1      14.708 -12.296  -5.164  1.00  0.00     0.000 C 
BRANCH  10  11
ATOM     11  C   UNL     1      14.835 -13.554  -6.040  1.00  0.00     0.000 C 
BRANCH  11  12
ATOM     12  C   UNL     1      13.772 -14.612  -5.694  1.00  0.00     0.000 C 
BRANCH  12  13
ATOM     13  C   UNL     1      14.394 -15.958  -5.288  1.00  0.00     0.006 C 
BRANCH  13  14
ATOM     14  C   UNL     1      13.345 -17.078  -5.200  1.00  0.00     0.053 C 
BRANCH  14  15
ATOM     15  C   UNL     1      13.239 -17.592  -3.798  1.00  0.00     0.041 C 
ATOM     16  O   UNL     1      13.704 -18.725  -3.499  1.00  0.00    -0.550 OA
ATOM     17  O   UNL     1      12.605 -16.830  -2.824  1.00  0.00    -0.550 OA
ENDBRANCH  14  15
ENDBRANCH  13  14
ENDBRANCH  12  13
ENDBRANCH  11  12
ENDBRANCH  10  11
ENDBRANCH   9  10
ENDBRANCH   8   9
ENDBRANCH   7   8
ENDBRANCH   6   7
ENDBRANCH   5   6
ENDBRANCH   4   5
ENDBRANCH   3   4
ENDBRANCH   2   3
ENDBRANCH   1   2
BRANCH   1  18
ATOM     18  C   UNL     1       8.204 -14.584   2.268  1.00  0.00     0.000 C 
BRANCH  18  19
ATOM     19  C   UNL     1       6.799 -14.345   2.855  1.00  0.00     0.000 C 
BRANCH  19  20
ATOM     20  C   UNL     1       6.726 -13.171   3.854  1.00  0.00     0.000 C 
BRANCH  20  21
ATOM     21  C   UNL     1       7.533 -13.432   5.138  1.00  0.00     0.000 C 
BRANCH  21  22
ATOM     22  C   UNL     1       6.751 -14.296   6.142  1.00  0.00     0.000 C 
BRANCH  22  23
ATOM     23  C   UNL     1       5.303 -13.803   6.333  1.00  0.00     0.000 C 
BRANCH  23  24
ATOM     24  C   UNL     1       4.716 -14.233   7.688  1.00  0.00    -0.000 C 
BRANCH  24  25
ATOM     25  C   UNL     1       3.190 -14.046   7.744  1.00  0.00    -0.000 C 
BRANCH  25  26
ATOM     26  C   UNL     1       2.763 -12.600   7.442  1.00  0.00    -0.000 C 
BRANCH  26  27
ATOM     27  C   UNL     1       2.199 -11.886   8.684  1.00  0.00    -0.000 C 
BRANCH  27  28
ATOM     28  C   UNL     1       2.593 -12.585   9.994  1.00  0.00    -0.000 C 
BRANCH  28  29
ATOM     29  C   UNL     1       3.991 -12.177  10.488  1.00  0.00    -0.000 C 
BRANCH  29  30
ATOM     30  C   UNL     1       4.287 -12.708  11.906  1.00  0.00    -0.000 C 
BRANCH  30  31
ATOM     31  C   UNL     1       4.737 -14.178  11.932  1.00  0.00    -0.003 C 
ATOM     32  C   UNL     1       6.244 -14.349  11.746  1.00  0.00     0.004 C 
ENDBRANCH  30  31
ENDBRANCH  29  30
ENDBRANCH  28  29
ENDBRANCH  27  28
ENDBRANCH  26  27
ENDBRANCH  25  26
ENDBRANCH  24  25
ENDBRANCH  23  24
ENDBRANCH  22  23
ENDBRANCH  21  22
ENDBRANCH  20  21
ENDBRANCH  19  20
ENDBRANCH  18  19
ENDBRANCH   1  18
TORSDOF 28
ENDMDL
MODEL 5
REMARK VINA RESULT:    10.418      2.729      9.224
REMARK INTER + INTRA:          26.099
REMARK INTER:                  25.446
REMARK INTRA:                   0.652
REMARK UNBOUND:                -1.372
REMARK SMILES CCCCCCCCCCCCCCCCCCCCCCCCCCCCCC(=O)[O-]
REMARK SMILES IDX 16 1 17 2 18 3 19 4 20 5 21 6 22 7 23 8 24 9 25 10 26 11
REMARK SMILES IDX 27 12 28 13 29 14 30 15 31 16 32 17 15 18 14 19 13 20 12 21
REMARK SMILES IDX 11 22 10 23 9 24 8 25 7 26 6 27 5 28 4 29 3 30 2 31 1 32
REMARK H PARENT
REMARK Flexibility Score: inf
ROOT
ATOM      1  C   UNL     1      13.062 -18.758  -0.875  1.00  0.00     0.000 C 
ENDROOT
BRANCH   1   2
ATOM      2  C   UNL     1      13.340 -19.095  -2.357  1.00  0.00     0.000 C 
BRANCH   2   3
ATOM      3  C   UNL     1      13.563 -17.877  -3.273  1.00  0.00     0.000 C 
BRANCH   3   4
ATOM      4  C   UNL     1      12.673 -17.896  -4.524  1.00  0.00     0.000 C 
BRANCH   4   5
ATOM      5  C   UNL     1      12.991 -16.705  -5.441  1.00  0.00     0.000 C 
BRANCH   5   6
ATOM      6  C   UNL     1      14.352 -16.058  -5.125  1.00  0.00     0.000 C 
BRANCH   6   7
ATOM      7  C   UNL     1      14.896 -15.126  -6.228  1.00  0.00     0.000 C 
BRANCH   7   8
ATOM      8  C   UNL     1      14.189 -13.761  -6.334  1.00  0.00     0.000 C 
BRANCH   8   9
ATOM      9  C   UNL     1      14.760 -12.717  -5.361  1.00  0.00     0.000 C 
BRANCH   9  10
ATOM     10  C   UNL     1      13.761 -12.397  -4.237  1.00  0.00     0.000 C 
BRANCH  10  11
ATOM     11  C   UNL     1      14.464 -11.875  -2.972  1.00  0.00     0.000 C 
BRANCH  11  12
ATOM     12  C   UNL     1      14.952 -13.020  -2.066  1.00  0.00     0.000 C 
BRANCH  12  13
ATOM     13  C   UNL     1      14.744 -12.715  -0.574  1.00  0.00     0.006 C 
BRANCH  13  14
ATOM     14  C   UNL     1      13.391 -13.234  -0.060  1.00  0.00     0.053 C 
BRANCH  14  15
ATOM     15  C   UNL     1      12.507 -13.624  -1.202  1.00  0.00     0.041 C 
ATOM     16  O   UNL     1      12.220 -14.835  -1.401  1.00  0.00    -0.550 OA
ATOM     17  O   UNL     1      12.015 -12.651  -2.064  1.00  0.00    -0.550 OA
ENDBRANCH  14  15
ENDBRANCH  13  14
ENDBRANCH  12  13
ENDBRANCH  11  12
ENDBRANCH  10  11
ENDBRANCH   9  10
ENDBRANCH   8   9
ENDBRANCH   7   8
ENDBRANCH   6   7
ENDBRANCH   5   6
ENDBRANCH   4   5
ENDBRANCH   3   4
ENDBRANCH   2   3
ENDBRANCH   1   2
BRANCH   1  18
ATOM     18  C   UNL     1      14.243 -18.133  -0.109  1.00  0.00     0.000 C 
BRANCH  18  19
ATOM     19  C   UNL     1      14.014 -16.693   0.392  1.00  0.00     0.000 C 
BRANCH  19  20
ATOM     20  C   UNL     1      15.125 -16.169   1.327  1.00  0.00     0.000 C 
BRANCH  20  21
ATOM     21  C   UNL     1      14.915 -16.587   2.793  1.00  0.00     0.000 C 
BRANCH  21  22
ATOM     22  C   UNL     1      14.940 -15.378   3.744  1.00  0.00     0.000 C 
BRANCH  22  23
ATOM     23  C   UNL     1      13.821 -15.443   4.802  1.00  0.00     0.000 C 
BRANCH  23  24
ATOM     24  C   UNL     1      14.265 -16.185   6.073  1.00  0.00    -0.000 C 
BRANCH  24  25
ATOM     25  C   UNL     1      14.807 -17.591   5.766  1.00  0.00    -0.000 C 
BRANCH  25  26
ATOM     26  C   UNL     1      13.758 -18.490   5.091  1.00  0.00    -0.000 C 
BRANCH  26  27
ATOM     27  C   UNL     1      12.322 -17.991   5.327  1.00  0.00    -0.000 C 
BRANCH  27  28
ATOM     28  C   UNL     1      11.268 -18.900   4.676  1.00  0.00    -0.000 C 
BRANCH  28  29
ATOM     29  C   UNL     1      10.890 -20.099   5.561  1.00  0.00    -0.000 C 
BRANCH  29  30
ATOM     30  C   UNL     1      11.080 -21.446   4.832  1.00  0.00    -0.000 C 
BRANCH  30  31
ATOM     31  C   UNL     1       9.766 -22.068   4.332  1.00  0.00    -0.003 C 
ATOM     32  C   UNL     1       9.980 -23.299   3.453  1.00  0.00     0.004 C 
ENDBRANCH  30  31
ENDBRANCH  29  30
ENDBRANCH  28  29
ENDBRANCH  27  28
ENDBRANCH  26  27
ENDBRANCH  25  26
ENDBRANCH  24  25
ENDBRANCH  23  24
ENDBRANCH  22  23
ENDBRANCH  21  22
ENDBRANCH  20  21
ENDBRANCH  19  20
ENDBRANCH  18  19
ENDBRANCH   1  18
TORSDOF 28
ENDMDL
MODEL 6
REMARK VINA RESULT:    10.421      6.523      8.117
REMARK INTER + INTRA:          26.106
REMARK INTER:                  27.863
REMARK INTRA:                  -1.756
REMARK UNBOUND:                -1.372
REMARK SMILES CCCCCCCCCCCCCCCCCCCCCCCCCCCCCC(=O)[O-]
REMARK SMILES IDX 16 1 17 2 18 3 19 4 20 5 21 6 22 7 23 8 24 9 25 10 26 11
REMARK SMILES IDX 27 12 28 13 29 14 30 15 31 16 32 17 15 18 14 19 13 20 12 21
REMARK SMILES IDX 11 22 10 23 9 24 8 25 7 26 6 27 5 28 4 29 3 30 2 31 1 32
REMARK H PARENT
REMARK Flexibility Score: inf
ROOT
ATOM      1  C   UNL     1      10.221 -16.362   0.966  1.00  0.00     0.000 C 
ENDROOT
BRANCH   1   2
ATOM      2  C   UNL     1       8.742 -16.002   1.229  1.00  0.00     0.000 C 
BRANCH   2   3
ATOM      3  C   UNL     1       8.516 -14.681   1.989  1.00  0.00     0.000 C 
BRANCH   3   4
ATOM      4  C   UNL     1       7.236 -14.688   2.836  1.00  0.00     0.000 C 
BRANCH   4   5
ATOM      5  C   UNL     1       7.184 -13.463   3.762  1.00  0.00     0.000 C 
BRANCH   5   6
ATOM      6  C   UNL     1       7.763 -13.749   5.159  1.00  0.00     0.000 C 
BRANCH   6   7
ATOM      7  C   UNL     1       6.709 -13.910   6.275  1.00  0.00     0.000 C 
BRANCH   7   8
ATOM      8  C   UNL     1       5.280 -13.485   5.886  1.00  0.00     0.000 C 
BRANCH   8   9
ATOM      9  C   UNL     1       4.326 -14.680   5.727  1.00  0.00     0.000 C 
BRANCH   9  10
ATOM     10  C   UNL     1       2.860 -14.221   5.677  1.00  0.00     0.000 C 
BRANCH  10  11
ATOM     11  C   UNL     1       2.384 -13.666   7.030  1.00  0.00     0.000 C 
BRANCH  11  12
ATOM     12  C   UNL     1       2.754 -14.594   8.200  1.00  0.00     0.000 C 
BRANCH  12  13
ATOM     13  C   UNL     1       3.873 -14.012   9.080  1.00  0.00     0.006 C 
BRANCH  13  14
ATOM     14  C   UNL     1       3.402 -13.756  10.521  1.00  0.00     0.053 C 
BRANCH  14  15
ATOM     15  C   UNL     1       4.572 -13.521  11.424  1.00  0.00     0.041 C 
ATOM     16  O   UNL     1       5.043 -12.360  11.566  1.00  0.00    -0.550 OA
ATOM     17  O   UNL     1       5.160 -14.587  12.093  1.00  0.00    -0.550 OA
ENDBRANCH  14  15
ENDBRANCH  13  14
ENDBRANCH  12  13
ENDBRANCH  11  12
ENDBRANCH  10  11
ENDBRANCH   9  10
ENDBRANCH   8   9
ENDBRANCH   7   8
ENDBRANCH   6   7
ENDBRANCH   5   6
ENDBRANCH   4   5
ENDBRANCH   3   4
ENDBRANCH   2   3
ENDBRANCH   1   2
BRANCH   1  18
ATOM     18  C   UNL     1      11.007 -15.344   0.118  1.00  0.00     0.000 C 
BRANCH  18  19
ATOM     19  C   UNL     1      12.384 -15.827  -0.380  1.00  0.00     0.000 C 
BRANCH  19  20
ATOM     20  C   UNL     1      13.537 -14.842  -0.094  1.00  0.00     0.000 C 
BRANCH  20  21
ATOM     21  C   UNL     1      13.124 -13.372  -0.286  1.00  0.00     0.000 C 
BRANCH  21  22
ATOM     22  C   UNL     1      14.332 -12.474  -0.605  1.00  0.00     0.000 C 
BRANCH  22  23
ATOM     23  C   UNL     1      14.388 -12.079  -2.094  1.00  0.00     0.000 C 
BRANCH  23  24
ATOM     24  C   UNL     1      12.988 -11.974  -2.721  1.00  0.00    -0.000 C 
BRANCH  24  25
ATOM     25  C   UNL     1      13.028 -12.104  -4.253  1.00  0.00    -0.000 C 
BRANCH  25  26
ATOM     26  C   UNL     1      14.302 -12.807  -4.750  1.00  0.00    -0.000 C 
BRANCH  26  27
ATOM     27  C   UNL     1      13.991 -13.986  -5.689  1.00  0.00    -0.000 C 
BRANCH  27  28
ATOM     28  C   UNL     1      14.134 -15.347  -4.991  1.00  0.00    -0.000 C 
BRANCH  28  29
ATOM     29  C   UNL     1      13.220 -15.483  -3.761  1.00  0.00    -0.000 C 
BRANCH  29  30
ATOM     30  C   UNL     1      13.038 -16.953  -3.329  1.00  0.00    -0.000 C 
BRANCH  30  31
ATOM     31  C   UNL     1      13.694 -17.963  -4.285  1.00  0.00    -0.003 C 
ATOM     32  C   UNL     1      12.812 -18.320  -5.481  1.00  0.00     0.004 C 
ENDBRANCH  30  31
ENDBRANCH  29  30
ENDBRANCH  28  29
ENDBRANCH  27  28
ENDBRANCH  26  27
ENDBRANCH  25  26
ENDBRANCH  24  25
ENDBRANCH  23  24
ENDBRANCH  22  23
ENDBRANCH  21  22
ENDBRANCH  20  21
ENDBRANCH  19  20
ENDBRANCH  18  19
ENDBRANCH   1  18
TORSDOF 28
ENDMDL
