MODEL 1
REMARK VINA RESULT:    -5.867      0.000      0.000
REMARK INTER + INTRA:          -9.498
REMARK INTER:                  -8.097
REMARK INTRA:                  -1.401
REMARK UNBOUND:                -1.401
REMARK SMILES CC[C@@H](CC[C@@H](C)[C@@H]1CC[C@@H]2[C@H]3CC=C4C[C@@H](O)CC[C@]4(C)[C@H]3CC[C@]21C)C(C)C
REMARK SMILES IDX 5 1 4 2 3 3 2 4 1 5 28 6 29 7 30 8 6 9 7 10 8 11 9 12 26 13
REMARK SMILES IDX 10 14 11 15 25 16 27 17 12 18 24 19 23 20 13 21 21 22 14 23
REMARK SMILES IDX 15 24 20 25 22 26 16 27 19 28 17 29 18 30
REMARK H PARENT 18 31
REMARK Flexibility Score: inf
ROOT
ATOM      1  C   UNL     1     -16.768  22.199  -8.114  1.00  0.00     0.004 C 
ENDROOT
BRANCH   1   2
ATOM      2  C   UNL     1     -15.398  21.609  -8.511  1.00  0.00     0.004 C 
BRANCH   2   3
ATOM      3  C   UNL     1     -14.308  22.687  -8.772  1.00  0.00    -0.009 C 
BRANCH   3   4
ATOM      4  C   UNL     1     -13.080  22.446  -7.849  1.00  0.00     0.000 C 
ATOM      5  C   UNL     1     -11.742  22.605  -8.576  1.00  0.00     0.004 C 
ENDBRANCH   3   4
BRANCH   3   6
ATOM      6  C   UNL     1     -14.865  24.149  -8.656  1.00  0.00    -0.014 C 
ATOM      7  C   UNL     1     -14.497  25.011  -9.878  1.00  0.00     0.007 C 
ATOM      8  C   UNL     1     -14.448  24.865  -7.361  1.00  0.00     0.007 C 
ENDBRANCH   3   6
ENDBRANCH   2   3
ENDBRANCH   1   2
BRANCH   1   9
ATOM      9  C   UNL     1     -17.696  22.462  -9.330  1.00  0.00    -0.011 C 
ATOM     10  C   UNL     1     -17.906  21.152 -10.125  1.00  0.00     0.008 C 
BRANCH   9  11
ATOM     11  C   UNL     1     -19.022  23.160  -8.853  1.00  0.00    -0.002 C 
ATOM     12  C   UNL     1     -20.246  23.060  -9.797  1.00  0.00     0.005 C 
ATOM     13  C   UNL     1     -18.938  24.663  -8.472  1.00  0.00    -0.026 C 
ATOM     14  C   UNL     1     -21.121  24.289  -9.499  1.00  0.00     0.005 C 
ATOM     15  C   UNL     1     -20.438  24.980  -8.320  1.00  0.00    -0.001 C 
ATOM     16  C   UNL     1     -18.215  24.951  -7.118  1.00  0.00     0.007 C 
ATOM     17  C   UNL     1     -18.267  25.493  -9.607  1.00  0.00     0.012 C 
ATOM     18  C   UNL     1     -20.705  26.487  -8.106  1.00  0.00     0.000 C 
ATOM     19  C   UNL     1     -18.962  25.975  -6.218  1.00  0.00     0.005 C 
ATOM     20  C   UNL     1     -19.731  27.084  -7.010  1.00  0.00     0.003 C 
ATOM     21  C   UNL     1     -22.189  26.739  -7.790  1.00  0.00     0.031 C 
ATOM     22  C   UNL     1     -20.382  28.194  -6.073  1.00  0.00    -0.008 C 
ATOM     23  C   UNL     1     -22.401  28.201  -7.552  1.00  0.00    -0.027 C 
ATOM     24  C   UNL     1     -21.535  28.898  -6.794  1.00  0.00    -0.065 C 
ATOM     25  C   UNL     1     -19.310  29.261  -5.672  1.00  0.00     0.014 C 
ATOM     26  C   UNL     1     -20.954  27.595  -4.762  1.00  0.00     0.016 C 
ATOM     27  C   UNL     1     -21.658  30.400  -6.683  1.00  0.00     0.063 C 
ATOM     28  C   UNL     1     -19.076  30.319  -6.768  1.00  0.00     0.033 C 
ATOM     29  C   UNL     1     -20.367  31.080  -7.173  1.00  0.00     0.118 C 
BRANCH  29  30
ATOM     30  O   UNL     1     -20.327  32.389  -6.663  1.00  0.00    -0.393 OA
ATOM     31  H   UNL     1     -19.897  32.958  -7.352  1.00  0.00     0.210 HD
ENDBRANCH  29  30
ENDBRANCH   9  11
ENDBRANCH   1   9
TORSDOF 7
ENDMDL
MODEL 2
REMARK VINA RESULT:    -5.526      7.842     14.253
REMARK INTER + INTRA:          -9.027
REMARK INTER:                  -7.918
REMARK INTRA:                  -1.109
REMARK UNBOUND:                -1.401
REMARK SMILES CC[C@@H](CC[C@@H](C)[C@@H]1CC[C@@H]2[C@H]3CC=C4C[C@@H](O)CC[C@]4(C)[C@H]3CC[C@]21C)C(C)C
REMARK SMILES IDX 5 1 4 2 3 3 2 4 1 5 28 6 29 7 30 8 6 9 7 10 8 11 9 12 26 13
REMARK SMILES IDX 10 14 11 15 25 16 27 17 12 18 24 19 23 20 13 21 21 22 14 23
REMARK SMILES IDX 15 24 20 25 22 26 16 27 19 28 17 29 18 30
REMARK H PARENT 18 31
REMARK Flexibility Score: inf
ROOT
ATOM      1  C   UNL     1      -8.810  23.607  -8.244  1.00  0.00     0.004 C 
ENDROOT
BRANCH   1   2
ATOM      2  C   UNL     1      -9.752  24.721  -8.750  1.00  0.00     0.004 C 
BRANCH   2   3
ATOM      3  C   UNL     1     -11.134  24.195  -9.231  1.00  0.00    -0.009 C 
BRANCH   3   4
ATOM      4  C   UNL     1     -12.265  25.160  -8.776  1.00  0.00     0.000 C 
ATOM      5  C   UNL     1     -13.213  25.553  -9.912  1.00  0.00     0.004 C 
ENDBRANCH   3   4
BRANCH   3   6
ATOM      6  C   UNL     1     -11.401  22.712  -8.795  1.00  0.00    -0.014 C 
ATOM      7  C   UNL     1     -11.504  21.760 -10.001  1.00  0.00     0.007 C 
ATOM      8  C   UNL     1     -12.634  22.551  -7.889  1.00  0.00     0.007 C 
ENDBRANCH   3   6
ENDBRANCH   2   3
ENDBRANCH   1   2
BRANCH   1   9
ATOM      9  C   UNL     1      -7.836  23.087  -9.335  1.00  0.00    -0.011 C 
ATOM     10  C   UNL     1      -7.186  24.281 -10.072  1.00  0.00     0.008 C 
BRANCH   9  11
ATOM     11  C   UNL     1      -6.815  22.071  -8.704  1.00  0.00    -0.002 C 
ATOM     12  C   UNL     1      -5.643  21.605  -9.602  1.00  0.00     0.005 C 
ATOM     13  C   UNL     1      -7.395  20.763  -8.099  1.00  0.00    -0.026 C 
ATOM     14  C   UNL     1      -5.229  20.217  -9.084  1.00  0.00     0.005 C 
ATOM     15  C   UNL     1      -6.088  19.990  -7.841  1.00  0.00    -0.001 C 
ATOM     16  C   UNL     1      -8.153  20.952  -6.747  1.00  0.00     0.007 C 
ATOM     17  C   UNL     1      -8.323  20.037  -9.119  1.00  0.00     0.012 C 
ATOM     18  C   UNL     1      -6.339  18.535  -7.387  1.00  0.00     0.000 C 
ATOM     19  C   UNL     1      -7.781  19.893  -5.671  1.00  0.00     0.005 C 
ATOM     20  C   UNL     1      -7.442  18.480  -6.252  1.00  0.00     0.003 C 
ATOM     21  C   UNL     1      -5.023  17.855  -6.977  1.00  0.00     0.031 C 
ATOM     22  C   UNL     1      -7.188  17.379  -5.130  1.00  0.00    -0.008 C 
ATOM     23  C   UNL     1      -5.312  16.463  -6.509  1.00  0.00    -0.027 C 
ATOM     24  C   UNL     1      -6.350  16.225  -5.687  1.00  0.00    -0.065 C 
ATOM     25  C   UNL     1      -8.552  16.810  -4.612  1.00  0.00     0.014 C 
ATOM     26  C   UNL     1      -6.430  17.953  -3.905  1.00  0.00     0.016 C 
ATOM     27  C   UNL     1      -6.739  14.807  -5.342  1.00  0.00     0.063 C 
ATOM     28  C   UNL     1      -9.144  15.733  -5.541  1.00  0.00     0.033 C 
ATOM     29  C   UNL     1      -8.190  14.530  -5.771  1.00  0.00     0.118 C 
BRANCH  29  30
ATOM     30  O   UNL     1      -8.661  13.407  -5.068  1.00  0.00    -0.393 OA
ATOM     31  H   UNL     1      -7.884  12.808  -4.922  1.00  0.00     0.210 HD
ENDBRANCH  29  30
ENDBRANCH   9  11
ENDBRANCH   1   9
TORSDOF 7
ENDMDL
MODEL 3
REMARK VINA RESULT:    -5.502      1.208      1.633
REMARK INTER + INTRA:          -8.993
REMARK INTER:                  -7.538
REMARK INTRA:                  -1.455
REMARK UNBOUND:                -1.401
REMARK SMILES CC[C@@H](CC[C@@H](C)[C@@H]1CC[C@@H]2[C@H]3CC=C4C[C@@H](O)CC[C@]4(C)[C@H]3CC[C@]21C)C(C)C
REMARK SMILES IDX 5 1 4 2 3 3 2 4 1 5 28 6 29 7 30 8 6 9 7 10 8 11 9 12 26 13
REMARK SMILES IDX 10 14 11 15 25 16 27 17 12 18 24 19 23 20 13 21 21 22 14 23
REMARK SMILES IDX 15 24 20 25 22 26 16 27 19 28 17 29 18 30
REMARK H PARENT 18 31
REMARK Flexibility Score: inf
ROOT
ATOM      1  C   UNL     1     -15.103  22.047  -7.763  1.00  0.00     0.004 C 
ENDROOT
BRANCH   1   2
ATOM      2  C   UNL     1     -13.848  22.899  -7.481  1.00  0.00     0.004 C 
BRANCH   2   3
ATOM      3  C   UNL     1     -12.830  22.916  -8.657  1.00  0.00    -0.009 C 
BRANCH   3   4
ATOM      4  C   UNL     1     -11.537  22.149  -8.262  1.00  0.00     0.000 C 
ATOM      5  C   UNL     1     -10.774  21.596  -9.469  1.00  0.00     0.004 C 
ENDBRANCH   3   4
BRANCH   3   6
ATOM      6  C   UNL     1     -12.531  24.366  -9.176  1.00  0.00    -0.014 C 
ATOM      7  C   UNL     1     -11.561  25.126  -8.253  1.00  0.00     0.007 C 
ATOM      8  C   UNL     1     -13.797  25.205  -9.416  1.00  0.00     0.007 C 
ENDBRANCH   3   6
ENDBRANCH   2   3
ENDBRANCH   1   2
BRANCH   1   9
ATOM      9  C   UNL     1     -15.920  22.547  -8.984  1.00  0.00    -0.011 C 
ATOM     10  C   UNL     1     -15.852  21.505 -10.125  1.00  0.00     0.008 C 
BRANCH   9  11
ATOM     11  C   UNL     1     -17.377  22.934  -8.535  1.00  0.00    -0.002 C 
ATOM     12  C   UNL     1     -18.547  22.285  -9.316  1.00  0.00     0.005 C 
ATOM     13  C   UNL     1     -17.727  24.446  -8.481  1.00  0.00    -0.026 C 
ATOM     14  C   UNL     1     -19.735  23.255  -9.194  1.00  0.00     0.005 C 
ATOM     15  C   UNL     1     -19.248  24.356  -8.254  1.00  0.00    -0.001 C 
ATOM     16  C   UNL     1     -17.078  25.221  -7.291  1.00  0.00     0.007 C 
ATOM     17  C   UNL     1     -17.367  25.153  -9.822  1.00  0.00     0.012 C 
ATOM     18  C   UNL     1     -19.941  25.734  -8.329  1.00  0.00     0.000 C 
ATOM     19  C   UNL     1     -18.064  26.170  -6.553  1.00  0.00     0.005 C 
ATOM     20  C   UNL     1     -19.150  26.811  -7.478  1.00  0.00     0.003 C 
ATOM     21  C   UNL     1     -21.421  25.625  -7.930  1.00  0.00     0.031 C 
ATOM     22  C   UNL     1     -20.070  27.875  -6.731  1.00  0.00    -0.008 C 
ATOM     23  C   UNL     1     -22.047  26.983  -7.979  1.00  0.00    -0.027 C 
ATOM     24  C   UNL     1     -21.401  28.047  -7.467  1.00  0.00    -0.065 C 
ATOM     25  C   UNL     1     -19.347  29.262  -6.663  1.00  0.00     0.014 C 
ATOM     26  C   UNL     1     -20.396  27.450  -5.276  1.00  0.00     0.016 C 
ATOM     27  C   UNL     1     -21.957  29.439  -7.656  1.00  0.00     0.063 C 
ATOM     28  C   UNL     1     -19.470  30.068  -7.971  1.00  0.00     0.033 C 
ATOM     29  C   UNL     1     -20.940  30.325  -8.397  1.00  0.00     0.118 C 
BRANCH  29  30
ATOM     30  O   UNL     1     -21.272  31.673  -8.173  1.00  0.00    -0.393 OA
ATOM     31  H   UNL     1     -21.361  31.793  -7.193  1.00  0.00     0.210 HD
ENDBRANCH  29  30
ENDBRANCH   9  11
ENDBRANCH   1   9
TORSDOF 7
ENDMDL
MODEL 4
REMARK VINA RESULT:    -5.482      6.811     13.706
REMARK INTER + INTRA:          -8.967
REMARK INTER:                  -8.002
REMARK INTRA:                  -0.965
REMARK UNBOUND:                -1.401
REMARK SMILES CC[C@@H](CC[C@@H](C)[C@@H]1CC[C@@H]2[C@H]3CC=C4C[C@@H](O)CC[C@]4(C)[C@H]3CC[C@]21C)C(C)C
REMARK SMILES IDX 5 1 4 2 3 3 2 4 1 5 28 6 29 7 30 8 6 9 7 10 8 11 9 12 26 13
REMARK SMILES IDX 10 14 11 15 25 16 27 17 12 18 24 19 23 20 13 21 21 22 14 23
REMARK SMILES IDX 15 24 20 25 22 26 16 27 19 28 17 29 18 30
REMARK H PARENT 18 31
REMARK Flexibility Score: inf
ROOT
ATOM      1  C   UNL     1     -10.910  23.536  -8.286  1.00  0.00     0.004 C 
ENDROOT
BRANCH   1   2
ATOM      2  C   UNL     1     -12.270  22.974  -8.751  1.00  0.00     0.004 C 
BRANCH   2   3
ATOM      3  C   UNL     1     -13.464  23.416  -7.857  1.00  0.00    -0.009 C 
BRANCH   3   4
ATOM      4  C   UNL     1     -14.580  22.333  -7.875  1.00  0.00     0.000 C 
ATOM      5  C   UNL     1     -14.632  21.547  -9.188  1.00  0.00     0.004 C 
ENDBRANCH   3   4
BRANCH   3   6
ATOM      6  C   UNL     1     -14.005  24.840  -8.232  1.00  0.00    -0.014 C 
ATOM      7  C   UNL     1     -15.492  25.010  -7.873  1.00  0.00     0.007 C 
ATOM      8  C   UNL     1     -13.770  25.217  -9.704  1.00  0.00     0.007 C 
ENDBRANCH   3   6
ENDBRANCH   2   3
ENDBRANCH   1   2
BRANCH   1   9
ATOM      9  C   UNL     1      -9.778  23.340  -9.330  1.00  0.00    -0.011 C 
ATOM     10  C   UNL     1      -9.563  24.649 -10.125  1.00  0.00     0.008 C 
BRANCH   9  11
ATOM     11  C   UNL     1      -8.488  22.780  -8.626  1.00  0.00    -0.002 C 
ATOM     12  C   UNL     1      -7.136  23.025  -9.342  1.00  0.00     0.005 C 
ATOM     13  C   UNL     1      -8.475  21.271  -8.259  1.00  0.00    -0.026 C 
ATOM     14  C   UNL     1      -6.200  21.891  -8.890  1.00  0.00     0.005 C 
ATOM     15  C   UNL     1      -6.999  21.113  -7.847  1.00  0.00    -0.001 C 
ATOM     16  C   UNL     1      -9.387  20.888  -7.051  1.00  0.00     0.007 C 
ATOM     17  C   UNL     1      -8.845  20.392  -9.491  1.00  0.00     0.012 C 
ATOM     18  C   UNL     1      -6.612  19.641  -7.583  1.00  0.00     0.000 C 
ATOM     19  C   UNL     1      -8.703  19.936  -6.031  1.00  0.00     0.005 C 
ATOM     20  C   UNL     1      -7.693  18.927  -6.672  1.00  0.00     0.003 C 
ATOM     21  C   UNL     1      -5.189  19.544  -7.012  1.00  0.00     0.031 C 
ATOM     22  C   UNL     1      -7.099  17.879  -5.631  1.00  0.00    -0.008 C 
ATOM     23  C   UNL     1      -4.865  18.110  -6.735  1.00  0.00    -0.027 C 
ATOM     24  C   UNL     1      -5.769  17.313  -6.136  1.00  0.00    -0.065 C 
ATOM     25  C   UNL     1      -8.104  16.698  -5.419  1.00  0.00     0.014 C 
ATOM     26  C   UNL     1      -6.833  18.516  -4.243  1.00  0.00     0.016 C 
ATOM     27  C   UNL     1      -5.507  15.832  -6.000  1.00  0.00     0.063 C 
ATOM     28  C   UNL     1      -8.028  15.638  -6.535  1.00  0.00     0.033 C 
ATOM     29  C   UNL     1      -6.612  15.025  -6.705  1.00  0.00     0.118 C 
BRANCH  29  30
ATOM     30  O   UNL     1      -6.599  13.712  -6.205  1.00  0.00    -0.393 OA
ATOM     31  H   UNL     1      -7.438  13.276  -6.504  1.00  0.00     0.210 HD
ENDBRANCH  29  30
ENDBRANCH   9  11
ENDBRANCH   1   9
TORSDOF 7
ENDMDL
MODEL 5
REMARK VINA RESULT:    -5.287      3.162      8.123
REMARK INTER + INTRA:          -8.697
REMARK INTER:                  -6.480
REMARK INTRA:                  -2.217
REMARK UNBOUND:                -1.401
REMARK SMILES CC[C@@H](CC[C@@H](C)[C@@H]1CC[C@@H]2[C@H]3CC=C4C[C@@H](O)CC[C@]4(C)[C@H]3CC[C@]21C)C(C)C
REMARK SMILES IDX 5 1 4 2 3 3 2 4 1 5 28 6 29 7 30 8 6 9 7 10 8 11 9 12 26 13
REMARK SMILES IDX 10 14 11 15 25 16 27 17 12 18 24 19 23 20 13 21 21 22 14 23
REMARK SMILES IDX 15 24 20 25 22 26 16 27 19 28 17 29 18 30
REMARK H PARENT 18 31
REMARK Flexibility Score: inf
ROOT
ATOM      1  C   UNL     1     -20.334  30.748  -3.805  1.00  0.00     0.004 C 
ENDROOT
BRANCH   1   2
ATOM      2  C   UNL     1     -20.863  32.099  -4.330  1.00  0.00     0.004 C 
BRANCH   2   3
ATOM      3  C   UNL     1     -20.250  32.517  -5.697  1.00  0.00    -0.009 C 
BRANCH   3   4
ATOM      4  C   UNL     1     -21.366  33.027  -6.654  1.00  0.00     0.000 C 
ATOM      5  C   UNL     1     -22.776  32.673  -6.174  1.00  0.00     0.004 C 
ENDBRANCH   3   4
BRANCH   3   6
ATOM      6  C   UNL     1     -19.382  31.381  -6.343  1.00  0.00    -0.014 C 
ATOM      7  C   UNL     1     -17.873  31.664  -6.225  1.00  0.00     0.007 C 
ATOM      8  C   UNL     1     -19.750  31.083  -7.806  1.00  0.00     0.007 C 
ENDBRANCH   3   6
ENDBRANCH   2   3
ENDBRANCH   1   2
BRANCH   1   9
ATOM      9  C   UNL     1     -21.405  29.625  -3.818  1.00  0.00    -0.011 C 
ATOM     10  C   UNL     1     -22.676  30.101  -3.075  1.00  0.00     0.008 C 
BRANCH   9  11
ATOM     11  C   UNL     1     -21.652  29.134  -5.291  1.00  0.00    -0.002 C 
ATOM     12  C   UNL     1     -23.125  28.929  -5.725  1.00  0.00     0.005 C 
ATOM     13  C   UNL     1     -20.923  27.839  -5.741  1.00  0.00    -0.026 C 
ATOM     14  C   UNL     1     -23.101  27.873  -6.843  1.00  0.00     0.005 C 
ATOM     15  C   UNL     1     -21.619  27.601  -7.094  1.00  0.00    -0.001 C 
ATOM     16  C   UNL     1     -19.388  28.005  -5.977  1.00  0.00     0.007 C 
ATOM     17  C   UNL     1     -21.171  26.676  -4.733  1.00  0.00     0.012 C 
ATOM     18  C   UNL     1     -21.225  26.251  -7.734  1.00  0.00     0.000 C 
ATOM     19  C   UNL     1     -18.884  27.339  -7.289  1.00  0.00     0.005 C 
ATOM     20  C   UNL     1     -19.657  26.039  -7.686  1.00  0.00     0.003 C 
ATOM     21  C   UNL     1     -21.803  26.130  -9.153  1.00  0.00     0.031 C 
ATOM     22  C   UNL     1     -19.045  25.303  -8.959  1.00  0.00    -0.008 C 
ATOM     23  C   UNL     1     -21.370  24.829  -9.753  1.00  0.00    -0.027 C 
ATOM     24  C   UNL     1     -20.097  24.411  -9.623  1.00  0.00    -0.065 C 
ATOM     25  C   UNL     1     -17.825  24.418  -8.538  1.00  0.00     0.014 C 
ATOM     26  C   UNL     1     -18.544  26.305 -10.031  1.00  0.00     0.016 C 
ATOM     27  C   UNL     1     -19.697  23.031 -10.087  1.00  0.00     0.063 C 
ATOM     28  C   UNL     1     -18.245  23.057  -7.949  1.00  0.00     0.033 C 
ATOM     29  C   UNL     1     -19.125  22.217  -8.913  1.00  0.00     0.118 C 
BRANCH  29  30
ATOM     30  O   UNL     1     -18.375  21.147  -9.432  1.00  0.00    -0.393 OA
ATOM     31  H   UNL     1     -18.987  20.370  -9.506  1.00  0.00     0.210 HD
ENDBRANCH  29  30
ENDBRANCH   9  11
ENDBRANCH   1   9
TORSDOF 7
ENDMDL
MODEL 6
REMARK VINA RESULT:    -5.054     10.919     14.649
REMARK INTER + INTRA:          -8.376
REMARK INTER:                  -6.510
REMARK INTRA:                  -1.866
REMARK UNBOUND:                -1.401
REMARK SMILES CC[C@@H](CC[C@@H](C)[C@@H]1CC[C@@H]2[C@H]3CC=C4C[C@@H](O)CC[C@]4(C)[C@H]3CC[C@]21C)C(C)C
REMARK SMILES IDX 5 1 4 2 3 3 2 4 1 5 28 6 29 7 30 8 6 9 7 10 8 11 9 12 26 13
REMARK SMILES IDX 10 14 11 15 25 16 27 17 12 18 24 19 23 20 13 21 21 22 14 23
REMARK SMILES IDX 15 24 20 25 22 26 16 27 19 28 17 29 18 30
REMARK H PARENT 18 31
REMARK Flexibility Score: inf
ROOT
ATOM      1  C   UNL     1      -6.881  15.937  -3.383  1.00  0.00     0.004 C 
ENDROOT
BRANCH   1   2
ATOM      2  C   UNL     1      -6.490  14.501  -3.793  1.00  0.00     0.004 C 
BRANCH   2   3
ATOM      3  C   UNL     1      -7.328  13.942  -4.978  1.00  0.00    -0.009 C 
BRANCH   3   4
ATOM      4  C   UNL     1      -6.795  14.506  -6.327  1.00  0.00     0.000 C 
ATOM      5  C   UNL     1      -5.300  14.251  -6.535  1.00  0.00     0.004 C 
ENDBRANCH   3   4
BRANCH   3   6
ATOM      6  C   UNL     1      -8.867  14.183  -4.795  1.00  0.00    -0.014 C 
ATOM      7  C   UNL     1      -9.629  12.878  -4.499  1.00  0.00     0.007 C 
ATOM      8  C   UNL     1      -9.518  14.916  -5.979  1.00  0.00     0.007 C 
ENDBRANCH   3   6
ENDBRANCH   2   3
ENDBRANCH   1   2
BRANCH   1   9
ATOM      9  C   UNL     1      -5.684  16.924  -3.392  1.00  0.00    -0.011 C 
ATOM     10  C   UNL     1      -4.489  16.309  -2.625  1.00  0.00     0.008 C 
BRANCH   9  11
ATOM     11  C   UNL     1      -5.360  17.364  -4.867  1.00  0.00    -0.002 C 
ATOM     12  C   UNL     1      -3.866  17.538  -5.235  1.00  0.00     0.005 C 
ATOM     13  C   UNL     1      -6.051  18.652  -5.393  1.00  0.00    -0.026 C 
ATOM     14  C   UNL     1      -3.823  18.558  -6.386  1.00  0.00     0.005 C 
ATOM     15  C   UNL     1      -5.287  18.837  -6.718  1.00  0.00    -0.001 C 
ATOM     16  C   UNL     1      -7.574  18.495  -5.698  1.00  0.00     0.007 C 
ATOM     17  C   UNL     1      -5.837  19.843  -4.412  1.00  0.00     0.012 C 
ATOM     18  C   UNL     1      -5.633  20.170  -7.419  1.00  0.00     0.000 C 
ATOM     19  C   UNL     1      -8.006  19.122  -7.053  1.00  0.00     0.005 C 
ATOM     20  C   UNL     1      -7.199  20.401  -7.454  1.00  0.00     0.003 C 
ATOM     21  C   UNL     1      -4.985  20.239  -8.811  1.00  0.00     0.031 C 
ATOM     22  C   UNL     1      -7.739  21.101  -8.778  1.00  0.00    -0.008 C 
ATOM     23  C   UNL     1      -5.373  21.524  -9.473  1.00  0.00    -0.027 C 
ATOM     24  C   UNL     1      -6.645  21.959  -9.419  1.00  0.00    -0.065 C 
ATOM     25  C   UNL     1      -8.967  22.013  -8.446  1.00  0.00     0.014 C 
ATOM     26  C   UNL     1      -8.201  20.070  -9.841  1.00  0.00     0.016 C 
ATOM     27  C   UNL     1      -7.005  23.328  -9.945  1.00  0.00     0.063 C 
ATOM     28  C   UNL     1      -8.559  23.387  -7.881  1.00  0.00     0.033 C 
ATOM     29  C   UNL     1      -7.623  24.186  -8.828  1.00  0.00     0.118 C 
BRANCH  29  30
ATOM     30  O   UNL     1      -8.334  25.247  -9.416  1.00  0.00    -0.393 OA
ATOM     31  H   UNL     1      -8.213  26.039  -8.832  1.00  0.00     0.210 HD
ENDBRANCH  29  30
ENDBRANCH   9  11
ENDBRANCH   1   9
TORSDOF 7
ENDMDL
MODEL 7
REMARK VINA RESULT:    -4.995     11.065     15.199
REMARK INTER + INTRA:          -8.294
REMARK INTER:                  -6.271
REMARK INTRA:                  -2.023
REMARK UNBOUND:                -1.401
REMARK SMILES CC[C@@H](CC[C@@H](C)[C@@H]1CC[C@@H]2[C@H]3CC=C4C[C@@H](O)CC[C@]4(C)[C@H]3CC[C@]21C)C(C)C
REMARK SMILES IDX 5 1 4 2 3 3 2 4 1 5 28 6 29 7 30 8 6 9 7 10 8 11 9 12 26 13
REMARK SMILES IDX 10 14 11 15 25 16 27 17 12 18 24 19 23 20 13 21 21 22 14 23
REMARK SMILES IDX 15 24 20 25 22 26 16 27 19 28 17 29 18 30
REMARK H PARENT 18 31
REMARK Flexibility Score: inf
ROOT
ATOM      1  C   UNL     1      -4.971  14.399  -4.589  1.00  0.00     0.004 C 
ENDROOT
BRANCH   1   2
ATOM      2  C   UNL     1      -6.490  14.141  -4.681  1.00  0.00     0.004 C 
BRANCH   2   3
ATOM      3  C   UNL     1      -7.312  14.862  -3.575  1.00  0.00    -0.009 C 
BRANCH   3   4
ATOM      4  C   UNL     1      -7.397  13.972  -2.302  1.00  0.00     0.000 C 
ATOM      5  C   UNL     1      -8.835  13.626  -1.908  1.00  0.00     0.004 C 
ENDBRANCH   3   4
BRANCH   3   6
ATOM      6  C   UNL     1      -8.723  15.326  -4.077  1.00  0.00    -0.014 C 
ATOM      7  C   UNL     1      -9.021  14.843  -5.507  1.00  0.00     0.007 C 
ATOM      8  C   UNL     1      -8.941  16.845  -3.978  1.00  0.00     0.007 C 
ENDBRANCH   3   6
ENDBRANCH   2   3
ENDBRANCH   1   2
BRANCH   1   9
ATOM      9  C   UNL     1      -4.622  15.819  -4.068  1.00  0.00    -0.011 C 
ATOM     10  C   UNL     1      -3.549  15.723  -2.959  1.00  0.00     0.008 C 
BRANCH   9  11
ATOM     11  C   UNL     1      -4.239  16.755  -5.272  1.00  0.00    -0.002 C 
ATOM     12  C   UNL     1      -2.883  17.497  -5.180  1.00  0.00     0.005 C 
ATOM     13  C   UNL     1      -5.263  17.851  -5.675  1.00  0.00    -0.026 C 
ATOM     14  C   UNL     1      -3.030  18.770  -6.031  1.00  0.00     0.005 C 
ATOM     15  C   UNL     1      -4.410  18.653  -6.675  1.00  0.00    -0.001 C 
ATOM     16  C   UNL     1      -6.536  17.315  -6.403  1.00  0.00     0.007 C 
ATOM     17  C   UNL     1      -5.689  18.701  -4.441  1.00  0.00     0.012 C 
ATOM     18  C   UNL     1      -5.107  19.951  -7.140  1.00  0.00     0.000 C 
ATOM     19  C   UNL     1      -6.933  18.144  -7.657  1.00  0.00     0.005 C 
ATOM     20  C   UNL     1      -6.613  19.671  -7.543  1.00  0.00     0.003 C 
ATOM     21  C   UNL     1      -4.304  20.632  -8.260  1.00  0.00     0.031 C 
ATOM     22  C   UNL     1      -7.140  20.522  -8.782  1.00  0.00    -0.008 C 
ATOM     23  C   UNL     1      -5.028  21.862  -8.709  1.00  0.00    -0.027 C 
ATOM     24  C   UNL     1      -6.358  21.833  -8.906  1.00  0.00    -0.065 C 
ATOM     25  C   UNL     1      -8.659  20.854  -8.603  1.00  0.00     0.014 C 
ATOM     26  C   UNL     1      -6.986  19.762 -10.125  1.00  0.00     0.016 C 
ATOM     27  C   UNL     1      -7.112  23.108  -9.204  1.00  0.00     0.063 C 
ATOM     28  C   UNL     1      -8.905  22.054  -7.668  1.00  0.00     0.033 C 
ATOM     29  C   UNL     1      -8.193  23.352  -8.136  1.00  0.00     0.118 C 
BRANCH  29  30
ATOM     30  O   UNL     1      -9.139  24.255  -8.651  1.00  0.00    -0.393 OA
ATOM     31  H   UNL     1      -9.668  23.766  -9.332  1.00  0.00     0.210 HD
ENDBRANCH  29  30
ENDBRANCH   9  11
ENDBRANCH   1   9
TORSDOF 7
ENDMDL
MODEL 8
REMARK VINA RESULT:    -4.766      5.944     12.791
REMARK INTER + INTRA:          -7.978
REMARK INTER:                  -6.962
REMARK INTRA:                  -1.016
REMARK UNBOUND:                -1.401
REMARK SMILES CC[C@@H](CC[C@@H](C)[C@@H]1CC[C@@H]2[C@H]3CC=C4C[C@@H](O)CC[C@]4(C)[C@H]3CC[C@]21C)C(C)C
REMARK SMILES IDX 5 1 4 2 3 3 2 4 1 5 28 6 29 7 30 8 6 9 7 10 8 11 9 12 26 13
REMARK SMILES IDX 10 14 11 15 25 16 27 17 12 18 24 19 23 20 13 21 21 22 14 23
REMARK SMILES IDX 15 24 20 25 22 26 16 27 19 28 17 29 18 30
REMARK H PARENT 18 31
REMARK Flexibility Score: inf
ROOT
ATOM      1  C   UNL     1     -12.854  24.392  -7.745  1.00  0.00     0.004 C 
ENDROOT
BRANCH   1   2
ATOM      2  C   UNL     1     -14.236  24.995  -8.073  1.00  0.00     0.004 C 
BRANCH   2   3
ATOM      3  C   UNL     1     -15.198  23.998  -8.780  1.00  0.00    -0.009 C 
BRANCH   3   4
ATOM      4  C   UNL     1     -16.671  24.291  -8.375  1.00  0.00     0.000 C 
ATOM      5  C   UNL     1     -17.562  24.645  -9.568  1.00  0.00     0.004 C 
ENDBRANCH   3   4
BRANCH   3   6
ATOM      6  C   UNL     1     -14.799  22.500  -8.539  1.00  0.00    -0.014 C 
ATOM      7  C   UNL     1     -14.230  21.838  -9.807  1.00  0.00     0.007 C 
ATOM      8  C   UNL     1     -15.941  21.645  -7.965  1.00  0.00     0.007 C 
ENDBRANCH   3   6
ENDBRANCH   2   3
ENDBRANCH   1   2
BRANCH   1   9
ATOM      9  C   UNL     1     -11.936  24.254  -8.989  1.00  0.00    -0.011 C 
ATOM     10  C   UNL     1     -12.206  25.416  -9.973  1.00  0.00     0.008 C 
BRANCH   9  11
ATOM     11  C   UNL     1     -10.436  24.113  -8.537  1.00  0.00    -0.002 C 
ATOM     12  C   UNL     1      -9.416  25.086  -9.177  1.00  0.00     0.005 C 
ATOM     13  C   UNL     1      -9.782  22.710  -8.669  1.00  0.00    -0.026 C 
ATOM     14  C   UNL     1      -8.055  24.370  -9.137  1.00  0.00     0.005 C 
ATOM     15  C   UNL     1      -8.316  23.074  -8.372  1.00  0.00    -0.001 C 
ATOM     16  C   UNL     1     -10.272  21.663  -7.620  1.00  0.00     0.007 C 
ATOM     17  C   UNL     1      -9.973  22.136 -10.106  1.00  0.00     0.012 C 
ATOM     18  C   UNL     1      -7.353  21.888  -8.601  1.00  0.00     0.000 C 
ATOM     19  C   UNL     1      -9.121  20.841  -6.975  1.00  0.00     0.005 C 
ATOM     20  C   UNL     1      -7.915  20.567  -7.933  1.00  0.00     0.003 C 
ATOM     21  C   UNL     1      -5.932  22.239  -8.132  1.00  0.00     0.031 C 
ATOM     22  C   UNL     1      -6.805  19.618  -7.297  1.00  0.00    -0.008 C 
ATOM     23  C   UNL     1      -5.039  21.055  -8.335  1.00  0.00    -0.027 C 
ATOM     24  C   UNL     1      -5.458  19.823  -7.995  1.00  0.00    -0.065 C 
ATOM     25  C   UNL     1      -7.227  18.118  -7.442  1.00  0.00     0.014 C 
ATOM     26  C   UNL     1      -6.591  19.896  -5.786  1.00  0.00     0.016 C 
ATOM     27  C   UNL     1      -4.625  18.612  -8.344  1.00  0.00     0.063 C 
ATOM     28  C   UNL     1      -6.925  17.542  -8.839  1.00  0.00     0.033 C 
ATOM     29  C   UNL     1      -5.428  17.649  -9.236  1.00  0.00     0.118 C 
BRANCH  29  30
ATOM     30  O   UNL     1      -4.828  16.379  -9.180  1.00  0.00    -0.393 OA
ATOM     31  H   UNL     1      -3.861  16.520  -9.016  1.00  0.00     0.210 HD
ENDBRANCH  29  30
ENDBRANCH   9  11
ENDBRANCH   1   9
TORSDOF 7
ENDMDL
MODEL 9
REMARK VINA RESULT:    -4.691     13.527     16.035
REMARK INTER + INTRA:          -7.875
REMARK INTER:                  -6.566
REMARK INTRA:                  -1.309
REMARK UNBOUND:                -1.401
REMARK SMILES CC[C@@H](CC[C@@H](C)[C@@H]1CC[C@@H]2[C@H]3CC=C4C[C@@H](O)CC[C@]4(C)[C@H]3CC[C@]21C)C(C)C
REMARK SMILES IDX 5 1 4 2 3 3 2 4 1 5 28 6 29 7 30 8 6 9 7 10 8 11 9 12 26 13
REMARK SMILES IDX 10 14 11 15 25 16 27 17 12 18 24 19 23 20 13 21 21 22 14 23
REMARK SMILES IDX 15 24 20 25 22 26 16 27 19 28 17 29 18 30
REMARK H PARENT 18 31
REMARK Flexibility Score: inf
ROOT
ATOM      1  C   UNL     1      -8.362  14.494  -4.552  1.00  0.00     0.004 C 
ENDROOT
BRANCH   1   2
ATOM      2  C   UNL     1      -8.821  13.807  -3.249  1.00  0.00     0.004 C 
BRANCH   2   3
ATOM      3  C   UNL     1      -7.668  13.104  -2.477  1.00  0.00    -0.009 C 
BRANCH   3   4
ATOM      4  C   UNL     1      -7.943  13.140  -0.947  1.00  0.00     0.000 C 
ATOM      5  C   UNL     1      -9.233  13.882  -0.587  1.00  0.00     0.004 C 
ENDBRANCH   3   4
BRANCH   3   6
ATOM      6  C   UNL     1      -6.256  13.680  -2.845  1.00  0.00    -0.014 C 
ATOM      7  C   UNL     1      -5.574  12.877  -3.967  1.00  0.00     0.007 C 
ATOM      8  C   UNL     1      -5.312  13.807  -1.638  1.00  0.00     0.007 C 
ENDBRANCH   3   6
ENDBRANCH   2   3
ENDBRANCH   1   2
BRANCH   1   9
ATOM      9  C   UNL     1      -8.404  16.043  -4.474  1.00  0.00    -0.011 C 
ATOM     10  C   UNL     1      -9.093  16.486  -3.162  1.00  0.00     0.008 C 
BRANCH   9  11
ATOM     11  C   UNL     1      -6.962  16.632  -4.689  1.00  0.00    -0.002 C 
ATOM     12  C   UNL     1      -6.183  17.060  -3.421  1.00  0.00     0.005 C 
ATOM     13  C   UNL     1      -6.821  17.833  -5.665  1.00  0.00    -0.026 C 
ATOM     14  C   UNL     1      -5.198  18.154  -3.870  1.00  0.00     0.005 C 
ATOM     15  C   UNL     1      -5.359  18.227  -5.387  1.00  0.00    -0.001 C 
ATOM     16  C   UNL     1      -6.974  17.465  -7.175  1.00  0.00     0.007 C 
ATOM     17  C   UNL     1      -7.823  18.970  -5.302  1.00  0.00     0.012 C 
ATOM     18  C   UNL     1      -4.954  19.538  -6.098  1.00  0.00     0.000 C 
ATOM     19  C   UNL     1      -5.895  18.114  -8.086  1.00  0.00     0.005 C 
ATOM     20  C   UNL     1      -5.420  19.527  -7.612  1.00  0.00     0.003 C 
ATOM     21  C   UNL     1      -3.449  19.805  -5.937  1.00  0.00     0.031 C 
ATOM     22  C   UNL     1      -4.411  20.228  -8.624  1.00  0.00    -0.008 C 
ATOM     23  C   UNL     1      -3.089  21.059  -6.669  1.00  0.00    -0.027 C 
ATOM     24  C   UNL     1      -3.574  21.288  -7.903  1.00  0.00    -0.065 C 
ATOM     25  C   UNL     1      -5.202  20.915  -9.788  1.00  0.00     0.014 C 
ATOM     26  C   UNL     1      -3.426  19.218  -9.266  1.00  0.00     0.016 C 
ATOM     27  C   UNL     1      -3.343  22.620  -8.577  1.00  0.00     0.063 C 
ATOM     28  C   UNL     1      -5.772  22.292  -9.396  1.00  0.00     0.033 C 
ATOM     29  C   UNL     1      -4.687  23.290  -8.913  1.00  0.00     0.118 C 
BRANCH  29  30
ATOM     30  O   UNL     1      -4.467  24.268  -9.899  1.00  0.00    -0.393 OA
ATOM     31  H   UNL     1      -5.123  24.995  -9.740  1.00  0.00     0.210 HD
ENDBRANCH  29  30
ENDBRANCH   9  11
ENDBRANCH   1   9
TORSDOF 7
ENDMDL
