MODEL 1
REMARK VINA RESULT:    -4.458      0.000      0.000
REMARK INTER + INTRA:          -9.741
REMARK INTER:                  -8.106
REMARK INTRA:                  -1.635
REMARK UNBOUND:                -1.635
REMARK SMILES CCCCCCCCCCCCCCCC(=O)[O-]
REMARK SMILES IDX 9 1 10 2 11 3 12 4 13 5 14 6 15 7 16 8 17 9 18 10 8 11 7 12
REMARK SMILES IDX 6 13 5 14 4 15 3 16 2 17 1 18
REMARK H PARENT
REMARK Flexibility Score: inf
ROOT
ATOM      1  C   UNL     1     -24.015   6.719  34.911  1.00  0.00     0.000 C 
ENDROOT
BRANCH   1   2
ATOM      2  C   UNL     1     -23.791   5.729  33.756  1.00  0.00     0.000 C 
BRANCH   2   3
ATOM      3  C   UNL     1     -23.686   6.429  32.392  1.00  0.00     0.000 C 
BRANCH   3   4
ATOM      4  C   UNL     1     -24.900   6.153  31.487  1.00  0.00     0.000 C 
BRANCH   4   5
ATOM      5  C   UNL     1     -26.165   5.782  32.282  1.00  0.00     0.000 C 
BRANCH   5   6
ATOM      6  C   UNL     1     -27.487   6.299  31.679  1.00  0.00     0.006 C 
BRANCH   6   7
ATOM      7  C   UNL     1     -28.456   5.197  31.223  1.00  0.00     0.053 C 
BRANCH   7   8
ATOM      8  C   UNL     1     -28.876   5.374  29.796  1.00  0.00     0.041 C 
ATOM      9  O   UNL     1     -28.795   4.413  28.988  1.00  0.00    -0.550 OA
ATOM     10  O   UNL     1     -29.327   6.611  29.352  1.00  0.00    -0.550 OA
ENDBRANCH   7   8
ENDBRANCH   6   7
ENDBRANCH   5   6
ENDBRANCH   4   5
ENDBRANCH   3   4
ENDBRANCH   2   3
ENDBRANCH   1   2
BRANCH   1  11
ATOM     11  C   UNL     1     -23.091   6.457  36.115  1.00  0.00     0.000 C 
BRANCH  11  12
ATOM     12  C   UNL     1     -23.645   5.487  37.176  1.00  0.00    -0.000 C 
BRANCH  12  13
ATOM     13  C   UNL     1     -24.401   6.204  38.308  1.00  0.00    -0.000 C 
BRANCH  13  14
ATOM     14  C   UNL     1     -25.931   6.086  38.177  1.00  0.00    -0.000 C 
BRANCH  14  15
ATOM     15  C   UNL     1     -26.641   7.316  37.583  1.00  0.00    -0.000 C 
BRANCH  15  16
ATOM     16  C   UNL     1     -27.403   7.000  36.284  1.00  0.00    -0.000 C 
BRANCH  16  17
ATOM     17  C   UNL     1     -27.321   5.514  35.899  1.00  0.00    -0.003 C 
ATOM     18  C   UNL     1     -28.520   5.048  35.074  1.00  0.00     0.004 C 
ENDBRANCH  16  17
ENDBRANCH  15  16
ENDBRANCH  14  15
ENDBRANCH  13  14
ENDBRANCH  12  13
ENDBRANCH  11  12
ENDBRANCH   1  11
TORSDOF 14
ENDMDL
MODEL 2
REMARK VINA RESULT:    -4.279     13.216     14.906
REMARK INTER + INTRA:          -9.416
REMARK INTER:                  -7.470
REMARK INTRA:                  -1.946
REMARK UNBOUND:                -1.635
REMARK SMILES CCCCCCCCCCCCCCCC(=O)[O-]
REMARK SMILES IDX 9 1 10 2 11 3 12 4 13 5 14 6 15 7 16 8 17 9 18 10 8 11 7 12
REMARK SMILES IDX 6 13 5 14 4 15 3 16 2 17 1 18
REMARK H PARENT
REMARK Flexibility Score: inf
ROOT
ATOM      1  C   UNL     1     -35.846   7.410  23.797  1.00  0.00     0.000 C 
ENDROOT
BRANCH   1   2
ATOM      2  C   UNL     1     -35.767   8.602  24.766  1.00  0.00     0.000 C 
BRANCH   2   3
ATOM      3  C   UNL     1     -35.530   8.164  26.220  1.00  0.00     0.000 C 
BRANCH   3   4
ATOM      4  C   UNL     1     -36.827   8.128  27.048  1.00  0.00     0.000 C 
BRANCH   4   5
ATOM      5  C   UNL     1     -37.930   9.033  26.470  1.00  0.00     0.000 C 
BRANCH   5   6
ATOM      6  C   UNL     1     -39.323   8.378  26.374  1.00  0.00     0.006 C 
BRANCH   6   7
ATOM      7  C   UNL     1     -39.848   7.798  27.696  1.00  0.00     0.053 C 
BRANCH   7   8
ATOM      8  C   UNL     1     -40.753   8.755  28.409  1.00  0.00     0.041 C 
ATOM      9  O   UNL     1     -41.074   8.549  29.609  1.00  0.00    -0.550 OA
ATOM     10  O   UNL     1     -41.268   9.858  27.738  1.00  0.00    -0.550 OA
ENDBRANCH   7   8
ENDBRANCH   6   7
ENDBRANCH   5   6
ENDBRANCH   4   5
ENDBRANCH   3   4
ENDBRANCH   2   3
ENDBRANCH   1   2
BRANCH   1  11
ATOM     11  C   UNL     1     -35.330   6.096  24.415  1.00  0.00     0.000 C 
BRANCH  11  12
ATOM     12  C   UNL     1     -36.315   4.914  24.373  1.00  0.00    -0.000 C 
BRANCH  12  13
ATOM     13  C   UNL     1     -37.787   5.359  24.326  1.00  0.00    -0.000 C 
BRANCH  13  14
ATOM     14  C   UNL     1     -38.676   4.606  25.333  1.00  0.00    -0.000 C 
BRANCH  14  15
ATOM     15  C   UNL     1     -38.327   4.824  26.816  1.00  0.00    -0.000 C 
BRANCH  15  16
ATOM     16  C   UNL     1     -37.979   3.517  27.549  1.00  0.00    -0.000 C 
BRANCH  16  17
ATOM     17  C   UNL     1     -38.995   2.398  27.273  1.00  0.00    -0.003 C 
ATOM     18  C   UNL     1     -38.332   1.044  27.023  1.00  0.00     0.004 C 
ENDBRANCH  16  17
ENDBRANCH  15  16
ENDBRANCH  14  15
ENDBRANCH  13  14
ENDBRANCH  12  13
ENDBRANCH  11  12
ENDBRANCH   1  11
TORSDOF 14
ENDMDL
MODEL 3
REMARK VINA RESULT:    -4.267     12.658     14.636
REMARK INTER + INTRA:          -9.393
REMARK INTER:                  -7.208
REMARK INTRA:                  -2.186
REMARK UNBOUND:                -1.635
REMARK SMILES CCCCCCCCCCCCCCCC(=O)[O-]
REMARK SMILES IDX 9 1 10 2 11 3 12 4 13 5 14 6 15 7 16 8 17 9 18 10 8 11 7 12
REMARK SMILES IDX 6 13 5 14 4 15 3 16 2 17 1 18
REMARK H PARENT
REMARK Flexibility Score: inf
ROOT
ATOM      1  C   UNL     1     -38.316   6.543  27.392  1.00  0.00     0.000 C 
ENDROOT
BRANCH   1   2
ATOM      2  C   UNL     1     -37.660   5.186  27.699  1.00  0.00     0.000 C 
BRANCH   2   3
ATOM      3  C   UNL     1     -37.441   4.339  26.435  1.00  0.00     0.000 C 
BRANCH   3   4
ATOM      4  C   UNL     1     -38.311   4.801  25.253  1.00  0.00     0.000 C 
BRANCH   4   5
ATOM      5  C   UNL     1     -37.478   5.284  24.052  1.00  0.00     0.000 C 
BRANCH   5   6
ATOM      6  C   UNL     1     -35.965   5.417  24.321  1.00  0.00     0.006 C 
BRANCH   6   7
ATOM      7  C   UNL     1     -35.370   6.787  23.961  1.00  0.00     0.053 C 
BRANCH   7   8
ATOM      8  C   UNL     1     -34.031   7.002  24.598  1.00  0.00     0.041 C 
ATOM      9  O   UNL     1     -33.598   6.186  25.452  1.00  0.00    -0.550 OA
ATOM     10  O   UNL     1     -33.277   8.122  24.271  1.00  0.00    -0.550 OA
ENDBRANCH   7   8
ENDBRANCH   6   7
ENDBRANCH   5   6
ENDBRANCH   4   5
ENDBRANCH   3   4
ENDBRANCH   2   3
ENDBRANCH   1   2
BRANCH   1  11
ATOM     11  C   UNL     1     -37.292   7.677  27.197  1.00  0.00     0.000 C 
BRANCH  11  12
ATOM     12  C   UNL     1     -37.663   8.728  26.134  1.00  0.00    -0.000 C 
BRANCH  12  13
ATOM     13  C   UNL     1     -39.063   8.508  25.535  1.00  0.00    -0.000 C 
BRANCH  13  14
ATOM     14  C   UNL     1     -40.055   9.628  25.899  1.00  0.00    -0.000 C 
BRANCH  14  15
ATOM     15  C   UNL     1     -39.589  10.591  27.007  1.00  0.00    -0.000 C 
BRANCH  15  16
ATOM     16  C   UNL     1     -39.992  10.125  28.416  1.00  0.00    -0.000 C 
BRANCH  16  17
ATOM     17  C   UNL     1     -41.332   9.371  28.427  1.00  0.00    -0.003 C 
ATOM     18  C   UNL     1     -41.307   8.131  29.320  1.00  0.00     0.004 C 
ENDBRANCH  16  17
ENDBRANCH  15  16
ENDBRANCH  14  15
ENDBRANCH  13  14
ENDBRANCH  12  13
ENDBRANCH  11  12
ENDBRANCH   1  11
TORSDOF 14
ENDMDL
MODEL 4
REMARK VINA RESULT:    -4.216      1.503      2.113
REMARK INTER + INTRA:          -9.301
REMARK INTER:                  -7.769
REMARK INTRA:                  -1.532
REMARK UNBOUND:                -1.635
REMARK SMILES CCCCCCCCCCCCCCCC(=O)[O-]
REMARK SMILES IDX 9 1 10 2 11 3 12 4 13 5 14 6 15 7 16 8 17 9 18 10 8 11 7 12
REMARK SMILES IDX 6 13 5 14 4 15 3 16 2 17 1 18
REMARK H PARENT
REMARK Flexibility Score: inf
ROOT
ATOM      1  C   UNL     1     -24.330   6.495  33.555  1.00  0.00     0.000 C 
ENDROOT
BRANCH   1   2
ATOM      2  C   UNL     1     -25.072   5.508  32.638  1.00  0.00     0.000 C 
BRANCH   2   3
ATOM      3  C   UNL     1     -25.804   6.212  31.484  1.00  0.00     0.000 C 
BRANCH   3   4
ATOM      4  C   UNL     1     -27.331   6.225  31.670  1.00  0.00     0.000 C 
BRANCH   4   5
ATOM      5  C   UNL     1     -28.093   6.395  30.344  1.00  0.00     0.000 C 
BRANCH   5   6
ATOM      6  C   UNL     1     -27.555   5.548  29.172  1.00  0.00     0.006 C 
BRANCH   6   7
ATOM      7  C   UNL     1     -28.429   4.339  28.804  1.00  0.00     0.053 C 
BRANCH   7   8
ATOM      8  C   UNL     1     -27.785   3.043  29.194  1.00  0.00     0.041 C 
ATOM      9  O   UNL     1     -28.082   1.981  28.588  1.00  0.00    -0.550 OA
ATOM     10  O   UNL     1     -26.882   3.004  30.249  1.00  0.00    -0.550 OA
ENDBRANCH   7   8
ENDBRANCH   6   7
ENDBRANCH   5   6
ENDBRANCH   4   5
ENDBRANCH   3   4
ENDBRANCH   2   3
ENDBRANCH   1   2
BRANCH   1  11
ATOM     11  C   UNL     1     -23.649   5.808  34.754  1.00  0.00     0.000 C 
BRANCH  11  12
ATOM     12  C   UNL     1     -23.245   6.742  35.910  1.00  0.00    -0.000 C 
BRANCH  12  13
ATOM     13  C   UNL     1     -23.864   6.333  37.257  1.00  0.00    -0.000 C 
BRANCH  13  14
ATOM     14  C   UNL     1     -25.341   5.914  37.137  1.00  0.00    -0.000 C 
BRANCH  14  15
ATOM     15  C   UNL     1     -26.368   7.040  37.358  1.00  0.00    -0.000 C 
BRANCH  15  16
ATOM     16  C   UNL     1     -27.516   7.015  36.333  1.00  0.00    -0.000 C 
BRANCH  16  17
ATOM     17  C   UNL     1     -27.382   5.860  35.327  1.00  0.00    -0.003 C 
ATOM     18  C   UNL     1     -28.657   5.026  35.210  1.00  0.00     0.004 C 
ENDBRANCH  16  17
ENDBRANCH  15  16
ENDBRANCH  14  15
ENDBRANCH  13  14
ENDBRANCH  12  13
ENDBRANCH  11  12
ENDBRANCH   1  11
TORSDOF 14
ENDMDL
MODEL 5
REMARK VINA RESULT:    -4.147     11.886     14.305
REMARK INTER + INTRA:          -9.176
REMARK INTER:                  -6.853
REMARK INTRA:                  -2.323
REMARK UNBOUND:                -1.635
REMARK SMILES CCCCCCCCCCCCCCCC(=O)[O-]
REMARK SMILES IDX 9 1 10 2 11 3 12 4 13 5 14 6 15 7 16 8 17 9 18 10 8 11 7 12
REMARK SMILES IDX 6 13 5 14 4 15 3 16 2 17 1 18
REMARK H PARENT
REMARK Flexibility Score: inf
ROOT
ATOM      1  C   UNL     1     -37.878   8.359  23.666  1.00  0.00     0.000 C 
ENDROOT
BRANCH   1   2
ATOM      2  C   UNL     1     -36.911   7.408  22.942  1.00  0.00     0.000 C 
BRANCH   2   3
ATOM      3  C   UNL     1     -37.113   5.940  23.349  1.00  0.00     0.000 C 
BRANCH   3   4
ATOM      4  C   UNL     1     -35.977   5.410  24.241  1.00  0.00     0.000 C 
BRANCH   4   5
ATOM      5  C   UNL     1     -34.710   6.282  24.176  1.00  0.00     0.000 C 
BRANCH   5   6
ATOM      6  C   UNL     1     -34.043   6.560  25.538  1.00  0.00     0.006 C 
BRANCH   6   7
ATOM      7  C   UNL     1     -33.945   8.048  25.910  1.00  0.00     0.053 C 
BRANCH   7   8
ATOM      8  C   UNL     1     -33.326   8.860  24.813  1.00  0.00     0.041 C 
ATOM      9  O   UNL     1     -32.086   8.803  24.605  1.00  0.00    -0.550 OA
ATOM     10  O   UNL     1     -34.115   9.707  24.044  1.00  0.00    -0.550 OA
ENDBRANCH   7   8
ENDBRANCH   6   7
ENDBRANCH   5   6
ENDBRANCH   4   5
ENDBRANCH   3   4
ENDBRANCH   2   3
ENDBRANCH   1   2
BRANCH   1  11
ATOM     11  C   UNL     1     -37.374   8.784  25.059  1.00  0.00     0.000 C 
BRANCH  11  12
ATOM     12  C   UNL     1     -38.437   8.794  26.173  1.00  0.00    -0.000 C 
BRANCH  12  13
ATOM     13  C   UNL     1     -38.072   7.886  27.360  1.00  0.00    -0.000 C 
BRANCH  13  14
ATOM     14  C   UNL     1     -38.069   6.390  26.994  1.00  0.00    -0.000 C 
BRANCH  14  15
ATOM     15  C   UNL     1     -39.291   5.902  26.194  1.00  0.00    -0.000 C 
BRANCH  15  16
ATOM     16  C   UNL     1     -39.290   4.381  25.965  1.00  0.00    -0.000 C 
BRANCH  16  17
ATOM     17  C   UNL     1     -38.140   3.675  26.702  1.00  0.00    -0.003 C 
ATOM     18  C   UNL     1     -38.628   2.580  27.650  1.00  0.00     0.004 C 
ENDBRANCH  16  17
ENDBRANCH  15  16
ENDBRANCH  14  15
ENDBRANCH  13  14
ENDBRANCH  12  13
ENDBRANCH  11  12
ENDBRANCH   1  11
TORSDOF 14
ENDMDL
MODEL 6
REMARK VINA RESULT:    -4.124      1.331      2.056
REMARK INTER + INTRA:          -9.134
REMARK INTER:                  -7.415
REMARK INTRA:                  -1.719
REMARK UNBOUND:                -1.635
REMARK SMILES CCCCCCCCCCCCCCCC(=O)[O-]
REMARK SMILES IDX 9 1 10 2 11 3 12 4 13 5 14 6 15 7 16 8 17 9 18 10 8 11 7 12
REMARK SMILES IDX 6 13 5 14 4 15 3 16 2 17 1 18
REMARK H PARENT
REMARK Flexibility Score: inf
ROOT
ATOM      1  C   UNL     1     -24.048   5.620  33.505  1.00  0.00     0.000 C 
ENDROOT
BRANCH   1   2
ATOM      2  C   UNL     1     -23.621   6.415  32.260  1.00  0.00     0.000 C 
BRANCH   2   3
ATOM      3  C   UNL     1     -24.409   6.010  31.004  1.00  0.00     0.000 C 
BRANCH   3   4
ATOM      4  C   UNL     1     -24.968   4.579  31.090  1.00  0.00     0.000 C 
BRANCH   4   5
ATOM      5  C   UNL     1     -25.989   4.268  29.981  1.00  0.00     0.000 C 
BRANCH   5   6
ATOM      6  C   UNL     1     -26.526   5.502  29.228  1.00  0.00     0.006 C 
BRANCH   6   7
ATOM      7  C   UNL     1     -27.937   5.331  28.644  1.00  0.00     0.053 C 
BRANCH   7   8
ATOM      8  C   UNL     1     -28.944   6.185  29.351  1.00  0.00     0.041 C 
ATOM      9  O   UNL     1     -29.824   5.656  30.078  1.00  0.00    -0.550 OA
ATOM     10  O   UNL     1     -28.931   7.564  29.178  1.00  0.00    -0.550 OA
ENDBRANCH   7   8
ENDBRANCH   6   7
ENDBRANCH   5   6
ENDBRANCH   4   5
ENDBRANCH   3   4
ENDBRANCH   2   3
ENDBRANCH   1   2
BRANCH   1  11
ATOM     11  C   UNL     1     -23.601   6.281  34.823  1.00  0.00     0.000 C 
BRANCH  11  12
ATOM     12  C   UNL     1     -24.696   7.058  35.579  1.00  0.00    -0.000 C 
BRANCH  12  13
ATOM     13  C   UNL     1     -25.098   6.391  36.905  1.00  0.00    -0.000 C 
BRANCH  13  14
ATOM     14  C   UNL     1     -26.558   5.902  36.914  1.00  0.00    -0.000 C 
BRANCH  14  15
ATOM     15  C   UNL     1     -27.346   6.146  35.613  1.00  0.00    -0.000 C 
BRANCH  15  16
ATOM     16  C   UNL     1     -28.222   4.948  35.209  1.00  0.00    -0.000 C 
BRANCH  16  17
ATOM     17  C   UNL     1     -28.421   4.851  33.687  1.00  0.00    -0.003 C 
ATOM     18  C   UNL     1     -27.705   5.965  32.924  1.00  0.00     0.004 C 
ENDBRANCH  16  17
ENDBRANCH  15  16
ENDBRANCH  14  15
ENDBRANCH  13  14
ENDBRANCH  12  13
ENDBRANCH  11  12
ENDBRANCH   1  11
TORSDOF 14
ENDMDL
MODEL 7
REMARK VINA RESULT:    -4.088      3.412      6.791
REMARK INTER + INTRA:          -9.069
REMARK INTER:                  -6.656
REMARK INTRA:                  -2.413
REMARK UNBOUND:                -1.635
REMARK SMILES CCCCCCCCCCCCCCCC(=O)[O-]
REMARK SMILES IDX 9 1 10 2 11 3 12 4 13 5 14 6 15 7 16 8 17 9 18 10 8 11 7 12
REMARK SMILES IDX 6 13 5 14 4 15 3 16 2 17 1 18
REMARK H PARENT
REMARK Flexibility Score: inf
ROOT
ATOM      1  C   UNL     1     -27.947   3.054  27.473  1.00  0.00     0.000 C 
ENDROOT
BRANCH   1   2
ATOM      2  C   UNL     1     -28.512   4.450  27.787  1.00  0.00     0.000 C 
BRANCH   2   3
ATOM      3  C   UNL     1     -27.411   5.468  28.125  1.00  0.00     0.000 C 
BRANCH   3   4
ATOM      4  C   UNL     1     -27.304   5.747  29.634  1.00  0.00     0.000 C 
BRANCH   4   5
ATOM      5  C   UNL     1     -28.544   5.280  30.418  1.00  0.00     0.000 C 
BRANCH   5   6
ATOM      6  C   UNL     1     -28.262   4.805  31.857  1.00  0.00     0.006 C 
BRANCH   6   7
ATOM      7  C   UNL     1     -27.771   5.906  32.809  1.00  0.00     0.053 C 
BRANCH   7   8
ATOM      8  C   UNL     1     -27.940   5.522  34.247  1.00  0.00     0.041 C 
ATOM      9  O   UNL     1     -28.839   4.708  34.584  1.00  0.00    -0.550 OA
ATOM     10  O   UNL     1     -27.124   6.088  35.220  1.00  0.00    -0.550 OA
ENDBRANCH   7   8
ENDBRANCH   6   7
ENDBRANCH   5   6
ENDBRANCH   4   5
ENDBRANCH   3   4
ENDBRANCH   2   3
ENDBRANCH   1   2
BRANCH   1  11
ATOM     11  C   UNL     1     -28.342   1.995  28.520  1.00  0.00     0.000 C 
BRANCH  11  12
ATOM     12  C   UNL     1     -27.169   1.331  29.266  1.00  0.00    -0.000 C 
BRANCH  12  13
ATOM     13  C   UNL     1     -25.910   2.214  29.311  1.00  0.00    -0.000 C 
BRANCH  13  14
ATOM     14  C   UNL     1     -25.559   2.687  30.734  1.00  0.00    -0.000 C 
BRANCH  14  15
ATOM     15  C   UNL     1     -24.380   3.672  30.832  1.00  0.00    -0.000 C 
BRANCH  15  16
ATOM     16  C   UNL     1     -24.481   4.611  32.046  1.00  0.00    -0.000 C 
BRANCH  16  17
ATOM     17  C   UNL     1     -24.227   6.082  31.676  1.00  0.00    -0.003 C 
ATOM     18  C   UNL     1     -23.500   6.240  30.341  1.00  0.00     0.004 C 
ENDBRANCH  16  17
ENDBRANCH  15  16
ENDBRANCH  14  15
ENDBRANCH  13  14
ENDBRANCH  12  13
ENDBRANCH  11  12
ENDBRANCH   1  11
TORSDOF 14
ENDMDL
MODEL 8
REMARK VINA RESULT:    -4.049     13.365     15.218
REMARK INTER + INTRA:          -8.998
REMARK INTER:                  -6.943
REMARK INTRA:                  -2.055
REMARK UNBOUND:                -1.635
REMARK SMILES CCCCCCCCCCCCCCCC(=O)[O-]
REMARK SMILES IDX 9 1 10 2 11 3 12 4 13 5 14 6 15 7 16 8 17 9 18 10 8 11 7 12
REMARK SMILES IDX 6 13 5 14 4 15 3 16 2 17 1 18
REMARK H PARENT
REMARK Flexibility Score: inf
ROOT
ATOM      1  C   UNL     1     -35.642   7.847  26.179  1.00  0.00     0.000 C 
ENDROOT
BRANCH   1   2
ATOM      2  C   UNL     1     -36.987   8.231  26.819  1.00  0.00     0.000 C 
BRANCH   2   3
ATOM      3  C   UNL     1     -38.053   8.596  25.775  1.00  0.00     0.000 C 
BRANCH   3   4
ATOM      4  C   UNL     1     -39.469   8.162  26.195  1.00  0.00     0.000 C 
BRANCH   4   5
ATOM      5  C   UNL     1     -39.620   8.013  27.720  1.00  0.00     0.000 C 
BRANCH   5   6
ATOM      6  C   UNL     1     -40.310   9.199  28.424  1.00  0.00     0.006 C 
BRANCH   6   7
ATOM      7  C   UNL     1     -39.479  10.491  28.461  1.00  0.00     0.053 C 
BRANCH   7   8
ATOM      8  C   UNL     1     -40.172  11.624  27.767  1.00  0.00     0.041 C 
ATOM      9  O   UNL     1     -40.821  11.416  26.709  1.00  0.00    -0.550 OA
ATOM     10  O   UNL     1     -40.072  12.915  28.272  1.00  0.00    -0.550 OA
ENDBRANCH   7   8
ENDBRANCH   6   7
ENDBRANCH   5   6
ENDBRANCH   4   5
ENDBRANCH   3   4
ENDBRANCH   2   3
ENDBRANCH   1   2
BRANCH   1  11
ATOM     11  C   UNL     1     -35.716   7.736  24.644  1.00  0.00     0.000 C 
BRANCH  11  12
ATOM     12  C   UNL     1     -35.630   6.306  24.079  1.00  0.00    -0.000 C 
BRANCH  12  13
ATOM     13  C   UNL     1     -36.375   5.273  24.942  1.00  0.00    -0.000 C 
BRANCH  13  14
ATOM     14  C   UNL     1     -37.787   4.956  24.415  1.00  0.00    -0.000 C 
BRANCH  14  15
ATOM     15  C   UNL     1     -38.823   4.573  25.487  1.00  0.00    -0.000 C 
BRANCH  15  16
ATOM     16  C   UNL     1     -38.263   4.649  26.918  1.00  0.00    -0.000 C 
BRANCH  16  17
ATOM     17  C   UNL     1     -38.250   3.281  27.619  1.00  0.00    -0.003 C 
ATOM     18  C   UNL     1     -38.996   2.204  26.832  1.00  0.00     0.004 C 
ENDBRANCH  16  17
ENDBRANCH  15  16
ENDBRANCH  14  15
ENDBRANCH  13  14
ENDBRANCH  12  13
ENDBRANCH  11  12
ENDBRANCH   1  11
TORSDOF 14
ENDMDL
MODEL 9
REMARK VINA RESULT:    -4.034     12.667     15.443
REMARK INTER + INTRA:          -8.970
REMARK INTER:                  -6.579
REMARK INTRA:                  -2.391
REMARK UNBOUND:                -1.635
REMARK SMILES CCCCCCCCCCCCCCCC(=O)[O-]
REMARK SMILES IDX 9 1 10 2 11 3 12 4 13 5 14 6 15 7 16 8 17 9 18 10 8 11 7 12
REMARK SMILES IDX 6 13 5 14 4 15 3 16 2 17 1 18
REMARK H PARENT
REMARK Flexibility Score: inf
ROOT
ATOM      1  C   UNL     1     -38.060   6.432  27.393  1.00  0.00     0.000 C 
ENDROOT
BRANCH   1   2
ATOM      2  C   UNL     1     -37.044   7.586  27.352  1.00  0.00     0.000 C 
BRANCH   2   3
ATOM      3  C   UNL     1     -37.722   8.965  27.304  1.00  0.00     0.000 C 
BRANCH   3   4
ATOM      4  C   UNL     1     -37.346   9.768  26.046  1.00  0.00     0.000 C 
BRANCH   4   5
ATOM      5  C   UNL     1     -38.513   9.900  25.050  1.00  0.00     0.000 C 
BRANCH   5   6
ATOM      6  C   UNL     1     -39.815   9.195  25.478  1.00  0.00     0.006 C 
BRANCH   6   7
ATOM      7  C   UNL     1     -41.069  10.082  25.428  1.00  0.00     0.053 C 
BRANCH   7   8
ATOM      8  C   UNL     1     -41.660  10.295  26.788  1.00  0.00     0.041 C 
ATOM      9  O   UNL     1     -41.184   9.695  27.787  1.00  0.00    -0.550 OA
ATOM     10  O   UNL     1     -42.759  11.131  26.946  1.00  0.00    -0.550 OA
ENDBRANCH   7   8
ENDBRANCH   6   7
ENDBRANCH   5   6
ENDBRANCH   4   5
ENDBRANCH   3   4
ENDBRANCH   2   3
ENDBRANCH   1   2
BRANCH   1  11
ATOM     11  C   UNL     1     -37.392   5.044  27.412  1.00  0.00     0.000 C 
BRANCH  11  12
ATOM     12  C   UNL     1     -37.783   4.105  26.255  1.00  0.00    -0.000 C 
BRANCH  12  13
ATOM     13  C   UNL     1     -38.496   4.836  25.104  1.00  0.00    -0.000 C 
BRANCH  13  14
ATOM     14  C   UNL     1     -37.549   5.200  23.946  1.00  0.00    -0.000 C 
BRANCH  14  15
ATOM     15  C   UNL     1     -37.327   6.707  23.722  1.00  0.00    -0.000 C 
BRANCH  15  16
ATOM     16  C   UNL     1     -35.841   7.103  23.724  1.00  0.00    -0.000 C 
BRANCH  16  17
ATOM     17  C   UNL     1     -34.948   6.033  24.375  1.00  0.00    -0.003 C 
ATOM     18  C   UNL     1     -34.050   6.600  25.474  1.00  0.00     0.004 C 
ENDBRANCH  16  17
ENDBRANCH  15  16
ENDBRANCH  14  15
ENDBRANCH  13  14
ENDBRANCH  12  13
ENDBRANCH  11  12
ENDBRANCH   1  11
TORSDOF 14
ENDMDL
