MODEL 1
REMARK VINA RESULT:    -2.687      0.000      0.000
REMARK INTER + INTRA:          -9.120
REMARK INTER:                  -6.771
REMARK INTRA:                  -2.349
REMARK UNBOUND:                -2.349
REMARK SMILES CCCCCCCCCCCCCCCCCCCCCCCCCCCC(=O)[O-]
REMARK SMILES IDX 15 1 16 2 17 3 18 4 19 5 20 6 21 7 22 8 23 9 24 10 25 11
REMARK SMILES IDX 26 12 27 13 28 14 29 15 30 16 14 17 13 18 12 19 11 20 10 21
REMARK SMILES IDX 9 22 8 23 7 24 6 25 5 26 4 27 3 28 2 29 1 30
REMARK H PARENT
REMARK Flexibility Score: inf
ROOT
ATOM      1  C   UNL     1       9.651  -4.821   3.496  1.00  0.00     0.000 C 
ENDROOT
BRANCH   1   2
ATOM      2  C   UNL     1       8.144  -4.968   3.220  1.00  0.00     0.000 C 
BRANCH   2   3
ATOM      3  C   UNL     1       7.526  -6.138   4.011  1.00  0.00     0.000 C 
BRANCH   3   4
ATOM      4  C   UNL     1       6.041  -5.941   4.359  1.00  0.00     0.000 C 
BRANCH   4   5
ATOM      5  C   UNL     1       5.533  -6.846   5.504  1.00  0.00     0.000 C 
BRANCH   5   6
ATOM      6  C   UNL     1       6.242  -8.212   5.629  1.00  0.00     0.000 C 
BRANCH   6   7
ATOM      7  C   UNL     1       5.397  -9.439   5.237  1.00  0.00     0.000 C 
BRANCH   7   8
ATOM      8  C   UNL     1       4.477  -9.180   4.031  1.00  0.00     0.000 C 
BRANCH   8   9
ATOM      9  C   UNL     1       2.998  -9.455   4.344  1.00  0.00     0.000 C 
BRANCH   9  10
ATOM     10  C   UNL     1       2.096  -8.241   4.057  1.00  0.00     0.000 C 
BRANCH  10  11
ATOM     11  C   UNL     1       2.614  -7.387   2.880  1.00  0.00     0.000 C 
BRANCH  11  12
ATOM     12  C   UNL     1       2.172  -5.913   2.944  1.00  0.00     0.006 C 
BRANCH  12  13
ATOM     13  C   UNL     1       3.321  -4.920   3.173  1.00  0.00     0.053 C 
BRANCH  13  14
ATOM     14  C   UNL     1       2.899  -3.760   4.025  1.00  0.00     0.041 C 
ATOM     15  O   UNL     1       2.067  -2.922   3.587  1.00  0.00    -0.550 OA
ATOM     16  O   UNL     1       3.412  -3.612   5.307  1.00  0.00    -0.550 OA
ENDBRANCH  13  14
ENDBRANCH  12  13
ENDBRANCH  11  12
ENDBRANCH  10  11
ENDBRANCH   9  10
ENDBRANCH   8   9
ENDBRANCH   7   8
ENDBRANCH   6   7
ENDBRANCH   5   6
ENDBRANCH   4   5
ENDBRANCH   3   4
ENDBRANCH   2   3
ENDBRANCH   1   2
BRANCH   1  17
ATOM     17  C   UNL     1      10.306  -6.131   3.960  1.00  0.00     0.000 C 
BRANCH  17  18
ATOM     18  C   UNL     1      11.197  -6.761   2.876  1.00  0.00     0.000 C 
BRANCH  18  19
ATOM     19  C   UNL     1      12.651  -6.965   3.338  1.00  0.00     0.000 C 
BRANCH  19  20
ATOM     20  C   UNL     1      13.544  -5.707   3.282  1.00  0.00     0.000 C 
BRANCH  20  21
ATOM     21  C   UNL     1      14.814  -5.764   4.149  1.00  0.00     0.000 C 
BRANCH  21  22
ATOM     22  C   UNL     1      16.106  -5.710   3.320  1.00  0.00    -0.000 C 
BRANCH  22  23
ATOM     23  C   UNL     1      17.326  -5.458   4.217  1.00  0.00    -0.000 C 
BRANCH  23  24
ATOM     24  C   UNL     1      16.966  -5.427   5.711  1.00  0.00    -0.000 C 
BRANCH  24  25
ATOM     25  C   UNL     1      17.175  -6.784   6.402  1.00  0.00    -0.000 C 
BRANCH  25  26
ATOM     26  C   UNL     1      17.746  -7.818   5.420  1.00  0.00    -0.000 C 
BRANCH  26  27
ATOM     27  C   UNL     1      17.476  -9.266   5.859  1.00  0.00    -0.000 C 
BRANCH  27  28
ATOM     28  C   UNL     1      16.831 -10.110   4.748  1.00  0.00    -0.000 C 
BRANCH  28  29
ATOM     29  C   UNL     1      16.375  -9.261   3.552  1.00  0.00    -0.003 C 
ATOM     30  C   UNL     1      15.118  -9.811   2.878  1.00  0.00     0.004 C 
ENDBRANCH  28  29
ENDBRANCH  27  28
ENDBRANCH  26  27
ENDBRANCH  25  26
ENDBRANCH  24  25
ENDBRANCH  23  24
ENDBRANCH  22  23
ENDBRANCH  21  22
ENDBRANCH  20  21
ENDBRANCH  19  20
ENDBRANCH  18  19
ENDBRANCH  17  18
ENDBRANCH   1  17
TORSDOF 26
ENDMDL
MODEL 2
REMARK VINA RESULT:    -1.812      2.025      4.084
REMARK INTER + INTRA:          -6.916
REMARK INTER:                  -5.635
REMARK INTRA:                  -1.281
REMARK UNBOUND:                -2.349
REMARK SMILES CCCCCCCCCCCCCCCCCCCCCCCCCCCC(=O)[O-]
REMARK SMILES IDX 15 1 16 2 17 3 18 4 19 5 20 6 21 7 22 8 23 9 24 10 25 11
REMARK SMILES IDX 26 12 27 13 28 14 29 15 30 16 14 17 13 18 12 19 11 20 10 21
REMARK SMILES IDX 9 22 8 23 7 24 6 25 5 26 4 27 3 28 2 29 1 30
REMARK H PARENT
REMARK Flexibility Score: inf
ROOT
ATOM      1  C   UNL     1      11.637  -6.195   4.521  1.00  0.00     0.000 C 
ENDROOT
BRANCH   1   2
ATOM      2  C   UNL     1      11.148  -5.571   3.203  1.00  0.00     0.000 C 
BRANCH   2   3
ATOM      3  C   UNL     1       9.697  -5.977   2.877  1.00  0.00     0.000 C 
BRANCH   3   4
ATOM      4  C   UNL     1       8.634  -5.110   3.574  1.00  0.00     0.000 C 
BRANCH   4   5
ATOM      5  C   UNL     1       7.245  -5.145   2.899  1.00  0.00     0.000 C 
BRANCH   5   6
ATOM      6  C   UNL     1       6.212  -4.145   3.462  1.00  0.00     0.000 C 
BRANCH   6   7
ATOM      7  C   UNL     1       4.967  -4.773   4.117  1.00  0.00     0.000 C 
BRANCH   7   8
ATOM      8  C   UNL     1       4.325  -5.879   3.260  1.00  0.00     0.000 C 
BRANCH   8   9
ATOM      9  C   UNL     1       5.259  -7.081   3.048  1.00  0.00     0.000 C 
BRANCH   9  10
ATOM     10  C   UNL     1       4.494  -8.411   2.918  1.00  0.00     0.000 C 
BRANCH  10  11
ATOM     11  C   UNL     1       3.130  -8.378   3.639  1.00  0.00     0.000 C 
BRANCH  11  12
ATOM     12  C   UNL     1       3.206  -8.771   5.127  1.00  0.00     0.006 C 
BRANCH  12  13
ATOM     13  C   UNL     1       4.530  -9.435   5.536  1.00  0.00     0.053 C 
BRANCH  13  14
ATOM     14  C   UNL     1       5.468  -8.462   6.187  1.00  0.00     0.041 C 
ATOM     15  O   UNL     1       6.675  -8.414   5.833  1.00  0.00    -0.550 OA
ATOM     16  O   UNL     1       5.006  -7.601   7.173  1.00  0.00    -0.550 OA
ENDBRANCH  13  14
ENDBRANCH  12  13
ENDBRANCH  11  12
ENDBRANCH  10  11
ENDBRANCH   9  10
ENDBRANCH   8   9
ENDBRANCH   7   8
ENDBRANCH   6   7
ENDBRANCH   5   6
ENDBRANCH   4   5
ENDBRANCH   3   4
ENDBRANCH   2   3
ENDBRANCH   1   2
BRANCH   1  17
ATOM     17  C   UNL     1      12.082  -7.657   4.364  1.00  0.00     0.000 C 
BRANCH  17  18
ATOM     18  C   UNL     1      13.089  -7.846   3.217  1.00  0.00     0.000 C 
BRANCH  18  19
ATOM     19  C   UNL     1      13.404  -9.327   2.933  1.00  0.00     0.000 C 
BRANCH  19  20
ATOM     20  C   UNL     1      13.980 -10.120   4.125  1.00  0.00     0.000 C 
BRANCH  20  21
ATOM     21  C   UNL     1      15.490  -9.943   4.364  1.00  0.00     0.000 C 
BRANCH  21  22
ATOM     22  C   UNL     1      16.290  -9.804   3.061  1.00  0.00    -0.000 C 
BRANCH  22  23
ATOM     23  C   UNL     1      17.766  -9.496   3.351  1.00  0.00    -0.000 C 
BRANCH  23  24
ATOM     24  C   UNL     1      18.182  -8.095   2.877  1.00  0.00    -0.000 C 
BRANCH  24  25
ATOM     25  C   UNL     1      17.831  -6.996   3.893  1.00  0.00    -0.000 C 
BRANCH  25  26
ATOM     26  C   UNL     1      17.918  -5.604   3.247  1.00  0.00    -0.000 C 
BRANCH  26  27
ATOM     27  C   UNL     1      16.776  -4.674   3.688  1.00  0.00    -0.000 C 
BRANCH  27  28
ATOM     28  C   UNL     1      15.459  -5.429   3.932  1.00  0.00    -0.000 C 
BRANCH  28  29
ATOM     29  C   UNL     1      15.032  -5.408   5.409  1.00  0.00    -0.003 C 
ATOM     30  C   UNL     1      16.216  -5.293   6.368  1.00  0.00     0.004 C 
ENDBRANCH  28  29
ENDBRANCH  27  28
ENDBRANCH  26  27
ENDBRANCH  25  26
ENDBRANCH  24  25
ENDBRANCH  23  24
ENDBRANCH  22  23
ENDBRANCH  21  22
ENDBRANCH  20  21
ENDBRANCH  19  20
ENDBRANCH  18  19
ENDBRANCH  17  18
ENDBRANCH   1  17
TORSDOF 26
ENDMDL
MODEL 3
REMARK VINA RESULT:    -0.949      2.187      4.256
REMARK INTER + INTRA:          -4.740
REMARK INTER:                  -3.593
REMARK INTRA:                  -1.147
REMARK UNBOUND:                -2.349
REMARK SMILES CCCCCCCCCCCCCCCCCCCCCCCCCCCC(=O)[O-]
REMARK SMILES IDX 15 1 16 2 17 3 18 4 19 5 20 6 21 7 22 8 23 9 24 10 25 11
REMARK SMILES IDX 26 12 27 13 28 14 29 15 30 16 14 17 13 18 12 19 11 20 10 21
REMARK SMILES IDX 9 22 8 23 7 24 6 25 5 26 4 27 3 28 2 29 1 30
REMARK H PARENT
REMARK Flexibility Score: inf
ROOT
ATOM      1  C   UNL     1      12.403  -5.967   4.004  1.00  0.00     0.000 C 
ENDROOT
BRANCH   1   2
ATOM      2  C   UNL     1      10.920  -6.285   3.741  1.00  0.00     0.000 C 
BRANCH   2   3
ATOM      3  C   UNL     1      10.047  -5.014   3.768  1.00  0.00     0.000 C 
BRANCH   3   4
ATOM      4  C   UNL     1       8.598  -5.261   4.222  1.00  0.00     0.000 C 
BRANCH   4   5
ATOM      5  C   UNL     1       7.530  -4.832   3.192  1.00  0.00     0.000 C 
BRANCH   5   6
ATOM      6  C   UNL     1       6.260  -5.710   3.155  1.00  0.00     0.000 C 
BRANCH   6   7
ATOM      7  C   UNL     1       4.941  -4.962   2.880  1.00  0.00     0.000 C 
BRANCH   7   8
ATOM      8  C   UNL     1       4.143  -4.652   4.158  1.00  0.00     0.000 C 
BRANCH   8   9
ATOM      9  C   UNL     1       2.871  -5.506   4.284  1.00  0.00     0.000 C 
BRANCH   9  10
ATOM     10  C   UNL     1       2.942  -6.801   3.456  1.00  0.00     0.000 C 
BRANCH  10  11
ATOM     11  C   UNL     1       2.294  -8.000   4.182  1.00  0.00     0.000 C 
BRANCH  11  12
ATOM     12  C   UNL     1       3.238  -8.706   5.174  1.00  0.00     0.006 C 
BRANCH  12  13
ATOM     13  C   UNL     1       4.723  -8.362   4.985  1.00  0.00     0.053 C 
BRANCH  13  14
ATOM     14  C   UNL     1       5.447  -9.414   4.198  1.00  0.00     0.041 C 
ATOM     15  O   UNL     1       6.374 -10.078   4.732  1.00  0.00    -0.550 OA
ATOM     16  O   UNL     1       5.089  -9.670   2.881  1.00  0.00    -0.550 OA
ENDBRANCH  13  14
ENDBRANCH  12  13
ENDBRANCH  11  12
ENDBRANCH  10  11
ENDBRANCH   9  10
ENDBRANCH   8   9
ENDBRANCH   7   8
ENDBRANCH   6   7
ENDBRANCH   5   6
ENDBRANCH   4   5
ENDBRANCH   3   4
ENDBRANCH   2   3
ENDBRANCH   1   2
BRANCH   1  17
ATOM     17  C   UNL     1      13.235  -7.216   4.335  1.00  0.00     0.000 C 
BRANCH  17  18
ATOM     18  C   UNL     1      13.876  -7.844   3.085  1.00  0.00     0.000 C 
BRANCH  18  19
ATOM     19  C   UNL     1      13.869  -9.384   3.117  1.00  0.00     0.000 C 
BRANCH  19  20
ATOM     20  C   UNL     1      14.949 -10.030   4.010  1.00  0.00     0.000 C 
BRANCH  20  21
ATOM     21  C   UNL     1      16.380  -9.989   3.445  1.00  0.00     0.000 C 
BRANCH  21  22
ATOM     22  C   UNL     1      16.789  -8.592   2.955  1.00  0.00    -0.000 C 
BRANCH  22  23
ATOM     23  C   UNL     1      18.229  -8.262   3.376  1.00  0.00    -0.000 C 
BRANCH  23  24
ATOM     24  C   UNL     1      18.330  -7.827   4.847  1.00  0.00    -0.000 C 
BRANCH  24  25
ATOM     25  C   UNL     1      16.956  -7.576   5.488  1.00  0.00    -0.000 C 
BRANCH  25  26
ATOM     26  C   UNL     1      16.376  -6.228   5.034  1.00  0.00    -0.000 C 
BRANCH  26  27
ATOM     27  C   UNL     1      16.738  -5.076   5.985  1.00  0.00    -0.000 C 
BRANCH  27  28
ATOM     28  C   UNL     1      17.696  -4.059   5.344  1.00  0.00    -0.000 C 
BRANCH  28  29
ATOM     29  C   UNL     1      18.179  -4.500   3.953  1.00  0.00    -0.003 C 
ATOM     30  C   UNL     1      17.931  -3.445   2.875  1.00  0.00     0.004 C 
ENDBRANCH  28  29
ENDBRANCH  27  28
ENDBRANCH  26  27
ENDBRANCH  25  26
ENDBRANCH  24  25
ENDBRANCH  23  24
ENDBRANCH  22  23
ENDBRANCH  21  22
ENDBRANCH  20  21
ENDBRANCH  19  20
ENDBRANCH  18  19
ENDBRANCH  17  18
ENDBRANCH   1  17
TORSDOF 26
ENDMDL
MODEL 4
REMARK VINA RESULT:    -0.793      3.772     11.097
REMARK INTER + INTRA:          -4.349
REMARK INTER:                  -3.390
REMARK INTRA:                  -0.958
REMARK UNBOUND:                -2.349
REMARK SMILES CCCCCCCCCCCCCCCCCCCCCCCCCCCC(=O)[O-]
REMARK SMILES IDX 15 1 16 2 17 3 18 4 19 5 20 6 21 7 22 8 23 9 24 10 25 11
REMARK SMILES IDX 26 12 27 13 28 14 29 15 30 16 14 17 13 18 12 19 11 20 10 21
REMARK SMILES IDX 9 22 8 23 7 24 6 25 5 26 4 27 3 28 2 29 1 30
REMARK H PARENT
REMARK Flexibility Score: inf
ROOT
ATOM      1  C   UNL     1      12.129  -5.736   5.924  1.00  0.00     0.000 C 
ENDROOT
BRANCH   1   2
ATOM      2  C   UNL     1      13.509  -5.447   5.306  1.00  0.00     0.000 C 
BRANCH   2   3
ATOM      3  C   UNL     1      13.411  -5.158   3.794  1.00  0.00     0.000 C 
BRANCH   3   4
ATOM      4  C   UNL     1      14.765  -5.191   3.064  1.00  0.00     0.000 C 
BRANCH   4   5
ATOM      5  C   UNL     1      15.348  -6.609   2.876  1.00  0.00     0.000 C 
BRANCH   5   6
ATOM      6  C   UNL     1      14.315  -7.756   2.899  1.00  0.00     0.000 C 
BRANCH   6   7
ATOM      7  C   UNL     1      14.185  -8.508   4.238  1.00  0.00     0.000 C 
BRANCH   7   8
ATOM      8  C   UNL     1      14.635  -9.977   4.153  1.00  0.00     0.000 C 
BRANCH   8   9
ATOM      9  C   UNL     1      16.093 -10.124   3.690  1.00  0.00     0.000 C 
BRANCH   9  10
ATOM     10  C   UNL     1      17.104  -9.864   4.821  1.00  0.00     0.000 C 
BRANCH  10  11
ATOM     11  C   UNL     1      18.101  -8.738   4.472  1.00  0.00     0.000 C 
BRANCH  11  12
ATOM     12  C   UNL     1      17.524  -7.321   4.659  1.00  0.00     0.006 C 
BRANCH  12  13
ATOM     13  C   UNL     1      17.079  -7.007   6.096  1.00  0.00     0.053 C 
BRANCH  13  14
ATOM     14  C   UNL     1      16.734  -5.558   6.272  1.00  0.00     0.041 C 
ATOM     15  O   UNL     1      15.780  -5.222   7.022  1.00  0.00    -0.550 OA
ATOM     16  O   UNL     1      17.474  -4.580   5.621  1.00  0.00    -0.550 OA
ENDBRANCH  13  14
ENDBRANCH  12  13
ENDBRANCH  11  12
ENDBRANCH  10  11
ENDBRANCH   9  10
ENDBRANCH   8   9
ENDBRANCH   7   8
ENDBRANCH   6   7
ENDBRANCH   5   6
ENDBRANCH   4   5
ENDBRANCH   3   4
ENDBRANCH   2   3
ENDBRANCH   1   2
BRANCH   1  17
ATOM     17  C   UNL     1      11.129  -6.319   4.914  1.00  0.00     0.000 C 
BRANCH  17  18
ATOM     18  C   UNL     1      10.481  -5.236   4.034  1.00  0.00     0.000 C 
BRANCH  18  19
ATOM     19  C   UNL     1       8.944  -5.327   4.006  1.00  0.00     0.000 C 
BRANCH  19  20
ATOM     20  C   UNL     1       8.357  -6.250   2.917  1.00  0.00     0.000 C 
BRANCH  20  21
ATOM     21  C   UNL     1       7.668  -7.524   3.437  1.00  0.00     0.000 C 
BRANCH  21  22
ATOM     22  C   UNL     1       6.224  -7.671   2.934  1.00  0.00    -0.000 C 
BRANCH  22  23
ATOM     23  C   UNL     1       5.383  -6.443   3.310  1.00  0.00    -0.000 C 
BRANCH  23  24
ATOM     24  C   UNL     1       4.695  -6.593   4.676  1.00  0.00    -0.000 C 
BRANCH  24  25
ATOM     25  C   UNL     1       5.675  -6.982   5.795  1.00  0.00    -0.000 C 
BRANCH  25  26
ATOM     26  C   UNL     1       5.515  -8.462   6.175  1.00  0.00    -0.000 C 
BRANCH  26  27
ATOM     27  C   UNL     1       4.074  -8.968   5.998  1.00  0.00    -0.000 C 
BRANCH  27  28
ATOM     28  C   UNL     1       3.922  -9.914   4.796  1.00  0.00    -0.000 C 
BRANCH  28  29
ATOM     29  C   UNL     1       2.551  -9.786   4.114  1.00  0.00    -0.003 C 
ATOM     30  C   UNL     1       2.566  -8.831   2.921  1.00  0.00     0.004 C 
ENDBRANCH  28  29
ENDBRANCH  27  28
ENDBRANCH  26  27
ENDBRANCH  25  26
ENDBRANCH  24  25
ENDBRANCH  23  24
ENDBRANCH  22  23
ENDBRANCH  21  22
ENDBRANCH  20  21
ENDBRANCH  19  20
ENDBRANCH  18  19
ENDBRANCH  17  18
ENDBRANCH   1  17
TORSDOF 26
ENDMDL
MODEL 5
REMARK VINA RESULT:    -0.693      1.824      4.300
REMARK INTER + INTRA:          -4.097
REMARK INTER:                  -3.760
REMARK INTRA:                  -0.336
REMARK UNBOUND:                -2.349
REMARK SMILES CCCCCCCCCCCCCCCCCCCCCCCCCCCC(=O)[O-]
REMARK SMILES IDX 15 1 16 2 17 3 18 4 19 5 20 6 21 7 22 8 23 9 24 10 25 11
REMARK SMILES IDX 26 12 27 13 28 14 29 15 30 16 14 17 13 18 12 19 11 20 10 21
REMARK SMILES IDX 9 22 8 23 7 24 6 25 5 26 4 27 3 28 2 29 1 30
REMARK H PARENT
REMARK Flexibility Score: inf
ROOT
ATOM      1  C   UNL     1      12.594  -7.732   4.641  1.00  0.00     0.000 C 
ENDROOT
BRANCH   1   2
ATOM      2  C   UNL     1      12.540  -6.534   3.676  1.00  0.00     0.000 C 
BRANCH   2   3
ATOM      3  C   UNL     1      11.346  -5.607   3.979  1.00  0.00     0.000 C 
BRANCH   3   4
ATOM      4  C   UNL     1      10.210  -5.693   2.945  1.00  0.00     0.000 C 
BRANCH   4   5
ATOM      5  C   UNL     1       8.939  -4.906   3.332  1.00  0.00     0.000 C 
BRANCH   5   6
ATOM      6  C   UNL     1       7.606  -5.538   2.875  1.00  0.00     0.000 C 
BRANCH   6   7
ATOM      7  C   UNL     1       6.477  -5.544   3.924  1.00  0.00     0.000 C 
BRANCH   7   8
ATOM      8  C   UNL     1       6.442  -6.830   4.768  1.00  0.00     0.000 C 
BRANCH   8   9
ATOM      9  C   UNL     1       5.614  -6.673   6.053  1.00  0.00     0.000 C 
BRANCH   9  10
ATOM     10  C   UNL     1       5.386  -8.011   6.778  1.00  0.00     0.000 C 
BRANCH  10  11
ATOM     11  C   UNL     1       4.213  -8.815   6.176  1.00  0.00     0.000 C 
BRANCH  11  12
ATOM     12  C   UNL     1       4.653  -9.864   5.136  1.00  0.00     0.006 C 
BRANCH  12  13
ATOM     13  C   UNL     1       4.280  -9.510   3.688  1.00  0.00     0.053 C 
BRANCH  13  14
ATOM     14  C   UNL     1       3.233  -8.438   3.624  1.00  0.00     0.041 C 
ATOM     15  O   UNL     1       3.545  -7.269   3.272  1.00  0.00    -0.550 OA
ATOM     16  O   UNL     1       1.913  -8.732   3.938  1.00  0.00    -0.550 OA
ENDBRANCH  13  14
ENDBRANCH  12  13
ENDBRANCH  11  12
ENDBRANCH  10  11
ENDBRANCH   9  10
ENDBRANCH   8   9
ENDBRANCH   7   8
ENDBRANCH   6   7
ENDBRANCH   5   6
ENDBRANCH   4   5
ENDBRANCH   3   4
ENDBRANCH   2   3
ENDBRANCH   1   2
BRANCH   1  17
ATOM     17  C   UNL     1      12.146  -9.049   3.989  1.00  0.00     0.000 C 
BRANCH  17  18
ATOM     18  C   UNL     1      13.179  -9.593   2.988  1.00  0.00     0.000 C 
BRANCH  18  19
ATOM     19  C   UNL     1      14.596  -9.039   3.227  1.00  0.00     0.000 C 
BRANCH  19  20
ATOM     20  C   UNL     1      15.717 -10.097   3.282  1.00  0.00     0.000 C 
BRANCH  20  21
ATOM     21  C   UNL     1      17.116  -9.594   2.882  1.00  0.00     0.000 C 
BRANCH  21  22
ATOM     22  C   UNL     1      18.001  -9.263   4.093  1.00  0.00    -0.000 C 
BRANCH  22  23
ATOM     23  C   UNL     1      17.158  -9.116   5.368  1.00  0.00    -0.000 C 
BRANCH  23  24
ATOM     24  C   UNL     1      17.489  -7.837   6.152  1.00  0.00    -0.000 C 
BRANCH  24  25
ATOM     25  C   UNL     1      17.585  -6.595   5.252  1.00  0.00    -0.000 C 
BRANCH  25  26
ATOM     26  C   UNL     1      16.300  -5.756   5.336  1.00  0.00    -0.000 C 
BRANCH  26  27
ATOM     27  C   UNL     1      15.518  -5.735   4.012  1.00  0.00    -0.000 C 
BRANCH  27  28
ATOM     28  C   UNL     1      16.299  -5.056   2.875  1.00  0.00    -0.000 C 
BRANCH  28  29
ATOM     29  C   UNL     1      17.806  -4.971   3.163  1.00  0.00    -0.003 C 
ATOM     30  C   UNL     1      18.225  -3.621   3.745  1.00  0.00     0.004 C 
ENDBRANCH  28  29
ENDBRANCH  27  28
ENDBRANCH  26  27
ENDBRANCH  25  26
ENDBRANCH  24  25
ENDBRANCH  23  24
ENDBRANCH  22  23
ENDBRANCH  21  22
ENDBRANCH  20  21
ENDBRANCH  19  20
ENDBRANCH  18  19
ENDBRANCH  17  18
ENDBRANCH   1  17
TORSDOF 26
ENDMDL
MODEL 6
REMARK VINA RESULT:    -0.272      3.662     11.563
REMARK INTER + INTRA:          -3.034
REMARK INTER:                  -3.825
REMARK INTRA:                   0.791
REMARK UNBOUND:                -2.349
REMARK SMILES CCCCCCCCCCCCCCCCCCCCCCCCCCCC(=O)[O-]
REMARK SMILES IDX 15 1 16 2 17 3 18 4 19 5 20 6 21 7 22 8 23 9 24 10 25 11
REMARK SMILES IDX 26 12 27 13 28 14 29 15 30 16 14 17 13 18 12 19 11 20 10 21
REMARK SMILES IDX 9 22 8 23 7 24 6 25 5 26 4 27 3 28 2 29 1 30
REMARK H PARENT
REMARK Flexibility Score: inf
ROOT
ATOM      1  C   UNL     1       9.010  -5.767   5.439  1.00  0.00     0.000 C 
ENDROOT
BRANCH   1   2
ATOM      2  C   UNL     1       9.624  -5.207   4.144  1.00  0.00     0.000 C 
BRANCH   2   3
ATOM      3  C   UNL     1      10.589  -6.214   3.484  1.00  0.00     0.000 C 
BRANCH   3   4
ATOM      4  C   UNL     1      12.063  -5.775   3.511  1.00  0.00     0.000 C 
BRANCH   4   5
ATOM      5  C   UNL     1      13.058  -6.917   3.816  1.00  0.00     0.000 C 
BRANCH   5   6
ATOM      6  C   UNL     1      12.912  -8.173   2.930  1.00  0.00     0.000 C 
BRANCH   6   7
ATOM      7  C   UNL     1      13.404  -9.491   3.559  1.00  0.00     0.000 C 
BRANCH   7   8
ATOM      8  C   UNL     1      14.865  -9.425   4.038  1.00  0.00     0.000 C 
BRANCH   8   9
ATOM      9  C   UNL     1      15.866  -9.335   2.875  1.00  0.00     0.000 C 
BRANCH   9  10
ATOM     10  C   UNL     1      17.329  -9.442   3.343  1.00  0.00     0.000 C 
BRANCH  10  11
ATOM     11  C   UNL     1      18.152  -8.183   2.995  1.00  0.00     0.000 C 
BRANCH  11  12
ATOM     12  C   UNL     1      17.314  -6.891   2.943  1.00  0.00     0.006 C 
BRANCH  12  13
ATOM     13  C   UNL     1      17.700  -5.846   4.001  1.00  0.00     0.053 C 
BRANCH  13  14
ATOM     14  C   UNL     1      16.844  -5.948   5.228  1.00  0.00     0.041 C 
ATOM     15  O   UNL     1      15.870  -5.166   5.386  1.00  0.00    -0.550 OA
ATOM     16  O   UNL     1      17.113  -6.913   6.189  1.00  0.00    -0.550 OA
ENDBRANCH  13  14
ENDBRANCH  12  13
ENDBRANCH  11  12
ENDBRANCH  10  11
ENDBRANCH   9  10
ENDBRANCH   8   9
ENDBRANCH   7   8
ENDBRANCH   6   7
ENDBRANCH   5   6
ENDBRANCH   4   5
ENDBRANCH   3   4
ENDBRANCH   2   3
ENDBRANCH   1   2
BRANCH   1  17
ATOM     17  C   UNL     1       7.508  -5.473   5.567  1.00  0.00     0.000 C 
BRANCH  17  18
ATOM     18  C   UNL     1       6.635  -6.580   4.950  1.00  0.00     0.000 C 
BRANCH  18  19
ATOM     19  C   UNL     1       7.385  -7.419   3.899  1.00  0.00     0.000 C 
BRANCH  19  20
ATOM     20  C   UNL     1       6.489  -8.152   2.879  1.00  0.00     0.000 C 
BRANCH  20  21
ATOM     21  C   UNL     1       5.636  -9.295   3.454  1.00  0.00     0.000 C 
BRANCH  21  22
ATOM     22  C   UNL     1       6.136  -9.784   4.822  1.00  0.00    -0.000 C 
BRANCH  22  23
ATOM     23  C   UNL     1       5.415  -9.054   5.965  1.00  0.00    -0.000 C 
BRANCH  23  24
ATOM     24  C   UNL     1       3.926  -8.816   5.668  1.00  0.00    -0.000 C 
BRANCH  24  25
ATOM     25  C   UNL     1       3.495  -9.373   4.302  1.00  0.00    -0.000 C 
BRANCH  25  26
ATOM     26  C   UNL     1       2.108  -8.845   3.906  1.00  0.00    -0.000 C 
BRANCH  26  27
ATOM     27  C   UNL     1       2.181  -7.638   2.957  1.00  0.00    -0.000 C 
BRANCH  27  28
ATOM     28  C   UNL     1       2.863  -6.420   3.601  1.00  0.00    -0.000 C 
BRANCH  28  29
ATOM     29  C   UNL     1       1.973  -5.168   3.585  1.00  0.00    -0.003 C 
ATOM     30  C   UNL     1       2.773  -3.868   3.642  1.00  0.00     0.004 C 
ENDBRANCH  28  29
ENDBRANCH  27  28
ENDBRANCH  26  27
ENDBRANCH  25  26
ENDBRANCH  24  25
ENDBRANCH  23  24
ENDBRANCH  22  23
ENDBRANCH  21  22
ENDBRANCH  20  21
ENDBRANCH  19  20
ENDBRANCH  18  19
ENDBRANCH  17  18
ENDBRANCH   1  17
TORSDOF 26
ENDMDL
MODEL 7
REMARK VINA RESULT:    -0.240      4.061     11.317
REMARK INTER + INTRA:          -2.953
REMARK INTER:                  -3.114
REMARK INTRA:                   0.161
REMARK UNBOUND:                -2.349
REMARK SMILES CCCCCCCCCCCCCCCCCCCCCCCCCCCC(=O)[O-]
REMARK SMILES IDX 15 1 16 2 17 3 18 4 19 5 20 6 21 7 22 8 23 9 24 10 25 11
REMARK SMILES IDX 26 12 27 13 28 14 29 15 30 16 14 17 13 18 12 19 11 20 10 21
REMARK SMILES IDX 9 22 8 23 7 24 6 25 5 26 4 27 3 28 2 29 1 30
REMARK H PARENT
REMARK Flexibility Score: inf
ROOT
ATOM      1  C   UNL     1      12.778  -5.692   6.573  1.00  0.00     0.000 C 
ENDROOT
BRANCH   1   2
ATOM      2  C   UNL     1      13.955  -5.366   5.639  1.00  0.00     0.000 C 
BRANCH   2   3
ATOM      3  C   UNL     1      13.477  -4.992   4.221  1.00  0.00     0.000 C 
BRANCH   3   4
ATOM      4  C   UNL     1      14.505  -5.290   3.116  1.00  0.00     0.000 C 
BRANCH   4   5
ATOM      5  C   UNL     1      14.760  -6.795   2.877  1.00  0.00     0.000 C 
BRANCH   5   6
ATOM      6  C   UNL     1      13.504  -7.693   2.926  1.00  0.00     0.000 C 
BRANCH   6   7
ATOM      7  C   UNL     1      13.586  -8.899   3.882  1.00  0.00     0.000 C 
BRANCH   7   8
ATOM      8  C   UNL     1      14.270 -10.125   3.251  1.00  0.00     0.000 C 
BRANCH   8   9
ATOM      9  C   UNL     1      15.796  -9.969   3.158  1.00  0.00     0.000 C 
BRANCH   9  10
ATOM     10  C   UNL     1      16.466  -9.861   4.540  1.00  0.00     0.000 C 
BRANCH  10  11
ATOM     11  C   UNL     1      17.675  -8.901   4.534  1.00  0.00     0.000 C 
BRANCH  11  12
ATOM     12  C   UNL     1      17.687  -7.913   5.716  1.00  0.00     0.006 C 
BRANCH  12  13
ATOM     13  C   UNL     1      16.815  -6.666   5.505  1.00  0.00     0.053 C 
BRANCH  13  14
ATOM     14  C   UNL     1      17.520  -5.618   4.697  1.00  0.00     0.041 C 
ATOM     15  O   UNL     1      17.901  -5.873   3.524  1.00  0.00    -0.550 OA
ATOM     16  O   UNL     1      17.745  -4.357   5.234  1.00  0.00    -0.550 OA
ENDBRANCH  13  14
ENDBRANCH  12  13
ENDBRANCH  11  12
ENDBRANCH  10  11
ENDBRANCH   9  10
ENDBRANCH   8   9
ENDBRANCH   7   8
ENDBRANCH   6   7
ENDBRANCH   5   6
ENDBRANCH   4   5
ENDBRANCH   3   4
ENDBRANCH   2   3
ENDBRANCH   1   2
BRANCH   1  17
ATOM     17  C   UNL     1      11.675  -6.513   5.886  1.00  0.00     0.000 C 
BRANCH  17  18
ATOM     18  C   UNL     1      11.024  -5.760   4.714  1.00  0.00     0.000 C 
BRANCH  18  19
ATOM     19  C   UNL     1       9.485  -5.785   4.765  1.00  0.00     0.000 C 
BRANCH  19  20
ATOM     20  C   UNL     1       8.781  -5.944   3.401  1.00  0.00     0.000 C 
BRANCH  20  21
ATOM     21  C   UNL     1       8.201  -7.341   3.119  1.00  0.00     0.000 C 
BRANCH  21  22
ATOM     22  C   UNL     1       6.702  -7.441   3.438  1.00  0.00    -0.000 C 
BRANCH  22  23
ATOM     23  C   UNL     1       6.456  -7.364   4.952  1.00  0.00    -0.000 C 
BRANCH  23  24
ATOM     24  C   UNL     1       5.763  -8.620   5.504  1.00  0.00    -0.000 C 
BRANCH  24  25
ATOM     25  C   UNL     1       4.388  -8.869   4.864  1.00  0.00    -0.000 C 
BRANCH  25  26
ATOM     26  C   UNL     1       4.134  -7.888   3.709  1.00  0.00    -0.000 C 
BRANCH  26  27
ATOM     27  C   UNL     1       2.873  -7.035   3.922  1.00  0.00    -0.000 C 
BRANCH  27  28
ATOM     28  C   UNL     1       2.932  -5.694   3.171  1.00  0.00    -0.000 C 
BRANCH  28  29
ATOM     29  C   UNL     1       2.561  -4.501   4.065  1.00  0.00    -0.003 C 
ATOM     30  C   UNL     1       3.716  -4.040   4.953  1.00  0.00     0.004 C 
ENDBRANCH  28  29
ENDBRANCH  27  28
ENDBRANCH  26  27
ENDBRANCH  25  26
ENDBRANCH  24  25
ENDBRANCH  23  24
ENDBRANCH  22  23
ENDBRANCH  21  22
ENDBRANCH  20  21
ENDBRANCH  19  20
ENDBRANCH  18  19
ENDBRANCH  17  18
ENDBRANCH   1  17
TORSDOF 26
ENDMDL
MODEL 8
REMARK VINA RESULT:    -0.154      4.277     11.851
REMARK INTER + INTRA:          -2.737
REMARK INTER:                  -0.645
REMARK INTRA:                  -2.092
REMARK UNBOUND:                -2.349
REMARK SMILES CCCCCCCCCCCCCCCCCCCCCCCCCCCC(=O)[O-]
REMARK SMILES IDX 15 1 16 2 17 3 18 4 19 5 20 6 21 7 22 8 23 9 24 10 25 11
REMARK SMILES IDX 26 12 27 13 28 14 29 15 30 16 14 17 13 18 12 19 11 20 10 21
REMARK SMILES IDX 9 22 8 23 7 24 6 25 5 26 4 27 3 28 2 29 1 30
REMARK H PARENT
REMARK Flexibility Score: inf
ROOT
ATOM      1  C   UNL     1      13.727  -5.998   5.935  1.00  0.00     0.000 C 
ENDROOT
BRANCH   1   2
ATOM      2  C   UNL     1      14.850  -5.032   6.353  1.00  0.00     0.000 C 
BRANCH   2   3
ATOM      3  C   UNL     1      16.219  -5.739   6.424  1.00  0.00     0.000 C 
BRANCH   3   4
ATOM      4  C   UNL     1      17.418  -4.801   6.207  1.00  0.00     0.000 C 
BRANCH   4   5
ATOM      5  C   UNL     1      17.262  -3.840   5.007  1.00  0.00     0.000 C 
BRANCH   5   6
ATOM      6  C   UNL     1      18.578  -3.443   4.303  1.00  0.00     0.000 C 
BRANCH   6   7
ATOM      7  C   UNL     1      18.778  -4.025   2.891  1.00  0.00     0.000 C 
BRANCH   7   8
ATOM      8  C   UNL     1      19.653  -5.291   2.876  1.00  0.00     0.000 C 
BRANCH   8   9
ATOM      9  C   UNL     1      18.872  -6.555   3.266  1.00  0.00     0.000 C 
BRANCH   9  10
ATOM     10  C   UNL     1      17.383  -6.476   2.882  1.00  0.00     0.000 C 
BRANCH  10  11
ATOM     11  C   UNL     1      16.473  -7.196   3.899  1.00  0.00     0.000 C 
BRANCH  11  12
ATOM     12  C   UNL     1      15.369  -8.049   3.246  1.00  0.00     0.006 C 
BRANCH  12  13
ATOM     13  C   UNL     1      15.374  -9.524   3.677  1.00  0.00     0.053 C 
BRANCH  13  14
ATOM     14  C   UNL     1      16.686  -9.928   4.280  1.00  0.00     0.041 C 
ATOM     15  O   UNL     1      16.783 -10.103   5.523  1.00  0.00    -0.550 OA
ATOM     16  O   UNL     1      17.796 -10.124   3.470  1.00  0.00    -0.550 OA
ENDBRANCH  13  14
ENDBRANCH  12  13
ENDBRANCH  11  12
ENDBRANCH  10  11
ENDBRANCH   9  10
ENDBRANCH   8   9
ENDBRANCH   7   8
ENDBRANCH   6   7
ENDBRANCH   5   6
ENDBRANCH   4   5
ENDBRANCH   3   4
ENDBRANCH   2   3
ENDBRANCH   1   2
BRANCH   1  17
ATOM     17  C   UNL     1      13.007  -5.561   4.650  1.00  0.00     0.000 C 
BRANCH  17  18
ATOM     18  C   UNL     1      12.031  -6.630   4.129  1.00  0.00     0.000 C 
BRANCH  18  19
ATOM     19  C   UNL     1      11.202  -6.149   2.923  1.00  0.00     0.000 C 
BRANCH  19  20
ATOM     20  C   UNL     1       9.671  -6.222   3.104  1.00  0.00     0.000 C 
BRANCH  20  21
ATOM     21  C   UNL     1       9.162  -5.927   4.526  1.00  0.00     0.000 C 
BRANCH  21  22
ATOM     22  C   UNL     1       7.857  -5.117   4.537  1.00  0.00    -0.000 C 
BRANCH  22  23
ATOM     23  C   UNL     1       7.335  -4.895   3.110  1.00  0.00    -0.000 C 
BRANCH  23  24
ATOM     24  C   UNL     1       5.804  -4.996   3.018  1.00  0.00    -0.000 C 
BRANCH  24  25
ATOM     25  C   UNL     1       5.171  -5.593   4.285  1.00  0.00    -0.000 C 
BRANCH  25  26
ATOM     26  C   UNL     1       3.649  -5.731   4.125  1.00  0.00    -0.000 C 
BRANCH  26  27
ATOM     27  C   UNL     1       3.169  -7.186   4.247  1.00  0.00    -0.000 C 
BRANCH  27  28
ATOM     28  C   UNL     1       4.330  -8.194   4.241  1.00  0.00    -0.000 C 
BRANCH  28  29
ATOM     29  C   UNL     1       4.407  -9.012   5.540  1.00  0.00    -0.003 C 
ATOM     30  C   UNL     1       5.551  -8.572   6.453  1.00  0.00     0.004 C 
ENDBRANCH  28  29
ENDBRANCH  27  28
ENDBRANCH  26  27
ENDBRANCH  25  26
ENDBRANCH  24  25
ENDBRANCH  23  24
ENDBRANCH  22  23
ENDBRANCH  21  22
ENDBRANCH  20  21
ENDBRANCH  19  20
ENDBRANCH  18  19
ENDBRANCH  17  18
ENDBRANCH   1  17
TORSDOF 26
ENDMDL
