MODEL 1
REMARK VINA RESULT:    -7.348      0.000      0.000
REMARK INTER + INTRA:          -9.148
REMARK INTER:                  -8.852
REMARK INTRA:                  -0.296
REMARK UNBOUND:                -0.296
REMARK SMILES O=c1c(O)c(-c2ccc(O)c(O)c2)oc2cc(O)cc(O)c12
REMARK SMILES IDX 5 1 3 2 2 3 1 4 22 5 20 6 19 7 17 8 16 9 15 10 14 11 6 12
REMARK SMILES IDX 7 13 8 14 9 15 13 16 11 17 10 18 12 20 4 22 21 24 18 26
REMARK H PARENT 10 19 12 21 4 23 21 25 18 27
REMARK Flexibility Score: inf
ROOT
ATOM      1  C   UNL     1       8.510   4.791   6.319  1.00  0.00     0.180 A 
ATOM      2  C   UNL     1       9.159   5.139   7.517  1.00  0.00     0.208 A 
ATOM      3  C   UNL     1       8.854   4.426   8.687  1.00  0.00     0.238 A 
ATOM      4  O   UNL     1       9.477   4.706   9.744  1.00  0.00    -0.285 OA
ATOM      5  C   UNL     1       7.895   3.385   8.649  1.00  0.00     0.111 A 
ATOM      6  C   UNL     1       7.480   2.623   9.783  1.00  0.00     0.134 A 
ATOM      7  C   UNL     1       6.622   1.531   9.604  1.00  0.00     0.093 A 
ATOM      8  C   UNL     1       6.111   1.214   8.343  1.00  0.00     0.123 A 
ATOM      9  C   UNL     1       6.465   1.988   7.240  1.00  0.00     0.094 A 
ATOM     10  C   UNL     1       7.348   3.062   7.380  1.00  0.00     0.146 A 
ATOM     11  O   UNL     1       7.665   3.768   6.301  1.00  0.00    -0.452 OA
ENDROOT
BRANCH   1  12
ATOM     12  C   UNL     1       8.760   5.513   5.050  1.00  0.00     0.025 A 
ATOM     13  C   UNL     1       9.881   5.180   4.274  1.00  0.00     0.016 A 
ATOM     14  C   UNL     1      10.123   5.834   3.064  1.00  0.00     0.051 A 
ATOM     15  C   UNL     1       9.243   6.817   2.602  1.00  0.00     0.157 A 
ATOM     16  C   UNL     1       7.864   6.488   4.574  1.00  0.00     0.062 A 
ATOM     17  C   UNL     1       8.105   7.143   3.358  1.00  0.00     0.158 A 
BRANCH  15  18
ATOM     18  O   UNL     1       9.513   7.455   1.391  1.00  0.00    -0.504 OA
ATOM     19  H   UNL     1       9.394   6.989   0.500  1.00  0.00     0.293 HD
ENDBRANCH  15  18
BRANCH  17  20
ATOM     20  O   UNL     1       7.215   8.113   2.896  1.00  0.00    -0.504 OA
ATOM     21  H   UNL     1       6.850   8.833   3.510  1.00  0.00     0.293 HD
ENDBRANCH  17  20
ENDBRANCH   1  12
BRANCH   2  22
ATOM     22  O   UNL     1      10.118   6.155   7.527  1.00  0.00    -0.502 OA
ATOM     23  H   UNL     1      11.080   5.993   7.803  1.00  0.00     0.293 HD
ENDBRANCH   2  22
BRANCH   6  24
ATOM     24  O   UNL     1       7.858   2.912  11.097  1.00  0.00    -0.507 OA
ATOM     25  H   UNL     1       7.325   2.664  11.917  1.00  0.00     0.293 HD
ENDBRANCH   6  24
BRANCH   8  26
ATOM     26  O   UNL     1       5.246   0.136   8.176  1.00  0.00    -0.508 OA
ATOM     27  H   UNL     1       5.231  -0.404   7.320  1.00  0.00     0.293 HD
ENDBRANCH   8  26
TORSDOF 6
ENDMDL
MODEL 2
REMARK VINA RESULT:    -6.965     16.082     18.511
REMARK INTER + INTRA:          -8.686
REMARK INTER:                  -8.383
REMARK INTRA:                  -0.304
REMARK UNBOUND:                -0.296
REMARK SMILES O=c1c(O)c(-c2ccc(O)c(O)c2)oc2cc(O)cc(O)c12
REMARK SMILES IDX 5 1 3 2 2 3 1 4 22 5 20 6 19 7 17 8 16 9 15 10 14 11 6 12
REMARK SMILES IDX 7 13 8 14 9 15 13 16 11 17 10 18 12 20 4 22 21 24 18 26
REMARK H PARENT 10 19 12 21 4 23 21 25 18 27
REMARK Flexibility Score: inf
ROOT
ATOM      1  C   UNL     1      -6.793  -5.451   3.857  1.00  0.00     0.180 A 
ATOM      2  C   UNL     1      -5.390  -5.381   3.813  1.00  0.00     0.208 A 
ATOM      3  C   UNL     1      -4.673  -5.329   5.019  1.00  0.00     0.238 A 
ATOM      4  O   UNL     1      -3.415  -5.321   4.974  1.00  0.00    -0.285 OA
ATOM      5  C   UNL     1      -5.367  -5.333   6.253  1.00  0.00     0.111 A 
ATOM      6  C   UNL     1      -4.744  -5.245   7.534  1.00  0.00     0.134 A 
ATOM      7  C   UNL     1      -5.520  -5.391   8.691  1.00  0.00     0.093 A 
ATOM      8  C   UNL     1      -6.906  -5.555   8.613  1.00  0.00     0.123 A 
ATOM      9  C   UNL     1      -7.530  -5.584   7.368  1.00  0.00     0.094 A 
ATOM     10  C   UNL     1      -6.778  -5.478   6.195  1.00  0.00     0.146 A 
ATOM     11  O   UNL     1      -7.412  -5.519   5.030  1.00  0.00    -0.452 OA
ENDROOT
BRANCH   1  12
ATOM     12  C   UNL     1      -7.619  -5.482   2.628  1.00  0.00     0.025 A 
ATOM     13  C   UNL     1      -7.902  -4.283   1.954  1.00  0.00     0.016 A 
ATOM     14  C   UNL     1      -8.663  -4.294   0.783  1.00  0.00     0.051 A 
ATOM     15  C   UNL     1      -9.138  -5.499   0.258  1.00  0.00     0.157 A 
ATOM     16  C   UNL     1      -8.081  -6.696   2.088  1.00  0.00     0.062 A 
ATOM     17  C   UNL     1      -8.843  -6.707   0.910  1.00  0.00     0.158 A 
BRANCH  15  18
ATOM     18  O   UNL     1      -9.897  -5.476  -0.912  1.00  0.00    -0.504 OA
ATOM     19  H   UNL     1      -9.495  -5.687  -1.818  1.00  0.00     0.293 HD
ENDBRANCH  15  18
BRANCH  17  20
ATOM     20  O   UNL     1      -9.302  -7.914   0.384  1.00  0.00    -0.504 OA
ATOM     21  H   UNL     1      -8.854  -8.796   0.608  1.00  0.00     0.293 HD
ENDBRANCH  17  20
ENDBRANCH   1  12
BRANCH   2  22
ATOM     22  O   UNL     1      -4.723  -5.400   2.585  1.00  0.00    -0.502 OA
ATOM     23  H   UNL     1      -3.858  -5.908   2.443  1.00  0.00     0.293 HD
ENDBRANCH   2  22
BRANCH   6  24
ATOM     24  O   UNL     1      -3.383  -4.990   7.723  1.00  0.00    -0.507 OA
ATOM     25  H   UNL     1      -2.651  -5.275   7.091  1.00  0.00     0.293 HD
ENDBRANCH   6  24
BRANCH   8  26
ATOM     26  O   UNL     1      -7.672  -5.683   9.769  1.00  0.00    -0.508 OA
ATOM     27  H   UNL     1      -7.666  -6.535  10.317  1.00  0.00     0.293 HD
ENDBRANCH   8  26
TORSDOF 6
ENDMDL
MODEL 3
REMARK VINA RESULT:    -6.867     16.891     18.339
REMARK INTER + INTRA:          -8.568
REMARK INTER:                  -8.412
REMARK INTRA:                  -0.156
REMARK UNBOUND:                -0.296
REMARK SMILES O=c1c(O)c(-c2ccc(O)c(O)c2)oc2cc(O)cc(O)c12
REMARK SMILES IDX 5 1 3 2 2 3 1 4 22 5 20 6 19 7 17 8 16 9 15 10 14 11 6 12
REMARK SMILES IDX 7 13 8 14 9 15 13 16 11 17 10 18 12 20 4 22 21 24 18 26
REMARK H PARENT 10 19 12 21 4 23 21 25 18 27
REMARK Flexibility Score: inf
ROOT
ATOM      1  C   UNL     1      -6.371   5.640  -3.522  1.00  0.00     0.180 A 
ATOM      2  C   UNL     1      -5.482   6.520  -4.163  1.00  0.00     0.208 A 
ATOM      3  C   UNL     1      -5.179   7.747  -3.551  1.00  0.00     0.238 A 
ATOM      4  O   UNL     1      -4.341   8.506  -4.103  1.00  0.00    -0.285 OA
ATOM      5  C   UNL     1      -5.779   8.085  -2.315  1.00  0.00     0.111 A 
ATOM      6  C   UNL     1      -5.575   9.318  -1.624  1.00  0.00     0.134 A 
ATOM      7  C   UNL     1      -6.118   9.491  -0.345  1.00  0.00     0.093 A 
ATOM      8  C   UNL     1      -6.912   8.502   0.241  1.00  0.00     0.123 A 
ATOM      9  C   UNL     1      -7.165   7.320  -0.450  1.00  0.00     0.094 A 
ATOM     10  C   UNL     1      -6.608   7.102  -1.713  1.00  0.00     0.146 A 
ATOM     11  O   UNL     1      -6.867   5.957  -2.332  1.00  0.00    -0.452 OA
ENDROOT
BRANCH   1  12
ATOM     12  C   UNL     1      -6.759   4.340  -4.116  1.00  0.00     0.025 A 
ATOM     13  C   UNL     1      -8.082   4.141  -4.540  1.00  0.00     0.016 A 
ATOM     14  C   UNL     1      -8.464   2.930  -5.122  1.00  0.00     0.051 A 
ATOM     15  C   UNL     1      -7.529   1.907  -5.304  1.00  0.00     0.157 A 
ATOM     16  C   UNL     1      -5.814   3.317  -4.319  1.00  0.00     0.062 A 
ATOM     17  C   UNL     1      -6.196   2.102  -4.905  1.00  0.00     0.158 A 
BRANCH  15  18
ATOM     18  O   UNL     1      -7.941   0.707  -5.885  1.00  0.00    -0.504 OA
ATOM     19  H   UNL     1      -7.465  -0.169  -5.706  1.00  0.00     0.293 HD
ENDBRANCH  15  18
BRANCH  17  20
ATOM     20  O   UNL     1      -5.256   1.090  -5.097  1.00  0.00    -0.504 OA
ATOM     21  H   UNL     1      -5.366   0.394  -5.826  1.00  0.00     0.293 HD
ENDBRANCH  17  20
ENDBRANCH   1  12
BRANCH   2  22
ATOM     22  O   UNL     1      -4.883   6.157  -5.372  1.00  0.00    -0.502 OA
ATOM     23  H   UNL     1      -4.843   6.781  -6.169  1.00  0.00     0.293 HD
ENDBRANCH   2  22
BRANCH   6  24
ATOM     24  O   UNL     1      -4.877  10.404  -2.159  1.00  0.00    -0.507 OA
ATOM     25  H   UNL     1      -4.909  11.345  -1.795  1.00  0.00     0.293 HD
ENDBRANCH   6  24
BRANCH   8  26
ATOM     26  O   UNL     1      -7.460   8.689   1.507  1.00  0.00    -0.508 OA
ATOM     27  H   UNL     1      -7.266   8.050   2.269  1.00  0.00     0.293 HD
ENDBRANCH   8  26
TORSDOF 6
ENDMDL
MODEL 4
REMARK VINA RESULT:    -6.749     16.477     18.585
REMARK INTER + INTRA:          -8.426
REMARK INTER:                  -8.114
REMARK INTRA:                  -0.311
REMARK UNBOUND:                -0.296
REMARK SMILES O=c1c(O)c(-c2ccc(O)c(O)c2)oc2cc(O)cc(O)c12
REMARK SMILES IDX 5 1 3 2 2 3 1 4 22 5 20 6 19 7 17 8 16 9 15 10 14 11 6 12
REMARK SMILES IDX 7 13 8 14 9 15 13 16 11 17 10 18 12 20 4 22 21 24 18 26
REMARK H PARENT 10 19 12 21 4 23 21 25 18 27
REMARK Flexibility Score: inf
ROOT
ATOM      1  C   UNL     1      -6.853   6.131  -3.061  1.00  0.00     0.180 A 
ATOM      2  C   UNL     1      -8.192   6.132  -3.485  1.00  0.00     0.208 A 
ATOM      3  C   UNL     1      -8.671   5.044  -4.232  1.00  0.00     0.238 A 
ATOM      4  O   UNL     1      -9.885   5.025  -4.562  1.00  0.00    -0.285 OA
ATOM      5  C   UNL     1      -7.801   3.976  -4.557  1.00  0.00     0.111 A 
ATOM      6  C   UNL     1      -8.168   2.841  -5.342  1.00  0.00     0.134 A 
ATOM      7  C   UNL     1      -7.264   1.782  -5.491  1.00  0.00     0.093 A 
ATOM      8  C   UNL     1      -5.982   1.847  -4.939  1.00  0.00     0.123 A 
ATOM      9  C   UNL     1      -5.594   2.976  -4.221  1.00  0.00     0.094 A 
ATOM     10  C   UNL     1      -6.487   4.033  -4.024  1.00  0.00     0.146 A 
ATOM     11  O   UNL     1      -6.079   5.085  -3.326  1.00  0.00    -0.452 OA
ENDROOT
BRANCH   1  12
ATOM     12  C   UNL     1      -6.268   7.255  -2.293  1.00  0.00     0.025 A 
ATOM     13  C   UNL     1      -5.602   8.286  -2.974  1.00  0.00     0.016 A 
ATOM     14  C   UNL     1      -5.061   9.365  -2.270  1.00  0.00     0.051 A 
ATOM     15  C   UNL     1      -5.191   9.439  -0.880  1.00  0.00     0.157 A 
ATOM     16  C   UNL     1      -6.416   7.341  -0.896  1.00  0.00     0.062 A 
ATOM     17  C   UNL     1      -5.875   8.425  -0.189  1.00  0.00     0.158 A 
BRANCH  15  18
ATOM     18  O   UNL     1      -4.638  10.527  -0.205  1.00  0.00    -0.504 OA
ATOM     19  H   UNL     1      -4.427  10.495   0.785  1.00  0.00     0.293 HD
ENDBRANCH  15  18
BRANCH  17  20
ATOM     20  O   UNL     1      -6.020   8.500   1.196  1.00  0.00    -0.504 OA
ATOM     21  H   UNL     1      -6.109   7.667   1.766  1.00  0.00     0.293 HD
ENDBRANCH  17  20
ENDBRANCH   1  12
BRANCH   2  22
ATOM     22  O   UNL     1      -9.040   7.187  -3.134  1.00  0.00    -0.502 OA
ATOM     23  H   UNL     1      -9.986   7.037  -2.802  1.00  0.00     0.293 HD
ENDBRANCH   2  22
BRANCH   6  24
ATOM     24  O   UNL     1      -9.388   2.719  -6.013  1.00  0.00    -0.507 OA
ATOM     25  H   UNL     1      -9.727   1.872  -6.443  1.00  0.00     0.293 HD
ENDBRANCH   6  24
BRANCH   8  26
ATOM     26  O   UNL     1      -5.083   0.796  -5.105  1.00  0.00    -0.508 OA
ATOM     27  H   UNL     1      -4.644   0.344  -4.312  1.00  0.00     0.293 HD
ENDBRANCH   8  26
TORSDOF 6
ENDMDL
MODEL 5
REMARK VINA RESULT:    -6.737     16.824     18.801
REMARK INTER + INTRA:          -8.412
REMARK INTER:                  -8.077
REMARK INTRA:                  -0.335
REMARK UNBOUND:                -0.296
REMARK SMILES O=c1c(O)c(-c2ccc(O)c(O)c2)oc2cc(O)cc(O)c12
REMARK SMILES IDX 5 1 3 2 2 3 1 4 22 5 20 6 19 7 17 8 16 9 15 10 14 11 6 12
REMARK SMILES IDX 7 13 8 14 9 15 13 16 11 17 10 18 12 20 4 22 21 24 18 26
REMARK H PARENT 10 19 12 21 4 23 21 25 18 27
REMARK Flexibility Score: inf
ROOT
ATOM      1  C   UNL     1      -6.898   5.971  -3.335  1.00  0.00     0.180 A 
ATOM      2  C   UNL     1      -5.836   5.738  -4.225  1.00  0.00     0.208 A 
ATOM      3  C   UNL     1      -5.797   4.528  -4.936  1.00  0.00     0.238 A 
ATOM      4  O   UNL     1      -4.873   4.349  -5.772  1.00  0.00    -0.285 OA
ATOM      5  C   UNL     1      -6.810   3.561  -4.737  1.00  0.00     0.111 A 
ATOM      6  C   UNL     1      -6.849   2.284  -5.375  1.00  0.00     0.134 A 
ATOM      7  C   UNL     1      -7.968   1.460  -5.203  1.00  0.00     0.093 A 
ATOM      8  C   UNL     1      -9.020   1.838  -4.364  1.00  0.00     0.123 A 
ATOM      9  C   UNL     1      -8.964   3.057  -3.692  1.00  0.00     0.094 A 
ATOM     10  C   UNL     1      -7.877   3.917  -3.871  1.00  0.00     0.146 A 
ATOM     11  O   UNL     1      -7.869   5.073  -3.218  1.00  0.00    -0.452 OA
ENDROOT
BRANCH   1  12
ATOM     12  C   UNL     1      -6.995   7.211  -2.531  1.00  0.00     0.025 A 
ATOM     13  C   UNL     1      -7.741   8.296  -3.019  1.00  0.00     0.016 A 
ATOM     14  C   UNL     1      -7.862   9.467  -2.267  1.00  0.00     0.051 A 
ATOM     15  C   UNL     1      -7.255   9.568  -1.012  1.00  0.00     0.157 A 
ATOM     16  C   UNL     1      -6.403   7.307  -1.258  1.00  0.00     0.062 A 
ATOM     17  C   UNL     1      -6.525   8.482  -0.502  1.00  0.00     0.158 A 
BRANCH  15  18
ATOM     18  O   UNL     1      -7.392  10.751  -0.287  1.00  0.00    -0.504 OA
ATOM     19  H   UNL     1      -6.684  11.475  -0.300  1.00  0.00     0.293 HD
ENDBRANCH  15  18
BRANCH  17  20
ATOM     20  O   UNL     1      -5.929   8.571   0.755  1.00  0.00    -0.504 OA
ATOM     21  H   UNL     1      -6.179   9.304   1.410  1.00  0.00     0.293 HD
ENDBRANCH  17  20
ENDBRANCH   1  12
BRANCH   2  22
ATOM     22  O   UNL     1      -4.858   6.717  -4.423  1.00  0.00    -0.502 OA
ATOM     23  H   UNL     1      -5.087   7.684  -4.620  1.00  0.00     0.293 HD
ENDBRANCH   2  22
BRANCH   6  24
ATOM     24  O   UNL     1      -5.811   1.772  -6.157  1.00  0.00    -0.507 OA
ATOM     25  H   UNL     1      -5.043   1.221  -5.806  1.00  0.00     0.293 HD
ENDBRANCH   6  24
BRANCH   8  26
ATOM     26  O   UNL     1     -10.122   1.006  -4.187  1.00  0.00    -0.508 OA
ATOM     27  H   UNL     1     -10.437   0.380  -4.919  1.00  0.00     0.293 HD
ENDBRANCH   8  26
TORSDOF 6
ENDMDL
MODEL 6
REMARK VINA RESULT:    -6.665     12.557     13.532
REMARK INTER + INTRA:          -8.325
REMARK INTER:                  -8.040
REMARK INTRA:                  -0.285
REMARK UNBOUND:                -0.296
REMARK SMILES O=c1c(O)c(-c2ccc(O)c(O)c2)oc2cc(O)cc(O)c12
REMARK SMILES IDX 5 1 3 2 2 3 1 4 22 5 20 6 19 7 17 8 16 9 15 10 14 11 6 12
REMARK SMILES IDX 7 13 8 14 9 15 13 16 11 17 10 18 12 20 4 22 21 24 18 26
REMARK H PARENT 10 19 12 21 4 23 21 25 18 27
REMARK Flexibility Score: inf
ROOT
ATOM      1  C   UNL     1      -4.558   8.147   5.073  1.00  0.00     0.180 A 
ATOM      2  C   UNL     1      -3.312   8.184   5.721  1.00  0.00     0.208 A 
ATOM      3  C   UNL     1      -3.215   7.704   7.037  1.00  0.00     0.238 A 
ATOM      4  O   UNL     1      -2.086   7.689   7.593  1.00  0.00    -0.285 OA
ATOM      5  C   UNL     1      -4.366   7.206   7.693  1.00  0.00     0.111 A 
ATOM      6  C   UNL     1      -4.391   6.731   9.038  1.00  0.00     0.134 A 
ATOM      7  C   UNL     1      -5.557   6.140   9.541  1.00  0.00     0.093 A 
ATOM      8  C   UNL     1      -6.719   6.068   8.768  1.00  0.00     0.123 A 
ATOM      9  C   UNL     1      -6.721   6.582   7.473  1.00  0.00     0.094 A 
ATOM     10  C   UNL     1      -5.563   7.145   6.931  1.00  0.00     0.146 A 
ATOM     11  O   UNL     1      -5.606   7.614   5.690  1.00  0.00    -0.452 OA
ENDROOT
BRANCH   1  12
ATOM     12  C   UNL     1      -4.745   8.659   3.696  1.00  0.00     0.025 A 
ATOM     13  C   UNL     1      -5.281   9.942   3.502  1.00  0.00     0.016 A 
ATOM     14  C   UNL     1      -5.447  10.451   2.212  1.00  0.00     0.051 A 
ATOM     15  C   UNL     1      -5.067   9.696   1.098  1.00  0.00     0.157 A 
ATOM     16  C   UNL     1      -4.345   7.908   2.575  1.00  0.00     0.062 A 
ATOM     17  C   UNL     1      -4.509   8.420   1.280  1.00  0.00     0.158 A 
BRANCH  15  18
ATOM     18  O   UNL     1      -5.248  10.231  -0.177  1.00  0.00    -0.504 OA
ATOM     19  H   UNL     1      -4.835   9.810  -1.001  1.00  0.00     0.293 HD
ENDBRANCH  15  18
BRANCH  17  20
ATOM     20  O   UNL     1      -4.115   7.667   0.174  1.00  0.00    -0.504 OA
ATOM     21  H   UNL     1      -3.741   8.106  -0.660  1.00  0.00     0.293 HD
ENDBRANCH  17  20
ENDBRANCH   1  12
BRANCH   2  22
ATOM     22  O   UNL     1      -2.183   8.659   5.048  1.00  0.00    -0.502 OA
ATOM     23  H   UNL     1      -1.288   8.783   5.506  1.00  0.00     0.293 HD
ENDBRANCH   2  22
BRANCH   6  24
ATOM     24  O   UNL     1      -3.315   6.840   9.924  1.00  0.00    -0.507 OA
ATOM     25  H   UNL     1      -3.316   7.396  10.765  1.00  0.00     0.293 HD
ENDBRANCH   6  24
BRANCH   8  26
ATOM     26  O   UNL     1      -7.879   5.493   9.280  1.00  0.00    -0.508 OA
ATOM     27  H   UNL     1      -8.568   6.043   9.778  1.00  0.00     0.293 HD
ENDBRANCH   8  26
TORSDOF 6
ENDMDL
MODEL 7
REMARK VINA RESULT:    -6.647     16.905     18.811
REMARK INTER + INTRA:          -8.303
REMARK INTER:                  -7.980
REMARK INTRA:                  -0.323
REMARK UNBOUND:                -0.296
REMARK SMILES O=c1c(O)c(-c2ccc(O)c(O)c2)oc2cc(O)cc(O)c12
REMARK SMILES IDX 5 1 3 2 2 3 1 4 22 5 20 6 19 7 17 8 16 9 15 10 14 11 6 12
REMARK SMILES IDX 7 13 8 14 9 15 13 16 11 17 10 18 12 20 4 22 21 24 18 26
REMARK H PARENT 10 19 12 21 4 23 21 25 18 27
REMARK Flexibility Score: inf
ROOT
ATOM      1  C   UNL     1      -7.336   5.748  -2.883  1.00  0.00     0.180 A 
ATOM      2  C   UNL     1      -8.525   5.000  -2.867  1.00  0.00     0.208 A 
ATOM      3  C   UNL     1      -8.577   3.788  -3.574  1.00  0.00     0.238 A 
ATOM      4  O   UNL     1      -9.627   3.097  -3.512  1.00  0.00    -0.285 OA
ATOM      5  C   UNL     1      -7.445   3.346  -4.299  1.00  0.00     0.111 A 
ATOM      6  C   UNL     1      -7.398   2.154  -5.083  1.00  0.00     0.134 A 
ATOM      7  C   UNL     1      -6.184   1.748  -5.651  1.00  0.00     0.093 A 
ATOM      8  C   UNL     1      -5.031   2.527  -5.520  1.00  0.00     0.123 A 
ATOM      9  C   UNL     1      -5.081   3.722  -4.807  1.00  0.00     0.094 A 
ATOM     10  C   UNL     1      -6.269   4.135  -4.197  1.00  0.00     0.146 A 
ATOM     11  O   UNL     1      -6.270   5.276  -3.518  1.00  0.00    -0.452 OA
ENDROOT
BRANCH   1  12
ATOM     12  C   UNL     1      -7.212   7.048  -2.184  1.00  0.00     0.025 A 
ATOM     13  C   UNL     1      -7.556   8.231  -2.857  1.00  0.00     0.016 A 
ATOM     14  C   UNL     1      -7.466   9.465  -2.209  1.00  0.00     0.051 A 
ATOM     15  C   UNL     1      -7.048   9.536  -0.877  1.00  0.00     0.157 A 
ATOM     16  C   UNL     1      -6.812   7.119  -0.837  1.00  0.00     0.062 A 
ATOM     17  C   UNL     1      -6.723   8.358  -0.185  1.00  0.00     0.158 A 
BRANCH  15  18
ATOM     18  O   UNL     1      -6.966  10.783  -0.258  1.00  0.00    -0.504 OA
ATOM     19  H   UNL     1      -7.356  11.619  -0.677  1.00  0.00     0.293 HD
ENDBRANCH  15  18
BRANCH  17  20
ATOM     20  O   UNL     1      -6.319   8.421   1.148  1.00  0.00    -0.504 OA
ATOM     21  H   UNL     1      -5.978   7.601   1.638  1.00  0.00     0.293 HD
ENDBRANCH  17  20
ENDBRANCH   1  12
BRANCH   2  22
ATOM     22  O   UNL     1      -9.625   5.444  -2.126  1.00  0.00    -0.502 OA
ATOM     23  H   UNL     1     -10.458   5.821  -2.563  1.00  0.00     0.293 HD
ENDBRANCH   2  22
BRANCH   6  24
ATOM     24  O   UNL     1      -8.512   1.355  -5.353  1.00  0.00    -0.507 OA
ATOM     25  H   UNL     1      -9.253   1.159  -4.697  1.00  0.00     0.293 HD
ENDBRANCH   6  24
BRANCH   8  26
ATOM     26  O   UNL     1      -3.832   2.123  -6.102  1.00  0.00    -0.508 OA
ATOM     27  H   UNL     1      -3.781   1.310  -6.703  1.00  0.00     0.293 HD
ENDBRANCH   8  26
TORSDOF 6
ENDMDL
MODEL 8
REMARK VINA RESULT:    -6.572     15.786     19.090
REMARK INTER + INTRA:          -8.212
REMARK INTER:                  -7.921
REMARK INTRA:                  -0.291
REMARK UNBOUND:                -0.296
REMARK SMILES O=c1c(O)c(-c2ccc(O)c(O)c2)oc2cc(O)cc(O)c12
REMARK SMILES IDX 5 1 3 2 2 3 1 4 22 5 20 6 19 7 17 8 16 9 15 10 14 11 6 12
REMARK SMILES IDX 7 13 8 14 9 15 13 16 11 17 10 18 12 20 4 22 21 24 18 26
REMARK H PARENT 10 19 12 21 4 23 21 25 18 27
REMARK Flexibility Score: inf
ROOT
ATOM      1  C   UNL     1      -7.725  -5.419   3.404  1.00  0.00     0.180 A 
ATOM      2  C   UNL     1      -8.652  -5.381   4.460  1.00  0.00     0.208 A 
ATOM      3  C   UNL     1      -8.178  -5.378   5.781  1.00  0.00     0.238 A 
ATOM      4  O   UNL     1      -9.010  -5.289   6.721  1.00  0.00    -0.285 OA
ATOM      5  C   UNL     1      -6.786  -5.428   6.031  1.00  0.00     0.111 A 
ATOM      6  C   UNL     1      -6.195  -5.469   7.330  1.00  0.00     0.134 A 
ATOM      7  C   UNL     1      -4.804  -5.385   7.460  1.00  0.00     0.093 A 
ATOM      8  C   UNL     1      -3.977  -5.328   6.334  1.00  0.00     0.123 A 
ATOM      9  C   UNL     1      -4.541  -5.346   5.061  1.00  0.00     0.094 A 
ATOM     10  C   UNL     1      -5.928  -5.393   4.900  1.00  0.00     0.146 A 
ATOM     11  O   UNL     1      -6.424  -5.399   3.669  1.00  0.00    -0.452 OA
ENDROOT
BRANCH   1  12
ATOM     12  C   UNL     1      -8.148  -5.451   1.985  1.00  0.00     0.025 A 
ATOM     13  C   UNL     1      -8.013  -4.296   1.197  1.00  0.00     0.016 A 
ATOM     14  C   UNL     1      -8.387  -4.311  -0.149  1.00  0.00     0.051 A 
ATOM     15  C   UNL     1      -8.886  -5.479  -0.732  1.00  0.00     0.157 A 
ATOM     16  C   UNL     1      -8.631  -6.631   1.391  1.00  0.00     0.062 A 
ATOM     17  C   UNL     1      -9.005  -6.647   0.039  1.00  0.00     0.158 A 
BRANCH  15  18
ATOM     18  O   UNL     1      -9.253  -5.461  -2.078  1.00  0.00    -0.504 OA
ATOM     19  H   UNL     1      -9.339  -4.598  -2.601  1.00  0.00     0.293 HD
ENDBRANCH  15  18
BRANCH  17  20
ATOM     20  O   UNL     1      -9.489  -7.819  -0.540  1.00  0.00    -0.504 OA
ATOM     21  H   UNL     1     -10.193  -7.799  -1.269  1.00  0.00     0.293 HD
ENDBRANCH  17  20
ENDBRANCH   1  12
BRANCH   2  22
ATOM     22  O   UNL     1     -10.022  -5.309   4.191  1.00  0.00    -0.502 OA
ATOM     23  H   UNL     1     -10.385  -5.084   3.272  1.00  0.00     0.293 HD
ENDBRANCH   2  22
BRANCH   6  24
ATOM     24  O   UNL     1      -6.925  -5.619   8.513  1.00  0.00    -0.507 OA
ATOM     25  H   UNL     1      -6.561  -6.012   9.368  1.00  0.00     0.293 HD
ENDBRANCH   6  24
BRANCH   8  26
ATOM     26  O   UNL     1      -2.593  -5.260   6.472  1.00  0.00    -0.508 OA
ATOM     27  H   UNL     1      -2.158  -4.654   7.157  1.00  0.00     0.293 HD
ENDBRANCH   8  26
TORSDOF 6
ENDMDL
MODEL 9
REMARK VINA RESULT:    -6.452     16.180     19.930
REMARK INTER + INTRA:          -8.067
REMARK INTER:                  -8.013
REMARK INTRA:                  -0.054
REMARK UNBOUND:                -0.296
REMARK SMILES O=c1c(O)c(-c2ccc(O)c(O)c2)oc2cc(O)cc(O)c12
REMARK SMILES IDX 5 1 3 2 2 3 1 4 22 5 20 6 19 7 17 8 16 9 15 10 14 11 6 12
REMARK SMILES IDX 7 13 8 14 9 15 13 16 11 17 10 18 12 20 4 22 21 24 18 26
REMARK H PARENT 10 19 12 21 4 23 21 25 18 27
REMARK Flexibility Score: inf
ROOT
ATOM      1  C   UNL     1      -7.228  -6.338   4.694  1.00  0.00     0.180 A 
ATOM      2  C   UNL     1      -7.873  -7.570   4.489  1.00  0.00     0.208 A 
ATOM      3  C   UNL     1      -8.471  -7.827   3.245  1.00  0.00     0.238 A 
ATOM      4  O   UNL     1      -9.000  -8.952   3.050  1.00  0.00    -0.285 OA
ATOM      5  C   UNL     1      -8.429  -6.845   2.227  1.00  0.00     0.111 A 
ATOM      6  C   UNL     1      -9.036  -6.982   0.942  1.00  0.00     0.134 A 
ATOM      7  C   UNL     1      -8.819  -6.000  -0.033  1.00  0.00     0.093 A 
ATOM      8  C   UNL     1      -8.073  -4.854   0.253  1.00  0.00     0.123 A 
ATOM      9  C   UNL     1      -7.526  -4.683   1.522  1.00  0.00     0.094 A 
ATOM     10  C   UNL     1      -7.694  -5.662   2.505  1.00  0.00     0.146 A 
ATOM     11  O   UNL     1      -7.149  -5.464   3.698  1.00  0.00    -0.452 OA
ENDROOT
BRANCH   1  12
ATOM     12  C   UNL     1      -6.597  -5.984   5.986  1.00  0.00     0.025 A 
ATOM     13  C   UNL     1      -7.358  -6.039   7.165  1.00  0.00     0.016 A 
ATOM     14  C   UNL     1      -6.777  -5.728   8.397  1.00  0.00     0.051 A 
ATOM     15  C   UNL     1      -5.426  -5.375   8.473  1.00  0.00     0.157 A 
ATOM     16  C   UNL     1      -5.233  -5.649   6.067  1.00  0.00     0.062 A 
ATOM     17  C   UNL     1      -4.648  -5.339   7.304  1.00  0.00     0.158 A 
BRANCH  15  18
ATOM     18  O   UNL     1      -4.875  -5.068   9.717  1.00  0.00    -0.504 OA
ATOM     19  H   UNL     1      -4.610  -5.786  10.380  1.00  0.00     0.293 HD
ENDBRANCH  15  18
BRANCH  17  20
ATOM     20  O   UNL     1      -3.298  -5.001   7.375  1.00  0.00    -0.504 OA
ATOM     21  H   UNL     1      -2.996  -4.039   7.478  1.00  0.00     0.293 HD
ENDBRANCH  17  20
ENDBRANCH   1  12
BRANCH   2  22
ATOM     22  O   UNL     1      -7.884  -8.535   5.501  1.00  0.00    -0.502 OA
ATOM     23  H   UNL     1      -8.185  -9.489   5.340  1.00  0.00     0.293 HD
ENDBRANCH   2  22
BRANCH   6  24
ATOM     24  O   UNL     1      -9.875  -8.042   0.585  1.00  0.00    -0.507 OA
ATOM     25  H   UNL     1      -9.892  -8.481  -0.322  1.00  0.00     0.293 HD
ENDBRANCH   6  24
BRANCH   8  26
ATOM     26  O   UNL     1      -7.875  -3.875  -0.718  1.00  0.00    -0.508 OA
ATOM     27  H   UNL     1      -7.122  -3.201  -0.645  1.00  0.00     0.293 HD
ENDBRANCH   8  26
TORSDOF 6
ENDMDL
