MODEL 1
REMARK VINA RESULT:    -2.909      0.000      0.000
REMARK INTER + INTRA:         -14.144
REMARK INTER:                  -7.670
REMARK INTRA:                  -6.474
REMARK UNBOUND:                -6.474
REMARK SMILES CCCCCCCCCCCCCCCCCCCCCCCCCCCCCC(=O)[O-]
REMARK SMILES IDX 16 1 17 2 18 3 19 4 20 5 21 6 22 7 23 8 24 9 25 10 26 11
REMARK SMILES IDX 27 12 28 13 29 14 30 15 31 16 32 17 15 18 14 19 13 20 12 21
REMARK SMILES IDX 11 22 10 23 9 24 8 25 7 26 6 27 5 28 4 29 3 30 2 31 1 32
REMARK H PARENT
REMARK Flexibility Score: inf
ROOT
ATOM      1  C   UNL     1      27.458  29.136  12.442  1.00  0.00     0.000 C 
ENDROOT
BRANCH   1   2
ATOM      2  C   UNL     1      28.857  29.588  11.984  1.00  0.00     0.000 C 
BRANCH   2   3
ATOM      3  C   UNL     1      28.957  29.783  10.460  1.00  0.00     0.000 C 
BRANCH   3   4
ATOM      4  C   UNL     1      30.162  29.096   9.783  1.00  0.00     0.000 C 
BRANCH   4   5
ATOM      5  C   UNL     1      31.385  28.870  10.692  1.00  0.00     0.000 C 
BRANCH   5   6
ATOM      6  C   UNL     1      32.520  29.897  10.522  1.00  0.00     0.000 C 
BRANCH   6   7
ATOM      7  C   UNL     1      33.768  29.334   9.808  1.00  0.00     0.000 C 
BRANCH   7   8
ATOM      8  C   UNL     1      33.477  28.895   8.362  1.00  0.00     0.000 C 
BRANCH   8   9
ATOM      9  C   UNL     1      33.439  27.367   8.200  1.00  0.00     0.000 C 
BRANCH   9  10
ATOM     10  C   UNL     1      34.241  26.634   9.286  1.00  0.00     0.000 C 
BRANCH  10  11
ATOM     11  C   UNL     1      33.337  25.695  10.097  1.00  0.00     0.000 C 
BRANCH  11  12
ATOM     12  C   UNL     1      33.805  25.519  11.553  1.00  0.00     0.000 C 
BRANCH  12  13
ATOM     13  C   UNL     1      34.343  26.799  12.225  1.00  0.00     0.006 C 
BRANCH  13  14
ATOM     14  C   UNL     1      33.484  27.315  13.391  1.00  0.00     0.053 C 
BRANCH  14  15
ATOM     15  C   UNL     1      33.996  26.857  14.721  1.00  0.00     0.041 C 
ATOM     16  O   UNL     1      33.469  27.279  15.784  1.00  0.00    -0.550 OA
ATOM     17  O   UNL     1      35.059  25.964  14.788  1.00  0.00    -0.550 OA
ENDBRANCH  14  15
ENDBRANCH  13  14
ENDBRANCH  12  13
ENDBRANCH  11  12
ENDBRANCH  10  11
ENDBRANCH   9  10
ENDBRANCH   8   9
ENDBRANCH   7   8
ENDBRANCH   6   7
ENDBRANCH   5   6
ENDBRANCH   4   5
ENDBRANCH   3   4
ENDBRANCH   2   3
ENDBRANCH   1   2
BRANCH   1  18
ATOM     18  C   UNL     1      27.510  28.043  13.521  1.00  0.00     0.000 C 
BRANCH  18  19
ATOM     19  C   UNL     1      26.303  27.089  13.463  1.00  0.00     0.000 C 
BRANCH  19  20
ATOM     20  C   UNL     1      26.309  26.052  14.601  1.00  0.00     0.000 C 
BRANCH  20  21
ATOM     21  C   UNL     1      26.535  24.596  14.149  1.00  0.00     0.000 C 
BRANCH  21  22
ATOM     22  C   UNL     1      27.858  24.010  14.674  1.00  0.00     0.000 C 
BRANCH  22  23
ATOM     23  C   UNL     1      28.613  24.985  15.593  1.00  0.00     0.000 C 
BRANCH  23  24
ATOM     24  C   UNL     1      30.012  25.342  15.061  1.00  0.00    -0.000 C 
BRANCH  24  25
ATOM     25  C   UNL     1      30.229  24.890  13.605  1.00  0.00    -0.000 C 
BRANCH  25  26
ATOM     26  C   UNL     1      30.199  26.026  12.561  1.00  0.00    -0.000 C 
BRANCH  26  27
ATOM     27  C   UNL     1      29.809  25.596  11.132  1.00  0.00    -0.000 C 
BRANCH  27  28
ATOM     28  C   UNL     1      28.299  25.383  10.907  1.00  0.00    -0.000 C 
BRANCH  28  29
ATOM     29  C   UNL     1      27.719  26.129   9.691  1.00  0.00    -0.000 C 
BRANCH  29  30
ATOM     30  C   UNL     1      26.305  26.701   9.936  1.00  0.00    -0.000 C 
BRANCH  30  31
ATOM     31  C   UNL     1      26.051  27.991   9.142  1.00  0.00    -0.003 C 
ATOM     32  C   UNL     1      24.934  28.816   9.775  1.00  0.00     0.004 C 
ENDBRANCH  30  31
ENDBRANCH  29  30
ENDBRANCH  28  29
ENDBRANCH  27  28
ENDBRANCH  26  27
ENDBRANCH  25  26
ENDBRANCH  24  25
ENDBRANCH  23  24
ENDBRANCH  22  23
ENDBRANCH  21  22
ENDBRANCH  20  21
ENDBRANCH  19  20
ENDBRANCH  18  19
ENDBRANCH   1  18
TORSDOF 28
ENDMDL
MODEL 2
REMARK VINA RESULT:    -2.806      3.163      7.448
REMARK INTER + INTRA:         -13.872
REMARK INTER:                  -7.588
REMARK INTRA:                  -6.284
REMARK UNBOUND:                -6.474
REMARK SMILES CCCCCCCCCCCCCCCCCCCCCCCCCCCCCC(=O)[O-]
REMARK SMILES IDX 16 1 17 2 18 3 19 4 20 5 21 6 22 7 23 8 24 9 25 10 26 11
REMARK SMILES IDX 27 12 28 13 29 14 30 15 31 16 32 17 15 18 14 19 13 20 12 21
REMARK SMILES IDX 11 22 10 23 9 24 8 25 7 26 6 27 5 28 4 29 3 30 2 31 1 32
REMARK H PARENT
REMARK Flexibility Score: inf
ROOT
ATOM      1  C   UNL     1      26.090  26.695  13.538  1.00  0.00     0.000 C 
ENDROOT
BRANCH   1   2
ATOM      2  C   UNL     1      26.288  25.328  14.218  1.00  0.00     0.000 C 
BRANCH   2   3
ATOM      3  C   UNL     1      27.336  25.364  15.346  1.00  0.00     0.000 C 
BRANCH   3   4
ATOM      4  C   UNL     1      28.610  24.530  15.093  1.00  0.00     0.000 C 
BRANCH   4   5
ATOM      5  C   UNL     1      29.921  25.336  15.026  1.00  0.00     0.000 C 
BRANCH   5   6
ATOM      6  C   UNL     1      30.380  25.715  13.604  1.00  0.00     0.000 C 
BRANCH   6   7
ATOM      7  C   UNL     1      29.622  24.967  12.486  1.00  0.00     0.000 C 
BRANCH   7   8
ATOM      8  C   UNL     1      29.941  25.516  11.084  1.00  0.00     0.000 C 
BRANCH   8   9
ATOM      9  C   UNL     1      28.844  25.197  10.055  1.00  0.00     0.000 C 
BRANCH   9  10
ATOM     10  C   UNL     1      27.532  24.738  10.710  1.00  0.00     0.000 C 
BRANCH  10  11
ATOM     11  C   UNL     1      26.318  25.228   9.907  1.00  0.00     0.000 C 
BRANCH  11  12
ATOM     12  C   UNL     1      26.230  26.763   9.826  1.00  0.00     0.000 C 
BRANCH  12  13
ATOM     13  C   UNL     1      24.824  27.320   9.522  1.00  0.00     0.006 C 
BRANCH  13  14
ATOM     14  C   UNL     1      24.203  28.138  10.666  1.00  0.00     0.053 C 
BRANCH  14  15
ATOM     15  C   UNL     1      23.065  27.421  11.325  1.00  0.00     0.041 C 
ATOM     16  O   UNL     1      23.171  26.203  11.625  1.00  0.00    -0.550 OA
ATOM     17  O   UNL     1      21.884  28.099  11.606  1.00  0.00    -0.550 OA
ENDBRANCH  14  15
ENDBRANCH  13  14
ENDBRANCH  12  13
ENDBRANCH  11  12
ENDBRANCH  10  11
ENDBRANCH   9  10
ENDBRANCH   8   9
ENDBRANCH   7   8
ENDBRANCH   6   7
ENDBRANCH   5   6
ENDBRANCH   4   5
ENDBRANCH   3   4
ENDBRANCH   2   3
ENDBRANCH   1   2
BRANCH   1  18
ATOM     18  C   UNL     1      27.258  27.661  13.791  1.00  0.00     0.000 C 
BRANCH  18  19
ATOM     19  C   UNL     1      27.353  28.775  12.733  1.00  0.00     0.000 C 
BRANCH  19  20
ATOM     20  C   UNL     1      28.641  28.688  11.893  1.00  0.00     0.000 C 
BRANCH  20  21
ATOM     21  C   UNL     1      28.935  29.930  11.029  1.00  0.00     0.000 C 
BRANCH  21  22
ATOM     22  C   UNL     1      28.314  29.835   9.624  1.00  0.00     0.000 C 
BRANCH  22  23
ATOM     23  C   UNL     1      28.994  28.771   8.747  1.00  0.00     0.000 C 
BRANCH  23  24
ATOM     24  C   UNL     1      30.394  29.197   8.271  1.00  0.00    -0.000 C 
BRANCH  24  25
ATOM     25  C   UNL     1      31.512  28.298   8.829  1.00  0.00    -0.000 C 
BRANCH  25  26
ATOM     26  C   UNL     1      32.789  29.045   9.267  1.00  0.00    -0.000 C 
BRANCH  26  27
ATOM     27  C   UNL     1      32.777  29.573  10.716  1.00  0.00    -0.000 C 
BRANCH  27  28
ATOM     28  C   UNL     1      32.366  28.538  11.782  1.00  0.00    -0.000 C 
BRANCH  28  29
ATOM     29  C   UNL     1      33.226  27.260  11.803  1.00  0.00    -0.000 C 
BRANCH  29  30
ATOM     30  C   UNL     1      34.267  27.236  12.943  1.00  0.00    -0.000 C 
BRANCH  30  31
ATOM     31  C   UNL     1      33.673  27.679  14.287  1.00  0.00    -0.003 C 
ATOM     32  C   UNL     1      33.707  26.543  15.305  1.00  0.00     0.004 C 
ENDBRANCH  30  31
ENDBRANCH  29  30
ENDBRANCH  28  29
ENDBRANCH  27  28
ENDBRANCH  26  27
ENDBRANCH  25  26
ENDBRANCH  24  25
ENDBRANCH  23  24
ENDBRANCH  22  23
ENDBRANCH  21  22
ENDBRANCH  20  21
ENDBRANCH  19  20
ENDBRANCH  18  19
ENDBRANCH   1  18
TORSDOF 28
ENDMDL
MODEL 3
REMARK VINA RESULT:    -2.772      3.037      7.885
REMARK INTER + INTRA:         -13.784
REMARK INTER:                  -7.569
REMARK INTRA:                  -6.215
REMARK UNBOUND:                -6.474
REMARK SMILES CCCCCCCCCCCCCCCCCCCCCCCCCCCCCC(=O)[O-]
REMARK SMILES IDX 16 1 17 2 18 3 19 4 20 5 21 6 22 7 23 8 24 9 25 10 26 11
REMARK SMILES IDX 27 12 28 13 29 14 30 15 31 16 32 17 15 18 14 19 13 20 12 21
REMARK SMILES IDX 11 22 10 23 9 24 8 25 7 26 6 27 5 28 4 29 3 30 2 31 1 32
REMARK H PARENT
REMARK Flexibility Score: inf
ROOT
ATOM      1  C   UNL     1      31.794  25.684  10.145  1.00  0.00     0.000 C 
ENDROOT
BRANCH   1   2
ATOM      2  C   UNL     1      32.192  25.303  11.582  1.00  0.00     0.000 C 
BRANCH   2   3
ATOM      3  C   UNL     1      31.000  25.304  12.556  1.00  0.00     0.000 C 
BRANCH   3   4
ATOM      4  C   UNL     1      30.583  23.917  13.094  1.00  0.00     0.000 C 
BRANCH   4   5
ATOM      5  C   UNL     1      29.805  23.935  14.423  1.00  0.00     0.000 C 
BRANCH   5   6
ATOM      6  C   UNL     1      29.710  25.314  15.103  1.00  0.00     0.000 C 
BRANCH   6   7
ATOM      7  C   UNL     1      28.513  25.450  16.070  1.00  0.00     0.000 C 
BRANCH   7   8
ATOM      8  C   UNL     1      27.213  24.864  15.491  1.00  0.00     0.000 C 
BRANCH   8   9
ATOM      9  C   UNL     1      26.473  25.851  14.573  1.00  0.00     0.000 C 
BRANCH   9  10
ATOM     10  C   UNL     1      26.632  25.510  13.084  1.00  0.00     0.000 C 
BRANCH  10  11
ATOM     11  C   UNL     1      27.522  26.542  12.377  1.00  0.00     0.000 C 
BRANCH  11  12
ATOM     12  C   UNL     1      27.587  27.889  13.120  1.00  0.00     0.000 C 
BRANCH  12  13
ATOM     13  C   UNL     1      27.143  29.113  12.292  1.00  0.00     0.006 C 
BRANCH  13  14
ATOM     14  C   UNL     1      26.821  28.803  10.820  1.00  0.00     0.053 C 
BRANCH  14  15
ATOM     15  C   UNL     1      25.348  28.786  10.552  1.00  0.00     0.041 C 
ATOM     16  O   UNL     1      24.585  28.060  11.243  1.00  0.00    -0.550 OA
ATOM     17  O   UNL     1      24.817  29.570   9.534  1.00  0.00    -0.550 OA
ENDBRANCH  14  15
ENDBRANCH  13  14
ENDBRANCH  12  13
ENDBRANCH  11  12
ENDBRANCH  10  11
ENDBRANCH   9  10
ENDBRANCH   8   9
ENDBRANCH   7   8
ENDBRANCH   6   7
ENDBRANCH   5   6
ENDBRANCH   4   5
ENDBRANCH   3   4
ENDBRANCH   2   3
ENDBRANCH   1   2
BRANCH   1  18
ATOM     18  C   UNL     1      30.271  25.715   9.937  1.00  0.00     0.000 C 
BRANCH  18  19
ATOM     19  C   UNL     1      29.772  27.059   9.376  1.00  0.00     0.000 C 
BRANCH  19  20
ATOM     20  C   UNL     1      30.789  28.199   9.571  1.00  0.00     0.000 C 
BRANCH  20  21
ATOM     21  C   UNL     1      30.640  28.981  10.891  1.00  0.00     0.000 C 
BRANCH  21  22
ATOM     22  C   UNL     1      31.963  29.087  11.670  1.00  0.00     0.000 C 
BRANCH  22  23
ATOM     23  C   UNL     1      33.192  29.113  10.746  1.00  0.00     0.000 C 
BRANCH  23  24
ATOM     24  C   UNL     1      34.345  28.234  11.264  1.00  0.00    -0.000 C 
BRANCH  24  25
ATOM     25  C   UNL     1      35.102  27.518  10.131  1.00  0.00    -0.000 C 
BRANCH  25  26
ATOM     26  C   UNL     1      35.666  26.131  10.502  1.00  0.00    -0.000 C 
BRANCH  26  27
ATOM     27  C   UNL     1      36.249  26.017  11.925  1.00  0.00    -0.000 C 
BRANCH  27  28
ATOM     28  C   UNL     1      36.009  24.663  12.620  1.00  0.00    -0.000 C 
BRANCH  28  29
ATOM     29  C   UNL     1      35.353  24.760  14.010  1.00  0.00    -0.000 C 
BRANCH  29  30
ATOM     30  C   UNL     1      34.765  26.155  14.318  1.00  0.00    -0.000 C 
BRANCH  30  31
ATOM     31  C   UNL     1      33.486  26.076  15.164  1.00  0.00    -0.003 C 
ATOM     32  C   UNL     1      33.263  24.663  15.695  1.00  0.00     0.004 C 
ENDBRANCH  30  31
ENDBRANCH  29  30
ENDBRANCH  28  29
ENDBRANCH  27  28
ENDBRANCH  26  27
ENDBRANCH  25  26
ENDBRANCH  24  25
ENDBRANCH  23  24
ENDBRANCH  22  23
ENDBRANCH  21  22
ENDBRANCH  20  21
ENDBRANCH  19  20
ENDBRANCH  18  19
ENDBRANCH   1  18
TORSDOF 28
ENDMDL
MODEL 4
REMARK VINA RESULT:    -2.754      2.757      6.604
REMARK INTER + INTRA:         -13.736
REMARK INTER:                  -7.578
REMARK INTRA:                  -6.158
REMARK UNBOUND:                -6.474
REMARK SMILES CCCCCCCCCCCCCCCCCCCCCCCCCCCCCC(=O)[O-]
REMARK SMILES IDX 16 1 17 2 18 3 19 4 20 5 21 6 22 7 23 8 24 9 25 10 26 11
REMARK SMILES IDX 27 12 28 13 29 14 30 15 31 16 32 17 15 18 14 19 13 20 12 21
REMARK SMILES IDX 11 22 10 23 9 24 8 25 7 26 6 27 5 28 4 29 3 30 2 31 1 32
REMARK H PARENT
REMARK Flexibility Score: inf
ROOT
ATOM      1  C   UNL     1      33.281  26.855  15.310  1.00  0.00     0.000 C 
ENDROOT
BRANCH   1   2
ATOM      2  C   UNL     1      34.228  27.444  14.249  1.00  0.00     0.000 C 
BRANCH   2   3
ATOM      3  C   UNL     1      33.482  28.136  13.094  1.00  0.00     0.000 C 
BRANCH   3   4
ATOM      4  C   UNL     1      33.837  27.630  11.679  1.00  0.00     0.000 C 
BRANCH   4   5
ATOM      5  C   UNL     1      34.333  28.710  10.700  1.00  0.00     0.000 C 
BRANCH   5   6
ATOM      6  C   UNL     1      33.251  29.696  10.217  1.00  0.00     0.000 C 
BRANCH   6   7
ATOM      7  C   UNL     1      32.563  29.269   8.901  1.00  0.00     0.000 C 
BRANCH   7   8
ATOM      8  C   UNL     1      31.043  29.091   9.059  1.00  0.00     0.000 C 
BRANCH   8   9
ATOM      9  C   UNL     1      30.571  29.255  10.513  1.00  0.00     0.000 C 
BRANCH   9  10
ATOM     10  C   UNL     1      29.078  29.599  10.617  1.00  0.00     0.000 C 
BRANCH  10  11
ATOM     11  C   UNL     1      28.675  29.859  12.075  1.00  0.00     0.000 C 
BRANCH  11  12
ATOM     12  C   UNL     1      27.808  28.734  12.669  1.00  0.00     0.000 C 
BRANCH  12  13
ATOM     13  C   UNL     1      26.957  27.956  11.645  1.00  0.00     0.006 C 
BRANCH  13  14
ATOM     14  C   UNL     1      26.663  26.498  12.036  1.00  0.00     0.053 C 
BRANCH  14  15
ATOM     15  C   UNL     1      25.409  26.368  12.844  1.00  0.00     0.041 C 
ATOM     16  O   UNL     1      24.314  26.794  12.390  1.00  0.00    -0.550 OA
ATOM     17  O   UNL     1      25.450  25.778  14.102  1.00  0.00    -0.550 OA
ENDBRANCH  14  15
ENDBRANCH  13  14
ENDBRANCH  12  13
ENDBRANCH  11  12
ENDBRANCH  10  11
ENDBRANCH   9  10
ENDBRANCH   8   9
ENDBRANCH   7   8
ENDBRANCH   6   7
ENDBRANCH   5   6
ENDBRANCH   4   5
ENDBRANCH   3   4
ENDBRANCH   2   3
ENDBRANCH   1   2
BRANCH   1  18
ATOM     18  C   UNL     1      33.323  25.319  15.360  1.00  0.00     0.000 C 
BRANCH  18  19
ATOM     19  C   UNL     1      34.466  24.725  14.517  1.00  0.00     0.000 C 
BRANCH  19  20
ATOM     20  C   UNL     1      33.963  24.037  13.234  1.00  0.00     0.000 C 
BRANCH  20  21
ATOM     21  C   UNL     1      34.931  24.109  12.038  1.00  0.00     0.000 C 
BRANCH  21  22
ATOM     22  C   UNL     1      36.200  24.923  12.350  1.00  0.00     0.000 C 
BRANCH  22  23
ATOM     23  C   UNL     1      36.858  25.499  11.086  1.00  0.00     0.000 C 
BRANCH  23  24
ATOM     24  C   UNL     1      36.387  24.801   9.798  1.00  0.00    -0.000 C 
BRANCH  24  25
ATOM     25  C   UNL     1      35.639  25.751   8.845  1.00  0.00    -0.000 C 
BRANCH  25  26
ATOM     26  C   UNL     1      34.376  25.153   8.192  1.00  0.00    -0.000 C 
BRANCH  26  27
ATOM     27  C   UNL     1      33.049  25.843   8.572  1.00  0.00    -0.000 C 
BRANCH  27  28
ATOM     28  C   UNL     1      32.225  25.116   9.652  1.00  0.00    -0.000 C 
BRANCH  28  29
ATOM     29  C   UNL     1      30.713  25.404   9.610  1.00  0.00    -0.000 C 
BRANCH  29  30
ATOM     30  C   UNL     1      30.012  25.227  10.975  1.00  0.00    -0.000 C 
BRANCH  30  31
ATOM     31  C   UNL     1      30.718  26.001  12.098  1.00  0.00    -0.003 C 
ATOM     32  C   UNL     1      30.113  25.669  13.459  1.00  0.00     0.004 C 
ENDBRANCH  30  31
ENDBRANCH  29  30
ENDBRANCH  28  29
ENDBRANCH  27  28
ENDBRANCH  26  27
ENDBRANCH  25  26
ENDBRANCH  24  25
ENDBRANCH  23  24
ENDBRANCH  22  23
ENDBRANCH  21  22
ENDBRANCH  20  21
ENDBRANCH  19  20
ENDBRANCH  18  19
ENDBRANCH   1  18
TORSDOF 28
ENDMDL
MODEL 5
REMARK VINA RESULT:    -2.704      1.190      2.081
REMARK INTER + INTRA:         -13.604
REMARK INTER:                  -7.824
REMARK INTRA:                  -5.780
REMARK UNBOUND:                -6.474
REMARK SMILES CCCCCCCCCCCCCCCCCCCCCCCCCCCCCC(=O)[O-]
REMARK SMILES IDX 16 1 17 2 18 3 19 4 20 5 21 6 22 7 23 8 24 9 25 10 26 11
REMARK SMILES IDX 27 12 28 13 29 14 30 15 31 16 32 17 15 18 14 19 13 20 12 21
REMARK SMILES IDX 11 22 10 23 9 24 8 25 7 26 6 27 5 28 4 29 3 30 2 31 1 32
REMARK H PARENT
REMARK Flexibility Score: inf
ROOT
ATOM      1  C   UNL     1      27.327  28.884  13.059  1.00  0.00     0.000 C 
ENDROOT
BRANCH   1   2
ATOM      2  C   UNL     1      28.317  29.852  12.387  1.00  0.00     0.000 C 
BRANCH   2   3
ATOM      3  C   UNL     1      28.508  29.571  10.885  1.00  0.00     0.000 C 
BRANCH   3   4
ATOM      4  C   UNL     1      29.937  29.168  10.463  1.00  0.00     0.000 C 
BRANCH   4   5
ATOM      5  C   UNL     1      30.884  28.799  11.621  1.00  0.00     0.000 C 
BRANCH   5   6
ATOM      6  C   UNL     1      32.335  29.289  11.456  1.00  0.00     0.000 C 
BRANCH   6   7
ATOM      7  C   UNL     1      32.648  29.846  10.050  1.00  0.00     0.000 C 
BRANCH   7   8
ATOM      8  C   UNL     1      33.959  29.287   9.469  1.00  0.00     0.000 C 
BRANCH   8   9
ATOM      9  C   UNL     1      33.736  28.060   8.570  1.00  0.00     0.000 C 
BRANCH   9  10
ATOM     10  C   UNL     1      34.381  26.785   9.135  1.00  0.00     0.000 C 
BRANCH  10  11
ATOM     11  C   UNL     1      33.437  26.083  10.121  1.00  0.00     0.000 C 
BRANCH  11  12
ATOM     12  C   UNL     1      34.154  25.583  11.388  1.00  0.00     0.000 C 
BRANCH  12  13
ATOM     13  C   UNL     1      34.963  26.655  12.146  1.00  0.00     0.006 C 
BRANCH  13  14
ATOM     14  C   UNL     1      34.224  27.285  13.339  1.00  0.00     0.053 C 
BRANCH  14  15
ATOM     15  C   UNL     1      34.418  26.505  14.603  1.00  0.00     0.041 C 
ATOM     16  O   UNL     1      35.279  25.587  14.657  1.00  0.00    -0.550 OA
ATOM     17  O   UNL     1      33.645  26.791  15.722  1.00  0.00    -0.550 OA
ENDBRANCH  14  15
ENDBRANCH  13  14
ENDBRANCH  12  13
ENDBRANCH  11  12
ENDBRANCH  10  11
ENDBRANCH   9  10
ENDBRANCH   8   9
ENDBRANCH   7   8
ENDBRANCH   6   7
ENDBRANCH   5   6
ENDBRANCH   4   5
ENDBRANCH   3   4
ENDBRANCH   2   3
ENDBRANCH   1   2
BRANCH   1  18
ATOM     18  C   UNL     1      27.909  27.473  13.248  1.00  0.00     0.000 C 
BRANCH  18  19
ATOM     19  C   UNL     1      27.115  26.630  14.261  1.00  0.00     0.000 C 
BRANCH  19  20
ATOM     20  C   UNL     1      28.020  25.940  15.299  1.00  0.00     0.000 C 
BRANCH  20  21
ATOM     21  C   UNL     1      28.952  24.856  14.725  1.00  0.00     0.000 C 
BRANCH  21  22
ATOM     22  C   UNL     1      30.430  25.285  14.724  1.00  0.00     0.000 C 
BRANCH  22  23
ATOM     23  C   UNL     1      30.981  25.505  13.305  1.00  0.00     0.000 C 
BRANCH  23  24
ATOM     24  C   UNL     1      30.352  24.558  12.268  1.00  0.00    -0.000 C 
BRANCH  24  25
ATOM     25  C   UNL     1      29.884  25.291  10.998  1.00  0.00    -0.000 C 
BRANCH  25  26
ATOM     26  C   UNL     1      28.442  24.969  10.556  1.00  0.00    -0.000 C 
BRANCH  26  27
ATOM     27  C   UNL     1      27.692  26.125   9.864  1.00  0.00    -0.000 C 
BRANCH  27  28
ATOM     28  C   UNL     1      26.156  26.061   9.971  1.00  0.00    -0.000 C 
BRANCH  28  29
ATOM     29  C   UNL     1      25.480  27.394  10.340  1.00  0.00    -0.000 C 
BRANCH  29  30
ATOM     30  C   UNL     1      24.332  27.243  11.362  1.00  0.00    -0.000 C 
BRANCH  30  31
ATOM     31  C   UNL     1      24.373  25.892  12.091  1.00  0.00    -0.003 C 
ATOM     32  C   UNL     1      23.150  25.046  11.750  1.00  0.00     0.004 C 
ENDBRANCH  30  31
ENDBRANCH  29  30
ENDBRANCH  28  29
ENDBRANCH  27  28
ENDBRANCH  26  27
ENDBRANCH  25  26
ENDBRANCH  24  25
ENDBRANCH  23  24
ENDBRANCH  22  23
ENDBRANCH  21  22
ENDBRANCH  20  21
ENDBRANCH  19  20
ENDBRANCH  18  19
ENDBRANCH   1  18
TORSDOF 28
ENDMDL
MODEL 6
REMARK VINA RESULT:    -2.694      1.672      5.153
REMARK INTER + INTRA:         -13.577
REMARK INTER:                  -7.639
REMARK INTRA:                  -5.938
REMARK UNBOUND:                -6.474
REMARK SMILES CCCCCCCCCCCCCCCCCCCCCCCCCCCCCC(=O)[O-]
REMARK SMILES IDX 16 1 17 2 18 3 19 4 20 5 21 6 22 7 23 8 24 9 25 10 26 11
REMARK SMILES IDX 27 12 28 13 29 14 30 15 31 16 32 17 15 18 14 19 13 20 12 21
REMARK SMILES IDX 11 22 10 23 9 24 8 25 7 26 6 27 5 28 4 29 3 30 2 31 1 32
REMARK H PARENT
REMARK Flexibility Score: inf
ROOT
ATOM      1  C   UNL     1      28.266  28.887   9.859  1.00  0.00     0.000 C 
ENDROOT
BRANCH   1   2
ATOM      2  C   UNL     1      28.765  29.824  10.974  1.00  0.00     0.000 C 
BRANCH   2   3
ATOM      3  C   UNL     1      28.302  29.388  12.377  1.00  0.00     0.000 C 
BRANCH   3   4
ATOM      4  C   UNL     1      26.811  29.005  12.493  1.00  0.00     0.000 C 
BRANCH   4   5
ATOM      5  C   UNL     1      26.532  27.649  13.170  1.00  0.00     0.000 C 
BRANCH   5   6
ATOM      6  C   UNL     1      27.655  27.140  14.094  1.00  0.00     0.000 C 
BRANCH   6   7
ATOM      7  C   UNL     1      27.272  25.883  14.905  1.00  0.00     0.000 C 
BRANCH   7   8
ATOM      8  C   UNL     1      28.437  25.350  15.758  1.00  0.00     0.000 C 
BRANCH   8   9
ATOM      9  C   UNL     1      28.916  23.960  15.310  1.00  0.00     0.000 C 
BRANCH   9  10
ATOM     10  C   UNL     1      30.440  23.885  15.136  1.00  0.00     0.000 C 
BRANCH  10  11
ATOM     11  C   UNL     1      31.050  25.291  15.036  1.00  0.00     0.000 C 
BRANCH  11  12
ATOM     12  C   UNL     1      32.559  25.315  15.345  1.00  0.00     0.000 C 
BRANCH  12  13
ATOM     13  C   UNL     1      33.280  26.625  14.970  1.00  0.00     0.006 C 
BRANCH  13  14
ATOM     14  C   UNL     1      34.750  26.446  14.555  1.00  0.00     0.053 C 
BRANCH  14  15
ATOM     15  C   UNL     1      34.898  26.158  13.093  1.00  0.00     0.041 C 
ATOM     16  O   UNL     1      35.357  27.036  12.316  1.00  0.00    -0.550 OA
ATOM     17  O   UNL     1      34.524  24.918  12.587  1.00  0.00    -0.550 OA
ENDBRANCH  14  15
ENDBRANCH  13  14
ENDBRANCH  12  13
ENDBRANCH  11  12
ENDBRANCH  10  11
ENDBRANCH   9  10
ENDBRANCH   8   9
ENDBRANCH   7   8
ENDBRANCH   6   7
ENDBRANCH   5   6
ENDBRANCH   4   5
ENDBRANCH   3   4
ENDBRANCH   2   3
ENDBRANCH   1   2
BRANCH   1  18
ATOM     18  C   UNL     1      29.385  28.461   8.895  1.00  0.00     0.000 C 
BRANCH  18  19
ATOM     19  C   UNL     1      30.536  29.480   8.827  1.00  0.00     0.000 C 
BRANCH  19  20
ATOM     20  C   UNL     1      31.888  28.880   9.257  1.00  0.00     0.000 C 
BRANCH  20  21
ATOM     21  C   UNL     1      32.466  29.456  10.563  1.00  0.00     0.000 C 
BRANCH  21  22
ATOM     22  C   UNL     1      32.124  28.597  11.793  1.00  0.00     0.000 C 
BRANCH  22  23
ATOM     23  C   UNL     1      31.859  27.126  11.432  1.00  0.00     0.000 C 
BRANCH  23  24
ATOM     24  C   UNL     1      30.565  26.581  12.061  1.00  0.00    -0.000 C 
BRANCH  24  25
ATOM     25  C   UNL     1      29.732  25.741  11.076  1.00  0.00    -0.000 C 
BRANCH  25  26
ATOM     26  C   UNL     1      29.048  24.504  11.694  1.00  0.00    -0.000 C 
BRANCH  26  27
ATOM     27  C   UNL     1      27.522  24.424  11.486  1.00  0.00    -0.000 C 
BRANCH  27  28
ATOM     28  C   UNL     1      26.941  25.473  10.518  1.00  0.00    -0.000 C 
BRANCH  28  29
ATOM     29  C   UNL     1      25.423  25.360  10.282  1.00  0.00    -0.000 C 
BRANCH  29  30
ATOM     30  C   UNL     1      24.730  26.722  10.063  1.00  0.00    -0.000 C 
BRANCH  30  31
ATOM     31  C   UNL     1      23.611  26.980  11.082  1.00  0.00    -0.003 C 
ATOM     32  C   UNL     1      22.492  27.819  10.472  1.00  0.00     0.004 C 
ENDBRANCH  30  31
ENDBRANCH  29  30
ENDBRANCH  28  29
ENDBRANCH  27  28
ENDBRANCH  26  27
ENDBRANCH  25  26
ENDBRANCH  24  25
ENDBRANCH  23  24
ENDBRANCH  22  23
ENDBRANCH  21  22
ENDBRANCH  20  21
ENDBRANCH  19  20
ENDBRANCH  18  19
ENDBRANCH   1  18
TORSDOF 28
ENDMDL
MODEL 7
REMARK VINA RESULT:    -2.693      3.441      7.993
REMARK INTER + INTRA:         -13.574
REMARK INTER:                  -8.502
REMARK INTRA:                  -5.071
REMARK UNBOUND:                -6.474
REMARK SMILES CCCCCCCCCCCCCCCCCCCCCCCCCCCCCC(=O)[O-]
REMARK SMILES IDX 16 1 17 2 18 3 19 4 20 5 21 6 22 7 23 8 24 9 25 10 26 11
REMARK SMILES IDX 27 12 28 13 29 14 30 15 31 16 32 17 15 18 14 19 13 20 12 21
REMARK SMILES IDX 11 22 10 23 9 24 8 25 7 26 6 27 5 28 4 29 3 30 2 31 1 32
REMARK H PARENT
REMARK Flexibility Score: inf
ROOT
ATOM      1  C   UNL     1      32.012  29.335  11.199  1.00  0.00     0.000 C 
ENDROOT
BRANCH   1   2
ATOM      2  C   UNL     1      30.609  29.133  10.599  1.00  0.00     0.000 C 
BRANCH   2   3
ATOM      3  C   UNL     1      29.480  29.338  11.626  1.00  0.00     0.000 C 
BRANCH   3   4
ATOM      4  C   UNL     1      28.053  29.063  11.105  1.00  0.00     0.000 C 
BRANCH   4   5
ATOM      5  C   UNL     1      27.359  27.829  11.712  1.00  0.00     0.000 C 
BRANCH   5   6
ATOM      6  C   UNL     1      26.790  28.034  13.129  1.00  0.00     0.000 C 
BRANCH   6   7
ATOM      7  C   UNL     1      27.419  27.107  14.192  1.00  0.00     0.000 C 
BRANCH   7   8
ATOM      8  C   UNL     1      26.583  25.839  14.442  1.00  0.00     0.000 C 
BRANCH   8   9
ATOM      9  C   UNL     1      27.010  24.660  13.553  1.00  0.00     0.000 C 
BRANCH   9  10
ATOM     10  C   UNL     1      25.836  24.047  12.776  1.00  0.00     0.000 C 
BRANCH  10  11
ATOM     11  C   UNL     1      24.509  24.706  13.176  1.00  0.00     0.000 C 
BRANCH  11  12
ATOM     12  C   UNL     1      23.777  25.356  11.988  1.00  0.00     0.000 C 
BRANCH  12  13
ATOM     13  C   UNL     1      23.709  26.896  12.026  1.00  0.00     0.006 C 
BRANCH  13  14
ATOM     14  C   UNL     1      22.488  27.498  11.311  1.00  0.00     0.053 C 
BRANCH  14  15
ATOM     15  C   UNL     1      22.877  28.509  10.277  1.00  0.00     0.041 C 
ATOM     16  O   UNL     1      23.989  29.095  10.348  1.00  0.00    -0.550 OA
ATOM     17  O   UNL     1      22.007  28.807   9.233  1.00  0.00    -0.550 OA
ENDBRANCH  14  15
ENDBRANCH  13  14
ENDBRANCH  12  13
ENDBRANCH  11  12
ENDBRANCH  10  11
ENDBRANCH   9  10
ENDBRANCH   8   9
ENDBRANCH   7   8
ENDBRANCH   6   7
ENDBRANCH   5   6
ENDBRANCH   4   5
ENDBRANCH   3   4
ENDBRANCH   2   3
ENDBRANCH   1   2
BRANCH   1  18
ATOM     18  C   UNL     1      33.089  29.573  10.128  1.00  0.00     0.000 C 
BRANCH  18  19
ATOM     19  C   UNL     1      33.089  28.494   9.030  1.00  0.00     0.000 C 
BRANCH  19  20
ATOM     20  C   UNL     1      34.186  27.434   9.238  1.00  0.00     0.000 C 
BRANCH  20  21
ATOM     21  C   UNL     1      35.154  27.723  10.402  1.00  0.00     0.000 C 
BRANCH  21  22
ATOM     22  C   UNL     1      35.725  26.440  11.032  1.00  0.00     0.000 C 
BRANCH  22  23
ATOM     23  C   UNL     1      35.303  26.264  12.500  1.00  0.00     0.000 C 
BRANCH  23  24
ATOM     24  C   UNL     1      34.447  27.433  13.018  1.00  0.00    -0.000 C 
BRANCH  24  25
ATOM     25  C   UNL     1      34.083  27.290  14.507  1.00  0.00    -0.000 C 
BRANCH  25  26
ATOM     26  C   UNL     1      34.244  25.868  15.082  1.00  0.00    -0.000 C 
BRANCH  26  27
ATOM     27  C   UNL     1      32.928  25.159  15.462  1.00  0.00    -0.000 C 
BRANCH  27  28
ATOM     28  C   UNL     1      32.065  24.706  14.269  1.00  0.00    -0.000 C 
BRANCH  28  29
ATOM     29  C   UNL     1      30.769  25.513  14.069  1.00  0.00    -0.000 C 
BRANCH  29  30
ATOM     30  C   UNL     1      30.527  25.941  12.605  1.00  0.00    -0.000 C 
BRANCH  30  31
ATOM     31  C   UNL     1      31.664  25.498  11.672  1.00  0.00    -0.003 C 
ATOM     32  C   UNL     1      31.203  25.471  10.218  1.00  0.00     0.004 C 
ENDBRANCH  30  31
ENDBRANCH  29  30
ENDBRANCH  28  29
ENDBRANCH  27  28
ENDBRANCH  26  27
ENDBRANCH  25  26
ENDBRANCH  24  25
ENDBRANCH  23  24
ENDBRANCH  22  23
ENDBRANCH  21  22
ENDBRANCH  20  21
ENDBRANCH  19  20
ENDBRANCH  18  19
ENDBRANCH   1  18
TORSDOF 28
ENDMDL
MODEL 8
REMARK VINA RESULT:    -2.672      2.701      7.699
REMARK INTER + INTRA:         -13.519
REMARK INTER:                  -7.602
REMARK INTRA:                  -5.917
REMARK UNBOUND:                -6.474
REMARK SMILES CCCCCCCCCCCCCCCCCCCCCCCCCCCCCC(=O)[O-]
REMARK SMILES IDX 16 1 17 2 18 3 19 4 20 5 21 6 22 7 23 8 24 9 25 10 26 11
REMARK SMILES IDX 27 12 28 13 29 14 30 15 31 16 32 17 15 18 14 19 13 20 12 21
REMARK SMILES IDX 11 22 10 23 9 24 8 25 7 26 6 27 5 28 4 29 3 30 2 31 1 32
REMARK H PARENT
REMARK Flexibility Score: inf
ROOT
ATOM      1  C   UNL     1      33.884  27.605  13.450  1.00  0.00     0.000 C 
ENDROOT
BRANCH   1   2
ATOM      2  C   UNL     1      34.307  26.765  14.668  1.00  0.00     0.000 C 
BRANCH   2   3
ATOM      3  C   UNL     1      33.116  26.105  15.387  1.00  0.00     0.000 C 
BRANCH   3   4
ATOM      4  C   UNL     1      32.816  24.649  14.970  1.00  0.00     0.000 C 
BRANCH   4   5
ATOM      5  C   UNL     1      31.332  24.241  15.028  1.00  0.00     0.000 C 
BRANCH   5   6
ATOM      6  C   UNL     1      30.332  25.393  14.807  1.00  0.00     0.000 C 
BRANCH   6   7
ATOM      7  C   UNL     1      29.110  25.345  15.750  1.00  0.00     0.000 C 
BRANCH   7   8
ATOM      8  C   UNL     1      27.782  25.177  14.991  1.00  0.00     0.000 C 
BRANCH   8   9
ATOM      9  C   UNL     1      27.967  25.155  13.465  1.00  0.00     0.000 C 
BRANCH   9  10
ATOM     10  C   UNL     1      27.100  26.200  12.747  1.00  0.00     0.000 C 
BRANCH  10  11
ATOM     11  C   UNL     1      27.408  27.614  13.261  1.00  0.00     0.000 C 
BRANCH  11  12
ATOM     12  C   UNL     1      26.715  28.717  12.439  1.00  0.00     0.000 C 
BRANCH  12  13
ATOM     13  C   UNL     1      25.571  28.229  11.527  1.00  0.00     0.006 C 
BRANCH  13  14
ATOM     14  C   UNL     1      25.513  28.919  10.154  1.00  0.00     0.053 C 
BRANCH  14  15
ATOM     15  C   UNL     1      26.794  28.777   9.391  1.00  0.00     0.041 C 
ATOM     16  O   UNL     1      27.251  27.633   9.125  1.00  0.00    -0.550 OA
ATOM     17  O   UNL     1      27.486  29.908   8.975  1.00  0.00    -0.550 OA
ENDBRANCH  14  15
ENDBRANCH  13  14
ENDBRANCH  12  13
ENDBRANCH  11  12
ENDBRANCH  10  11
ENDBRANCH   9  10
ENDBRANCH   8   9
ENDBRANCH   7   8
ENDBRANCH   6   7
ENDBRANCH   5   6
ENDBRANCH   4   5
ENDBRANCH   3   4
ENDBRANCH   2   3
ENDBRANCH   1   2
BRANCH   1  18
ATOM     18  C   UNL     1      34.733  27.315  12.202  1.00  0.00     0.000 C 
BRANCH  18  19
ATOM     19  C   UNL     1      35.691  26.126  12.394  1.00  0.00     0.000 C 
BRANCH  19  20
ATOM     20  C   UNL     1      36.335  25.662  11.075  1.00  0.00     0.000 C 
BRANCH  20  21
ATOM     21  C   UNL     1      35.980  26.519   9.845  1.00  0.00     0.000 C 
BRANCH  21  22
ATOM     22  C   UNL     1      35.086  25.772   8.839  1.00  0.00     0.000 C 
BRANCH  22  23
ATOM     23  C   UNL     1      33.813  26.558   8.483  1.00  0.00     0.000 C 
BRANCH  23  24
ATOM     24  C   UNL     1      32.527  25.850   8.943  1.00  0.00    -0.000 C 
BRANCH  24  25
ATOM     25  C   UNL     1      32.767  24.886  10.120  1.00  0.00    -0.000 C 
BRANCH  25  26
ATOM     26  C   UNL     1      31.945  25.194  11.388  1.00  0.00    -0.000 C 
BRANCH  26  27
ATOM     27  C   UNL     1      30.698  26.074  11.167  1.00  0.00    -0.000 C 
BRANCH  27  28
ATOM     28  C   UNL     1      30.784  27.488  11.774  1.00  0.00    -0.000 C 
BRANCH  28  29
ATOM     29  C   UNL     1      30.192  28.603  10.891  1.00  0.00    -0.000 C 
BRANCH  29  30
ATOM     30  C   UNL     1      31.211  29.218   9.908  1.00  0.00    -0.000 C 
BRANCH  30  31
ATOM     31  C   UNL     1      32.532  29.594  10.594  1.00  0.00    -0.003 C 
ATOM     32  C   UNL     1      33.591  29.991   9.570  1.00  0.00     0.004 C 
ENDBRANCH  30  31
ENDBRANCH  29  30
ENDBRANCH  28  29
ENDBRANCH  27  28
ENDBRANCH  26  27
ENDBRANCH  25  26
ENDBRANCH  24  25
ENDBRANCH  23  24
ENDBRANCH  22  23
ENDBRANCH  21  22
ENDBRANCH  20  21
ENDBRANCH  19  20
ENDBRANCH  18  19
ENDBRANCH   1  18
TORSDOF 28
ENDMDL
MODEL 9
REMARK VINA RESULT:    -2.635      3.260      6.959
REMARK INTER + INTRA:         -13.421
REMARK INTER:                  -6.859
REMARK INTRA:                  -6.562
REMARK UNBOUND:                -6.474
REMARK SMILES CCCCCCCCCCCCCCCCCCCCCCCCCCCCCC(=O)[O-]
REMARK SMILES IDX 16 1 17 2 18 3 19 4 20 5 21 6 22 7 23 8 24 9 25 10 26 11
REMARK SMILES IDX 27 12 28 13 29 14 30 15 31 16 32 17 15 18 14 19 13 20 12 21
REMARK SMILES IDX 11 22 10 23 9 24 8 25 7 26 6 27 5 28 4 29 3 30 2 31 1 32
REMARK H PARENT
REMARK Flexibility Score: inf
ROOT
ATOM      1  C   UNL     1      28.105  25.234  13.369  1.00  0.00     0.000 C 
ENDROOT
BRANCH   1   2
ATOM      2  C   UNL     1      27.838  26.644  13.926  1.00  0.00     0.000 C 
BRANCH   2   3
ATOM      3  C   UNL     1      26.470  27.210  13.502  1.00  0.00     0.000 C 
BRANCH   3   4
ATOM      4  C   UNL     1      26.518  28.542  12.723  1.00  0.00     0.000 C 
BRANCH   4   5
ATOM      5  C   UNL     1      27.658  29.496  13.123  1.00  0.00     0.000 C 
BRANCH   5   6
ATOM      6  C   UNL     1      28.626  29.868  11.984  1.00  0.00     0.000 C 
BRANCH   6   7
ATOM      7  C   UNL     1      28.441  29.017  10.708  1.00  0.00     0.000 C 
BRANCH   7   8
ATOM      8  C   UNL     1      28.242  29.876   9.447  1.00  0.00     0.000 C 
BRANCH   8   9
ATOM      9  C   UNL     1      28.003  29.033   8.183  1.00  0.00     0.000 C 
BRANCH   9  10
ATOM     10  C   UNL     1      28.343  27.549   8.388  1.00  0.00     0.000 C 
BRANCH  10  11
ATOM     11  C   UNL     1      27.122  26.663   8.101  1.00  0.00     0.000 C 
BRANCH  11  12
ATOM     12  C   UNL     1      25.785  27.409   8.263  1.00  0.00     0.000 C 
BRANCH  12  13
ATOM     13  C   UNL     1      25.102  27.233   9.635  1.00  0.00     0.006 C 
BRANCH  13  14
ATOM     14  C   UNL     1      24.212  28.413  10.059  1.00  0.00     0.053 C 
BRANCH  14  15
ATOM     15  C   UNL     1      23.067  27.980  10.921  1.00  0.00     0.041 C 
ATOM     16  O   UNL     1      23.237  27.104  11.810  1.00  0.00    -0.550 OA
ATOM     17  O   UNL     1      21.808  28.542  10.741  1.00  0.00    -0.550 OA
ENDBRANCH  14  15
ENDBRANCH  13  14
ENDBRANCH  12  13
ENDBRANCH  11  12
ENDBRANCH  10  11
ENDBRANCH   9  10
ENDBRANCH   8   9
ENDBRANCH   7   8
ENDBRANCH   6   7
ENDBRANCH   5   6
ENDBRANCH   4   5
ENDBRANCH   3   4
ENDBRANCH   2   3
ENDBRANCH   1   2
BRANCH   1  18
ATOM     18  C   UNL     1      28.165  25.202  11.834  1.00  0.00     0.000 C 
BRANCH  18  19
ATOM     19  C   UNL     1      29.511  25.702  11.278  1.00  0.00     0.000 C 
BRANCH  19  20
ATOM     20  C   UNL     1      30.605  24.619  11.305  1.00  0.00     0.000 C 
BRANCH  20  21
ATOM     21  C   UNL     1      31.740  24.870  12.316  1.00  0.00     0.000 C 
BRANCH  21  22
ATOM     22  C   UNL     1      31.722  26.299  12.886  1.00  0.00     0.000 C 
BRANCH  22  23
ATOM     23  C   UNL     1      33.134  26.868  13.102  1.00  0.00     0.000 C 
BRANCH  23  24
ATOM     24  C   UNL     1      33.223  28.373  12.797  1.00  0.00    -0.000 C 
BRANCH  24  25
ATOM     25  C   UNL     1      32.097  28.861  11.868  1.00  0.00    -0.000 C 
BRANCH  25  26
ATOM     26  C   UNL     1      32.575  29.494  10.545  1.00  0.00    -0.000 C 
BRANCH  26  27
ATOM     27  C   UNL     1      31.852  28.994   9.277  1.00  0.00    -0.000 C 
BRANCH  27  28
ATOM     28  C   UNL     1      31.920  27.472   9.047  1.00  0.00    -0.000 C 
BRANCH  28  29
ATOM     29  C   UNL     1      33.317  26.938   8.680  1.00  0.00    -0.000 C 
BRANCH  29  30
ATOM     30  C   UNL     1      33.692  25.634   9.416  1.00  0.00    -0.000 C 
BRANCH  30  31
ATOM     31  C   UNL     1      35.043  25.738  10.139  1.00  0.00    -0.003 C 
ATOM     32  C   UNL     1      35.509  27.188  10.228  1.00  0.00     0.004 C 
ENDBRANCH  30  31
ENDBRANCH  29  30
ENDBRANCH  28  29
ENDBRANCH  27  28
ENDBRANCH  26  27
ENDBRANCH  25  26
ENDBRANCH  24  25
ENDBRANCH  23  24
ENDBRANCH  22  23
ENDBRANCH  21  22
ENDBRANCH  20  21
ENDBRANCH  19  20
ENDBRANCH  18  19
ENDBRANCH   1  18
TORSDOF 28
ENDMDL
