MODEL 1
REMARK VINA RESULT:    -5.223      0.000      0.000
REMARK INTER + INTRA:          -6.270
REMARK INTER:                  -6.292
REMARK INTRA:                   0.022
REMARK UNBOUND:                 0.022
REMARK SMILES O=c1c(O)c(-c2ccc(O)c(O)c2)oc2cc(O)cc(O)c12
REMARK SMILES IDX 5 1 3 2 2 3 1 4 22 5 20 6 19 7 17 8 16 9 15 10 14 11 6 12
REMARK SMILES IDX 7 13 8 14 9 15 13 16 11 17 10 18 12 20 4 22 21 24 18 26
REMARK H PARENT 10 19 12 21 4 23 21 25 18 27
REMARK Flexibility Score: inf
ROOT
ATOM      1  C   UNL     1       6.454  -0.695  -3.761  1.00  0.00     0.180 A 
ATOM      2  C   UNL     1       7.431  -0.106  -4.583  1.00  0.00     0.208 A 
ATOM      3  C   UNL     1       7.202   1.180  -5.097  1.00  0.00     0.238 A 
ATOM      4  O   UNL     1       8.055   1.681  -5.875  1.00  0.00    -0.285 OA
ATOM      5  C   UNL     1       6.008   1.868  -4.770  1.00  0.00     0.111 A 
ATOM      6  C   UNL     1       5.690   3.190  -5.202  1.00  0.00     0.134 A 
ATOM      7  C   UNL     1       4.423   3.721  -4.926  1.00  0.00     0.093 A 
ATOM      8  C   UNL     1       3.488   3.001  -4.179  1.00  0.00     0.123 A 
ATOM      9  C   UNL     1       3.811   1.733  -3.703  1.00  0.00     0.094 A 
ATOM     10  C   UNL     1       5.053   1.163  -3.992  1.00  0.00     0.146 A 
ATOM     11  O   UNL     1       5.316  -0.053  -3.527  1.00  0.00    -0.452 OA
ENDROOT
BRANCH   1  12
ATOM     12  C   UNL     1       6.634  -2.038  -3.162  1.00  0.00     0.025 A 
ATOM     13  C   UNL     1       6.974  -3.123  -3.986  1.00  0.00     0.016 A 
ATOM     14  C   UNL     1       7.128  -4.401  -3.445  1.00  0.00     0.051 A 
ATOM     15  C   UNL     1       6.931  -4.620  -2.078  1.00  0.00     0.157 A 
ATOM     16  C   UNL     1       6.415  -2.263  -1.791  1.00  0.00     0.062 A 
ATOM     17  C   UNL     1       6.568  -3.546  -1.246  1.00  0.00     0.158 A 
BRANCH  15  18
ATOM     18  O   UNL     1       7.093  -5.907  -1.566  1.00  0.00    -0.504 OA
ATOM     19  H   UNL     1       6.612  -6.706  -1.959  1.00  0.00     0.293 HD
ENDBRANCH  15  18
BRANCH  17  20
ATOM     20  O   UNL     1       6.355  -3.760   0.115  1.00  0.00    -0.504 OA
ATOM     21  H   UNL     1       6.433  -3.007   0.788  1.00  0.00     0.293 HD
ENDBRANCH  17  20
ENDBRANCH   1  12
BRANCH   2  22
ATOM     22  O   UNL     1       8.592  -0.811  -4.911  1.00  0.00    -0.502 OA
ATOM     23  H   UNL     1       9.243  -0.488  -5.616  1.00  0.00     0.293 HD
ENDBRANCH   2  22
BRANCH   6  24
ATOM     24  O   UNL     1       6.584   4.028  -5.875  1.00  0.00    -0.507 OA
ATOM     25  H   UNL     1       7.565   3.831  -6.010  1.00  0.00     0.293 HD
ENDBRANCH   6  24
BRANCH   8  26
ATOM     26  O   UNL     1       2.236   3.544  -3.896  1.00  0.00    -0.508 OA
ATOM     27  H   UNL     1       1.523   3.633  -4.611  1.00  0.00     0.293 HD
ENDBRANCH   8  26
TORSDOF 6
ENDMDL
MODEL 2
REMARK VINA RESULT:    -5.077      2.045      3.186
REMARK INTER + INTRA:          -6.095
REMARK INTER:                  -5.775
REMARK INTRA:                  -0.320
REMARK UNBOUND:                 0.022
REMARK SMILES O=c1c(O)c(-c2ccc(O)c(O)c2)oc2cc(O)cc(O)c12
REMARK SMILES IDX 5 1 3 2 2 3 1 4 22 5 20 6 19 7 17 8 16 9 15 10 14 11 6 12
REMARK SMILES IDX 7 13 8 14 9 15 13 16 11 17 10 18 12 20 4 22 21 24 18 26
REMARK H PARENT 10 19 12 21 4 23 21 25 18 27
REMARK Flexibility Score: inf
ROOT
ATOM      1  C   UNL     1       6.317  -0.248  -4.069  1.00  0.00     0.180 A 
ATOM      2  C   UNL     1       5.038  -0.376  -3.501  1.00  0.00     0.208 A 
ATOM      3  C   UNL     1       4.182   0.737  -3.493  1.00  0.00     0.238 A 
ATOM      4  O   UNL     1       3.059   0.632  -2.935  1.00  0.00    -0.285 OA
ATOM      5  C   UNL     1       4.610   1.959  -4.066  1.00  0.00     0.111 A 
ATOM      6  C   UNL     1       3.811   3.139  -4.149  1.00  0.00     0.134 A 
ATOM      7  C   UNL     1       4.382   4.328  -4.619  1.00  0.00     0.093 A 
ATOM      8  C   UNL     1       5.704   4.363  -5.070  1.00  0.00     0.123 A 
ATOM      9  C   UNL     1       6.473   3.202  -5.048  1.00  0.00     0.094 A 
ATOM     10  C   UNL     1       5.943   2.010  -4.551  1.00  0.00     0.146 A 
ATOM     11  O   UNL     1       6.714   0.929  -4.539  1.00  0.00    -0.452 OA
ENDROOT
BRANCH   1  12
ATOM     12  C   UNL     1       7.267  -1.383  -4.137  1.00  0.00     0.025 A 
ATOM     13  C   UNL     1       7.185  -2.289  -5.205  1.00  0.00     0.016 A 
ATOM     14  C   UNL     1       8.057  -3.378  -5.278  1.00  0.00     0.051 A 
ATOM     15  C   UNL     1       9.012  -3.588  -4.279  1.00  0.00     0.157 A 
ATOM     16  C   UNL     1       8.214  -1.606  -3.122  1.00  0.00     0.062 A 
ATOM     17  C   UNL     1       9.089  -2.699  -3.192  1.00  0.00     0.158 A 
BRANCH  15  18
ATOM     18  O   UNL     1       9.870  -4.682  -4.379  1.00  0.00    -0.504 OA
ATOM     19  H   UNL     1       9.566  -5.571  -4.757  1.00  0.00     0.293 HD
ENDBRANCH  15  18
BRANCH  17  20
ATOM     20  O   UNL     1      10.030  -2.910  -2.185  1.00  0.00    -0.504 OA
ATOM     21  H   UNL     1       9.759  -2.967  -1.210  1.00  0.00     0.293 HD
ENDBRANCH  17  20
ENDBRANCH   1  12
BRANCH   2  22
ATOM     22  O   UNL     1       4.644  -1.585  -2.921  1.00  0.00    -0.502 OA
ATOM     23  H   UNL     1       4.772  -2.477  -3.382  1.00  0.00     0.293 HD
ENDBRANCH   2  22
BRANCH   6  24
ATOM     24  O   UNL     1       2.455   3.189  -3.811  1.00  0.00    -0.507 OA
ATOM     25  H   UNL     1       2.061   2.816  -2.960  1.00  0.00     0.293 HD
ENDBRANCH   6  24
BRANCH   8  26
ATOM     26  O   UNL     1       6.259   5.547  -5.551  1.00  0.00    -0.508 OA
ATOM     27  H   UNL     1       7.203   5.826  -5.311  1.00  0.00     0.293 HD
ENDBRANCH   8  26
TORSDOF 6
ENDMDL
MODEL 3
REMARK VINA RESULT:    -5.039      1.802      7.270
REMARK INTER + INTRA:          -6.048
REMARK INTER:                  -5.721
REMARK INTRA:                  -0.327
REMARK UNBOUND:                 0.022
REMARK SMILES O=c1c(O)c(-c2ccc(O)c(O)c2)oc2cc(O)cc(O)c12
REMARK SMILES IDX 5 1 3 2 2 3 1 4 22 5 20 6 19 7 17 8 16 9 15 10 14 11 6 12
REMARK SMILES IDX 7 13 8 14 9 15 13 16 11 17 10 18 12 20 4 22 21 24 18 26
REMARK H PARENT 10 19 12 21 4 23 21 25 18 27
REMARK Flexibility Score: inf
ROOT
ATOM      1  C   UNL     1       5.421   1.230  -4.446  1.00  0.00     0.180 A 
ATOM      2  C   UNL     1       4.226   0.886  -3.792  1.00  0.00     0.208 A 
ATOM      3  C   UNL     1       4.172  -0.309  -3.057  1.00  0.00     0.238 A 
ATOM      4  O   UNL     1       3.084  -0.639  -2.518  1.00  0.00    -0.285 OA
ATOM      5  C   UNL     1       5.318  -1.136  -2.971  1.00  0.00     0.111 A 
ATOM      6  C   UNL     1       5.388  -2.348  -2.221  1.00  0.00     0.134 A 
ATOM      7  C   UNL     1       6.531  -3.152  -2.314  1.00  0.00     0.093 A 
ATOM      8  C   UNL     1       7.631  -2.755  -3.079  1.00  0.00     0.123 A 
ATOM      9  C   UNL     1       7.594  -1.545  -3.767  1.00  0.00     0.094 A 
ATOM     10  C   UNL     1       6.455  -0.739  -3.723  1.00  0.00     0.146 A 
ATOM     11  O   UNL     1       6.458   0.401  -4.402  1.00  0.00    -0.452 OA
ENDROOT
BRANCH   1  12
ATOM     12  C   UNL     1       5.563   2.485  -5.220  1.00  0.00     0.025 A 
ATOM     13  C   UNL     1       5.249   2.493  -6.588  1.00  0.00     0.016 A 
ATOM     14  C   UNL     1       5.395   3.661  -7.341  1.00  0.00     0.051 A 
ATOM     15  C   UNL     1       5.871   4.832  -6.745  1.00  0.00     0.157 A 
ATOM     16  C   UNL     1       6.062   3.658  -4.627  1.00  0.00     0.062 A 
ATOM     17  C   UNL     1       6.211   4.831  -5.382  1.00  0.00     0.158 A 
BRANCH  15  18
ATOM     18  O   UNL     1       6.005   5.983  -7.522  1.00  0.00    -0.504 OA
ATOM     19  H   UNL     1       5.575   6.068  -8.435  1.00  0.00     0.293 HD
ENDBRANCH  15  18
BRANCH  17  20
ATOM     20  O   UNL     1       6.700   5.992  -4.784  1.00  0.00    -0.504 OA
ATOM     21  H   UNL     1       7.695   6.171  -4.709  1.00  0.00     0.293 HD
ENDBRANCH  17  20
ENDBRANCH   1  12
BRANCH   2  22
ATOM     22  O   UNL     1       3.100   1.706  -3.908  1.00  0.00    -0.502 OA
ATOM     23  H   UNL     1       2.975   2.541  -3.350  1.00  0.00     0.293 HD
ENDBRANCH   2  22
BRANCH   6  24
ATOM     24  O   UNL     1       4.383  -2.790  -1.356  1.00  0.00    -0.507 OA
ATOM     25  H   UNL     1       3.704  -3.502  -1.580  1.00  0.00     0.293 HD
ENDBRANCH   6  24
BRANCH   8  26
ATOM     26  O   UNL     1       8.770  -3.555  -3.153  1.00  0.00    -0.508 OA
ATOM     27  H   UNL     1       9.238  -3.890  -2.319  1.00  0.00     0.293 HD
ENDBRANCH   8  26
TORSDOF 6
ENDMDL
MODEL 4
REMARK VINA RESULT:    -4.943      1.815      7.010
REMARK INTER + INTRA:          -5.933
REMARK INTER:                  -5.966
REMARK INTRA:                   0.033
REMARK UNBOUND:                 0.022
REMARK SMILES O=c1c(O)c(-c2ccc(O)c(O)c2)oc2cc(O)cc(O)c12
REMARK SMILES IDX 5 1 3 2 2 3 1 4 22 5 20 6 19 7 17 8 16 9 15 10 14 11 6 12
REMARK SMILES IDX 7 13 8 14 9 15 13 16 11 17 10 18 12 20 4 22 21 24 18 26
REMARK H PARENT 10 19 12 21 4 23 21 25 18 27
REMARK Flexibility Score: inf
ROOT
ATOM      1  C   UNL     1       5.911  -0.991  -3.730  1.00  0.00     0.180 A 
ATOM      2  C   UNL     1       5.955  -1.812  -2.590  1.00  0.00     0.208 A 
ATOM      3  C   UNL     1       6.727  -2.984  -2.623  1.00  0.00     0.238 A 
ATOM      4  O   UNL     1       6.721  -3.742  -1.619  1.00  0.00    -0.285 OA
ATOM      5  C   UNL     1       7.459  -3.313  -3.791  1.00  0.00     0.111 A 
ATOM      6  C   UNL     1       8.305  -4.454  -3.922  1.00  0.00     0.134 A 
ATOM      7  C   UNL     1       8.877  -4.750  -5.166  1.00  0.00     0.093 A 
ATOM      8  C   UNL     1       8.684  -3.911  -6.266  1.00  0.00     0.123 A 
ATOM      9  C   UNL     1       7.907  -2.762  -6.132  1.00  0.00     0.094 A 
ATOM     10  C   UNL     1       7.295  -2.459  -4.913  1.00  0.00     0.146 A 
ATOM     11  O   UNL     1       6.554  -1.361  -4.831  1.00  0.00    -0.452 OA
ENDROOT
BRANCH   1  12
ATOM     12  C   UNL     1       5.139   0.272  -3.762  1.00  0.00     0.025 A 
ATOM     13  C   UNL     1       3.790   0.268  -3.377  1.00  0.00     0.016 A 
ATOM     14  C   UNL     1       3.038   1.444  -3.419  1.00  0.00     0.051 A 
ATOM     15  C   UNL     1       3.615   2.638  -3.862  1.00  0.00     0.157 A 
ATOM     16  C   UNL     1       5.714   1.469  -4.227  1.00  0.00     0.062 A 
ATOM     17  C   UNL     1       4.959   2.651  -4.272  1.00  0.00     0.158 A 
BRANCH  15  18
ATOM     18  O   UNL     1       2.840   3.797  -3.892  1.00  0.00    -0.504 OA
ATOM     19  H   UNL     1       2.519   4.251  -3.046  1.00  0.00     0.293 HD
ENDBRANCH  15  18
BRANCH  17  20
ATOM     20  O   UNL     1       5.538   3.834  -4.729  1.00  0.00    -0.504 OA
ATOM     21  H   UNL     1       5.177   4.740  -4.457  1.00  0.00     0.293 HD
ENDBRANCH  17  20
ENDBRANCH   1  12
BRANCH   2  22
ATOM     22  O   UNL     1       5.209  -1.480  -1.455  1.00  0.00    -0.502 OA
ATOM     23  H   UNL     1       5.075  -2.123  -0.685  1.00  0.00     0.293 HD
ENDBRANCH   2  22
BRANCH   6  24
ATOM     24  O   UNL     1       8.637  -5.306  -2.865  1.00  0.00    -0.507 OA
ATOM     25  H   UNL     1       8.298  -5.207  -1.919  1.00  0.00     0.293 HD
ENDBRANCH   6  24
BRANCH   8  26
ATOM     26  O   UNL     1       9.269  -4.205  -7.496  1.00  0.00    -0.508 OA
ATOM     27  H   UNL     1      10.274  -4.270  -7.602  1.00  0.00     0.293 HD
ENDBRANCH   8  26
TORSDOF 6
ENDMDL
MODEL 5
REMARK VINA RESULT:    -4.843      1.645      6.607
REMARK INTER + INTRA:          -5.812
REMARK INTER:                  -5.492
REMARK INTRA:                  -0.319
REMARK UNBOUND:                 0.022
REMARK SMILES O=c1c(O)c(-c2ccc(O)c(O)c2)oc2cc(O)cc(O)c12
REMARK SMILES IDX 5 1 3 2 2 3 1 4 22 5 20 6 19 7 17 8 16 9 15 10 14 11 6 12
REMARK SMILES IDX 7 13 8 14 9 15 13 16 11 17 10 18 12 20 4 22 21 24 18 26
REMARK H PARENT 10 19 12 21 4 23 21 25 18 27
REMARK Flexibility Score: inf
ROOT
ATOM      1  C   UNL     1       6.094  -0.013  -4.440  1.00  0.00     0.180 A 
ATOM      2  C   UNL     1       7.342  -0.626  -4.644  1.00  0.00     0.208 A 
ATOM      3  C   UNL     1       7.636  -1.816  -3.960  1.00  0.00     0.238 A 
ATOM      4  O   UNL     1       8.775  -2.332  -4.105  1.00  0.00    -0.285 OA
ATOM      5  C   UNL     1       6.673  -2.387  -3.092  1.00  0.00     0.111 A 
ATOM      6  C   UNL     1       6.849  -3.610  -2.379  1.00  0.00     0.134 A 
ATOM      7  C   UNL     1       5.882  -4.012  -1.449  1.00  0.00     0.093 A 
ATOM      8  C   UNL     1       4.717  -3.267  -1.254  1.00  0.00     0.123 A 
ATOM      9  C   UNL     1       4.509  -2.102  -1.988  1.00  0.00     0.094 A 
ATOM     10  C   UNL     1       5.471  -1.657  -2.898  1.00  0.00     0.146 A 
ATOM     11  O   UNL     1       5.239  -0.536  -3.569  1.00  0.00    -0.452 OA
ENDROOT
BRANCH   1  12
ATOM     12  C   UNL     1       5.702   1.230  -5.144  1.00  0.00     0.025 A 
ATOM     13  C   UNL     1       5.140   1.149  -6.428  1.00  0.00     0.016 A 
ATOM     14  C   UNL     1       4.782   2.309  -7.118  1.00  0.00     0.051 A 
ATOM     15  C   UNL     1       4.993   3.567  -6.545  1.00  0.00     0.157 A 
ATOM     16  C   UNL     1       5.933   2.496  -4.577  1.00  0.00     0.062 A 
ATOM     17  C   UNL     1       5.575   3.662  -5.269  1.00  0.00     0.158 A 
BRANCH  15  18
ATOM     18  O   UNL     1       4.624   4.708  -7.257  1.00  0.00    -0.504 OA
ATOM     19  H   UNL     1       4.379   4.673  -8.239  1.00  0.00     0.293 HD
ENDBRANCH  15  18
BRANCH  17  20
ATOM     20  O   UNL     1       5.803   4.913  -4.698  1.00  0.00    -0.504 OA
ATOM     21  H   UNL     1       6.642   5.443  -4.898  1.00  0.00     0.293 HD
ENDBRANCH  17  20
ENDBRANCH   1  12
BRANCH   2  22
ATOM     22  O   UNL     1       8.286  -0.035  -5.488  1.00  0.00    -0.502 OA
ATOM     23  H   UNL     1       9.283  -0.144  -5.350  1.00  0.00     0.293 HD
ENDBRANCH   2  22
BRANCH   6  24
ATOM     24  O   UNL     1       7.932  -4.474  -2.566  1.00  0.00    -0.507 OA
ATOM     25  H   UNL     1       8.854  -4.186  -2.859  1.00  0.00     0.293 HD
ENDBRANCH   6  24
BRANCH   8  26
ATOM     26  O   UNL     1       3.753  -3.683  -0.337  1.00  0.00    -0.508 OA
ATOM     27  H   UNL     1       3.871  -3.539   0.659  1.00  0.00     0.293 HD
ENDBRANCH   8  26
TORSDOF 6
ENDMDL
MODEL 6
REMARK VINA RESULT:    -4.818      3.307      5.915
REMARK INTER + INTRA:          -5.782
REMARK INTER:                  -5.453
REMARK INTRA:                  -0.329
REMARK UNBOUND:                 0.022
REMARK SMILES O=c1c(O)c(-c2ccc(O)c(O)c2)oc2cc(O)cc(O)c12
REMARK SMILES IDX 5 1 3 2 2 3 1 4 22 5 20 6 19 7 17 8 16 9 15 10 14 11 6 12
REMARK SMILES IDX 7 13 8 14 9 15 13 16 11 17 10 18 12 20 4 22 21 24 18 26
REMARK H PARENT 10 19 12 21 4 23 21 25 18 27
REMARK Flexibility Score: inf
ROOT
ATOM      1  C   UNL     1       6.292   3.874  -5.300  1.00  0.00     0.180 A 
ATOM      2  C   UNL     1       6.324   4.105  -6.686  1.00  0.00     0.208 A 
ATOM      3  C   UNL     1       7.184   5.093  -7.192  1.00  0.00     0.238 A 
ATOM      4  O   UNL     1       7.170   5.333  -8.427  1.00  0.00    -0.285 OA
ATOM      5  C   UNL     1       8.013   5.827  -6.308  1.00  0.00     0.111 A 
ATOM      6  C   UNL     1       8.951   6.822  -6.714  1.00  0.00     0.134 A 
ATOM      7  C   UNL     1       9.624   7.574  -5.743  1.00  0.00     0.093 A 
ATOM      8  C   UNL     1       9.440   7.323  -4.382  1.00  0.00     0.123 A 
ATOM      9  C   UNL     1       8.570   6.313  -3.976  1.00  0.00     0.094 A 
ATOM     10  C   UNL     1       7.858   5.569  -4.920  1.00  0.00     0.146 A 
ATOM     11  O   UNL     1       7.032   4.623  -4.491  1.00  0.00    -0.452 OA
ENDROOT
BRANCH   1  12
ATOM     12  C   UNL     1       5.430   2.834  -4.695  1.00  0.00     0.025 A 
ATOM     13  C   UNL     1       4.135   3.169  -4.270  1.00  0.00     0.016 A 
ATOM     14  C   UNL     1       3.313   2.209  -3.678  1.00  0.00     0.051 A 
ATOM     15  C   UNL     1       3.775   0.903  -3.486  1.00  0.00     0.157 A 
ATOM     16  C   UNL     1       5.901   1.526  -4.482  1.00  0.00     0.062 A 
ATOM     17  C   UNL     1       5.077   0.560  -3.886  1.00  0.00     0.158 A 
BRANCH  15  18
ATOM     18  O   UNL     1       2.930  -0.035  -2.893  1.00  0.00    -0.504 OA
ATOM     19  H   UNL     1       3.181  -0.522  -2.041  1.00  0.00     0.293 HD
ENDBRANCH  15  18
BRANCH  17  20
ATOM     20  O   UNL     1       5.550  -0.736  -3.684  1.00  0.00    -0.504 OA
ATOM     21  H   UNL     1       5.336  -1.253  -2.840  1.00  0.00     0.293 HD
ENDBRANCH  17  20
ENDBRANCH   1  12
BRANCH   2  22
ATOM     22  O   UNL     1       5.482   3.386  -7.539  1.00  0.00    -0.502 OA
ATOM     23  H   UNL     1       5.758   2.510  -7.964  1.00  0.00     0.293 HD
ENDBRANCH   2  22
BRANCH   6  24
ATOM     24  O   UNL     1       9.277   7.089  -8.047  1.00  0.00    -0.507 OA
ATOM     25  H   UNL     1       8.837   7.798  -8.616  1.00  0.00     0.293 HD
ENDBRANCH   6  24
BRANCH   8  26
ATOM     26  O   UNL     1      10.125   8.066  -3.423  1.00  0.00    -0.508 OA
ATOM     27  H   UNL     1       9.639   8.530  -2.664  1.00  0.00     0.293 HD
ENDBRANCH   8  26
TORSDOF 6
ENDMDL
MODEL 7
REMARK VINA RESULT:    -4.771      2.125      3.796
REMARK INTER + INTRA:          -5.725
REMARK INTER:                  -5.824
REMARK INTRA:                   0.099
REMARK UNBOUND:                 0.022
REMARK SMILES O=c1c(O)c(-c2ccc(O)c(O)c2)oc2cc(O)cc(O)c12
REMARK SMILES IDX 5 1 3 2 2 3 1 4 22 5 20 6 19 7 17 8 16 9 15 10 14 11 6 12
REMARK SMILES IDX 7 13 8 14 9 15 13 16 11 17 10 18 12 20 4 22 21 24 18 26
REMARK H PARENT 10 19 12 21 4 23 21 25 18 27
REMARK Flexibility Score: inf
ROOT
ATOM      1  C   UNL     1       4.486  -0.133  -3.351  1.00  0.00     0.180 A 
ATOM      2  C   UNL     1       3.670   1.010  -3.389  1.00  0.00     0.208 A 
ATOM      3  C   UNL     1       4.146   2.167  -4.027  1.00  0.00     0.238 A 
ATOM      4  O   UNL     1       3.434   3.204  -4.011  1.00  0.00    -0.285 OA
ATOM      5  C   UNL     1       5.426   2.161  -4.634  1.00  0.00     0.111 A 
ATOM      6  C   UNL     1       5.992   3.262  -5.342  1.00  0.00     0.134 A 
ATOM      7  C   UNL     1       7.318   3.188  -5.789  1.00  0.00     0.093 A 
ATOM      8  C   UNL     1       8.075   2.028  -5.608  1.00  0.00     0.123 A 
ATOM      9  C   UNL     1       7.511   0.926  -4.970  1.00  0.00     0.094 A 
ATOM     10  C   UNL     1       6.203   0.982  -4.482  1.00  0.00     0.146 A 
ATOM     11  O   UNL     1       5.707  -0.087  -3.871  1.00  0.00    -0.452 OA
ENDROOT
BRANCH   1  12
ATOM     12  C   UNL     1       4.044  -1.397  -2.718  1.00  0.00     0.025 A 
ATOM     13  C   UNL     1       2.743  -1.868  -2.950  1.00  0.00     0.016 A 
ATOM     14  C   UNL     1       2.298  -3.046  -2.347  1.00  0.00     0.051 A 
ATOM     15  C   UNL     1       3.139  -3.764  -1.491  1.00  0.00     0.157 A 
ATOM     16  C   UNL     1       4.882  -2.108  -1.840  1.00  0.00     0.062 A 
ATOM     17  C   UNL     1       4.437  -3.291  -1.233  1.00  0.00     0.158 A 
BRANCH  15  18
ATOM     18  O   UNL     1       2.668  -4.938  -0.904  1.00  0.00    -0.504 OA
ATOM     19  H   UNL     1       2.761  -5.839  -1.357  1.00  0.00     0.293 HD
ENDBRANCH  15  18
BRANCH  17  20
ATOM     20  O   UNL     1       5.276  -3.993  -0.369  1.00  0.00    -0.504 OA
ATOM     21  H   UNL     1       5.634  -4.910  -0.606  1.00  0.00     0.293 HD
ENDBRANCH  17  20
ENDBRANCH   1  12
BRANCH   2  22
ATOM     22  O   UNL     1       2.419   1.003  -2.765  1.00  0.00    -0.502 OA
ATOM     23  H   UNL     1       2.066   0.197  -2.265  1.00  0.00     0.293 HD
ENDBRANCH   2  22
BRANCH   6  24
ATOM     24  O   UNL     1       5.293   4.431  -5.655  1.00  0.00    -0.507 OA
ATOM     25  H   UNL     1       5.723   5.322  -5.855  1.00  0.00     0.293 HD
ENDBRANCH   6  24
BRANCH   8  26
ATOM     26  O   UNL     1       9.388   1.958  -6.070  1.00  0.00    -0.508 OA
ATOM     27  H   UNL     1      10.172   1.908  -5.430  1.00  0.00     0.293 HD
ENDBRANCH   8  26
TORSDOF 6
ENDMDL
MODEL 8
REMARK VINA RESULT:    -4.681      2.146      3.254
REMARK INTER + INTRA:          -5.617
REMARK INTER:                  -5.324
REMARK INTRA:                  -0.294
REMARK UNBOUND:                 0.022
REMARK SMILES O=c1c(O)c(-c2ccc(O)c(O)c2)oc2cc(O)cc(O)c12
REMARK SMILES IDX 5 1 3 2 2 3 1 4 22 5 20 6 19 7 17 8 16 9 15 10 14 11 6 12
REMARK SMILES IDX 7 13 8 14 9 15 13 16 11 17 10 18 12 20 4 22 21 24 18 26
REMARK H PARENT 10 19 12 21 4 23 21 25 18 27
REMARK Flexibility Score: inf
ROOT
ATOM      1  C   UNL     1       5.948   0.611  -4.802  1.00  0.00     0.180 A 
ATOM      2  C   UNL     1       5.228   0.454  -5.998  1.00  0.00     0.208 A 
ATOM      3  C   UNL     1       5.162   1.529  -6.899  1.00  0.00     0.238 A 
ATOM      4  O   UNL     1       4.472   1.402  -7.943  1.00  0.00    -0.285 OA
ATOM      5  C   UNL     1       5.831   2.742  -6.600  1.00  0.00     0.111 A 
ATOM      6  C   UNL     1       5.865   3.881  -7.457  1.00  0.00     0.134 A 
ATOM      7  C   UNL     1       6.447   5.071  -7.002  1.00  0.00     0.093 A 
ATOM      8  C   UNL     1       7.052   5.142  -5.745  1.00  0.00     0.123 A 
ATOM      9  C   UNL     1       7.076   4.017  -4.924  1.00  0.00     0.094 A 
ATOM     10  C   UNL     1       6.473   2.826  -5.336  1.00  0.00     0.146 A 
ATOM     11  O   UNL     1       6.508   1.781  -4.519  1.00  0.00    -0.452 OA
ENDROOT
BRANCH   1  12
ATOM     12  C   UNL     1       6.084  -0.485  -3.814  1.00  0.00     0.025 A 
ATOM     13  C   UNL     1       5.043  -0.729  -2.905  1.00  0.00     0.016 A 
ATOM     14  C   UNL     1       5.158  -1.744  -1.952  1.00  0.00     0.051 A 
ATOM     15  C   UNL     1       6.319  -2.519  -1.881  1.00  0.00     0.157 A 
ATOM     16  C   UNL     1       7.260  -1.252  -3.729  1.00  0.00     0.062 A 
ATOM     17  C   UNL     1       7.378  -2.270  -2.771  1.00  0.00     0.158 A 
BRANCH  15  18
ATOM     18  O   UNL     1       6.405  -3.526  -0.921  1.00  0.00    -0.504 OA
ATOM     19  H   UNL     1       6.093  -3.388   0.033  1.00  0.00     0.293 HD
ENDBRANCH  15  18
BRANCH  17  20
ATOM     20  O   UNL     1       8.544  -3.030  -2.697  1.00  0.00    -0.504 OA
ATOM     21  H   UNL     1       9.269  -2.960  -3.401  1.00  0.00     0.293 HD
ENDBRANCH  17  20
ENDBRANCH   1  12
BRANCH   2  22
ATOM     22  O   UNL     1       4.557  -0.743  -6.264  1.00  0.00    -0.502 OA
ATOM     23  H   UNL     1       4.072  -1.266  -5.546  1.00  0.00     0.293 HD
ENDBRANCH   2  22
BRANCH   6  24
ATOM     24  O   UNL     1       5.371   3.889  -8.765  1.00  0.00    -0.507 OA
ATOM     25  H   UNL     1       4.723   3.211  -9.139  1.00  0.00     0.293 HD
ENDBRANCH   6  24
BRANCH   8  26
ATOM     26  O   UNL     1       7.642   6.326  -5.307  1.00  0.00    -0.508 OA
ATOM     27  H   UNL     1       7.755   6.528  -4.320  1.00  0.00     0.293 HD
ENDBRANCH   8  26
TORSDOF 6
ENDMDL
MODEL 9
REMARK VINA RESULT:    -4.572      2.415      6.962
REMARK INTER + INTRA:          -5.485
REMARK INTER:                  -5.399
REMARK INTRA:                  -0.086
REMARK UNBOUND:                 0.022
REMARK SMILES O=c1c(O)c(-c2ccc(O)c(O)c2)oc2cc(O)cc(O)c12
REMARK SMILES IDX 5 1 3 2 2 3 1 4 22 5 20 6 19 7 17 8 16 9 15 10 14 11 6 12
REMARK SMILES IDX 7 13 8 14 9 15 13 16 11 17 10 18 12 20 4 22 21 24 18 26
REMARK H PARENT 10 19 12 21 4 23 21 25 18 27
REMARK Flexibility Score: inf
ROOT
ATOM      1  C   UNL     1       6.023  -0.659  -5.414  1.00  0.00     0.180 A 
ATOM      2  C   UNL     1       5.986  -1.153  -6.729  1.00  0.00     0.208 A 
ATOM      3  C   UNL     1       6.725  -2.305  -7.045  1.00  0.00     0.238 A 
ATOM      4  O   UNL     1       6.731  -2.712  -8.236  1.00  0.00    -0.285 OA
ATOM      5  C   UNL     1       7.479  -2.957  -6.039  1.00  0.00     0.111 A 
ATOM      6  C   UNL     1       8.232  -4.152  -6.237  1.00  0.00     0.134 A 
ATOM      7  C   UNL     1       9.044  -4.636  -5.203  1.00  0.00     0.093 A 
ATOM      8  C   UNL     1       9.080  -4.002  -3.959  1.00  0.00     0.123 A 
ATOM      9  C   UNL     1       8.302  -2.868  -3.737  1.00  0.00     0.094 A 
ATOM     10  C   UNL     1       7.509  -2.342  -4.760  1.00  0.00     0.146 A 
ATOM     11  O   UNL     1       6.792  -1.254  -4.510  1.00  0.00    -0.452 OA
ENDROOT
BRANCH   1  12
ATOM     12  C   UNL     1       5.251   0.535  -5.000  1.00  0.00     0.025 A 
ATOM     13  C   UNL     1       4.274   0.414  -4.000  1.00  0.00     0.016 A 
ATOM     14  C   UNL     1       3.520   1.523  -3.608  1.00  0.00     0.051 A 
ATOM     15  C   UNL     1       3.719   2.764  -4.218  1.00  0.00     0.157 A 
ATOM     16  C   UNL     1       5.436   1.780  -5.627  1.00  0.00     0.062 A 
ATOM     17  C   UNL     1       4.679   2.894  -5.236  1.00  0.00     0.158 A 
BRANCH  15  18
ATOM     18  O   UNL     1       2.953   3.854  -3.805  1.00  0.00    -0.504 OA
ATOM     19  H   UNL     1       2.079   3.739  -3.308  1.00  0.00     0.293 HD
ENDBRANCH  15  18
BRANCH  17  20
ATOM     20  O   UNL     1       4.873   4.126  -5.859  1.00  0.00    -0.504 OA
ATOM     21  H   UNL     1       4.227   4.475  -6.557  1.00  0.00     0.293 HD
ENDBRANCH  17  20
ENDBRANCH   1  12
BRANCH   2  22
ATOM     22  O   UNL     1       5.253  -0.483  -7.713  1.00  0.00    -0.502 OA
ATOM     23  H   UNL     1       4.482   0.134  -7.491  1.00  0.00     0.293 HD
ENDBRANCH   2  22
BRANCH   6  24
ATOM     24  O   UNL     1       8.197  -4.912  -7.410  1.00  0.00    -0.507 OA
ATOM     25  H   UNL     1       9.011  -5.197  -7.935  1.00  0.00     0.293 HD
ENDBRANCH   6  24
BRANCH   8  26
ATOM     26  O   UNL     1       9.879  -4.500  -2.931  1.00  0.00    -0.508 OA
ATOM     27  H   UNL     1      10.878  -4.620  -3.047  1.00  0.00     0.293 HD
ENDBRANCH   8  26
TORSDOF 6
ENDMDL
