MODEL 1
REMARK VINA RESULT:    14.006      0.000      0.000
REMARK INTER + INTRA:          44.819
REMARK INTER:                  36.931
REMARK INTRA:                   7.887
REMARK UNBOUND:                 7.887
REMARK SMILES CCCCCCCCCCCCCCCCCCCCCCCCCCCCCC(=O)[O-]
REMARK SMILES IDX 16 1 17 2 18 3 19 4 20 5 21 6 22 7 23 8 24 9 25 10 26 11
REMARK SMILES IDX 27 12 28 13 29 14 30 15 31 16 32 17 15 18 14 19 13 20 12 21
REMARK SMILES IDX 11 22 10 23 9 24 8 25 7 26 6 27 5 28 4 29 3 30 2 31 1 32
REMARK H PARENT
REMARK Flexibility Score: inf
ROOT
ATOM      1  C   UNL     1       8.032  -8.251   9.242  1.00  0.00     0.000 C 
ENDROOT
BRANCH   1   2
ATOM      2  C   UNL     1       7.479  -9.536   9.895  1.00  0.00     0.000 C 
BRANCH   2   3
ATOM      3  C   UNL     1       5.945  -9.514  10.043  1.00  0.00     0.000 C 
BRANCH   3   4
ATOM      4  C   UNL     1       5.236  -8.817   8.868  1.00  0.00     0.000 C 
BRANCH   4   5
ATOM      5  C   UNL     1       5.431  -7.293   8.806  1.00  0.00     0.000 C 
BRANCH   5   6
ATOM      6  C   UNL     1       6.592  -6.872   7.887  1.00  0.00     0.000 C 
BRANCH   6   7
ATOM      7  C   UNL     1       6.369  -7.273   6.416  1.00  0.00     0.000 C 
BRANCH   7   8
ATOM      8  C   UNL     1       5.640  -6.225   5.554  1.00  0.00     0.000 C 
BRANCH   8   9
ATOM      9  C   UNL     1       6.221  -4.809   5.702  1.00  0.00     0.000 C 
BRANCH   9  10
ATOM     10  C   UNL     1       5.207  -3.709   5.341  1.00  0.00     0.000 C 
BRANCH  10  11
ATOM     11  C   UNL     1       4.374  -4.014   4.075  1.00  0.00     0.000 C 
BRANCH  11  12
ATOM     12  C   UNL     1       3.887  -2.749   3.346  1.00  0.00     0.000 C 
BRANCH  12  13
ATOM     13  C   UNL     1       2.844  -3.047   2.240  1.00  0.00     0.006 C 
BRANCH  13  14
ATOM     14  C   UNL     1       1.949  -1.839   1.919  1.00  0.00     0.053 C 
BRANCH  14  15
ATOM     15  C   UNL     1       0.494  -2.194   1.971  1.00  0.00     0.041 C 
ATOM     16  O   UNL     1       0.119  -3.366   1.703  1.00  0.00    -0.550 OA
ATOM     17  O   UNL     1      -0.446  -1.234   2.326  1.00  0.00    -0.550 OA
ENDBRANCH  14  15
ENDBRANCH  13  14
ENDBRANCH  12  13
ENDBRANCH  11  12
ENDBRANCH  10  11
ENDBRANCH   9  10
ENDBRANCH   8   9
ENDBRANCH   7   8
ENDBRANCH   6   7
ENDBRANCH   5   6
ENDBRANCH   4   5
ENDBRANCH   3   4
ENDBRANCH   2   3
ENDBRANCH   1   2
BRANCH   1  18
ATOM     18  C   UNL     1       9.547  -8.291   8.957  1.00  0.00     0.000 C 
BRANCH  18  19
ATOM     19  C   UNL     1       9.938  -8.381   7.472  1.00  0.00     0.000 C 
BRANCH  19  20
ATOM     20  C   UNL     1       9.691  -9.777   6.874  1.00  0.00     0.000 C 
BRANCH  20  21
ATOM     21  C   UNL     1       8.197 -10.124   6.775  1.00  0.00     0.000 C 
BRANCH  21  22
ATOM     22  C   UNL     1       7.435  -9.207   5.806  1.00  0.00     0.000 C 
BRANCH  22  23
ATOM     23  C   UNL     1       6.064  -9.800   5.448  1.00  0.00     0.000 C 
BRANCH  23  24
ATOM     24  C   UNL     1       4.993  -8.724   5.191  1.00  0.00    -0.000 C 
BRANCH  24  25
ATOM     25  C   UNL     1       3.602  -9.034   5.776  1.00  0.00    -0.000 C 
BRANCH  25  26
ATOM     26  C   UNL     1       3.591  -9.975   6.995  1.00  0.00    -0.000 C 
BRANCH  26  27
ATOM     27  C   UNL     1       2.884  -9.390   8.236  1.00  0.00    -0.000 C 
BRANCH  27  28
ATOM     28  C   UNL     1       1.442  -9.901   8.400  1.00  0.00    -0.000 C 
BRANCH  28  29
ATOM     29  C   UNL     1       0.650  -9.124   9.466  1.00  0.00    -0.000 C 
BRANCH  29  30
ATOM     30  C   UNL     1      -0.748  -8.668   8.994  1.00  0.00    -0.000 C 
BRANCH  30  31
ATOM     31  C   UNL     1      -0.787  -8.384   7.485  1.00  0.00    -0.003 C 
ATOM     32  C   UNL     1      -1.597  -9.443   6.743  1.00  0.00     0.004 C 
ENDBRANCH  30  31
ENDBRANCH  29  30
ENDBRANCH  28  29
ENDBRANCH  27  28
ENDBRANCH  26  27
ENDBRANCH  25  26
ENDBRANCH  24  25
ENDBRANCH  23  24
ENDBRANCH  22  23
ENDBRANCH  21  22
ENDBRANCH  20  21
ENDBRANCH  19  20
ENDBRANCH  18  19
ENDBRANCH   1  18
TORSDOF 28
ENDMDL
MODEL 2
REMARK VINA RESULT:    14.320      2.040      4.306
REMARK INTER + INTRA:          45.649
REMARK INTER:                  40.963
REMARK INTRA:                   4.686
REMARK UNBOUND:                 7.887
REMARK SMILES CCCCCCCCCCCCCCCCCCCCCCCCCCCCCC(=O)[O-]
REMARK SMILES IDX 16 1 17 2 18 3 19 4 20 5 21 6 22 7 23 8 24 9 25 10 26 11
REMARK SMILES IDX 27 12 28 13 29 14 30 15 31 16 32 17 15 18 14 19 13 20 12 21
REMARK SMILES IDX 11 22 10 23 9 24 8 25 7 26 6 27 5 28 4 29 3 30 2 31 1 32
REMARK H PARENT
REMARK Flexibility Score: inf
ROOT
ATOM      1  C   UNL     1       6.062  -7.932   9.241  1.00  0.00     0.000 C 
ENDROOT
BRANCH   1   2
ATOM      2  C   UNL     1       5.747  -9.166  10.112  1.00  0.00     0.000 C 
BRANCH   2   3
ATOM      3  C   UNL     1       4.246  -9.517  10.124  1.00  0.00     0.000 C 
BRANCH   3   4
ATOM      4  C   UNL     1       3.744 -10.053   8.771  1.00  0.00     0.000 C 
BRANCH   4   5
ATOM      5  C   UNL     1       4.734  -9.899   7.605  1.00  0.00     0.000 C 
BRANCH   5   6
ATOM      6  C   UNL     1       4.043  -9.855   6.231  1.00  0.00     0.000 C 
BRANCH   6   7
ATOM      7  C   UNL     1       3.519  -8.453   5.865  1.00  0.00     0.000 C 
BRANCH   7   8
ATOM      8  C   UNL     1       4.423  -7.643   4.917  1.00  0.00     0.000 C 
BRANCH   8   9
ATOM      9  C   UNL     1       3.636  -6.860   3.852  1.00  0.00     0.000 C 
BRANCH   9  10
ATOM     10  C   UNL     1       2.459  -6.066   4.446  1.00  0.00     0.000 C 
BRANCH  10  11
ATOM     11  C   UNL     1       2.447  -4.572   4.049  1.00  0.00     0.000 C 
BRANCH  11  12
ATOM     12  C   UNL     1       1.143  -4.136   3.357  1.00  0.00     0.000 C 
BRANCH  12  13
ATOM     13  C   UNL     1       1.247  -4.131   1.812  1.00  0.00     0.006 C 
BRANCH  13  14
ATOM     14  C   UNL     1       0.831  -2.789   1.187  1.00  0.00     0.053 C 
BRANCH  14  15
ATOM     15  C   UNL     1       1.939  -1.782   1.243  1.00  0.00     0.041 C 
ATOM     16  O   UNL     1       1.811  -0.736   1.932  1.00  0.00    -0.550 OA
ATOM     17  O   UNL     1       3.118  -2.003   0.541  1.00  0.00    -0.550 OA
ENDBRANCH  14  15
ENDBRANCH  13  14
ENDBRANCH  12  13
ENDBRANCH  11  12
ENDBRANCH  10  11
ENDBRANCH   9  10
ENDBRANCH   8   9
ENDBRANCH   7   8
ENDBRANCH   6   7
ENDBRANCH   5   6
ENDBRANCH   4   5
ENDBRANCH   3   4
ENDBRANCH   2   3
ENDBRANCH   1   2
BRANCH   1  18
ATOM     18  C   UNL     1       7.291  -7.128   9.710  1.00  0.00     0.000 C 
BRANCH  18  19
ATOM     19  C   UNL     1       8.630  -7.885   9.671  1.00  0.00     0.000 C 
BRANCH  19  20
ATOM     20  C   UNL     1       8.455  -9.411   9.767  1.00  0.00     0.000 C 
BRANCH  20  21
ATOM     21  C   UNL     1       8.710 -10.121   8.428  1.00  0.00     0.000 C 
BRANCH  21  22
ATOM     22  C   UNL     1       9.783  -9.425   7.579  1.00  0.00     0.000 C 
BRANCH  22  23
ATOM     23  C   UNL     1       9.692  -9.862   6.109  1.00  0.00     0.000 C 
BRANCH  23  24
ATOM     24  C   UNL     1       8.249  -9.873   5.573  1.00  0.00    -0.000 C 
BRANCH  24  25
ATOM     25  C   UNL     1       7.592  -8.487   5.435  1.00  0.00    -0.000 C 
BRANCH  25  26
ATOM     26  C   UNL     1       6.403  -8.221   6.376  1.00  0.00    -0.000 C 
BRANCH  26  27
ATOM     27  C   UNL     1       6.465  -6.860   7.101  1.00  0.00    -0.000 C 
BRANCH  27  28
ATOM     28  C   UNL     1       6.571  -5.669   6.133  1.00  0.00    -0.000 C 
BRANCH  28  29
ATOM     29  C   UNL     1       5.467  -4.620   6.353  1.00  0.00    -0.000 C 
BRANCH  29  30
ATOM     30  C   UNL     1       5.480  -3.475   5.317  1.00  0.00    -0.000 C 
BRANCH  30  31
ATOM     31  C   UNL     1       5.837  -3.973   3.908  1.00  0.00    -0.003 C 
ATOM     32  C   UNL     1       4.908  -3.371   2.857  1.00  0.00     0.004 C 
ENDBRANCH  30  31
ENDBRANCH  29  30
ENDBRANCH  28  29
ENDBRANCH  27  28
ENDBRANCH  26  27
ENDBRANCH  25  26
ENDBRANCH  24  25
ENDBRANCH  23  24
ENDBRANCH  22  23
ENDBRANCH  21  22
ENDBRANCH  20  21
ENDBRANCH  19  20
ENDBRANCH  18  19
ENDBRANCH   1  18
TORSDOF 28
ENDMDL
MODEL 3
REMARK VINA RESULT:    14.381      4.432     10.459
REMARK INTER + INTRA:          45.808
REMARK INTER:                  44.954
REMARK INTRA:                   0.853
REMARK UNBOUND:                 7.887
REMARK SMILES CCCCCCCCCCCCCCCCCCCCCCCCCCCCCC(=O)[O-]
REMARK SMILES IDX 16 1 17 2 18 3 19 4 20 5 21 6 22 7 23 8 24 9 25 10 26 11
REMARK SMILES IDX 27 12 28 13 29 14 30 15 31 16 32 17 15 18 14 19 13 20 12 21
REMARK SMILES IDX 11 22 10 23 9 24 8 25 7 26 6 27 5 28 4 29 3 30 2 31 1 32
REMARK H PARENT
REMARK Flexibility Score: inf
ROOT
ATOM      1  C   UNL     1       5.853  -3.700   4.338  1.00  0.00     0.000 C 
ENDROOT
BRANCH   1   2
ATOM      2  C   UNL     1       5.763  -4.406   5.707  1.00  0.00     0.000 C 
BRANCH   2   3
ATOM      3  C   UNL     1       5.676  -5.940   5.580  1.00  0.00     0.000 C 
BRANCH   3   4
ATOM      4  C   UNL     1       5.616  -6.654   6.943  1.00  0.00     0.000 C 
BRANCH   4   5
ATOM      5  C   UNL     1       4.878  -8.003   6.936  1.00  0.00     0.000 C 
BRANCH   5   6
ATOM      6  C   UNL     1       5.600  -9.087   7.755  1.00  0.00     0.000 C 
BRANCH   6   7
ATOM      7  C   UNL     1       5.986  -8.615   9.169  1.00  0.00     0.000 C 
BRANCH   7   8
ATOM      8  C   UNL     1       7.148  -7.604   9.228  1.00  0.00     0.000 C 
BRANCH   8   9
ATOM      9  C   UNL     1       8.315  -8.074  10.112  1.00  0.00     0.000 C 
BRANCH   9  10
ATOM     10  C   UNL     1       9.166  -9.167   9.442  1.00  0.00     0.000 C 
BRANCH  10  11
ATOM     11  C   UNL     1       8.712  -9.527   8.009  1.00  0.00     0.000 C 
BRANCH  11  12
ATOM     12  C   UNL     1       9.740  -9.144   6.930  1.00  0.00     0.000 C 
BRANCH  12  13
ATOM     13  C   UNL     1       9.194  -9.295   5.488  1.00  0.00     0.006 C 
BRANCH  13  14
ATOM     14  C   UNL     1       7.900 -10.121   5.421  1.00  0.00     0.053 C 
BRANCH  14  15
ATOM     15  C   UNL     1       6.953  -9.591   4.387  1.00  0.00     0.041 C 
ATOM     16  O   UNL     1       6.155  -8.662   4.677  1.00  0.00    -0.550 OA
ATOM     17  O   UNL     1       6.960 -10.116   3.101  1.00  0.00    -0.550 OA
ENDBRANCH  14  15
ENDBRANCH  13  14
ENDBRANCH  12  13
ENDBRANCH  11  12
ENDBRANCH  10  11
ENDBRANCH   9  10
ENDBRANCH   8   9
ENDBRANCH   7   8
ENDBRANCH   6   7
ENDBRANCH   5   6
ENDBRANCH   4   5
ENDBRANCH   3   4
ENDBRANCH   2   3
ENDBRANCH   1   2
BRANCH   1  18
ATOM     18  C   UNL     1       4.723  -4.077   3.359  1.00  0.00     0.000 C 
BRANCH  18  19
ATOM     19  C   UNL     1       4.312  -2.975   2.368  1.00  0.00     0.000 C 
BRANCH  19  20
ATOM     20  C   UNL     1       3.208  -3.427   1.396  1.00  0.00     0.000 C 
BRANCH  20  21
ATOM     21  C   UNL     1       1.795  -3.185   1.949  1.00  0.00     0.000 C 
BRANCH  21  22
ATOM     22  C   UNL     1       1.503  -1.699   2.204  1.00  0.00     0.000 C 
BRANCH  22  23
ATOM     23  C   UNL     1       0.038  -1.488   2.616  1.00  0.00     0.000 C 
BRANCH  23  24
ATOM     24  C   UNL     1      -0.214  -0.111   3.258  1.00  0.00    -0.000 C 
BRANCH  24  25
ATOM     25  C   UNL     1      -1.682   0.354   3.254  1.00  0.00    -0.000 C 
BRANCH  25  26
ATOM     26  C   UNL     1      -1.900   1.858   3.008  1.00  0.00    -0.000 C 
BRANCH  26  27
ATOM     27  C   UNL     1      -1.504   2.329   1.593  1.00  0.00    -0.000 C 
BRANCH  27  28
ATOM     28  C   UNL     1      -2.707   2.807   0.761  1.00  0.00    -0.000 C 
BRANCH  28  29
ATOM     29  C   UNL     1      -3.349   4.088   1.319  1.00  0.00    -0.000 C 
BRANCH  29  30
ATOM     30  C   UNL     1      -4.101   4.921   0.259  1.00  0.00    -0.000 C 
BRANCH  30  31
ATOM     31  C   UNL     1      -4.727   6.191   0.856  1.00  0.00    -0.003 C 
ATOM     32  C   UNL     1      -3.663   7.098   1.468  1.00  0.00     0.004 C 
ENDBRANCH  30  31
ENDBRANCH  29  30
ENDBRANCH  28  29
ENDBRANCH  27  28
ENDBRANCH  26  27
ENDBRANCH  25  26
ENDBRANCH  24  25
ENDBRANCH  23  24
ENDBRANCH  22  23
ENDBRANCH  21  22
ENDBRANCH  20  21
ENDBRANCH  19  20
ENDBRANCH  18  19
ENDBRANCH   1  18
TORSDOF 28
ENDMDL
MODEL 4
REMARK VINA RESULT:    14.563      4.144     10.240
REMARK INTER + INTRA:          46.289
REMARK INTER:                  47.740
REMARK INTRA:                  -1.452
REMARK UNBOUND:                 7.887
REMARK SMILES CCCCCCCCCCCCCCCCCCCCCCCCCCCCCC(=O)[O-]
REMARK SMILES IDX 16 1 17 2 18 3 19 4 20 5 21 6 22 7 23 8 24 9 25 10 26 11
REMARK SMILES IDX 27 12 28 13 29 14 30 15 31 16 32 17 15 18 14 19 13 20 12 21
REMARK SMILES IDX 11 22 10 23 9 24 8 25 7 26 6 27 5 28 4 29 3 30 2 31 1 32
REMARK H PARENT
REMARK Flexibility Score: inf
ROOT
ATOM      1  C   UNL     1       5.180  -3.939   3.668  1.00  0.00     0.000 C 
ENDROOT
BRANCH   1   2
ATOM      2  C   UNL     1       5.977  -5.114   4.272  1.00  0.00     0.000 C 
BRANCH   2   3
ATOM      3  C   UNL     1       5.600  -5.396   5.740  1.00  0.00     0.000 C 
BRANCH   3   4
ATOM      4  C   UNL     1       5.450  -6.898   6.044  1.00  0.00     0.000 C 
BRANCH   4   5
ATOM      5  C   UNL     1       5.758  -7.832   4.862  1.00  0.00     0.000 C 
BRANCH   5   6
ATOM      6  C   UNL     1       6.667  -9.012   5.250  1.00  0.00     0.000 C 
BRANCH   6   7
ATOM      7  C   UNL     1       6.710  -9.263   6.769  1.00  0.00     0.000 C 
BRANCH   7   8
ATOM      8  C   UNL     1       7.897 -10.115   7.259  1.00  0.00     0.000 C 
BRANCH   8   9
ATOM      9  C   UNL     1       8.564  -9.551   8.525  1.00  0.00     0.000 C 
BRANCH   9  10
ATOM     10  C   UNL     1       8.290  -8.050   8.725  1.00  0.00     0.000 C 
BRANCH  10  11
ATOM     11  C   UNL     1       7.597  -7.712  10.064  1.00  0.00     0.000 C 
BRANCH  11  12
ATOM     12  C   UNL     1       6.066  -7.602   9.947  1.00  0.00     0.000 C 
BRANCH  12  13
ATOM     13  C   UNL     1       5.343  -8.960  10.121  1.00  0.00     0.006 C 
BRANCH  13  14
ATOM     14  C   UNL     1       4.927  -9.593   8.783  1.00  0.00     0.053 C 
BRANCH  14  15
ATOM     15  C   UNL     1       3.477  -9.359   8.483  1.00  0.00     0.041 C 
ATOM     16  O   UNL     1       3.100  -9.156   7.299  1.00  0.00    -0.550 OA
ATOM     17  O   UNL     1       2.541  -9.375   9.510  1.00  0.00    -0.550 OA
ENDBRANCH  14  15
ENDBRANCH  13  14
ENDBRANCH  12  13
ENDBRANCH  11  12
ENDBRANCH  10  11
ENDBRANCH   9  10
ENDBRANCH   8   9
ENDBRANCH   7   8
ENDBRANCH   6   7
ENDBRANCH   5   6
ENDBRANCH   4   5
ENDBRANCH   3   4
ENDBRANCH   2   3
ENDBRANCH   1   2
BRANCH   1  18
ATOM     18  C   UNL     1       3.918  -3.557   4.467  1.00  0.00     0.000 C 
BRANCH  18  19
ATOM     19  C   UNL     1       2.581  -3.964   3.823  1.00  0.00     0.000 C 
BRANCH  19  20
ATOM     20  C   UNL     1       2.605  -3.869   2.287  1.00  0.00     0.000 C 
BRANCH  20  21
ATOM     21  C   UNL     1       2.717  -2.421   1.785  1.00  0.00     0.000 C 
BRANCH  21  22
ATOM     22  C   UNL     1       1.349  -1.759   1.565  1.00  0.00     0.000 C 
BRANCH  22  23
ATOM     23  C   UNL     1       0.694  -1.388   2.905  1.00  0.00     0.000 C 
BRANCH  23  24
ATOM     24  C   UNL     1       0.303   0.099   2.991  1.00  0.00    -0.000 C 
BRANCH  24  25
ATOM     25  C   UNL     1       1.107   1.041   2.075  1.00  0.00    -0.000 C 
BRANCH  25  26
ATOM     26  C   UNL     1       0.288   1.773   0.996  1.00  0.00    -0.000 C 
BRANCH  26  27
ATOM     27  C   UNL     1      -1.161   2.098   1.417  1.00  0.00    -0.000 C 
BRANCH  27  28
ATOM     28  C   UNL     1      -1.628   3.483   0.938  1.00  0.00    -0.000 C 
BRANCH  28  29
ATOM     29  C   UNL     1      -2.373   4.273   2.028  1.00  0.00    -0.000 C 
BRANCH  29  30
ATOM     30  C   UNL     1      -3.836   4.607   1.666  1.00  0.00    -0.000 C 
BRANCH  30  31
ATOM     31  C   UNL     1      -3.999   4.963   0.180  1.00  0.00    -0.003 C 
ATOM     32  C   UNL     1      -4.583   3.794  -0.608  1.00  0.00     0.004 C 
ENDBRANCH  30  31
ENDBRANCH  29  30
ENDBRANCH  28  29
ENDBRANCH  27  28
ENDBRANCH  26  27
ENDBRANCH  25  26
ENDBRANCH  24  25
ENDBRANCH  23  24
ENDBRANCH  22  23
ENDBRANCH  21  22
ENDBRANCH  20  21
ENDBRANCH  19  20
ENDBRANCH  18  19
ENDBRANCH   1  18
TORSDOF 28
ENDMDL
MODEL 5
REMARK VINA RESULT:    14.977      4.178      9.955
REMARK INTER + INTRA:          47.380
REMARK INTER:                  45.811
REMARK INTRA:                   1.569
REMARK UNBOUND:                 7.887
REMARK SMILES CCCCCCCCCCCCCCCCCCCCCCCCCCCCCC(=O)[O-]
REMARK SMILES IDX 16 1 17 2 18 3 19 4 20 5 21 6 22 7 23 8 24 9 25 10 26 11
REMARK SMILES IDX 27 12 28 13 29 14 30 15 31 16 32 17 15 18 14 19 13 20 12 21
REMARK SMILES IDX 11 22 10 23 9 24 8 25 7 26 6 27 5 28 4 29 3 30 2 31 1 32
REMARK H PARENT
REMARK Flexibility Score: inf
ROOT
ATOM      1  C   UNL     1       6.244  -3.781   4.454  1.00  0.00     0.000 C 
ENDROOT
BRANCH   1   2
ATOM      2  C   UNL     1       6.311  -4.302   5.905  1.00  0.00     0.000 C 
BRANCH   2   3
ATOM      3  C   UNL     1       5.630  -5.674   6.076  1.00  0.00     0.000 C 
BRANCH   3   4
ATOM      4  C   UNL     1       6.561  -6.736   6.687  1.00  0.00     0.000 C 
BRANCH   4   5
ATOM      5  C   UNL     1       7.020  -6.444   8.126  1.00  0.00     0.000 C 
BRANCH   5   6
ATOM      6  C   UNL     1       8.186  -7.341   8.578  1.00  0.00     0.000 C 
BRANCH   6   7
ATOM      7  C   UNL     1       7.930  -8.837   8.317  1.00  0.00     0.000 C 
BRANCH   7   8
ATOM      8  C   UNL     1       8.381  -9.349   6.936  1.00  0.00     0.000 C 
BRANCH   8   9
ATOM      9  C   UNL     1       7.282 -10.120   6.187  1.00  0.00     0.000 C 
BRANCH   9  10
ATOM     10  C   UNL     1       6.278  -9.191   5.482  1.00  0.00     0.000 C 
BRANCH  10  11
ATOM     11  C   UNL     1       5.174  -8.637   6.412  1.00  0.00     0.000 C 
BRANCH  11  12
ATOM     12  C   UNL     1       3.804  -9.305   6.197  1.00  0.00     0.000 C 
BRANCH  12  13
ATOM     13  C   UNL     1       3.230  -9.943   7.486  1.00  0.00     0.006 C 
BRANCH  13  14
ATOM     14  C   UNL     1       4.286 -10.123   8.588  1.00  0.00     0.053 C 
BRANCH  14  15
ATOM     15  C   UNL     1       4.185  -9.056   9.636  1.00  0.00     0.041 C 
ATOM     16  O   UNL     1       5.226  -8.498  10.073  1.00  0.00    -0.550 OA
ATOM     17  O   UNL     1       2.942  -8.672  10.123  1.00  0.00    -0.550 OA
ENDBRANCH  14  15
ENDBRANCH  13  14
ENDBRANCH  12  13
ENDBRANCH  11  12
ENDBRANCH  10  11
ENDBRANCH   9  10
ENDBRANCH   8   9
ENDBRANCH   7   8
ENDBRANCH   6   7
ENDBRANCH   5   6
ENDBRANCH   4   5
ENDBRANCH   3   4
ENDBRANCH   2   3
ENDBRANCH   1   2
BRANCH   1  18
ATOM     18  C   UNL     1       5.191  -4.489   3.578  1.00  0.00     0.000 C 
BRANCH  18  19
ATOM     19  C   UNL     1       3.725  -4.201   3.946  1.00  0.00     0.000 C 
BRANCH  19  20
ATOM     20  C   UNL     1       3.280  -2.781   3.555  1.00  0.00     0.000 C 
BRANCH  20  21
ATOM     21  C   UNL     1       1.901  -2.759   2.875  1.00  0.00     0.000 C 
BRANCH  21  22
ATOM     22  C   UNL     1       1.991  -2.573   1.353  1.00  0.00     0.000 C 
BRANCH  22  23
ATOM     23  C   UNL     1       1.254  -1.301   0.908  1.00  0.00     0.000 C 
BRANCH  23  24
ATOM     24  C   UNL     1       2.190  -0.090   0.745  1.00  0.00    -0.000 C 
BRANCH  24  25
ATOM     25  C   UNL     1       1.493   1.283   0.766  1.00  0.00    -0.000 C 
BRANCH  25  26
ATOM     26  C   UNL     1       0.740   1.624   2.065  1.00  0.00    -0.000 C 
BRANCH  26  27
ATOM     27  C   UNL     1      -0.280   2.773   1.919  1.00  0.00    -0.000 C 
BRANCH  27  28
ATOM     28  C   UNL     1      -1.737   2.303   2.072  1.00  0.00    -0.000 C 
BRANCH  28  29
ATOM     29  C   UNL     1      -2.745   3.255   1.404  1.00  0.00    -0.000 C 
BRANCH  29  30
ATOM     30  C   UNL     1      -2.966   2.974  -0.099  1.00  0.00    -0.000 C 
BRANCH  30  31
ATOM     31  C   UNL     1      -3.541   4.193  -0.837  1.00  0.00    -0.003 C 
ATOM     32  C   UNL     1      -4.489   4.986   0.058  1.00  0.00     0.004 C 
ENDBRANCH  30  31
ENDBRANCH  29  30
ENDBRANCH  28  29
ENDBRANCH  27  28
ENDBRANCH  26  27
ENDBRANCH  25  26
ENDBRANCH  24  25
ENDBRANCH  23  24
ENDBRANCH  22  23
ENDBRANCH  21  22
ENDBRANCH  20  21
ENDBRANCH  19  20
ENDBRANCH  18  19
ENDBRANCH   1  18
TORSDOF 28
ENDMDL
MODEL 6
REMARK VINA RESULT:    15.302      3.739      9.338
REMARK INTER + INTRA:          48.238
REMARK INTER:                  45.422
REMARK INTRA:                   2.816
REMARK UNBOUND:                 7.887
REMARK SMILES CCCCCCCCCCCCCCCCCCCCCCCCCCCCCC(=O)[O-]
REMARK SMILES IDX 16 1 17 2 18 3 19 4 20 5 21 6 22 7 23 8 24 9 25 10 26 11
REMARK SMILES IDX 27 12 28 13 29 14 30 15 31 16 32 17 15 18 14 19 13 20 12 21
REMARK SMILES IDX 11 22 10 23 9 24 8 25 7 26 6 27 5 28 4 29 3 30 2 31 1 32
REMARK H PARENT
REMARK Flexibility Score: inf
ROOT
ATOM      1  C   UNL     1       6.004  -5.086   5.145  1.00  0.00     0.000 C 
ENDROOT
BRANCH   1   2
ATOM      2  C   UNL     1       4.795  -6.044   5.082  1.00  0.00     0.000 C 
BRANCH   2   3
ATOM      3  C   UNL     1       5.200  -7.491   4.740  1.00  0.00     0.000 C 
BRANCH   3   4
ATOM      4  C   UNL     1       6.521  -7.919   5.405  1.00  0.00     0.000 C 
BRANCH   4   5
ATOM      5  C   UNL     1       6.567  -9.385   5.867  1.00  0.00     0.000 C 
BRANCH   5   6
ATOM      6  C   UNL     1       7.961 -10.019   5.715  1.00  0.00     0.000 C 
BRANCH   6   7
ATOM      7  C   UNL     1       9.074  -9.193   6.389  1.00  0.00     0.000 C 
BRANCH   7   8
ATOM      8  C   UNL     1       9.091  -9.249   7.928  1.00  0.00     0.000 C 
BRANCH   8   9
ATOM      9  C   UNL     1       7.958 -10.108   8.515  1.00  0.00     0.000 C 
BRANCH   9  10
ATOM     10  C   UNL     1       7.457  -9.586   9.873  1.00  0.00     0.000 C 
BRANCH  10  11
ATOM     11  C   UNL     1       7.570  -8.053  10.037  1.00  0.00     0.000 C 
BRANCH  11  12
ATOM     12  C   UNL     1       6.755  -7.267   8.995  1.00  0.00     0.000 C 
BRANCH  12  13
ATOM     13  C   UNL     1       5.336  -7.847   8.769  1.00  0.00     0.006 C 
BRANCH  13  14
ATOM     14  C   UNL     1       5.102  -9.167   9.521  1.00  0.00     0.053 C 
BRANCH  14  15
ATOM     15  C   UNL     1       3.770  -9.769   9.188  1.00  0.00     0.041 C 
ATOM     16  O   UNL     1       2.919  -9.964  10.096  1.00  0.00    -0.550 OA
ATOM     17  O   UNL     1       3.465 -10.105   7.875  1.00  0.00    -0.550 OA
ENDBRANCH  14  15
ENDBRANCH  13  14
ENDBRANCH  12  13
ENDBRANCH  11  12
ENDBRANCH  10  11
ENDBRANCH   9  10
ENDBRANCH   8   9
ENDBRANCH   7   8
ENDBRANCH   6   7
ENDBRANCH   5   6
ENDBRANCH   4   5
ENDBRANCH   3   4
ENDBRANCH   2   3
ENDBRANCH   1   2
BRANCH   1  18
ATOM     18  C   UNL     1       5.639  -3.598   4.970  1.00  0.00     0.000 C 
BRANCH  18  19
ATOM     19  C   UNL     1       4.652  -3.290   3.831  1.00  0.00     0.000 C 
BRANCH  19  20
ATOM     20  C   UNL     1       4.111  -4.560   3.151  1.00  0.00     0.000 C 
BRANCH  20  21
ATOM     21  C   UNL     1       2.688  -4.918   3.610  1.00  0.00     0.000 C 
BRANCH  21  22
ATOM     22  C   UNL     1       1.745  -3.706   3.626  1.00  0.00     0.000 C 
BRANCH  22  23
ATOM     23  C   UNL     1       2.315  -2.553   2.787  1.00  0.00     0.000 C 
BRANCH  23  24
ATOM     24  C   UNL     1       1.359  -2.092   1.672  1.00  0.00    -0.000 C 
BRANCH  24  25
ATOM     25  C   UNL     1       0.232  -1.146   2.126  1.00  0.00    -0.000 C 
BRANCH  25  26
ATOM     26  C   UNL     1       0.647  -0.056   3.131  1.00  0.00    -0.000 C 
BRANCH  26  27
ATOM     27  C   UNL     1      -0.501   0.890   3.545  1.00  0.00    -0.000 C 
BRANCH  27  28
ATOM     28  C   UNL     1      -1.435   1.246   2.376  1.00  0.00    -0.000 C 
BRANCH  28  29
ATOM     29  C   UNL     1      -0.949   2.464   1.572  1.00  0.00    -0.000 C 
BRANCH  29  30
ATOM     30  C   UNL     1      -1.875   2.846   0.397  1.00  0.00    -0.000 C 
BRANCH  30  31
ATOM     31  C   UNL     1      -3.268   3.283   0.876  1.00  0.00    -0.003 C 
ATOM     32  C   UNL     1      -3.938   4.205  -0.140  1.00  0.00     0.004 C 
ENDBRANCH  30  31
ENDBRANCH  29  30
ENDBRANCH  28  29
ENDBRANCH  27  28
ENDBRANCH  26  27
ENDBRANCH  25  26
ENDBRANCH  24  25
ENDBRANCH  23  24
ENDBRANCH  22  23
ENDBRANCH  21  22
ENDBRANCH  20  21
ENDBRANCH  19  20
ENDBRANCH  18  19
ENDBRANCH   1  18
TORSDOF 28
ENDMDL
MODEL 7
REMARK VINA RESULT:    16.836     17.293     18.884
REMARK INTER + INTRA:          52.281
REMARK INTER:                  52.930
REMARK INTRA:                  -0.649
REMARK UNBOUND:                 7.887
REMARK SMILES CCCCCCCCCCCCCCCCCCCCCCCCCCCCCC(=O)[O-]
REMARK SMILES IDX 16 1 17 2 18 3 19 4 20 5 21 6 22 7 23 8 24 9 25 10 26 11
REMARK SMILES IDX 27 12 28 13 29 14 30 15 31 16 32 17 15 18 14 19 13 20 12 21
REMARK SMILES IDX 11 22 10 23 9 24 8 25 7 26 6 27 5 28 4 29 3 30 2 31 1 32
REMARK H PARENT
REMARK Flexibility Score: inf
ROOT
ATOM      1  C   UNL     1       1.885   8.950   0.527  1.00  0.00     0.000 C 
ENDROOT
BRANCH   1   2
ATOM      2  C   UNL     1       2.241   9.815  -0.701  1.00  0.00     0.000 C 
BRANCH   2   3
ATOM      3  C   UNL     1       3.761   9.926  -0.930  1.00  0.00     0.000 C 
BRANCH   3   4
ATOM      4  C   UNL     1       4.161   9.758  -2.407  1.00  0.00     0.000 C 
BRANCH   4   5
ATOM      5  C   UNL     1       5.285   8.740  -2.662  1.00  0.00     0.000 C 
BRANCH   5   6
ATOM      6  C   UNL     1       6.649   9.404  -2.924  1.00  0.00     0.000 C 
BRANCH   6   7
ATOM      7  C   UNL     1       7.520   8.616  -3.920  1.00  0.00     0.000 C 
BRANCH   7   8
ATOM      8  C   UNL     1       6.961   8.526  -5.353  1.00  0.00     0.000 C 
BRANCH   8   9
ATOM      9  C   UNL     1       6.297   7.174  -5.660  1.00  0.00     0.000 C 
BRANCH   9  10
ATOM     10  C   UNL     1       5.276   7.259  -6.808  1.00  0.00     0.000 C 
BRANCH  10  11
ATOM     11  C   UNL     1       5.515   8.442  -7.775  1.00  0.00     0.000 C 
BRANCH  11  12
ATOM     12  C   UNL     1       6.510   8.116  -8.903  1.00  0.00     0.000 C 
BRANCH  12  13
ATOM     13  C   UNL     1       7.009   6.650  -8.868  1.00  0.00     0.006 C 
BRANCH  13  14
ATOM     14  C   UNL     1       8.212   6.449  -7.932  1.00  0.00     0.053 C 
BRANCH  14  15
ATOM     15  C   UNL     1       8.520   4.997  -7.725  1.00  0.00     0.041 C 
ATOM     16  O   UNL     1       7.613   4.133  -7.850  1.00  0.00    -0.550 OA
ATOM     17  O   UNL     1       9.812   4.597  -7.405  1.00  0.00    -0.550 OA
ENDBRANCH  14  15
ENDBRANCH  13  14
ENDBRANCH  12  13
ENDBRANCH  11  12
ENDBRANCH  10  11
ENDBRANCH   9  10
ENDBRANCH   8   9
ENDBRANCH   7   8
ENDBRANCH   6   7
ENDBRANCH   5   6
ENDBRANCH   4   5
ENDBRANCH   3   4
ENDBRANCH   2   3
ENDBRANCH   1   2
BRANCH   1  18
ATOM     18  C   UNL     1       2.283   9.579   1.877  1.00  0.00     0.000 C 
BRANCH  18  19
ATOM     19  C   UNL     1       1.118  10.124   2.721  1.00  0.00     0.000 C 
BRANCH  19  20
ATOM     20  C   UNL     1       0.016   9.078   2.963  1.00  0.00     0.000 C 
BRANCH  20  21
ATOM     21  C   UNL     1      -1.334   9.714   3.331  1.00  0.00     0.000 C 
BRANCH  21  22
ATOM     22  C   UNL     1      -1.416  10.125   4.808  1.00  0.00     0.000 C 
BRANCH  22  23
ATOM     23  C   UNL     1      -1.548   8.893   5.717  1.00  0.00     0.000 C 
BRANCH  23  24
ATOM     24  C   UNL     1      -1.619   9.254   7.212  1.00  0.00    -0.000 C 
BRANCH  24  25
ATOM     25  C   UNL     1      -2.890  10.009   7.643  1.00  0.00    -0.000 C 
BRANCH  25  26
ATOM     26  C   UNL     1      -3.977   9.146   8.312  1.00  0.00    -0.000 C 
BRANCH  26  27
ATOM     27  C   UNL     1      -5.314   9.882   8.538  1.00  0.00    -0.000 C 
BRANCH  27  28
ATOM     28  C   UNL     1      -6.537   9.045   8.124  1.00  0.00    -0.000 C 
BRANCH  28  29
ATOM     29  C   UNL     1      -6.292   7.531   8.240  1.00  0.00    -0.000 C 
BRANCH  29  30
ATOM     30  C   UNL     1      -6.981   6.701   7.135  1.00  0.00    -0.000 C 
BRANCH  30  31
ATOM     31  C   UNL     1      -7.523   5.365   7.665  1.00  0.00    -0.003 C 
ATOM     32  C   UNL     1      -8.543   4.761   6.704  1.00  0.00     0.004 C 
ENDBRANCH  30  31
ENDBRANCH  29  30
ENDBRANCH  28  29
ENDBRANCH  27  28
ENDBRANCH  26  27
ENDBRANCH  25  26
ENDBRANCH  24  25
ENDBRANCH  23  24
ENDBRANCH  22  23
ENDBRANCH  21  22
ENDBRANCH  20  21
ENDBRANCH  19  20
ENDBRANCH  18  19
ENDBRANCH   1  18
TORSDOF 28
ENDMDL
