MODEL 1
REMARK VINA RESULT:    -0.141      0.000      0.000
REMARK INTER + INTRA:          -1.562
REMARK INTER:                  -0.306
REMARK INTRA:                  -1.256
REMARK UNBOUND:                -1.256
REMARK SMILES CCCCCCCCCCCCCCCCCCCCCC(=O)[O-]
REMARK SMILES IDX 12 1 11 2 10 3 9 4 8 5 7 6 6 7 5 8 4 9 3 10 2 11 1 12 13 13
REMARK SMILES IDX 14 14 15 15 16 16 17 17 18 18 19 19 20 20 21 21 22 22 23 23
REMARK SMILES IDX 24 24
REMARK H PARENT
REMARK Flexibility Score: inf
ROOT
ATOM      1  C   UNL     1      13.990  32.583  12.497  1.00  0.00     0.000 C 
ENDROOT
BRANCH   1   2
ATOM      2  C   UNL     1      14.511  32.642  11.053  1.00  0.00     0.000 C 
BRANCH   2   3
ATOM      3  C   UNL     1      13.590  31.903  10.066  1.00  0.00     0.000 C 
BRANCH   3   4
ATOM      4  C   UNL     1      12.875  30.703  10.708  1.00  0.00    -0.000 C 
BRANCH   4   5
ATOM      5  C   UNL     1      13.093  29.428   9.877  1.00  0.00    -0.000 C 
BRANCH   5   6
ATOM      6  C   UNL     1      14.318  28.617  10.334  1.00  0.00    -0.000 C 
BRANCH   6   7
ATOM      7  C   UNL     1      14.219  27.128   9.958  1.00  0.00    -0.000 C 
BRANCH   7   8
ATOM      8  C   UNL     1      12.877  26.497  10.387  1.00  0.00    -0.000 C 
BRANCH   8   9
ATOM      9  C   UNL     1      12.944  24.971  10.578  1.00  0.00    -0.000 C 
BRANCH   9  10
ATOM     10  C   UNL     1      14.132  24.280   9.882  1.00  0.00    -0.000 C 
BRANCH  10  11
ATOM     11  C   UNL     1      14.598  23.015  10.615  1.00  0.00    -0.003 C 
ATOM     12  C   UNL     1      15.864  22.443   9.982  1.00  0.00     0.004 C 
ENDBRANCH  10  11
ENDBRANCH   9  10
ENDBRANCH   8   9
ENDBRANCH   7   8
ENDBRANCH   6   7
ENDBRANCH   5   6
ENDBRANCH   4   5
ENDBRANCH   3   4
ENDBRANCH   2   3
ENDBRANCH   1   2
BRANCH   1  13
ATOM     13  C   UNL     1      13.057  33.758  12.844  1.00  0.00     0.000 C 
BRANCH  13  14
ATOM     14  C   UNL     1      13.183  34.993  11.925  1.00  0.00     0.000 C 
BRANCH  14  15
ATOM     15  C   UNL     1      13.950  36.194  12.519  1.00  0.00     0.000 C 
BRANCH  15  16
ATOM     16  C   UNL     1      13.053  37.370  12.957  1.00  0.00     0.000 C 
BRANCH  16  17
ATOM     17  C   UNL     1      13.539  38.726  12.415  1.00  0.00     0.000 C 
BRANCH  17  18
ATOM     18  C   UNL     1      12.927  39.021  11.041  1.00  0.00     0.000 C 
BRANCH  18  19
ATOM     19  C   UNL     1      14.001  39.005   9.943  1.00  0.00     0.000 C 
BRANCH  19  20
ATOM     20  C   UNL     1      15.429  38.860  10.500  1.00  0.00     0.006 C 
BRANCH  20  21
ATOM     21  C   UNL     1      16.053  37.467  10.304  1.00  0.00     0.053 C 
BRANCH  21  22
ATOM     22  C   UNL     1      17.551  37.493  10.392  1.00  0.00     0.041 C 
ATOM     23  O   UNL     1      18.230  36.540   9.919  1.00  0.00    -0.550 OA
ATOM     24  O   UNL     1      18.201  38.606  10.909  1.00  0.00    -0.550 OA
ENDBRANCH  21  22
ENDBRANCH  20  21
ENDBRANCH  19  20
ENDBRANCH  18  19
ENDBRANCH  17  18
ENDBRANCH  16  17
ENDBRANCH  15  16
ENDBRANCH  14  15
ENDBRANCH  13  14
ENDBRANCH   1  13
TORSDOF 20
ENDMDL
MODEL 2
REMARK VINA RESULT:    -0.016     19.621     23.309
REMARK INTER + INTRA:          -1.290
REMARK INTER:                  -1.363
REMARK INTRA:                   0.072
REMARK UNBOUND:                -1.256
REMARK SMILES CCCCCCCCCCCCCCCCCCCCCC(=O)[O-]
REMARK SMILES IDX 12 1 11 2 10 3 9 4 8 5 7 6 6 7 5 8 4 9 3 10 2 11 1 12 13 13
REMARK SMILES IDX 14 14 15 15 16 16 17 17 18 18 19 19 20 20 21 21 22 22 23 23
REMARK SMILES IDX 24 24
REMARK H PARENT
REMARK Flexibility Score: inf
ROOT
ATOM      1  C   UNL     1      25.257  19.155  26.084  1.00  0.00     0.000 C 
ENDROOT
BRANCH   1   2
ATOM      2  C   UNL     1      24.467  18.987  27.391  1.00  0.00     0.000 C 
BRANCH   2   3
ATOM      3  C   UNL     1      22.950  18.877  27.150  1.00  0.00     0.000 C 
BRANCH   3   4
ATOM      4  C   UNL     1      22.137  18.944  28.453  1.00  0.00    -0.000 C 
BRANCH   4   5
ATOM      5  C   UNL     1      21.284  20.222  28.499  1.00  0.00    -0.000 C 
BRANCH   5   6
ATOM      6  C   UNL     1      21.652  21.228  27.395  1.00  0.00    -0.000 C 
BRANCH   6   7
ATOM      7  C   UNL     1      22.925  22.030  27.722  1.00  0.00    -0.000 C 
BRANCH   7   8
ATOM      8  C   UNL     1      23.188  23.161  26.706  1.00  0.00    -0.000 C 
BRANCH   8   9
ATOM      9  C   UNL     1      24.520  23.899  26.933  1.00  0.00    -0.000 C 
BRANCH   9  10
ATOM     10  C   UNL     1      24.482  25.413  26.649  1.00  0.00    -0.000 C 
BRANCH  10  11
ATOM     11  C   UNL     1      25.657  25.886  25.782  1.00  0.00    -0.003 C 
ATOM     12  C   UNL     1      25.180  26.360  24.412  1.00  0.00     0.004 C 
ENDBRANCH  10  11
ENDBRANCH   9  10
ENDBRANCH   8   9
ENDBRANCH   7   8
ENDBRANCH   6   7
ENDBRANCH   5   6
ENDBRANCH   4   5
ENDBRANCH   3   4
ENDBRANCH   2   3
ENDBRANCH   1   2
BRANCH   1  13
ATOM     13  C   UNL     1      24.397  19.710  24.934  1.00  0.00     0.000 C 
BRANCH  13  14
ATOM     14  C   UNL     1      24.565  18.988  23.578  1.00  0.00     0.000 C 
BRANCH  14  15
ATOM     15  C   UNL     1      26.015  18.875  23.056  1.00  0.00     0.000 C 
BRANCH  15  16
ATOM     16  C   UNL     1      26.795  20.205  23.050  1.00  0.00     0.000 C 
BRANCH  16  17
ATOM     17  C   UNL     1      26.761  20.922  24.411  1.00  0.00     0.000 C 
BRANCH  17  18
ATOM     18  C   UNL     1      28.174  21.085  24.984  1.00  0.00     0.000 C 
BRANCH  18  19
ATOM     19  C   UNL     1      28.716  19.745  25.505  1.00  0.00     0.000 C 
BRANCH  19  20
ATOM     20  C   UNL     1      29.489  18.952  24.437  1.00  0.00     0.006 C 
BRANCH  20  21
ATOM     21  C   UNL     1      30.688  19.701  23.828  1.00  0.00     0.053 C 
BRANCH  21  22
ATOM     22  C   UNL     1      30.844  19.434  22.359  1.00  0.00     0.041 C 
ATOM     23  O   UNL     1      31.959  19.064  21.898  1.00  0.00    -0.550 OA
ATOM     24  O   UNL     1      29.743  19.504  21.516  1.00  0.00    -0.550 OA
ENDBRANCH  21  22
ENDBRANCH  20  21
ENDBRANCH  19  20
ENDBRANCH  18  19
ENDBRANCH  17  18
ENDBRANCH  16  17
ENDBRANCH  15  16
ENDBRANCH  14  15
ENDBRANCH  13  14
ENDBRANCH   1  13
TORSDOF 20
ENDMDL
MODEL 3
REMARK VINA RESULT:     0.618     19.030     22.966
REMARK INTER + INTRA:           0.086
REMARK INTER:                   1.187
REMARK INTRA:                  -1.101
REMARK UNBOUND:                -1.256
REMARK SMILES CCCCCCCCCCCCCCCCCCCCCC(=O)[O-]
REMARK SMILES IDX 12 1 11 2 10 3 9 4 8 5 7 6 6 7 5 8 4 9 3 10 2 11 1 12 13 13
REMARK SMILES IDX 14 14 15 15 16 16 17 17 18 18 19 19 20 20 21 21 22 22 23 23
REMARK SMILES IDX 24 24
REMARK H PARENT
REMARK Flexibility Score: inf
ROOT
ATOM      1  C   UNL     1      22.466  18.918  27.430  1.00  0.00     0.000 C 
ENDROOT
BRANCH   1   2
ATOM      2  C   UNL     1      22.301  20.210  28.246  1.00  0.00     0.000 C 
BRANCH   2   3
ATOM      3  C   UNL     1      21.276  21.172  27.619  1.00  0.00     0.000 C 
BRANCH   3   4
ATOM      4  C   UNL     1      21.924  22.456  27.077  1.00  0.00    -0.000 C 
BRANCH   4   5
ATOM      5  C   UNL     1      23.177  22.128  26.249  1.00  0.00    -0.000 C 
BRANCH   5   6
ATOM      6  C   UNL     1      24.418  22.917  26.702  1.00  0.00    -0.000 C 
BRANCH   6   7
ATOM      7  C   UNL     1      24.067  24.308  27.260  1.00  0.00    -0.000 C 
BRANCH   7   8
ATOM      8  C   UNL     1      25.317  25.181  27.503  1.00  0.00    -0.000 C 
BRANCH   8   9
ATOM      9  C   UNL     1      25.741  26.009  26.275  1.00  0.00    -0.000 C 
BRANCH   9  10
ATOM     10  C   UNL     1      25.003  25.659  24.969  1.00  0.00    -0.000 C 
BRANCH  10  11
ATOM     11  C   UNL     1      25.183  26.726  23.880  1.00  0.00    -0.003 C 
ATOM     12  C   UNL     1      24.111  27.808  23.983  1.00  0.00     0.004 C 
ENDBRANCH  10  11
ENDBRANCH   9  10
ENDBRANCH   8   9
ENDBRANCH   7   8
ENDBRANCH   6   7
ENDBRANCH   5   6
ENDBRANCH   4   5
ENDBRANCH   3   4
ENDBRANCH   2   3
ENDBRANCH   1   2
BRANCH   1  13
ATOM     13  C   UNL     1      23.379  19.098  26.204  1.00  0.00     0.000 C 
BRANCH  13  14
ATOM     14  C   UNL     1      24.894  18.996  26.489  1.00  0.00     0.000 C 
BRANCH  14  15
ATOM     15  C   UNL     1      25.816  19.105  25.255  1.00  0.00     0.000 C 
BRANCH  15  16
ATOM     16  C   UNL     1      25.171  19.797  24.037  1.00  0.00     0.000 C 
BRANCH  16  17
ATOM     17  C   UNL     1      25.888  19.467  22.716  1.00  0.00     0.000 C 
BRANCH  17  18
ATOM     18  C   UNL     1      27.289  18.902  22.974  1.00  0.00     0.000 C 
BRANCH  18  19
ATOM     19  C   UNL     1      28.121  18.878  21.683  1.00  0.00     0.000 C 
BRANCH  19  20
ATOM     20  C   UNL     1      29.629  19.055  21.936  1.00  0.00     0.006 C 
BRANCH  20  21
ATOM     21  C   UNL     1      30.009  20.368  22.644  1.00  0.00     0.053 C 
BRANCH  21  22
ATOM     22  C   UNL     1      30.262  20.176  24.110  1.00  0.00     0.041 C 
ATOM     23  O   UNL     1      30.883  19.156  24.518  1.00  0.00    -0.550 OA
ATOM     24  O   UNL     1      29.897  21.163  25.017  1.00  0.00    -0.550 OA
ENDBRANCH  21  22
ENDBRANCH  20  21
ENDBRANCH  19  20
ENDBRANCH  18  19
ENDBRANCH  17  18
ENDBRANCH  16  17
ENDBRANCH  15  16
ENDBRANCH  14  15
ENDBRANCH  13  14
ENDBRANCH   1  13
TORSDOF 20
ENDMDL
MODEL 4
REMARK VINA RESULT:     0.807     19.374     23.338
REMARK INTER + INTRA:           0.495
REMARK INTER:                   0.823
REMARK INTRA:                  -0.328
REMARK UNBOUND:                -1.256
REMARK SMILES CCCCCCCCCCCCCCCCCCCCCC(=O)[O-]
REMARK SMILES IDX 12 1 11 2 10 3 9 4 8 5 7 6 6 7 5 8 4 9 3 10 2 11 1 12 13 13
REMARK SMILES IDX 14 14 15 15 16 16 17 17 18 18 19 19 20 20 21 21 22 22 23 23
REMARK SMILES IDX 24 24
REMARK H PARENT
REMARK Flexibility Score: inf
ROOT
ATOM      1  C   UNL     1      25.993  20.063  24.380  1.00  0.00     0.000 C 
ENDROOT
BRANCH   1   2
ATOM      2  C   UNL     1      24.919  20.243  25.464  1.00  0.00     0.000 C 
BRANCH   2   3
ATOM      3  C   UNL     1      24.350  18.900  25.956  1.00  0.00     0.000 C 
BRANCH   3   4
ATOM      4  C   UNL     1      23.214  19.076  26.977  1.00  0.00    -0.000 C 
BRANCH   4   5
ATOM      5  C   UNL     1      22.407  20.351  26.682  1.00  0.00    -0.000 C 
BRANCH   5   6
ATOM      6  C   UNL     1      22.814  21.537  27.575  1.00  0.00    -0.000 C 
BRANCH   6   7
ATOM      7  C   UNL     1      22.847  22.873  26.810  1.00  0.00    -0.000 C 
BRANCH   7   8
ATOM      8  C   UNL     1      24.255  23.504  26.783  1.00  0.00    -0.000 C 
BRANCH   8   9
ATOM      9  C   UNL     1      24.265  25.008  27.115  1.00  0.00    -0.000 C 
BRANCH   9  10
ATOM     10  C   UNL     1      25.575  25.741  26.769  1.00  0.00    -0.000 C 
BRANCH  10  11
ATOM     11  C   UNL     1      25.807  25.864  25.257  1.00  0.00    -0.003 C 
ATOM     12  C   UNL     1      24.656  26.603  24.579  1.00  0.00     0.004 C 
ENDBRANCH  10  11
ENDBRANCH   9  10
ENDBRANCH   8   9
ENDBRANCH   7   8
ENDBRANCH   6   7
ENDBRANCH   5   6
ENDBRANCH   4   5
ENDBRANCH   3   4
ENDBRANCH   2   3
ENDBRANCH   1   2
BRANCH   1  13
ATOM     13  C   UNL     1      25.489  19.258  23.169  1.00  0.00     0.000 C 
BRANCH  13  14
ATOM     14  C   UNL     1      26.571  18.875  22.135  1.00  0.00     0.000 C 
BRANCH  14  15
ATOM     15  C   UNL     1      28.005  19.351  22.461  1.00  0.00     0.000 C 
BRANCH  15  16
ATOM     16  C   UNL     1      29.077  18.875  21.459  1.00  0.00     0.000 C 
BRANCH  16  17
ATOM     17  C   UNL     1      30.511  19.069  21.984  1.00  0.00     0.000 C 
BRANCH  17  18
ATOM     18  C   UNL     1      30.548  19.024  23.516  1.00  0.00     0.000 C 
BRANCH  18  19
ATOM     19  C   UNL     1      30.953  20.387  24.098  1.00  0.00     0.000 C 
BRANCH  19  20
ATOM     20  C   UNL     1      29.760  21.178  24.664  1.00  0.00     0.006 C 
BRANCH  20  21
ATOM     21  C   UNL     1      28.902  20.402  25.680  1.00  0.00     0.053 C 
BRANCH  21  22
ATOM     22  C   UNL     1      27.908  21.282  26.380  1.00  0.00     0.041 C 
ATOM     23  O   UNL     1      27.573  22.388  25.872  1.00  0.00    -0.550 OA
ATOM     24  O   UNL     1      27.283  20.843  27.540  1.00  0.00    -0.550 OA
ENDBRANCH  21  22
ENDBRANCH  20  21
ENDBRANCH  19  20
ENDBRANCH  18  19
ENDBRANCH  17  18
ENDBRANCH  16  17
ENDBRANCH  15  16
ENDBRANCH  14  15
ENDBRANCH  13  14
ENDBRANCH   1  13
TORSDOF 20
ENDMDL
MODEL 5
REMARK VINA RESULT:     0.885     20.345     22.618
REMARK INTER + INTRA:           0.663
REMARK INTER:                  -0.814
REMARK INTRA:                   1.477
REMARK UNBOUND:                -1.256
REMARK SMILES CCCCCCCCCCCCCCCCCCCCCC(=O)[O-]
REMARK SMILES IDX 12 1 11 2 10 3 9 4 8 5 7 6 6 7 5 8 4 9 3 10 2 11 1 12 13 13
REMARK SMILES IDX 14 14 15 15 16 16 17 17 18 18 19 19 20 20 21 21 22 22 23 23
REMARK SMILES IDX 24 24
REMARK H PARENT
REMARK Flexibility Score: inf
ROOT
ATOM      1  C   UNL     1      26.501  21.203  25.812  1.00  0.00     0.000 C 
ENDROOT
BRANCH   1   2
ATOM      2  C   UNL     1      27.453  19.997  25.796  1.00  0.00     0.000 C 
BRANCH   2   3
ATOM      3  C   UNL     1      27.031  18.930  24.771  1.00  0.00     0.000 C 
BRANCH   3   4
ATOM      4  C   UNL     1      26.072  19.481  23.703  1.00  0.00    -0.000 C 
BRANCH   4   5
ATOM      5  C   UNL     1      26.662  19.301  22.295  1.00  0.00    -0.000 C 
BRANCH   5   6
ATOM      6  C   UNL     1      28.144  18.886  22.314  1.00  0.00    -0.000 C 
BRANCH   6   7
ATOM      7  C   UNL     1      28.797  18.949  20.922  1.00  0.00    -0.000 C 
BRANCH   7   8
ATOM      8  C   UNL     1      30.339  18.980  20.993  1.00  0.00    -0.000 C 
BRANCH   8   9
ATOM      9  C   UNL     1      30.886  19.470  22.346  1.00  0.00    -0.000 C 
BRANCH   9  10
ATOM     10  C   UNL     1      30.141  20.674  22.951  1.00  0.00    -0.000 C 
BRANCH  10  11
ATOM     11  C   UNL     1      30.369  20.818  24.463  1.00  0.00    -0.003 C 
ATOM     12  C   UNL     1      30.837  19.503  25.080  1.00  0.00     0.004 C 
ENDBRANCH  10  11
ENDBRANCH   9  10
ENDBRANCH   8   9
ENDBRANCH   7   8
ENDBRANCH   6   7
ENDBRANCH   5   6
ENDBRANCH   4   5
ENDBRANCH   3   4
ENDBRANCH   2   3
ENDBRANCH   1   2
BRANCH   1  13
ATOM     13  C   UNL     1      25.032  20.802  26.039  1.00  0.00     0.000 C 
BRANCH  13  14
ATOM     14  C   UNL     1      24.819  19.396  26.641  1.00  0.00     0.000 C 
BRANCH  14  15
ATOM     15  C   UNL     1      23.363  18.879  26.635  1.00  0.00     0.000 C 
BRANCH  15  16
ATOM     16  C   UNL     1      22.630  19.023  27.984  1.00  0.00     0.000 C 
BRANCH  16  17
ATOM     17  C   UNL     1      21.796  20.313  28.074  1.00  0.00     0.000 C 
BRANCH  17  18
ATOM     18  C   UNL     1      22.029  21.207  26.850  1.00  0.00     0.000 C 
BRANCH  18  19
ATOM     19  C   UNL     1      22.387  22.639  27.274  1.00  0.00     0.000 C 
BRANCH  19  20
ATOM     20  C   UNL     1      23.672  23.160  26.605  1.00  0.00     0.006 C 
BRANCH  20  21
ATOM     21  C   UNL     1      24.215  24.473  27.197  1.00  0.00     0.053 C 
BRANCH  21  22
ATOM     22  C   UNL     1      24.817  25.367  26.153  1.00  0.00     0.041 C 
ATOM     23  O   UNL     1      25.762  26.147  26.456  1.00  0.00    -0.550 OA
ATOM     24  O   UNL     1      24.401  25.275  24.831  1.00  0.00    -0.550 OA
ENDBRANCH  21  22
ENDBRANCH  20  21
ENDBRANCH  19  20
ENDBRANCH  18  19
ENDBRANCH  17  18
ENDBRANCH  16  17
ENDBRANCH  15  16
ENDBRANCH  14  15
ENDBRANCH  13  14
ENDBRANCH   1  13
TORSDOF 20
ENDMDL
MODEL 6
REMARK VINA RESULT:     1.363     20.221     22.325
REMARK INTER + INTRA:           1.700
REMARK INTER:                  -0.142
REMARK INTRA:                   1.842
REMARK UNBOUND:                -1.256
REMARK SMILES CCCCCCCCCCCCCCCCCCCCCC(=O)[O-]
REMARK SMILES IDX 12 1 11 2 10 3 9 4 8 5 7 6 6 7 5 8 4 9 3 10 2 11 1 12 13 13
REMARK SMILES IDX 14 14 15 15 16 16 17 17 18 18 19 19 20 20 21 21 22 22 23 23
REMARK SMILES IDX 24 24
REMARK H PARENT
REMARK Flexibility Score: inf
ROOT
ATOM      1  C   UNL     1      22.658  19.099  25.518  1.00  0.00     0.000 C 
ENDROOT
BRANCH   1   2
ATOM      2  C   UNL     1      23.569  18.908  24.296  1.00  0.00     0.000 C 
BRANCH   2   3
ATOM      3  C   UNL     1      24.936  19.594  24.470  1.00  0.00     0.000 C 
BRANCH   3   4
ATOM      4  C   UNL     1      26.060  18.876  23.703  1.00  0.00    -0.000 C 
BRANCH   4   5
ATOM      5  C   UNL     1      26.448  19.663  22.441  1.00  0.00    -0.000 C 
BRANCH   5   6
ATOM      6  C   UNL     1      27.968  19.709  22.208  1.00  0.00    -0.000 C 
BRANCH   6   7
ATOM      7  C   UNL     1      28.758  18.933  23.277  1.00  0.00    -0.000 C 
BRANCH   7   8
ATOM      8  C   UNL     1      30.111  19.595  23.611  1.00  0.00    -0.000 C 
BRANCH   8   9
ATOM      9  C   UNL     1      29.983  20.862  24.477  1.00  0.00    -0.000 C 
BRANCH   9  10
ATOM     10  C   UNL     1      28.542  21.234  24.875  1.00  0.00    -0.000 C 
BRANCH  10  11
ATOM     11  C   UNL     1      28.189  20.804  26.306  1.00  0.00    -0.003 C 
ATOM     12  C   UNL     1      26.714  21.050  26.610  1.00  0.00     0.004 C 
ENDBRANCH  10  11
ENDBRANCH   9  10
ENDBRANCH   8   9
ENDBRANCH   7   8
ENDBRANCH   6   7
ENDBRANCH   5   6
ENDBRANCH   4   5
ENDBRANCH   3   4
ENDBRANCH   2   3
ENDBRANCH   1   2
BRANCH   1  13
ATOM     13  C   UNL     1      23.415  19.632  26.749  1.00  0.00     0.000 C 
BRANCH  13  14
ATOM     14  C   UNL     1      23.141  18.877  28.069  1.00  0.00     0.000 C 
BRANCH  14  15
ATOM     15  C   UNL     1      21.739  19.089  28.682  1.00  0.00     0.000 C 
BRANCH  15  16
ATOM     16  C   UNL     1      21.105  20.459  28.365  1.00  0.00     0.000 C 
BRANCH  16  17
ATOM     17  C   UNL     1      21.745  21.143  27.143  1.00  0.00     0.000 C 
BRANCH  17  18
ATOM     18  C   UNL     1      22.619  22.328  27.569  1.00  0.00     0.000 C 
BRANCH  18  19
ATOM     19  C   UNL     1      23.130  23.105  26.346  1.00  0.00     0.000 C 
BRANCH  19  20
ATOM     20  C   UNL     1      24.613  23.501  26.462  1.00  0.00     0.006 C 
BRANCH  20  21
ATOM     21  C   UNL     1      24.859  24.868  27.124  1.00  0.00     0.053 C 
BRANCH  21  22
ATOM     22  C   UNL     1      25.299  25.911  26.138  1.00  0.00     0.041 C 
ATOM     23  O   UNL     1      24.705  26.026  25.031  1.00  0.00    -0.550 OA
ATOM     24  O   UNL     1      26.299  26.814  26.475  1.00  0.00    -0.550 OA
ENDBRANCH  21  22
ENDBRANCH  20  21
ENDBRANCH  19  20
ENDBRANCH  18  19
ENDBRANCH  17  18
ENDBRANCH  16  17
ENDBRANCH  15  16
ENDBRANCH  14  15
ENDBRANCH  13  14
ENDBRANCH   1  13
TORSDOF 20
ENDMDL
MODEL 7
REMARK VINA RESULT:     1.963     19.978     22.603
REMARK INTER + INTRA:           3.003
REMARK INTER:                   3.718
REMARK INTRA:                  -0.715
REMARK UNBOUND:                -1.256
REMARK SMILES CCCCCCCCCCCCCCCCCCCCCC(=O)[O-]
REMARK SMILES IDX 12 1 11 2 10 3 9 4 8 5 7 6 6 7 5 8 4 9 3 10 2 11 1 12 13 13
REMARK SMILES IDX 14 14 15 15 16 16 17 17 18 18 19 19 20 20 21 21 22 22 23 23
REMARK SMILES IDX 24 24
REMARK H PARENT
REMARK Flexibility Score: inf
ROOT
ATOM      1  C   UNL     1      26.627  20.183  25.319  1.00  0.00     0.000 C 
ENDROOT
BRANCH   1   2
ATOM      2  C   UNL     1      25.998  20.686  24.011  1.00  0.00     0.000 C 
BRANCH   2   3
ATOM      3  C   UNL     1      26.008  19.616  22.904  1.00  0.00     0.000 C 
BRANCH   3   4
ATOM      4  C   UNL     1      27.352  18.875  22.810  1.00  0.00    -0.000 C 
BRANCH   4   5
ATOM      5  C   UNL     1      28.347  19.657  21.937  1.00  0.00    -0.000 C 
BRANCH   5   6
ATOM      6  C   UNL     1      29.755  19.037  21.931  1.00  0.00    -0.000 C 
BRANCH   6   7
ATOM      7  C   UNL     1      30.858  20.070  21.640  1.00  0.00    -0.000 C 
BRANCH   7   8
ATOM      8  C   UNL     1      32.192  19.722  22.334  1.00  0.00    -0.000 C 
BRANCH   8   9
ATOM      9  C   UNL     1      32.023  18.881  23.613  1.00  0.00    -0.000 C 
BRANCH   9  10
ATOM     10  C   UNL     1      31.101  19.500  24.680  1.00  0.00    -0.000 C 
BRANCH  10  11
ATOM     11  C   UNL     1      30.839  20.994  24.447  1.00  0.00    -0.003 C 
ATOM     12  C   UNL     1      29.397  21.363  24.787  1.00  0.00     0.004 C 
ENDBRANCH  10  11
ENDBRANCH   9  10
ENDBRANCH   8   9
ENDBRANCH   7   8
ENDBRANCH   6   7
ENDBRANCH   5   6
ENDBRANCH   4   5
ENDBRANCH   3   4
ENDBRANCH   2   3
ENDBRANCH   1   2
BRANCH   1  13
ATOM     13  C   UNL     1      25.644  20.209  26.503  1.00  0.00     0.000 C 
BRANCH  13  14
ATOM     14  C   UNL     1      24.915  18.876  26.783  1.00  0.00     0.000 C 
BRANCH  14  15
ATOM     15  C   UNL     1      23.375  18.919  26.670  1.00  0.00     0.000 C 
BRANCH  15  16
ATOM     16  C   UNL     1      22.815  20.237  26.097  1.00  0.00     0.000 C 
BRANCH  16  17
ATOM     17  C   UNL     1      21.935  20.998  27.104  1.00  0.00     0.000 C 
BRANCH  17  18
ATOM     18  C   UNL     1      22.229  22.502  27.068  1.00  0.00     0.000 C 
BRANCH  18  19
ATOM     19  C   UNL     1      23.730  22.775  27.254  1.00  0.00     0.000 C 
BRANCH  19  20
ATOM     20  C   UNL     1      24.104  24.252  27.036  1.00  0.00     0.006 C 
BRANCH  20  21
ATOM     21  C   UNL     1      24.692  24.565  25.648  1.00  0.00     0.053 C 
BRANCH  21  22
ATOM     22  C   UNL     1      25.312  25.930  25.584  1.00  0.00     0.041 C 
ATOM     23  O   UNL     1      25.990  26.364  26.556  1.00  0.00    -0.550 OA
ATOM     24  O   UNL     1      25.222  26.684  24.421  1.00  0.00    -0.550 OA
ENDBRANCH  21  22
ENDBRANCH  20  21
ENDBRANCH  19  20
ENDBRANCH  18  19
ENDBRANCH  17  18
ENDBRANCH  16  17
ENDBRANCH  15  16
ENDBRANCH  14  15
ENDBRANCH  13  14
ENDBRANCH   1  13
TORSDOF 20
ENDMDL
