MODEL 1
REMARK VINA RESULT:    -5.774      0.000      0.000
REMARK INTER + INTRA:         -15.022
REMARK INTER:                 -12.524
REMARK INTRA:                  -2.498
REMARK UNBOUND:                -2.498
REMARK SMILES CCCCCCCCCCCCCCCCCCCCCC(=O)[O-]
REMARK SMILES IDX 12 1 11 2 10 3 9 4 8 5 7 6 6 7 5 8 4 9 3 10 2 11 1 12 13 13
REMARK SMILES IDX 14 14 15 15 16 16 17 17 18 18 19 19 20 20 21 21 22 22 23 23
REMARK SMILES IDX 24 24
REMARK H PARENT
REMARK Flexibility Score: inf
ROOT
ATOM      1  C   UNL     1      19.166   0.707 -21.700  1.00  0.00     0.000 C 
ENDROOT
BRANCH   1   2
ATOM      2  C   UNL     1      18.772   1.967 -22.489  1.00  0.00     0.000 C 
BRANCH   2   3
ATOM      3  C   UNL     1      17.305   1.916 -22.970  1.00  0.00     0.000 C 
BRANCH   3   4
ATOM      4  C   UNL     1      16.725   0.491 -23.041  1.00  0.00    -0.000 C 
BRANCH   4   5
ATOM      5  C   UNL     1      16.147   0.150 -24.423  1.00  0.00    -0.000 C 
BRANCH   5   6
ATOM      6  C   UNL     1      15.911   1.397 -25.291  1.00  0.00    -0.000 C 
BRANCH   6   7
ATOM      7  C   UNL     1      16.866   1.473 -26.493  1.00  0.00    -0.000 C 
BRANCH   7   8
ATOM      8  C   UNL     1      17.409   0.079 -26.848  1.00  0.00    -0.000 C 
BRANCH   8   9
ATOM      9  C   UNL     1      18.941   0.070 -27.000  1.00  0.00    -0.000 C 
BRANCH   9  10
ATOM     10  C   UNL     1      19.688   0.447 -25.700  1.00  0.00    -0.000 C 
BRANCH  10  11
ATOM     11  C   UNL     1      20.267  -0.767 -24.953  1.00  0.00    -0.003 C 
ATOM     12  C   UNL     1      19.229  -1.861 -24.701  1.00  0.00     0.004 C 
ENDBRANCH  10  11
ENDBRANCH   9  10
ENDBRANCH   8   9
ENDBRANCH   7   8
ENDBRANCH   6   7
ENDBRANCH   5   6
ENDBRANCH   4   5
ENDBRANCH   3   4
ENDBRANCH   2   3
ENDBRANCH   1   2
BRANCH   1  13
ATOM     13  C   UNL     1      20.644   0.719 -21.274  1.00  0.00     0.000 C 
BRANCH  13  14
ATOM     14  C   UNL     1      20.822   0.489 -19.765  1.00  0.00     0.000 C 
BRANCH  14  15
ATOM     15  C   UNL     1      20.198  -0.850 -19.340  1.00  0.00     0.000 C 
BRANCH  15  16
ATOM     16  C   UNL     1      20.919  -1.493 -18.142  1.00  0.00     0.000 C 
BRANCH  16  17
ATOM     17  C   UNL     1      19.990  -2.091 -17.066  1.00  0.00     0.000 C 
BRANCH  17  18
ATOM     18  C   UNL     1      20.043  -1.396 -15.688  1.00  0.00     0.000 C 
BRANCH  18  19
ATOM     19  C   UNL     1      20.810  -0.062 -15.665  1.00  0.00     0.000 C 
BRANCH  19  20
ATOM     20  C   UNL     1      20.158   0.980 -14.741  1.00  0.00     0.006 C 
BRANCH  20  21
ATOM     21  C   UNL     1      19.303   1.992 -15.518  1.00  0.00     0.053 C 
BRANCH  21  22
ATOM     22  C   UNL     1      17.885   1.535 -15.669  1.00  0.00     0.041 C 
ATOM     23  O   UNL     1      17.352   0.809 -14.789  1.00  0.00    -0.550 OA
ATOM     24  O   UNL     1      17.154   1.902 -16.792  1.00  0.00    -0.550 OA
ENDBRANCH  21  22
ENDBRANCH  20  21
ENDBRANCH  19  20
ENDBRANCH  18  19
ENDBRANCH  17  18
ENDBRANCH  16  17
ENDBRANCH  15  16
ENDBRANCH  14  15
ENDBRANCH  13  14
ENDBRANCH   1  13
TORSDOF 20
ENDMDL
MODEL 2
REMARK VINA RESULT:    -5.531      1.123      3.038
REMARK INTER + INTRA:         -14.497
REMARK INTER:                 -11.468
REMARK INTRA:                  -3.029
REMARK UNBOUND:                -2.498
REMARK SMILES CCCCCCCCCCCCCCCCCCCCCC(=O)[O-]
REMARK SMILES IDX 12 1 11 2 10 3 9 4 8 5 7 6 6 7 5 8 4 9 3 10 2 11 1 12 13 13
REMARK SMILES IDX 14 14 15 15 16 16 17 17 18 18 19 19 20 20 21 21 22 22 23 23
REMARK SMILES IDX 24 24
REMARK H PARENT
REMARK Flexibility Score: inf
ROOT
ATOM      1  C   UNL     1      20.690  -0.749 -19.036  1.00  0.00     0.000 C 
ENDROOT
BRANCH   1   2
ATOM      2  C   UNL     1      20.622   0.523 -19.898  1.00  0.00     0.000 C 
BRANCH   2   3
ATOM      3  C   UNL     1      19.631   0.375 -21.073  1.00  0.00     0.000 C 
BRANCH   3   4
ATOM      4  C   UNL     1      20.276   0.573 -22.458  1.00  0.00    -0.000 C 
BRANCH   4   5
ATOM      5  C   UNL     1      19.633   1.717 -23.257  1.00  0.00    -0.000 C 
BRANCH   5   6
ATOM      6  C   UNL     1      18.266   2.139 -22.693  1.00  0.00    -0.000 C 
BRANCH   6   7
ATOM      7  C   UNL     1      17.098   1.745 -23.612  1.00  0.00    -0.000 C 
BRANCH   7   8
ATOM      8  C   UNL     1      16.560   0.353 -23.246  1.00  0.00    -0.000 C 
BRANCH   8   9
ATOM      9  C   UNL     1      16.665  -0.641 -24.416  1.00  0.00    -0.000 C 
BRANCH   9  10
ATOM     10  C   UNL     1      17.389  -0.058 -25.652  1.00  0.00    -0.000 C 
BRANCH  10  11
ATOM     11  C   UNL     1      18.633  -0.863 -26.068  1.00  0.00    -0.003 C 
ATOM     12  C   UNL     1      19.090  -1.850 -24.993  1.00  0.00     0.004 C 
ENDBRANCH  10  11
ENDBRANCH   9  10
ENDBRANCH   8   9
ENDBRANCH   7   8
ENDBRANCH   6   7
ENDBRANCH   5   6
ENDBRANCH   4   5
ENDBRANCH   3   4
ENDBRANCH   2   3
ENDBRANCH   1   2
BRANCH   1  13
ATOM     13  C   UNL     1      19.681  -0.726 -17.875  1.00  0.00     0.000 C 
BRANCH  13  14
ATOM     14  C   UNL     1      19.914  -1.867 -16.871  1.00  0.00     0.000 C 
BRANCH  14  15
ATOM     15  C   UNL     1      20.289  -1.309 -15.490  1.00  0.00     0.000 C 
BRANCH  15  16
ATOM     16  C   UNL     1      21.801  -1.374 -15.208  1.00  0.00     0.000 C 
BRANCH  16  17
ATOM     17  C   UNL     1      22.601  -0.132 -15.651  1.00  0.00     0.000 C 
BRANCH  17  18
ATOM     18  C   UNL     1      21.932   1.226 -15.350  1.00  0.00     0.000 C 
BRANCH  18  19
ATOM     19  C   UNL     1      21.579   2.065 -16.592  1.00  0.00     0.000 C 
BRANCH  19  20
ATOM     20  C   UNL     1      20.309   2.909 -16.395  1.00  0.00     0.006 C 
BRANCH  20  21
ATOM     21  C   UNL     1      19.399   2.343 -15.295  1.00  0.00     0.053 C 
BRANCH  21  22
ATOM     22  C   UNL     1      18.112   1.810 -15.846  1.00  0.00     0.041 C 
ATOM     23  O   UNL     1      17.698   2.186 -16.974  1.00  0.00    -0.550 OA
ATOM     24  O   UNL     1      17.363   0.904 -15.106  1.00  0.00    -0.550 OA
ENDBRANCH  21  22
ENDBRANCH  20  21
ENDBRANCH  19  20
ENDBRANCH  18  19
ENDBRANCH  17  18
ENDBRANCH  16  17
ENDBRANCH  15  16
ENDBRANCH  14  15
ENDBRANCH  13  14
ENDBRANCH   1  13
TORSDOF 20
ENDMDL
MODEL 3
REMARK VINA RESULT:    -5.531      3.007      8.870
REMARK INTER + INTRA:         -14.496
REMARK INTER:                 -11.906
REMARK INTRA:                  -2.590
REMARK UNBOUND:                -2.498
REMARK SMILES CCCCCCCCCCCCCCCCCCCCCC(=O)[O-]
REMARK SMILES IDX 12 1 11 2 10 3 9 4 8 5 7 6 6 7 5 8 4 9 3 10 2 11 1 12 13 13
REMARK SMILES IDX 14 14 15 15 16 16 17 17 18 18 19 19 20 20 21 21 22 22 23 23
REMARK SMILES IDX 24 24
REMARK H PARENT
REMARK Flexibility Score: inf
ROOT
ATOM      1  C   UNL     1      18.610   1.777 -22.752  1.00  0.00     0.000 C 
ENDROOT
BRANCH   1   2
ATOM      2  C   UNL     1      19.376   0.484 -22.422  1.00  0.00     0.000 C 
BRANCH   2   3
ATOM      3  C   UNL     1      20.755   0.772 -21.788  1.00  0.00     0.000 C 
BRANCH   3   4
ATOM      4  C   UNL     1      20.677   1.551 -20.462  1.00  0.00    -0.000 C 
BRANCH   4   5
ATOM      5  C   UNL     1      19.949   0.773 -19.355  1.00  0.00    -0.000 C 
BRANCH   5   6
ATOM      6  C   UNL     1      20.772  -0.412 -18.823  1.00  0.00    -0.000 C 
BRANCH   6   7
ATOM      7  C   UNL     1      20.027  -1.751 -18.937  1.00  0.00    -0.000 C 
BRANCH   7   8
ATOM      8  C   UNL     1      19.887  -2.418 -17.560  1.00  0.00    -0.000 C 
BRANCH   8   9
ATOM      9  C   UNL     1      20.658  -1.663 -16.463  1.00  0.00    -0.000 C 
BRANCH   9  10
ATOM     10  C   UNL     1      19.744  -1.088 -15.357  1.00  0.00    -0.000 C 
BRANCH  10  11
ATOM     11  C   UNL     1      20.121   0.344 -14.934  1.00  0.00    -0.003 C 
ATOM     12  C   UNL     1      18.981   1.342 -15.134  1.00  0.00     0.004 C 
ENDBRANCH  10  11
ENDBRANCH   9  10
ENDBRANCH   8   9
ENDBRANCH   7   8
ENDBRANCH   6   7
ENDBRANCH   5   6
ENDBRANCH   4   5
ENDBRANCH   3   4
ENDBRANCH   2   3
ENDBRANCH   1   2
BRANCH   1  13
ATOM     13  C   UNL     1      17.093   1.549 -22.861  1.00  0.00     0.000 C 
BRANCH  13  14
ATOM     14  C   UNL     1      16.742   0.102 -23.240  1.00  0.00     0.000 C 
BRANCH  14  15
ATOM     15  C   UNL     1      16.089   0.047 -24.630  1.00  0.00     0.000 C 
BRANCH  15  16
ATOM     16  C   UNL     1      16.016   1.425 -25.312  1.00  0.00     0.000 C 
BRANCH  16  17
ATOM     17  C   UNL     1      16.943   1.599 -26.533  1.00  0.00     0.000 C 
BRANCH  17  18
ATOM     18  C   UNL     1      17.886   0.411 -26.819  1.00  0.00     0.000 C 
BRANCH  18  19
ATOM     19  C   UNL     1      19.343   0.615 -26.365  1.00  0.00     0.000 C 
BRANCH  19  20
ATOM     20  C   UNL     1      19.889  -0.582 -25.570  1.00  0.00     0.006 C 
BRANCH  20  21
ATOM     21  C   UNL     1      19.593  -1.922 -26.260  1.00  0.00     0.053 C 
BRANCH  21  22
ATOM     22  C   UNL     1      19.458  -3.044 -25.277  1.00  0.00     0.041 C 
ATOM     23  O   UNL     1      18.413  -3.162 -24.583  1.00  0.00    -0.550 OA
ATOM     24  O   UNL     1      20.493  -3.957 -25.120  1.00  0.00    -0.550 OA
ENDBRANCH  21  22
ENDBRANCH  20  21
ENDBRANCH  19  20
ENDBRANCH  18  19
ENDBRANCH  17  18
ENDBRANCH  16  17
ENDBRANCH  15  16
ENDBRANCH  14  15
ENDBRANCH  13  14
ENDBRANCH   1  13
TORSDOF 20
ENDMDL
MODEL 4
REMARK VINA RESULT:    -5.465      1.432      4.060
REMARK INTER + INTRA:         -14.352
REMARK INTER:                 -11.746
REMARK INTRA:                  -2.606
REMARK UNBOUND:                -2.498
REMARK SMILES CCCCCCCCCCCCCCCCCCCCCC(=O)[O-]
REMARK SMILES IDX 12 1 11 2 10 3 9 4 8 5 7 6 6 7 5 8 4 9 3 10 2 11 1 12 13 13
REMARK SMILES IDX 14 14 15 15 16 16 17 17 18 18 19 19 20 20 21 21 22 22 23 23
REMARK SMILES IDX 24 24
REMARK H PARENT
REMARK Flexibility Score: inf
ROOT
ATOM      1  C   UNL     1      19.979  -2.088 -18.183  1.00  0.00     0.000 C 
ENDROOT
BRANCH   1   2
ATOM      2  C   UNL     1      19.853  -0.566 -18.365  1.00  0.00     0.000 C 
BRANCH   2   3
ATOM      3  C   UNL     1      20.887  -0.014 -19.371  1.00  0.00     0.000 C 
BRANCH   3   4
ATOM      4  C   UNL     1      20.422   1.258 -20.104  1.00  0.00    -0.000 C 
BRANCH   4   5
ATOM      5  C   UNL     1      20.744   1.233 -21.606  1.00  0.00    -0.000 C 
BRANCH   5   6
ATOM      6  C   UNL     1      19.484   1.130 -22.482  1.00  0.00    -0.000 C 
BRANCH   6   7
ATOM      7  C   UNL     1      19.503  -0.097 -23.407  1.00  0.00    -0.000 C 
BRANCH   7   8
ATOM      8  C   UNL     1      18.283  -0.996 -23.149  1.00  0.00    -0.000 C 
BRANCH   8   9
ATOM      9  C   UNL     1      16.978  -0.190 -23.032  1.00  0.00    -0.000 C 
BRANCH   9  10
ATOM     10  C   UNL     1      16.407   0.254 -24.399  1.00  0.00    -0.000 C 
BRANCH  10  11
ATOM     11  C   UNL     1      16.464   1.776 -24.620  1.00  0.00    -0.003 C 
ATOM     12  C   UNL     1      16.180   2.177 -26.068  1.00  0.00     0.004 C 
ENDBRANCH  10  11
ENDBRANCH   9  10
ENDBRANCH   8   9
ENDBRANCH   7   8
ENDBRANCH   6   7
ENDBRANCH   5   6
ENDBRANCH   4   5
ENDBRANCH   3   4
ENDBRANCH   2   3
ENDBRANCH   1   2
BRANCH   1  13
ATOM     13  C   UNL     1      20.083  -2.496 -16.704  1.00  0.00     0.000 C 
BRANCH  13  14
ATOM     14  C   UNL     1      20.190  -1.283 -15.766  1.00  0.00     0.000 C 
BRANCH  14  15
ATOM     15  C   UNL     1      21.540  -1.281 -15.031  1.00  0.00     0.000 C 
BRANCH  15  16
ATOM     16  C   UNL     1      22.676  -0.668 -15.870  1.00  0.00     0.000 C 
BRANCH  16  17
ATOM     17  C   UNL     1      22.882   0.849 -15.680  1.00  0.00     0.000 C 
BRANCH  17  18
ATOM     18  C   UNL     1      22.232   1.743 -16.756  1.00  0.00     0.000 C 
BRANCH  18  19
ATOM     19  C   UNL     1      21.435   2.942 -16.209  1.00  0.00     0.000 C 
BRANCH  19  20
ATOM     20  C   UNL     1      19.924   2.816 -16.468  1.00  0.00     0.006 C 
BRANCH  20  21
ATOM     21  C   UNL     1      19.170   2.264 -15.250  1.00  0.00     0.053 C 
BRANCH  21  22
ATOM     22  C   UNL     1      17.878   1.610 -15.635  1.00  0.00     0.041 C 
ATOM     23  O   UNL     1      17.324   0.787 -14.859  1.00  0.00    -0.550 OA
ATOM     24  O   UNL     1      17.291   1.902 -16.860  1.00  0.00    -0.550 OA
ENDBRANCH  21  22
ENDBRANCH  20  21
ENDBRANCH  19  20
ENDBRANCH  18  19
ENDBRANCH  17  18
ENDBRANCH  16  17
ENDBRANCH  15  16
ENDBRANCH  14  15
ENDBRANCH  13  14
ENDBRANCH   1  13
TORSDOF 20
ENDMDL
MODEL 5
REMARK VINA RESULT:    -5.417      3.517      8.573
REMARK INTER + INTRA:         -14.249
REMARK INTER:                 -11.289
REMARK INTRA:                  -2.959
REMARK UNBOUND:                -2.498
REMARK SMILES CCCCCCCCCCCCCCCCCCCCCC(=O)[O-]
REMARK SMILES IDX 12 1 11 2 10 3 9 4 8 5 7 6 6 7 5 8 4 9 3 10 2 11 1 12 13 13
REMARK SMILES IDX 14 14 15 15 16 16 17 17 18 18 19 19 20 20 21 21 22 22 23 23
REMARK SMILES IDX 24 24
REMARK H PARENT
REMARK Flexibility Score: inf
ROOT
ATOM      1  C   UNL     1      16.915  -0.383 -23.669  1.00  0.00     0.000 C 
ENDROOT
BRANCH   1   2
ATOM      2  C   UNL     1      16.789   0.908 -22.843  1.00  0.00     0.000 C 
BRANCH   2   3
ATOM      3  C   UNL     1      18.058   1.192 -22.011  1.00  0.00     0.000 C 
BRANCH   3   4
ATOM      4  C   UNL     1      19.052   0.016 -21.976  1.00  0.00    -0.000 C 
BRANCH   4   5
ATOM      5  C   UNL     1      20.412   0.403 -21.373  1.00  0.00    -0.000 C 
BRANCH   5   6
ATOM      6  C   UNL     1      20.298   0.899 -19.923  1.00  0.00    -0.000 C 
BRANCH   6   7
ATOM      7  C   UNL     1      20.807  -0.130 -18.901  1.00  0.00    -0.000 C 
BRANCH   7   8
ATOM      8  C   UNL     1      20.011  -1.441 -19.004  1.00  0.00    -0.000 C 
BRANCH   8   9
ATOM      9  C   UNL     1      19.882  -2.154 -17.646  1.00  0.00    -0.000 C 
BRANCH   9  10
ATOM     10  C   UNL     1      20.837  -1.595 -16.566  1.00  0.00    -0.000 C 
BRANCH  10  11
ATOM     11  C   UNL     1      20.109  -1.095 -15.306  1.00  0.00    -0.003 C 
ATOM     12  C   UNL     1      19.148   0.058 -15.592  1.00  0.00     0.004 C 
ENDBRANCH  10  11
ENDBRANCH   9  10
ENDBRANCH   8   9
ENDBRANCH   7   8
ENDBRANCH   6   7
ENDBRANCH   5   6
ENDBRANCH   4   5
ENDBRANCH   3   4
ENDBRANCH   2   3
ENDBRANCH   1   2
BRANCH   1  13
ATOM     13  C   UNL     1      16.345  -0.231 -25.089  1.00  0.00     0.000 C 
BRANCH  13  14
ATOM     14  C   UNL     1      15.979   1.224 -25.423  1.00  0.00     0.000 C 
BRANCH  14  15
ATOM     15  C   UNL     1      17.069   1.874 -26.289  1.00  0.00     0.000 C 
BRANCH  15  16
ATOM     16  C   UNL     1      17.855   2.967 -25.542  1.00  0.00     0.000 C 
BRANCH  16  17
ATOM     17  C   UNL     1      19.320   2.610 -25.216  1.00  0.00     0.000 C 
BRANCH  17  18
ATOM     18  C   UNL     1      19.832   1.293 -25.836  1.00  0.00     0.000 C 
BRANCH  18  19
ATOM     19  C   UNL     1      20.963   0.603 -25.051  1.00  0.00     0.000 C 
BRANCH  19  20
ATOM     20  C   UNL     1      21.179  -0.857 -25.484  1.00  0.00     0.006 C 
BRANCH  20  21
ATOM     21  C   UNL     1      20.079  -1.790 -24.956  1.00  0.00     0.053 C 
BRANCH  21  22
ATOM     22  C   UNL     1      19.469  -2.617 -26.046  1.00  0.00     0.041 C 
ATOM     23  O   UNL     1      19.243  -3.842 -25.864  1.00  0.00    -0.550 OA
ATOM     24  O   UNL     1      19.161  -2.035 -27.269  1.00  0.00    -0.550 OA
ENDBRANCH  21  22
ENDBRANCH  20  21
ENDBRANCH  19  20
ENDBRANCH  18  19
ENDBRANCH  17  18
ENDBRANCH  16  17
ENDBRANCH  15  16
ENDBRANCH  14  15
ENDBRANCH  13  14
ENDBRANCH   1  13
TORSDOF 20
ENDMDL
MODEL 6
REMARK VINA RESULT:    -5.272      1.081      2.662
REMARK INTER + INTRA:         -13.933
REMARK INTER:                 -11.527
REMARK INTRA:                  -2.406
REMARK UNBOUND:                -2.498
REMARK SMILES CCCCCCCCCCCCCCCCCCCCCC(=O)[O-]
REMARK SMILES IDX 12 1 11 2 10 3 9 4 8 5 7 6 6 7 5 8 4 9 3 10 2 11 1 12 13 13
REMARK SMILES IDX 14 14 15 15 16 16 17 17 18 18 19 19 20 20 21 21 22 22 23 23
REMARK SMILES IDX 24 24
REMARK H PARENT
REMARK Flexibility Score: inf
ROOT
ATOM      1  C   UNL     1      21.349   1.280 -22.319  1.00  0.00     0.000 C 
ENDROOT
BRANCH   1   2
ATOM      2  C   UNL     1      20.701   1.007 -23.687  1.00  0.00     0.000 C 
BRANCH   2   3
ATOM      3  C   UNL     1      20.358  -0.487 -23.879  1.00  0.00     0.000 C 
BRANCH   3   4
ATOM      4  C   UNL     1      21.007  -1.117 -25.126  1.00  0.00    -0.000 C 
BRANCH   4   5
ATOM      5  C   UNL     1      20.532  -0.472 -26.437  1.00  0.00    -0.000 C 
BRANCH   5   6
ATOM      6  C   UNL     1      19.281  -1.156 -27.014  1.00  0.00    -0.000 C 
BRANCH   6   7
ATOM      7  C   UNL     1      18.187  -0.152 -27.412  1.00  0.00    -0.000 C 
BRANCH   7   8
ATOM      8  C   UNL     1      17.925   0.849 -26.276  1.00  0.00    -0.000 C 
BRANCH   8   9
ATOM      9  C   UNL     1      16.426   1.151 -26.098  1.00  0.00    -0.000 C 
BRANCH   9  10
ATOM     10  C   UNL     1      15.750   0.280 -25.013  1.00  0.00    -0.000 C 
BRANCH  10  11
ATOM     11  C   UNL     1      16.706  -0.142 -23.883  1.00  0.00    -0.003 C 
ATOM     12  C   UNL     1      16.956   0.974 -22.869  1.00  0.00     0.004 C 
ENDBRANCH  10  11
ENDBRANCH   9  10
ENDBRANCH   8   9
ENDBRANCH   7   8
ENDBRANCH   6   7
ENDBRANCH   5   6
ENDBRANCH   4   5
ENDBRANCH   3   4
ENDBRANCH   2   3
ENDBRANCH   1   2
BRANCH   1  13
ATOM     13  C   UNL     1      20.314   1.363 -21.185  1.00  0.00     0.000 C 
BRANCH  13  14
ATOM     14  C   UNL     1      20.814   0.717 -19.884  1.00  0.00     0.000 C 
BRANCH  14  15
ATOM     15  C   UNL     1      20.147  -0.649 -19.663  1.00  0.00     0.000 C 
BRANCH  15  16
ATOM     16  C   UNL     1      20.816  -1.469 -18.544  1.00  0.00     0.000 C 
BRANCH  16  17
ATOM     17  C   UNL     1      19.840  -2.146 -17.559  1.00  0.00     0.000 C 
BRANCH  17  18
ATOM     18  C   UNL     1      19.910  -1.633 -16.105  1.00  0.00     0.000 C 
BRANCH  18  19
ATOM     19  C   UNL     1      20.887  -0.466 -15.875  1.00  0.00     0.000 C 
BRANCH  19  20
ATOM     20  C   UNL     1      20.185   0.902 -15.864  1.00  0.00     0.006 C 
BRANCH  20  21
ATOM     21  C   UNL     1      18.692   0.786 -15.522  1.00  0.00     0.053 C 
BRANCH  21  22
ATOM     22  C   UNL     1      17.835   1.577 -16.462  1.00  0.00     0.041 C 
ATOM     23  O   UNL     1      16.831   2.205 -16.033  1.00  0.00    -0.550 OA
ATOM     24  O   UNL     1      18.140   1.611 -17.817  1.00  0.00    -0.550 OA
ENDBRANCH  21  22
ENDBRANCH  20  21
ENDBRANCH  19  20
ENDBRANCH  18  19
ENDBRANCH  17  18
ENDBRANCH  16  17
ENDBRANCH  15  16
ENDBRANCH  14  15
ENDBRANCH  13  14
ENDBRANCH   1  13
TORSDOF 20
ENDMDL
MODEL 7
REMARK VINA RESULT:    -5.265      3.878      9.181
REMARK INTER + INTRA:         -13.918
REMARK INTER:                 -11.443
REMARK INTRA:                  -2.474
REMARK UNBOUND:                -2.498
REMARK SMILES CCCCCCCCCCCCCCCCCCCCCC(=O)[O-]
REMARK SMILES IDX 12 1 11 2 10 3 9 4 8 5 7 6 6 7 5 8 4 9 3 10 2 11 1 12 13 13
REMARK SMILES IDX 14 14 15 15 16 16 17 17 18 18 19 19 20 20 21 21 22 22 23 23
REMARK SMILES IDX 24 24
REMARK H PARENT
REMARK Flexibility Score: inf
ROOT
ATOM      1  C   UNL     1      18.137  -0.317 -22.618  1.00  0.00     0.000 C 
ENDROOT
BRANCH   1   2
ATOM      2  C   UNL     1      18.882   0.777 -21.835  1.00  0.00     0.000 C 
BRANCH   2   3
ATOM      3  C   UNL     1      20.414   0.661 -21.991  1.00  0.00     0.000 C 
BRANCH   3   4
ATOM      4  C   UNL     1      21.198   1.065 -20.728  1.00  0.00    -0.000 C 
BRANCH   4   5
ATOM      5  C   UNL     1      20.336   1.038 -19.457  1.00  0.00    -0.000 C 
BRANCH   5   6
ATOM      6  C   UNL     1      20.896   0.095 -18.380  1.00  0.00    -0.000 C 
BRANCH   6   7
ATOM      7  C   UNL     1      20.539  -1.378 -18.638  1.00  0.00    -0.000 C 
BRANCH   7   8
ATOM      8  C   UNL     1      19.996  -2.041 -17.362  1.00  0.00    -0.000 C 
BRANCH   8   9
ATOM      9  C   UNL     1      20.246  -1.186 -16.108  1.00  0.00    -0.000 C 
BRANCH   9  10
ATOM     10  C   UNL     1      21.488  -1.629 -15.301  1.00  0.00    -0.000 C 
BRANCH  10  11
ATOM     11  C   UNL     1      22.667  -0.644 -15.403  1.00  0.00    -0.003 C 
ATOM     12  C   UNL     1      23.912  -1.129 -14.661  1.00  0.00     0.004 C 
ENDBRANCH  10  11
ENDBRANCH   9  10
ENDBRANCH   8   9
ENDBRANCH   7   8
ENDBRANCH   6   7
ENDBRANCH   5   6
ENDBRANCH   4   5
ENDBRANCH   3   4
ENDBRANCH   2   3
ENDBRANCH   1   2
BRANCH   1  13
ATOM     13  C   UNL     1      16.745   0.140 -23.087  1.00  0.00     0.000 C 
BRANCH  13  14
ATOM     14  C   UNL     1      16.337  -0.497 -24.425  1.00  0.00     0.000 C 
BRANCH  14  15
ATOM     15  C   UNL     1      15.816   0.571 -25.400  1.00  0.00     0.000 C 
BRANCH  15  16
ATOM     16  C   UNL     1      16.247   1.997 -25.011  1.00  0.00     0.000 C 
BRANCH  16  17
ATOM     17  C   UNL     1      17.441   2.558 -25.809  1.00  0.00     0.000 C 
BRANCH  17  18
ATOM     18  C   UNL     1      18.762   2.683 -25.020  1.00  0.00     0.000 C 
BRANCH  18  19
ATOM     19  C   UNL     1      19.950   1.907 -25.618  1.00  0.00     0.000 C 
BRANCH  19  20
ATOM     20  C   UNL     1      19.735   0.384 -25.597  1.00  0.00     0.006 C 
BRANCH  20  21
ATOM     21  C   UNL     1      20.131  -0.278 -26.924  1.00  0.00     0.053 C 
BRANCH  21  22
ATOM     22  C   UNL     1      19.077  -1.220 -27.421  1.00  0.00     0.041 C 
ATOM     23  O   UNL     1      19.303  -2.458 -27.475  1.00  0.00    -0.550 OA
ATOM     24  O   UNL     1      17.846  -0.727 -27.837  1.00  0.00    -0.550 OA
ENDBRANCH  21  22
ENDBRANCH  20  21
ENDBRANCH  19  20
ENDBRANCH  18  19
ENDBRANCH  17  18
ENDBRANCH  16  17
ENDBRANCH  15  16
ENDBRANCH  14  15
ENDBRANCH  13  14
ENDBRANCH   1  13
TORSDOF 20
ENDMDL
MODEL 8
REMARK VINA RESULT:    -5.259      3.350      8.799
REMARK INTER + INTRA:         -13.907
REMARK INTER:                 -10.886
REMARK INTRA:                  -3.021
REMARK UNBOUND:                -2.498
REMARK SMILES CCCCCCCCCCCCCCCCCCCCCC(=O)[O-]
REMARK SMILES IDX 12 1 11 2 10 3 9 4 8 5 7 6 6 7 5 8 4 9 3 10 2 11 1 12 13 13
REMARK SMILES IDX 14 14 15 15 16 16 17 17 18 18 19 19 20 20 21 21 22 22 23 23
REMARK SMILES IDX 24 24
REMARK H PARENT
REMARK Flexibility Score: inf
ROOT
ATOM      1  C   UNL     1      20.251  -2.122 -18.527  1.00  0.00     0.000 C 
ENDROOT
BRANCH   1   2
ATOM      2  C   UNL     1      20.108  -2.557 -17.059  1.00  0.00     0.000 C 
BRANCH   2   3
ATOM      3  C   UNL     1      19.659  -1.392 -16.150  1.00  0.00     0.000 C 
BRANCH   3   4
ATOM      4  C   UNL     1      20.538  -1.206 -14.900  1.00  0.00    -0.000 C 
BRANCH   4   5
ATOM      5  C   UNL     1      22.039  -1.335 -15.201  1.00  0.00    -0.000 C 
BRANCH   5   6
ATOM      6  C   UNL     1      22.601  -0.115 -15.950  1.00  0.00    -0.000 C 
BRANCH   6   7
ATOM      7  C   UNL     1      21.961   1.206 -15.495  1.00  0.00    -0.000 C 
BRANCH   7   8
ATOM      8  C   UNL     1      21.590   2.078 -16.705  1.00  0.00    -0.000 C 
BRANCH   8   9
ATOM      9  C   UNL     1      20.213   2.747 -16.543  1.00  0.00    -0.000 C 
BRANCH   9  10
ATOM     10  C   UNL     1      19.452   2.285 -15.279  1.00  0.00    -0.000 C 
BRANCH  10  11
ATOM     11  C   UNL     1      18.013   1.822 -15.567  1.00  0.00    -0.003 C 
ATOM     12  C   UNL     1      17.723   1.674 -17.060  1.00  0.00     0.004 C 
ENDBRANCH  10  11
ENDBRANCH   9  10
ENDBRANCH   8   9
ENDBRANCH   7   8
ENDBRANCH   6   7
ENDBRANCH   5   6
ENDBRANCH   4   5
ENDBRANCH   3   4
ENDBRANCH   2   3
ENDBRANCH   1   2
BRANCH   1  13
ATOM     13  C   UNL     1      19.876  -0.646 -18.742  1.00  0.00     0.000 C 
BRANCH  13  14
ATOM     14  C   UNL     1      20.838   0.071 -19.703  1.00  0.00     0.000 C 
BRANCH  14  15
ATOM     15  C   UNL     1      20.233   1.397 -20.189  1.00  0.00     0.000 C 
BRANCH  15  16
ATOM     16  C   UNL     1      19.396   1.238 -21.471  1.00  0.00     0.000 C 
BRANCH  16  17
ATOM     17  C   UNL     1      19.438  -0.167 -22.108  1.00  0.00     0.000 C 
BRANCH  17  18
ATOM     18  C   UNL     1      18.963  -0.241 -23.575  1.00  0.00     0.000 C 
BRANCH  18  19
ATOM     19  C   UNL     1      17.559  -0.841 -23.772  1.00  0.00     0.000 C 
BRANCH  19  20
ATOM     20  C   UNL     1      16.443   0.211 -23.654  1.00  0.00     0.006 C 
BRANCH  20  21
ATOM     21  C   UNL     1      16.876   1.582 -24.194  1.00  0.00     0.053 C 
BRANCH  21  22
ATOM     22  C   UNL     1      16.377   1.823 -25.585  1.00  0.00     0.041 C 
ATOM     23  O   UNL     1      16.864   2.751 -26.285  1.00  0.00    -0.550 OA
ATOM     24  O   UNL     1      15.364   1.029 -26.107  1.00  0.00    -0.550 OA
ENDBRANCH  21  22
ENDBRANCH  20  21
ENDBRANCH  19  20
ENDBRANCH  18  19
ENDBRANCH  17  18
ENDBRANCH  16  17
ENDBRANCH  15  16
ENDBRANCH  14  15
ENDBRANCH  13  14
ENDBRANCH   1  13
TORSDOF 20
ENDMDL
MODEL 9
REMARK VINA RESULT:    -5.230      0.993      1.669
REMARK INTER + INTRA:         -13.843
REMARK INTER:                 -11.634
REMARK INTRA:                  -2.208
REMARK UNBOUND:                -2.498
REMARK SMILES CCCCCCCCCCCCCCCCCCCCCC(=O)[O-]
REMARK SMILES IDX 12 1 11 2 10 3 9 4 8 5 7 6 6 7 5 8 4 9 3 10 2 11 1 12 13 13
REMARK SMILES IDX 14 14 15 15 16 16 17 17 18 18 19 19 20 20 21 21 22 22 23 23
REMARK SMILES IDX 24 24
REMARK H PARENT
REMARK Flexibility Score: inf
ROOT
ATOM      1  C   UNL     1      18.603   1.730 -22.631  1.00  0.00     0.000 C 
ENDROOT
BRANCH   1   2
ATOM      2  C   UNL     1      17.100   1.586 -22.921  1.00  0.00     0.000 C 
BRANCH   2   3
ATOM      3  C   UNL     1      16.722   0.146 -23.332  1.00  0.00     0.000 C 
BRANCH   3   4
ATOM      4  C   UNL     1      15.984   0.058 -24.680  1.00  0.00    -0.000 C 
BRANCH   4   5
ATOM      5  C   UNL     1      16.142   1.328 -25.531  1.00  0.00    -0.000 C 
BRANCH   5   6
ATOM      6  C   UNL     1      17.430   1.322 -26.371  1.00  0.00    -0.000 C 
BRANCH   6   7
ATOM      7  C   UNL     1      17.560   0.067 -27.248  1.00  0.00    -0.000 C 
BRANCH   7   8
ATOM      8  C   UNL     1      18.885  -0.660 -26.970  1.00  0.00    -0.000 C 
BRANCH   8   9
ATOM      9  C   UNL     1      19.594  -0.123 -25.714  1.00  0.00    -0.000 C 
BRANCH   9  10
ATOM     10  C   UNL     1      20.961   0.534 -26.015  1.00  0.00    -0.000 C 
BRANCH  10  11
ATOM     11  C   UNL     1      21.807   0.790 -24.755  1.00  0.00    -0.003 C 
ATOM     12  C   UNL     1      22.841  -0.306 -24.501  1.00  0.00     0.004 C 
ENDBRANCH  10  11
ENDBRANCH   9  10
ENDBRANCH   8   9
ENDBRANCH   7   8
ENDBRANCH   6   7
ENDBRANCH   5   6
ENDBRANCH   4   5
ENDBRANCH   3   4
ENDBRANCH   2   3
ENDBRANCH   1   2
BRANCH   1  13
ATOM     13  C   UNL     1      19.151   0.570 -21.782  1.00  0.00     0.000 C 
BRANCH  13  14
ATOM     14  C   UNL     1      20.244   1.025 -20.802  1.00  0.00     0.000 C 
BRANCH  14  15
ATOM     15  C   UNL     1      20.051   0.366 -19.427  1.00  0.00     0.000 C 
BRANCH  15  16
ATOM     16  C   UNL     1      20.014  -1.172 -19.501  1.00  0.00     0.000 C 
BRANCH  16  17
ATOM     17  C   UNL     1      19.971  -1.889 -18.135  1.00  0.00     0.000 C 
BRANCH  17  18
ATOM     18  C   UNL     1      20.831  -1.248 -17.026  1.00  0.00     0.000 C 
BRANCH  18  19
ATOM     19  C   UNL     1      20.289  -1.432 -15.597  1.00  0.00     0.000 C 
BRANCH  19  20
ATOM     20  C   UNL     1      20.054  -0.095 -14.875  1.00  0.00     0.006 C 
BRANCH  20  21
ATOM     21  C   UNL     1      19.580   1.008 -15.833  1.00  0.00     0.053 C 
BRANCH  21  22
ATOM     22  C   UNL     1      18.201   1.489 -15.500  1.00  0.00     0.041 C 
ATOM     23  O   UNL     1      17.433   0.785 -14.793  1.00  0.00    -0.550 OA
ATOM     24  O   UNL     1      17.759   2.715 -15.982  1.00  0.00    -0.550 OA
ENDBRANCH  21  22
ENDBRANCH  20  21
ENDBRANCH  19  20
ENDBRANCH  18  19
ENDBRANCH  17  18
ENDBRANCH  16  17
ENDBRANCH  15  16
ENDBRANCH  14  15
ENDBRANCH  13  14
ENDBRANCH   1  13
TORSDOF 20
ENDMDL
