MODEL 1
REMARK VINA RESULT:    -3.980      0.000      0.000
REMARK INTER + INTRA:          -6.731
REMARK INTER:                  -6.772
REMARK INTRA:                   0.040
REMARK UNBOUND:                 0.040
REMARK SMILES CCCCCCCCCCCCCC(=O)[O-]
REMARK SMILES IDX 8 1 9 2 10 3 11 4 12 5 13 6 14 7 15 8 16 9 7 10 6 11 5 12
REMARK SMILES IDX 4 13 3 14 2 15 1 16
REMARK H PARENT
REMARK Flexibility Score: inf
ROOT
ATOM      1  C   UNL     1      -3.377   0.372  -0.883  1.00  0.00     0.000 C 
ENDROOT
BRANCH   1   2
ATOM      2  C   UNL     1      -3.928  -1.031  -1.174  1.00  0.00     0.000 C 
BRANCH   2   3
ATOM      3  C   UNL     1      -3.768  -1.445  -2.648  1.00  0.00     0.000 C 
BRANCH   3   4
ATOM      4  C   UNL     1      -3.332  -2.908  -2.873  1.00  0.00     0.000 C 
BRANCH   4   5
ATOM      5  C   UNL     1      -4.073  -3.954  -2.017  1.00  0.00     0.006 C 
BRANCH   5   6
ATOM      6  C   UNL     1      -3.577  -4.049  -0.565  1.00  0.00     0.053 C 
BRANCH   6   7
ATOM      7  C   UNL     1      -4.635  -4.584   0.353  1.00  0.00     0.041 C 
ATOM      8  O   UNL     1      -5.125  -3.849   1.250  1.00  0.00    -0.550 OA
ATOM      9  O   UNL     1      -5.103  -5.882   0.195  1.00  0.00    -0.550 OA
ENDBRANCH   6   7
ENDBRANCH   5   6
ENDBRANCH   4   5
ENDBRANCH   3   4
ENDBRANCH   2   3
ENDBRANCH   1   2
BRANCH   1  10
ATOM     10  C   UNL     1      -4.016   0.957   0.385  1.00  0.00     0.000 C 
BRANCH  10  11
ATOM     11  C   UNL     1      -3.845   2.481   0.490  1.00  0.00    -0.000 C 
BRANCH  11  12
ATOM     12  C   UNL     1      -2.675   3.063  -0.328  1.00  0.00    -0.000 C 
BRANCH  12  13
ATOM     13  C   UNL     1      -3.068   4.268  -1.209  1.00  0.00    -0.000 C 
BRANCH  13  14
ATOM     14  C   UNL     1      -2.961   5.604  -0.454  1.00  0.00    -0.000 C 
BRANCH  14  15
ATOM     15  C   UNL     1      -2.614   5.419   1.031  1.00  0.00    -0.003 C 
ATOM     16  C   UNL     1      -1.669   6.499   1.558  1.00  0.00     0.004 C 
ENDBRANCH  14  15
ENDBRANCH  13  14
ENDBRANCH  12  13
ENDBRANCH  11  12
ENDBRANCH  10  11
ENDBRANCH   1  10
TORSDOF 12
ENDMDL
MODEL 2
REMARK VINA RESULT:    -3.830      0.980      1.979
REMARK INTER + INTRA:          -6.476
REMARK INTER:                  -5.575
REMARK INTRA:                  -0.901
REMARK UNBOUND:                 0.040
REMARK SMILES CCCCCCCCCCCCCC(=O)[O-]
REMARK SMILES IDX 8 1 9 2 10 3 11 4 12 5 13 6 14 7 15 8 16 9 7 10 6 11 5 12
REMARK SMILES IDX 4 13 3 14 2 15 1 16
REMARK H PARENT
REMARK Flexibility Score: inf
ROOT
ATOM      1  C   UNL     1      -2.757   0.892   0.002  1.00  0.00     0.000 C 
ENDROOT
BRANCH   1   2
ATOM      2  C   UNL     1      -2.865   0.004  -1.245  1.00  0.00     0.000 C 
BRANCH   2   3
ATOM      3  C   UNL     1      -4.109  -0.902  -1.231  1.00  0.00     0.000 C 
BRANCH   3   4
ATOM      4  C   UNL     1      -4.212  -1.891  -2.411  1.00  0.00     0.000 C 
BRANCH   4   5
ATOM      5  C   UNL     1      -3.825  -3.347  -2.083  1.00  0.00     0.006 C 
BRANCH   5   6
ATOM      6  C   UNL     1      -3.472  -3.591  -0.607  1.00  0.00     0.053 C 
BRANCH   6   7
ATOM      7  C   UNL     1      -4.507  -4.426   0.084  1.00  0.00     0.041 C 
ATOM      8  O   UNL     1      -4.977  -4.060   1.193  1.00  0.00    -0.550 OA
ATOM      9  O   UNL     1      -4.976  -5.589  -0.512  1.00  0.00    -0.550 OA
ENDBRANCH   6   7
ENDBRANCH   5   6
ENDBRANCH   4   5
ENDBRANCH   3   4
ENDBRANCH   2   3
ENDBRANCH   1   2
BRANCH   1  10
ATOM     10  C   UNL     1      -4.138   1.419   0.418  1.00  0.00     0.000 C 
BRANCH  10  11
ATOM     11  C   UNL     1      -4.130   2.921   0.743  1.00  0.00    -0.000 C 
BRANCH  11  12
ATOM     12  C   UNL     1      -2.817   3.654   0.403  1.00  0.00    -0.000 C 
BRANCH  12  13
ATOM     13  C   UNL     1      -3.014   5.123  -0.026  1.00  0.00    -0.000 C 
BRANCH  13  14
ATOM     14  C   UNL     1      -3.198   5.267  -1.548  1.00  0.00    -0.000 C 
BRANCH  14  15
ATOM     15  C   UNL     1      -2.737   4.022  -2.320  1.00  0.00    -0.003 C 
ATOM     16  C   UNL     1      -2.649   4.260  -3.828  1.00  0.00     0.004 C 
ENDBRANCH  14  15
ENDBRANCH  13  14
ENDBRANCH  12  13
ENDBRANCH  11  12
ENDBRANCH  10  11
ENDBRANCH   1  10
TORSDOF 12
ENDMDL
MODEL 3
REMARK VINA RESULT:    -3.637      3.944      8.259
REMARK INTER + INTRA:          -6.148
REMARK INTER:                  -5.518
REMARK INTRA:                  -0.630
REMARK UNBOUND:                 0.040
REMARK SMILES CCCCCCCCCCCCCC(=O)[O-]
REMARK SMILES IDX 8 1 9 2 10 3 11 4 12 5 13 6 14 7 15 8 16 9 7 10 6 11 5 12
REMARK SMILES IDX 4 13 3 14 2 15 1 16
REMARK H PARENT
REMARK Flexibility Score: inf
ROOT
ATOM      1  C   UNL     1      -3.370   0.502  -0.366  1.00  0.00     0.000 C 
ENDROOT
BRANCH   1   2
ATOM      2  C   UNL     1      -4.257   1.390   0.517  1.00  0.00     0.000 C 
BRANCH   2   3
ATOM      3  C   UNL     1      -3.789   2.855   0.558  1.00  0.00     0.000 C 
BRANCH   3   4
ATOM      4  C   UNL     1      -2.600   3.189  -0.366  1.00  0.00     0.000 C 
BRANCH   4   5
ATOM      5  C   UNL     1      -2.632   4.595  -0.998  1.00  0.00     0.006 C 
BRANCH   5   6
ATOM      6  C   UNL     1      -3.208   5.687  -0.083  1.00  0.00     0.053 C 
BRANCH   6   7
ATOM      7  C   UNL     1      -2.252   6.065   1.007  1.00  0.00     0.041 C 
ATOM      8  O   UNL     1      -2.470   5.707   2.194  1.00  0.00    -0.550 OA
ATOM      9  O   UNL     1      -1.102   6.785   0.706  1.00  0.00    -0.550 OA
ENDBRANCH   6   7
ENDBRANCH   5   6
ENDBRANCH   4   5
ENDBRANCH   3   4
ENDBRANCH   2   3
ENDBRANCH   1   2
BRANCH   1  10
ATOM     10  C   UNL     1      -4.199  -0.604  -1.035  1.00  0.00     0.000 C 
BRANCH  10  11
ATOM     11  C   UNL     1      -3.804  -0.840  -2.502  1.00  0.00    -0.000 C 
BRANCH  11  12
ATOM     12  C   UNL     1      -3.167  -2.215  -2.792  1.00  0.00    -0.000 C 
BRANCH  12  13
ATOM     13  C   UNL     1      -4.182  -3.377  -2.833  1.00  0.00    -0.000 C 
BRANCH  13  14
ATOM     14  C   UNL     1      -3.888  -4.448  -1.769  1.00  0.00    -0.000 C 
BRANCH  14  15
ATOM     15  C   UNL     1      -3.711  -3.854  -0.363  1.00  0.00    -0.003 C 
ATOM     16  C   UNL     1      -4.728  -4.398   0.641  1.00  0.00     0.004 C 
ENDBRANCH  14  15
ENDBRANCH  13  14
ENDBRANCH  12  13
ENDBRANCH  11  12
ENDBRANCH  10  11
ENDBRANCH   1  10
TORSDOF 12
ENDMDL
MODEL 4
REMARK VINA RESULT:    -3.542      3.887      7.965
REMARK INTER + INTRA:          -5.987
REMARK INTER:                  -5.202
REMARK INTRA:                  -0.784
REMARK UNBOUND:                 0.040
REMARK SMILES CCCCCCCCCCCCCC(=O)[O-]
REMARK SMILES IDX 8 1 9 2 10 3 11 4 12 5 13 6 14 7 15 8 16 9 7 10 6 11 5 12
REMARK SMILES IDX 4 13 3 14 2 15 1 16
REMARK H PARENT
REMARK Flexibility Score: inf
ROOT
ATOM      1  C   UNL     1      -4.141   1.233   0.360  1.00  0.00     0.000 C 
ENDROOT
BRANCH   1   2
ATOM      2  C   UNL     1      -4.181   2.607   1.042  1.00  0.00     0.000 C 
BRANCH   2   3
ATOM      3  C   UNL     1      -2.940   3.465   0.736  1.00  0.00     0.000 C 
BRANCH   3   4
ATOM      4  C   UNL     1      -3.227   4.954   0.452  1.00  0.00     0.000 C 
BRANCH   4   5
ATOM      5  C   UNL     1      -3.130   5.372  -1.029  1.00  0.00     0.006 C 
BRANCH   5   6
ATOM      6  C   UNL     1      -2.628   4.263  -1.968  1.00  0.00     0.053 C 
BRANCH   6   7
ATOM      7  C   UNL     1      -2.973   4.544  -3.399  1.00  0.00     0.041 C 
ATOM      8  O   UNL     1      -2.278   4.050  -4.325  1.00  0.00    -0.550 OA
ATOM      9  O   UNL     1      -4.080   5.323  -3.709  1.00  0.00    -0.550 OA
ENDBRANCH   6   7
ENDBRANCH   5   6
ENDBRANCH   4   5
ENDBRANCH   3   4
ENDBRANCH   2   3
ENDBRANCH   1   2
BRANCH   1  10
ATOM     10  C   UNL     1      -2.787   1.004  -0.327  1.00  0.00     0.000 C 
BRANCH  10  11
ATOM     11  C   UNL     1      -2.662  -0.398  -0.947  1.00  0.00    -0.000 C 
BRANCH  11  12
ATOM     12  C   UNL     1      -4.002  -1.076  -1.298  1.00  0.00    -0.000 C 
BRANCH  12  13
ATOM     13  C   UNL     1      -3.912  -2.059  -2.485  1.00  0.00    -0.000 C 
BRANCH  13  14
ATOM     14  C   UNL     1      -4.018  -3.527  -2.037  1.00  0.00    -0.000 C 
BRANCH  14  15
ATOM     15  C   UNL     1      -3.519  -3.746  -0.600  1.00  0.00    -0.003 C 
ATOM     16  C   UNL     1      -4.543  -4.464   0.279  1.00  0.00     0.004 C 
ENDBRANCH  14  15
ENDBRANCH  13  14
ENDBRANCH  12  13
ENDBRANCH  11  12
ENDBRANCH  10  11
ENDBRANCH   1  10
TORSDOF 12
ENDMDL
MODEL 5
REMARK VINA RESULT:    -3.521      7.457      9.902
REMARK INTER + INTRA:          -5.951
REMARK INTER:                  -5.492
REMARK INTRA:                  -0.460
REMARK UNBOUND:                 0.040
REMARK SMILES CCCCCCCCCCCCCC(=O)[O-]
REMARK SMILES IDX 8 1 9 2 10 3 11 4 12 5 13 6 14 7 15 8 16 9 7 10 6 11 5 12
REMARK SMILES IDX 4 13 3 14 2 15 1 16
REMARK H PARENT
REMARK Flexibility Score: inf
ROOT
ATOM      1  C   UNL     1      -5.240   5.535  -3.709  1.00  0.00     0.000 C 
ENDROOT
BRANCH   1   2
ATOM      2  C   UNL     1      -5.624   6.417  -4.905  1.00  0.00     0.000 C 
BRANCH   2   3
ATOM      3  C   UNL     1      -6.889   5.926  -5.632  1.00  0.00     0.000 C 
BRANCH   3   4
ATOM      4  C   UNL     1      -6.806   5.941  -7.172  1.00  0.00     0.000 C 
BRANCH   4   5
ATOM      5  C   UNL     1      -8.103   6.359  -7.895  1.00  0.00     0.006 C 
BRANCH   5   6
ATOM      6  C   UNL     1      -8.031   7.733  -8.580  1.00  0.00     0.053 C 
BRANCH   6   7
ATOM      7  C   UNL     1      -6.674   8.355  -8.445  1.00  0.00     0.041 C 
ATOM      8  O   UNL     1      -5.799   8.164  -9.329  1.00  0.00    -0.550 OA
ATOM      9  O   UNL     1      -6.388   9.173  -7.359  1.00  0.00    -0.550 OA
ENDBRANCH   6   7
ENDBRANCH   5   6
ENDBRANCH   4   5
ENDBRANCH   3   4
ENDBRANCH   2   3
ENDBRANCH   1   2
BRANCH   1  10
ATOM     10  C   UNL     1      -3.743   5.194  -3.740  1.00  0.00     0.000 C 
BRANCH  10  11
ATOM     11  C   UNL     1      -3.299   4.346  -2.537  1.00  0.00    -0.000 C 
BRANCH  11  12
ATOM     12  C   UNL     1      -3.224   5.105  -1.197  1.00  0.00    -0.000 C 
BRANCH  12  13
ATOM     13  C   UNL     1      -2.971   4.194   0.023  1.00  0.00    -0.000 C 
BRANCH  13  14
ATOM     14  C   UNL     1      -2.578   2.764  -0.387  1.00  0.00    -0.000 C 
BRANCH  14  15
ATOM     15  C   UNL     1      -3.614   1.716   0.049  1.00  0.00    -0.003 C 
ATOM     16  C   UNL     1      -4.547   2.228   1.146  1.00  0.00     0.004 C 
ENDBRANCH  14  15
ENDBRANCH  13  14
ENDBRANCH  12  13
ENDBRANCH  11  12
ENDBRANCH  10  11
ENDBRANCH   1  10
TORSDOF 12
ENDMDL
MODEL 6
REMARK VINA RESULT:    -3.459      5.732      8.928
REMARK INTER + INTRA:          -5.844
REMARK INTER:                  -5.489
REMARK INTRA:                  -0.356
REMARK UNBOUND:                 0.040
REMARK SMILES CCCCCCCCCCCCCC(=O)[O-]
REMARK SMILES IDX 8 1 9 2 10 3 11 4 12 5 13 6 14 7 15 8 16 9 7 10 6 11 5 12
REMARK SMILES IDX 4 13 3 14 2 15 1 16
REMARK H PARENT
REMARK Flexibility Score: inf
ROOT
ATOM      1  C   UNL     1      -2.732   4.141  -1.398  1.00  0.00     0.000 C 
ENDROOT
BRANCH   1   2
ATOM      2  C   UNL     1      -3.742   5.207  -1.842  1.00  0.00     0.000 C 
BRANCH   2   3
ATOM      3  C   UNL     1      -4.058   5.146  -3.347  1.00  0.00     0.000 C 
BRANCH   3   4
ATOM      4  C   UNL     1      -5.360   5.854  -3.773  1.00  0.00     0.000 C 
BRANCH   4   5
ATOM      5  C   UNL     1      -5.616   5.902  -5.293  1.00  0.00     0.006 C 
BRANCH   5   6
ATOM      6  C   UNL     1      -7.063   6.245  -5.682  1.00  0.00     0.053 C 
BRANCH   6   7
ATOM      7  C   UNL     1      -7.274   6.183  -7.164  1.00  0.00     0.041 C 
ATOM      8  O   UNL     1      -8.322   6.658  -7.675  1.00  0.00    -0.550 OA
ATOM      9  O   UNL     1      -6.299   5.630  -7.984  1.00  0.00    -0.550 OA
ENDBRANCH   6   7
ENDBRANCH   5   6
ENDBRANCH   4   5
ENDBRANCH   3   4
ENDBRANCH   2   3
ENDBRANCH   1   2
BRANCH   1  10
ATOM     10  C   UNL     1      -2.918   3.799   0.088  1.00  0.00     0.000 C 
BRANCH  10  11
ATOM     11  C   UNL     1      -3.726   2.509   0.307  1.00  0.00    -0.000 C 
BRANCH  11  12
ATOM     12  C   UNL     1      -3.115   1.243  -0.328  1.00  0.00    -0.000 C 
BRANCH  12  13
ATOM     13  C   UNL     1      -4.158   0.177  -0.724  1.00  0.00    -0.000 C 
BRANCH  13  14
ATOM     14  C   UNL     1      -3.504  -1.137  -1.188  1.00  0.00    -0.000 C 
BRANCH  14  15
ATOM     15  C   UNL     1      -4.228  -1.767  -2.388  1.00  0.00    -0.003 C 
ATOM     16  C   UNL     1      -3.934  -3.259  -2.538  1.00  0.00     0.004 C 
ENDBRANCH  14  15
ENDBRANCH  13  14
ENDBRANCH  12  13
ENDBRANCH  11  12
ENDBRANCH  10  11
ENDBRANCH   1  10
TORSDOF 12
ENDMDL
MODEL 7
REMARK VINA RESULT:    -3.242      2.119      3.715
REMARK INTER + INTRA:          -5.476
REMARK INTER:                  -4.632
REMARK INTRA:                  -0.844
REMARK UNBOUND:                 0.040
REMARK SMILES CCCCCCCCCCCCCC(=O)[O-]
REMARK SMILES IDX 8 1 9 2 10 3 11 4 12 5 13 6 14 7 15 8 16 9 7 10 6 11 5 12
REMARK SMILES IDX 4 13 3 14 2 15 1 16
REMARK H PARENT
REMARK Flexibility Score: inf
ROOT
ATOM      1  C   UNL     1      -4.183   3.048   0.737  1.00  0.00     0.000 C 
ENDROOT
BRANCH   1   2
ATOM      2  C   UNL     1      -4.134   1.529   0.521  1.00  0.00     0.000 C 
BRANCH   2   3
ATOM      3  C   UNL     1      -3.159   1.112  -0.594  1.00  0.00     0.000 C 
BRANCH   3   4
ATOM      4  C   UNL     1      -2.926  -0.407  -0.726  1.00  0.00     0.000 C 
BRANCH   4   5
ATOM      5  C   UNL     1      -4.069  -1.192  -1.400  1.00  0.00     0.006 C 
BRANCH   5   6
ATOM      6  C   UNL     1      -3.666  -1.905  -2.701  1.00  0.00     0.053 C 
BRANCH   6   7
ATOM      7  C   UNL     1      -3.792  -3.394  -2.585  1.00  0.00     0.041 C 
ATOM      8  O   UNL     1      -3.857  -4.106  -3.621  1.00  0.00    -0.550 OA
ATOM      9  O   UNL     1      -3.804  -3.996  -1.334  1.00  0.00    -0.550 OA
ENDBRANCH   6   7
ENDBRANCH   5   6
ENDBRANCH   4   5
ENDBRANCH   3   4
ENDBRANCH   2   3
ENDBRANCH   1   2
BRANCH   1  10
ATOM     10  C   UNL     1      -2.847   3.698   0.347  1.00  0.00     0.000 C 
BRANCH  10  11
ATOM     11  C   UNL     1      -2.973   5.207   0.081  1.00  0.00    -0.000 C 
BRANCH  11  12
ATOM     12  C   UNL     1      -2.940   5.610  -1.407  1.00  0.00    -0.000 C 
BRANCH  12  13
ATOM     13  C   UNL     1      -2.880   4.412  -2.378  1.00  0.00    -0.000 C 
BRANCH  13  14
ATOM     14  C   UNL     1      -3.736   4.636  -3.638  1.00  0.00    -0.000 C 
BRANCH  14  15
ATOM     15  C   UNL     1      -4.875   5.641  -3.408  1.00  0.00    -0.003 C 
ATOM     16  C   UNL     1      -5.604   6.014  -4.699  1.00  0.00     0.004 C 
ENDBRANCH  14  15
ENDBRANCH  13  14
ENDBRANCH  12  13
ENDBRANCH  11  12
ENDBRANCH  10  11
ENDBRANCH   1  10
TORSDOF 12
ENDMDL
MODEL 8
REMARK VINA RESULT:    -3.226      3.653      5.259
REMARK INTER + INTRA:          -5.449
REMARK INTER:                  -5.072
REMARK INTRA:                  -0.377
REMARK UNBOUND:                 0.040
REMARK SMILES CCCCCCCCCCCCCC(=O)[O-]
REMARK SMILES IDX 8 1 9 2 10 3 11 4 12 5 13 6 14 7 15 8 16 9 7 10 6 11 5 12
REMARK SMILES IDX 4 13 3 14 2 15 1 16
REMARK H PARENT
REMARK Flexibility Score: inf
ROOT
ATOM      1  C   UNL     1      -2.630   3.616  -1.346  1.00  0.00     0.000 C 
ENDROOT
BRANCH   1   2
ATOM      2  C   UNL     1      -3.124   3.206   0.048  1.00  0.00     0.000 C 
BRANCH   2   3
ATOM      3  C   UNL     1      -3.889   1.871   0.045  1.00  0.00     0.000 C 
BRANCH   3   4
ATOM      4  C   UNL     1      -3.109   0.671  -0.532  1.00  0.00     0.000 C 
BRANCH   4   5
ATOM      5  C   UNL     1      -3.940  -0.610  -0.748  1.00  0.00     0.006 C 
BRANCH   5   6
ATOM      6  C   UNL     1      -3.752  -1.262  -2.127  1.00  0.00     0.053 C 
BRANCH   6   7
ATOM      7  C   UNL     1      -3.801  -2.758  -2.050  1.00  0.00     0.041 C 
ATOM      8  O   UNL     1      -3.821  -3.445  -3.105  1.00  0.00    -0.550 OA
ATOM      9  O   UNL     1      -3.792  -3.392  -0.815  1.00  0.00    -0.550 OA
ENDBRANCH   6   7
ENDBRANCH   5   6
ENDBRANCH   4   5
ENDBRANCH   3   4
ENDBRANCH   2   3
ENDBRANCH   1   2
BRANCH   1  10
ATOM     10  C   UNL     1      -3.231   4.967  -1.762  1.00  0.00     0.000 C 
BRANCH  10  11
ATOM     11  C   UNL     1      -3.770   4.962  -3.202  1.00  0.00    -0.000 C 
BRANCH  11  12
ATOM     12  C   UNL     1      -5.125   5.674  -3.392  1.00  0.00    -0.000 C 
BRANCH  12  13
ATOM     13  C   UNL     1      -5.409   6.096  -4.849  1.00  0.00    -0.000 C 
BRANCH  13  14
ATOM     14  C   UNL     1      -6.890   5.921  -5.230  1.00  0.00    -0.000 C 
BRANCH  14  15
ATOM     15  C   UNL     1      -7.136   6.080  -6.738  1.00  0.00    -0.003 C 
ATOM     16  C   UNL     1      -7.077   7.537  -7.197  1.00  0.00     0.004 C 
ENDBRANCH  14  15
ENDBRANCH  13  14
ENDBRANCH  12  13
ENDBRANCH  11  12
ENDBRANCH  10  11
ENDBRANCH   1  10
TORSDOF 12
ENDMDL
MODEL 9
REMARK VINA RESULT:    -2.924      5.589      7.925
REMARK INTER + INTRA:          -4.934
REMARK INTER:                  -4.344
REMARK INTRA:                  -0.590
REMARK UNBOUND:                 0.040
REMARK SMILES CCCCCCCCCCCCCC(=O)[O-]
REMARK SMILES IDX 8 1 9 2 10 3 11 4 12 5 13 6 14 7 15 8 16 9 7 10 6 11 5 12
REMARK SMILES IDX 4 13 3 14 2 15 1 16
REMARK H PARENT
REMARK Flexibility Score: inf
ROOT
ATOM      1  C   UNL     1      -4.941   5.634  -3.408  1.00  0.00     0.000 C 
ENDROOT
BRANCH   1   2
ATOM      2  C   UNL     1      -3.780   4.632  -3.366  1.00  0.00     0.000 C 
BRANCH   2   3
ATOM      3  C   UNL     1      -2.746   4.957  -2.272  1.00  0.00     0.000 C 
BRANCH   3   4
ATOM      4  C   UNL     1      -3.340   5.292  -0.889  1.00  0.00     0.000 C 
BRANCH   4   5
ATOM      5  C   UNL     1      -3.082   4.240   0.209  1.00  0.00     0.006 C 
BRANCH   5   6
ATOM      6  C   UNL     1      -2.656   2.862  -0.322  1.00  0.00     0.053 C 
BRANCH   6   7
ATOM      7  C   UNL     1      -3.622   1.787   0.074  1.00  0.00     0.041 C 
ATOM      8  O   UNL     1      -3.624   0.684  -0.532  1.00  0.00    -0.550 OA
ATOM      9  O   UNL     1      -4.496   1.992   1.133  1.00  0.00    -0.550 OA
ENDBRANCH   6   7
ENDBRANCH   5   6
ENDBRANCH   4   5
ENDBRANCH   3   4
ENDBRANCH   2   3
ENDBRANCH   1   2
BRANCH   1  10
ATOM     10  C   UNL     1      -5.252   6.049  -4.854  1.00  0.00     0.000 C 
BRANCH  10  11
ATOM     11  C   UNL     1      -6.755   6.014  -5.175  1.00  0.00    -0.000 C 
BRANCH  11  12
ATOM     12  C   UNL     1      -7.100   6.009  -6.678  1.00  0.00    -0.000 C 
BRANCH  12  13
ATOM     13  C   UNL     1      -7.485   7.396  -7.235  1.00  0.00    -0.000 C 
BRANCH  13  14
ATOM     14  C   UNL     1      -6.791   7.701  -8.574  1.00  0.00    -0.000 C 
BRANCH  14  15
ATOM     15  C   UNL     1      -6.471   9.193  -8.749  1.00  0.00    -0.003 C 
ATOM     16  C   UNL     1      -6.288   9.919  -7.416  1.00  0.00     0.004 C 
ENDBRANCH  14  15
ENDBRANCH  13  14
ENDBRANCH  12  13
ENDBRANCH  11  12
ENDBRANCH  10  11
ENDBRANCH   1  10
TORSDOF 12
ENDMDL
