MODEL 1
REMARK VINA RESULT:    56.914      0.000      0.000
REMARK INTER + INTRA:          95.445
REMARK INTER:                  93.514
REMARK INTRA:                   1.931
REMARK UNBOUND:                 1.931
REMARK SMILES C[C@H]1O[C@H](OC[C@@H]2O[C@@H](Oc3c(-c4ccc(O)c(O)c4)oc4cc(O)cc(O)c4c3=O)[C@@H](O)[C@@H](O)[C@@H]2O)[C@@H](O)[C@@H](O)[C@@H]1O
REMARK SMILES IDX 7 1 36 2 34 3 32 4 9 5 8 6 6 7 5 8 4 9 1 10 2 11 42 12 3 13
REMARK SMILES IDX 40 14 38 15 43 16 41 18 39 20 37 22 35 24 10 26 11 27 12 28
REMARK SMILES IDX 30 29 21 30 29 31 31 32 22 33 27 34 23 35 26 36 24 37 13 38
REMARK SMILES IDX 20 39 14 40 18 41 15 42 16 43 19 44 17 46 28 48 25 50 33 52
REMARK H PARENT 43 17 41 19 39 21 37 23 35 25 19 45 17 47 28 49 25 51 33 53
REMARK Flexibility Score: inf
ROOT
ATOM      1  C   UNL     1      21.068  31.626   0.893  1.00  0.00     0.180 C 
ATOM      2  C   UNL     1      21.369  33.162   1.021  1.00  0.00     0.177 C 
ATOM      3  C   UNL     1      22.870  33.430   1.283  1.00  0.00     0.180 C 
ATOM      4  C   UNL     1      23.649  32.124   1.554  1.00  0.00     0.214 C 
ATOM      5  C   UNL     1      22.775  31.312   2.552  1.00  0.00     0.339 C 
ATOM      6  O   UNL     1      21.563  30.825   1.964  1.00  0.00    -0.332 OA
ENDROOT
BRANCH   1   7
ATOM      7  C   UNL     1      19.566  31.387   0.666  1.00  0.00     0.198 C 
BRANCH   7   8
ATOM      8  O   UNL     1      19.021  30.830   1.836  1.00  0.00    -0.347 OA
BRANCH   8   9
ATOM      9  C   UNL     1      18.288  31.739   2.649  1.00  0.00     0.281 C 
ATOM     10  C   UNL     1      17.086  33.897  -0.112  1.00  0.00     0.041 C 
ATOM     11  C   UNL     1      17.210  32.626   0.756  1.00  0.00     0.150 C 
ATOM     12  C   UNL     1      15.819  32.111   1.184  1.00  0.00     0.174 C 
ATOM     13  O   UNL     1      18.020  32.917   1.901  1.00  0.00    -0.344 OA
ATOM     14  C   UNL     1      15.983  30.866   2.053  1.00  0.00     0.179 C 
ATOM     15  C   UNL     1      16.972  31.141   3.197  1.00  0.00     0.202 C 
BRANCH  12  16
ATOM     16  O   UNL     1      15.061  31.779   0.038  1.00  0.00    -0.388 OA
ATOM     17  H   UNL     1      14.130  32.063   0.201  1.00  0.00     0.211 HD
ENDBRANCH  12  16
BRANCH  14  18
ATOM     18  O   UNL     1      14.743  30.492   2.612  1.00  0.00    -0.387 OA
ATOM     19  H   UNL     1      14.317  29.830   2.008  1.00  0.00     0.211 HD
ENDBRANCH  14  18
BRANCH  15  20
ATOM     20  O   UNL     1      16.383  32.053   4.093  1.00  0.00    -0.385 OA
ATOM     21  H   UNL     1      17.131  32.554   4.523  1.00  0.00     0.211 HD
ENDBRANCH  15  20
ENDBRANCH   8   9
ENDBRANCH   7   8
ENDBRANCH   1   7
BRANCH   2  22
ATOM     22  O   UNL     1      20.587  33.779   2.031  1.00  0.00    -0.387 OA
ATOM     23  H   UNL     1      20.929  34.701   2.154  1.00  0.00     0.211 HD
ENDBRANCH   2  22
BRANCH   3  24
ATOM     24  O   UNL     1      23.438  34.118   0.190  1.00  0.00    -0.387 OA
ATOM     25  H   UNL     1      22.731  34.696  -0.200  1.00  0.00     0.211 HD
ENDBRANCH   3  24
BRANCH   5  26
ATOM     26  O   UNL     1      23.508  30.223   3.125  1.00  0.00    -0.454 OA
BRANCH  26  27
ATOM     27  C   UNL     1      24.922  30.093   3.177  1.00  0.00     0.214 A 
ATOM     28  C   UNL     1      25.575  30.186   4.423  1.00  0.00     0.180 A 
ATOM     29  C   UNL     1      25.745  29.829   2.044  1.00  0.00     0.239 A 
ATOM     30  O   UNL     1      26.866  29.883   4.533  1.00  0.00    -0.452 OA
ATOM     31  C   UNL     1      27.091  29.449   2.226  1.00  0.00     0.111 A 
ATOM     32  O   UNL     1      25.293  29.944   0.874  1.00  0.00    -0.285 OA
ATOM     33  C   UNL     1      27.620  29.499   3.525  1.00  0.00     0.146 A 
ATOM     34  C   UNL     1      27.917  28.970   1.181  1.00  0.00     0.134 A 
ATOM     35  C   UNL     1      28.945  29.119   3.783  1.00  0.00     0.094 A 
ATOM     36  C   UNL     1      29.234  28.579   1.451  1.00  0.00     0.093 A 
ATOM     37  C   UNL     1      29.748  28.632   2.748  1.00  0.00     0.123 A 
BRANCH  28  38
ATOM     38  C   UNL     1      24.874  30.621   5.642  1.00  0.00     0.025 A 
ATOM     39  C   UNL     1      25.253  30.084   6.888  1.00  0.00     0.062 A 
ATOM     40  C   UNL     1      23.978  31.710   5.608  1.00  0.00     0.016 A 
ATOM     41  C   UNL     1      24.759  30.626   8.086  1.00  0.00     0.158 A 
ATOM     42  C   UNL     1      23.473  32.253   6.800  1.00  0.00     0.051 A 
ATOM     43  C   UNL     1      23.854  31.713   8.047  1.00  0.00     0.157 A 
BRANCH  41  44
ATOM     44  O   UNL     1      25.203  30.066   9.294  1.00  0.00    -0.504 OA
ATOM     45  H   UNL     1      25.912  29.351   9.351  1.00  0.00     0.293 HD
ENDBRANCH  41  44
BRANCH  43  46
ATOM     46  O   UNL     1      23.276  32.232   9.202  1.00  0.00    -0.504 OA
ATOM     47  H   UNL     1      23.270  33.217   9.396  1.00  0.00     0.293 HD
ENDBRANCH  43  46
ENDBRANCH  28  38
BRANCH  34  48
ATOM     48  O   UNL     1      27.433  28.854  -0.124  1.00  0.00    -0.507 OA
ATOM     49  H   UNL     1      26.991  29.625  -0.605  1.00  0.00     0.293 HD
ENDBRANCH  34  48
BRANCH  37  50
ATOM     50  O   UNL     1      31.058  28.228   2.992  1.00  0.00    -0.508 OA
ATOM     51  H   UNL     1      31.655  27.906   2.251  1.00  0.00     0.293 HD
ENDBRANCH  37  50
ENDBRANCH  26  27
ENDBRANCH   5  26
BRANCH   4  52
ATOM     52  O   UNL     1      23.876  31.416   0.364  1.00  0.00    -0.384 OA
ATOM     53  H   UNL     1      24.277  30.536   0.622  1.00  0.00     0.211 HD
ENDBRANCH   4  52
TORSDOF 16
ENDMDL
MODEL 2
REMARK VINA RESULT:    56.966      1.643      4.930
REMARK INTER + INTRA:          95.529
REMARK INTER:                  95.626
REMARK INTRA:                  -0.097
REMARK UNBOUND:                 1.931
REMARK SMILES C[C@H]1O[C@H](OC[C@@H]2O[C@@H](Oc3c(-c4ccc(O)c(O)c4)oc4cc(O)cc(O)c4c3=O)[C@@H](O)[C@@H](O)[C@@H]2O)[C@@H](O)[C@@H](O)[C@@H]1O
REMARK SMILES IDX 7 1 36 2 34 3 32 4 9 5 8 6 6 7 5 8 4 9 1 10 2 11 42 12 3 13
REMARK SMILES IDX 40 14 38 15 43 16 41 18 39 20 37 22 35 24 10 26 11 27 12 28
REMARK SMILES IDX 30 29 21 30 29 31 31 32 22 33 27 34 23 35 26 36 24 37 13 38
REMARK SMILES IDX 20 39 14 40 18 41 15 42 16 43 19 44 17 46 28 48 25 50 33 52
REMARK H PARENT 43 17 41 19 39 21 37 23 35 25 19 45 17 47 28 49 25 51 33 53
REMARK Flexibility Score: inf
ROOT
ATOM      1  C   UNL     1      20.457  31.317   1.702  1.00  0.00     0.180 C 
ATOM      2  C   UNL     1      20.253  32.863   1.526  1.00  0.00     0.177 C 
ATOM      3  C   UNL     1      21.580  33.579   1.175  1.00  0.00     0.180 C 
ATOM      4  C   UNL     1      22.793  32.630   1.289  1.00  0.00     0.214 C 
ATOM      5  C   UNL     1      22.604  31.864   2.629  1.00  0.00     0.339 C 
ATOM      6  O   UNL     1      21.504  30.947   2.598  1.00  0.00    -0.332 OA
ENDROOT
BRANCH   1   7
ATOM      7  C   UNL     1      19.132  30.636   2.082  1.00  0.00     0.198 C 
BRANCH   7   8
ATOM      8  O   UNL     1      18.077  31.350   1.486  1.00  0.00    -0.347 OA
BRANCH   8   9
ATOM      9  C   UNL     1      17.264  32.086   2.393  1.00  0.00     0.281 C 
ATOM     10  C   UNL     1      14.349  32.459   0.137  1.00  0.00     0.041 C 
ATOM     11  C   UNL     1      15.371  31.737   1.043  1.00  0.00     0.150 C 
ATOM     12  C   UNL     1      14.655  30.867   2.098  1.00  0.00     0.174 C 
ATOM     13  O   UNL     1      16.212  32.710   1.670  1.00  0.00    -0.344 OA
ATOM     14  C   UNL     1      15.695  30.184   2.983  1.00  0.00     0.179 C 
ATOM     15  C   UNL     1      16.687  31.219   3.536  1.00  0.00     0.202 C 
BRANCH  12  16
ATOM     16  O   UNL     1      13.875  29.880   1.453  1.00  0.00    -0.388 OA
ATOM     17  H   UNL     1      13.945  29.050   1.982  1.00  0.00     0.211 HD
ENDBRANCH  12  16
BRANCH  14  18
ATOM     18  O   UNL     1      15.067  29.541   4.071  1.00  0.00    -0.387 OA
ATOM     19  H   UNL     1      15.584  28.722   4.288  1.00  0.00     0.211 HD
ENDBRANCH  14  18
BRANCH  15  20
ATOM     20  O   UNL     1      16.014  32.046   4.454  1.00  0.00    -0.385 OA
ATOM     21  H   UNL     1      15.506  31.441   5.063  1.00  0.00     0.211 HD
ENDBRANCH  15  20
ENDBRANCH   8   9
ENDBRANCH   7   8
ENDBRANCH   1   7
BRANCH   2  22
ATOM     22  O   UNL     1      19.673  33.462   2.673  1.00  0.00    -0.387 OA
ATOM     23  H   UNL     1      19.868  32.875   3.448  1.00  0.00     0.211 HD
ENDBRANCH   2  22
BRANCH   3  24
ATOM     24  O   UNL     1      21.507  34.124  -0.125  1.00  0.00    -0.387 OA
ATOM     25  H   UNL     1      22.163  33.639  -0.690  1.00  0.00     0.211 HD
ENDBRANCH   3  24
BRANCH   5  26
ATOM     26  O   UNL     1      23.799  31.175   3.013  1.00  0.00    -0.454 OA
BRANCH  26  27
ATOM     27  C   UNL     1      24.146  30.755   4.325  1.00  0.00     0.214 A 
ATOM     28  C   UNL     1      25.105  29.735   4.489  1.00  0.00     0.180 A 
ATOM     29  C   UNL     1      23.616  31.330   5.517  1.00  0.00     0.239 A 
ATOM     30  O   UNL     1      25.589  29.451   5.696  1.00  0.00    -0.452 OA
ATOM     31  C   UNL     1      24.212  31.041   6.762  1.00  0.00     0.111 A 
ATOM     32  O   UNL     1      22.608  32.084   5.480  1.00  0.00    -0.285 OA
ATOM     33  C   UNL     1      25.219  30.064   6.800  1.00  0.00     0.146 A 
ATOM     34  C   UNL     1      23.889  31.721   7.961  1.00  0.00     0.134 A 
ATOM     35  C   UNL     1      25.868  29.738   8.000  1.00  0.00     0.094 A 
ATOM     36  C   UNL     1      24.553  31.398   9.151  1.00  0.00     0.093 A 
ATOM     37  C   UNL     1      25.553  30.425   9.175  1.00  0.00     0.123 A 
BRANCH  28  38
ATOM     38  C   UNL     1      25.605  28.943   3.353  1.00  0.00     0.025 A 
ATOM     39  C   UNL     1      26.130  29.606   2.226  1.00  0.00     0.062 A 
ATOM     40  C   UNL     1      25.758  27.546   3.462  1.00  0.00     0.016 A 
ATOM     41  C   UNL     1      26.807  28.893   1.223  1.00  0.00     0.158 A 
ATOM     42  C   UNL     1      26.425  26.824   2.459  1.00  0.00     0.051 A 
ATOM     43  C   UNL     1      26.950  27.488   1.331  1.00  0.00     0.157 A 
BRANCH  41  44
ATOM     44  O   UNL     1      27.335  29.617   0.143  1.00  0.00    -0.504 OA
ATOM     45  H   UNL     1      26.768  30.126  -0.519  1.00  0.00     0.293 HD
ENDBRANCH  41  44
BRANCH  43  46
ATOM     46  O   UNL     1      27.542  26.729   0.325  1.00  0.00    -0.504 OA
ATOM     47  H   UNL     1      27.321  25.759   0.194  1.00  0.00     0.293 HD
ENDBRANCH  43  46
ENDBRANCH  28  38
BRANCH  34  48
ATOM     48  O   UNL     1      22.929  32.734   7.977  1.00  0.00    -0.507 OA
ATOM     49  H   UNL     1      22.707  33.281   7.156  1.00  0.00     0.293 HD
ENDBRANCH  34  48
BRANCH  37  50
ATOM     50  O   UNL     1      26.206  30.131  10.369  1.00  0.00    -0.508 OA
ATOM     51  H   UNL     1      27.142  29.766  10.381  1.00  0.00     0.293 HD
ENDBRANCH  37  50
ENDBRANCH  26  27
ENDBRANCH   5  26
BRANCH   4  52
ATOM     52  O   UNL     1      22.853  31.755   0.193  1.00  0.00    -0.384 OA
ATOM     53  H   UNL     1      23.452  30.998   0.459  1.00  0.00     0.211 HD
ENDBRANCH   4  52
TORSDOF 16
ENDMDL
