MODEL 1
REMARK VINA RESULT:    -3.110      0.000      0.000
REMARK INTER + INTRA:          -6.149
REMARK INTER:                  -4.929
REMARK INTRA:                  -1.220
REMARK UNBOUND:                -1.220
REMARK SMILES CCCCCCCCCCCC(=O)[O-]
REMARK SMILES IDX 7 1 8 2 9 3 10 4 11 5 12 6 13 7 14 8 6 9 5 10 4 11 3 12 2 13
REMARK SMILES IDX 1 14
REMARK H PARENT
REMARK Flexibility Score: inf
ROOT
ATOM      1  C   UNL     1      -1.667   8.561  39.855  1.00  0.00     0.000 C 
ENDROOT
BRANCH   1   2
ATOM      2  C   UNL     1      -2.547   9.125  38.726  1.00  0.00     0.000 C 
BRANCH   2   3
ATOM      3  C   UNL     1      -1.847   9.082  37.357  1.00  0.00     0.000 C 
BRANCH   3   4
ATOM      4  C   UNL     1      -1.513   7.648  36.908  1.00  0.00     0.006 C 
BRANCH   4   5
ATOM      5  C   UNL     1      -0.217   7.587  36.088  1.00  0.00     0.053 C 
BRANCH   5   6
ATOM      6  C   UNL     1       0.905   6.967  36.863  1.00  0.00     0.041 C 
ATOM      7  O   UNL     1       1.549   5.998  36.380  1.00  0.00    -0.550 OA
ATOM      8  O   UNL     1       1.221   7.437  38.131  1.00  0.00    -0.550 OA
ENDBRANCH   5   6
ENDBRANCH   4   5
ENDBRANCH   3   4
ENDBRANCH   2   3
ENDBRANCH   1   2
BRANCH   1   9
ATOM      9  C   UNL     1      -2.488   7.948  41.005  1.00  0.00     0.000 C 
BRANCH   9  10
ATOM     10  C   UNL     1      -3.776   7.223  40.575  1.00  0.00    -0.000 C 
BRANCH  10  11
ATOM     11  C   UNL     1      -3.529   5.777  40.119  1.00  0.00    -0.000 C 
BRANCH  11  12
ATOM     12  C   UNL     1      -2.649   5.026  41.129  1.00  0.00    -0.000 C 
BRANCH  12  13
ATOM     13  C   UNL     1      -1.303   4.590  40.529  1.00  0.00    -0.003 C 
ATOM     14  C   UNL     1      -1.259   4.732  39.008  1.00  0.00     0.004 C 
ENDBRANCH  12  13
ENDBRANCH  11  12
ENDBRANCH  10  11
ENDBRANCH   9  10
ENDBRANCH   1   9
TORSDOF 10
ENDMDL
MODEL 2
REMARK VINA RESULT:    -3.059      1.883      3.571
REMARK INTER + INTRA:          -6.068
REMARK INTER:                  -4.515
REMARK INTRA:                  -1.553
REMARK UNBOUND:                -1.220
REMARK SMILES CCCCCCCCCCCC(=O)[O-]
REMARK SMILES IDX 7 1 8 2 9 3 10 4 11 5 12 6 13 7 14 8 6 9 5 10 4 11 3 12 2 13
REMARK SMILES IDX 1 14
REMARK H PARENT
REMARK Flexibility Score: inf
ROOT
ATOM      1  C   UNL     1       1.166   7.461  39.230  1.00  0.00     0.000 C 
ENDROOT
BRANCH   1   2
ATOM      2  C   UNL     1       1.214   5.996  39.696  1.00  0.00     0.000 C 
BRANCH   2   3
ATOM      3  C   UNL     1      -0.184   5.361  39.782  1.00  0.00     0.000 C 
BRANCH   3   4
ATOM      4  C   UNL     1      -0.615   4.696  38.462  1.00  0.00     0.006 C 
BRANCH   4   5
ATOM      5  C   UNL     1      -1.893   5.322  37.890  1.00  0.00     0.053 C 
BRANCH   5   6
ATOM      6  C   UNL     1      -1.644   6.000  36.577  1.00  0.00     0.041 C 
ATOM      7  O   UNL     1      -2.394   5.768  35.593  1.00  0.00    -0.550 OA
ATOM      8  O   UNL     1      -0.567   6.864  36.432  1.00  0.00    -0.550 OA
ENDBRANCH   5   6
ENDBRANCH   4   5
ENDBRANCH   3   4
ENDBRANCH   2   3
ENDBRANCH   1   2
BRANCH   1   9
ATOM      9  C   UNL     1       0.108   8.293  39.977  1.00  0.00     0.000 C 
BRANCH   9  10
ATOM     10  C   UNL     1      -0.828   9.122  39.079  1.00  0.00    -0.000 C 
BRANCH  10  11
ATOM     11  C   UNL     1      -2.311   8.762  39.261  1.00  0.00    -0.000 C 
BRANCH  11  12
ATOM     12  C   UNL     1      -2.534   8.012  40.583  1.00  0.00    -0.000 C 
BRANCH  12  13
ATOM     13  C   UNL     1      -3.889   7.289  40.629  1.00  0.00    -0.003 C 
ATOM     14  C   UNL     1      -3.762   5.817  41.018  1.00  0.00     0.004 C 
ENDBRANCH  12  13
ENDBRANCH  11  12
ENDBRANCH  10  11
ENDBRANCH   9  10
ENDBRANCH   1   9
TORSDOF 10
ENDMDL
MODEL 3
REMARK VINA RESULT:    -3.057      1.803      2.411
REMARK INTER + INTRA:          -6.064
REMARK INTER:                  -4.817
REMARK INTRA:                  -1.247
REMARK UNBOUND:                -1.220
REMARK SMILES CCCCCCCCCCCC(=O)[O-]
REMARK SMILES IDX 7 1 8 2 9 3 10 4 11 5 12 6 13 7 14 8 6 9 5 10 4 11 3 12 2 13
REMARK SMILES IDX 1 14
REMARK H PARENT
REMARK Flexibility Score: inf
ROOT
ATOM      1  C   UNL     1      -2.407   8.996  38.733  1.00  0.00     0.000 C 
ENDROOT
BRANCH   1   2
ATOM      2  C   UNL     1      -1.854   8.474  37.396  1.00  0.00     0.000 C 
BRANCH   2   3
ATOM      3  C   UNL     1      -1.103   7.140  37.551  1.00  0.00     0.000 C 
BRANCH   3   4
ATOM      4  C   UNL     1      -1.978   5.924  37.194  1.00  0.00     0.006 C 
BRANCH   4   5
ATOM      5  C   UNL     1      -2.312   5.873  35.697  1.00  0.00     0.053 C 
BRANCH   5   6
ATOM      6  C   UNL     1      -1.204   5.260  34.898  1.00  0.00     0.041 C 
ATOM      7  O   UNL     1      -0.645   5.918  33.981  1.00  0.00    -0.550 OA
ATOM      8  O   UNL     1      -0.808   3.952  35.143  1.00  0.00    -0.550 OA
ENDBRANCH   5   6
ENDBRANCH   4   5
ENDBRANCH   3   4
ENDBRANCH   2   3
ENDBRANCH   1   2
BRANCH   1   9
ATOM      9  C   UNL     1      -1.693   8.388  39.955  1.00  0.00     0.000 C 
BRANCH   9  10
ATOM     10  C   UNL     1      -2.619   7.952  41.105  1.00  0.00    -0.000 C 
BRANCH  10  11
ATOM     11  C   UNL     1      -3.905   7.269  40.615  1.00  0.00    -0.000 C 
BRANCH  11  12
ATOM     12  C   UNL     1      -3.658   5.781  40.323  1.00  0.00    -0.000 C 
BRANCH  12  13
ATOM     13  C   UNL     1      -2.695   5.134  41.329  1.00  0.00    -0.003 C 
ATOM     14  C   UNL     1      -1.434   4.577  40.669  1.00  0.00     0.004 C 
ENDBRANCH  12  13
ENDBRANCH  11  12
ENDBRANCH  10  11
ENDBRANCH   9  10
ENDBRANCH   1   9
TORSDOF 10
ENDMDL
MODEL 4
REMARK VINA RESULT:    -3.048      1.999      3.148
REMARK INTER + INTRA:          -6.051
REMARK INTER:                  -4.665
REMARK INTRA:                  -1.386
REMARK UNBOUND:                -1.220
REMARK SMILES CCCCCCCCCCCC(=O)[O-]
REMARK SMILES IDX 7 1 8 2 9 3 10 4 11 5 12 6 13 7 14 8 6 9 5 10 4 11 3 12 2 13
REMARK SMILES IDX 1 14
REMARK H PARENT
REMARK Flexibility Score: inf
ROOT
ATOM      1  C   UNL     1      -0.639   6.902  38.609  1.00  0.00     0.000 C 
ENDROOT
BRANCH   1   2
ATOM      2  C   UNL     1      -0.900   5.467  38.120  1.00  0.00     0.000 C 
BRANCH   2   3
ATOM      3  C   UNL     1      -2.283   5.311  37.467  1.00  0.00     0.000 C 
BRANCH   3   4
ATOM      4  C   UNL     1      -2.198   4.822  36.010  1.00  0.00     0.006 C 
BRANCH   4   5
ATOM      5  C   UNL     1      -0.748   4.733  35.514  1.00  0.00     0.053 C 
BRANCH   5   6
ATOM      6  C   UNL     1      -0.439   5.789  34.498  1.00  0.00     0.041 C 
ATOM      7  O   UNL     1      -0.761   5.620  33.292  1.00  0.00    -0.550 OA
ATOM      8  O   UNL     1       0.230   6.945  34.875  1.00  0.00    -0.550 OA
ENDBRANCH   5   6
ENDBRANCH   4   5
ENDBRANCH   3   4
ENDBRANCH   2   3
ENDBRANCH   1   2
BRANCH   1   9
ATOM      9  C   UNL     1      -1.619   7.927  38.008  1.00  0.00     0.000 C 
BRANCH   9  10
ATOM     10  C   UNL     1      -2.424   8.743  39.036  1.00  0.00    -0.000 C 
BRANCH  10  11
ATOM     11  C   UNL     1      -2.522   8.056  40.406  1.00  0.00    -0.000 C 
BRANCH  11  12
ATOM     12  C   UNL     1      -3.946   7.537  40.659  1.00  0.00    -0.000 C 
BRANCH  12  13
ATOM     13  C   UNL     1      -4.056   6.013  40.497  1.00  0.00    -0.003 C 
ATOM     14  C   UNL     1      -2.999   5.255  41.300  1.00  0.00     0.004 C 
ENDBRANCH  12  13
ENDBRANCH  11  12
ENDBRANCH  10  11
ENDBRANCH   9  10
ENDBRANCH   1   9
TORSDOF 10
ENDMDL
MODEL 5
REMARK VINA RESULT:    -3.026      2.210      3.037
REMARK INTER + INTRA:          -6.016
REMARK INTER:                  -4.758
REMARK INTRA:                  -1.257
REMARK UNBOUND:                -1.220
REMARK SMILES CCCCCCCCCCCC(=O)[O-]
REMARK SMILES IDX 7 1 8 2 9 3 10 4 11 5 12 6 13 7 14 8 6 9 5 10 4 11 3 12 2 13
REMARK SMILES IDX 1 14
REMARK H PARENT
REMARK Flexibility Score: inf
ROOT
ATOM      1  C   UNL     1       0.173   7.454  40.852  1.00  0.00     0.000 C 
ENDROOT
BRANCH   1   2
ATOM      2  C   UNL     1      -0.140   8.861  40.313  1.00  0.00     0.000 C 
BRANCH   2   3
ATOM      3  C   UNL     1      -1.081   8.830  39.098  1.00  0.00     0.000 C 
BRANCH   3   4
ATOM      4  C   UNL     1      -1.283   7.409  38.541  1.00  0.00     0.006 C 
BRANCH   4   5
ATOM      5  C   UNL     1      -1.577   7.415  37.035  1.00  0.00     0.053 C 
BRANCH   5   6
ATOM      6  C   UNL     1      -1.935   6.051  36.531  1.00  0.00     0.041 C 
ATOM      7  O   UNL     1      -2.189   5.874  35.310  1.00  0.00    -0.550 OA
ATOM      8  O   UNL     1      -2.019   4.981  37.412  1.00  0.00    -0.550 OA
ENDBRANCH   5   6
ENDBRANCH   4   5
ENDBRANCH   3   4
ENDBRANCH   2   3
ENDBRANCH   1   2
BRANCH   1   9
ATOM      9  C   UNL     1      -0.156   7.299  42.348  1.00  0.00     0.000 C 
BRANCH   9  10
ATOM     10  C   UNL     1      -1.431   8.023  42.817  1.00  0.00    -0.000 C 
BRANCH  10  11
ATOM     11  C   UNL     1      -2.624   7.075  43.011  1.00  0.00    -0.000 C 
BRANCH  11  12
ATOM     12  C   UNL     1      -3.891   7.645  42.356  1.00  0.00    -0.000 C 
BRANCH  12  13
ATOM     13  C   UNL     1      -4.004   7.275  40.869  1.00  0.00    -0.003 C 
ATOM     14  C   UNL     1      -3.866   5.773  40.621  1.00  0.00     0.004 C 
ENDBRANCH  12  13
ENDBRANCH  11  12
ENDBRANCH  10  11
ENDBRANCH   9  10
ENDBRANCH   1   9
TORSDOF 10
ENDMDL
MODEL 6
REMARK VINA RESULT:    -2.966      2.453      4.218
REMARK INTER + INTRA:          -5.920
REMARK INTER:                  -4.234
REMARK INTRA:                  -1.686
REMARK UNBOUND:                -1.220
REMARK SMILES CCCCCCCCCCCC(=O)[O-]
REMARK SMILES IDX 7 1 8 2 9 3 10 4 11 5 12 6 13 7 14 8 6 9 5 10 4 11 3 12 2 13
REMARK SMILES IDX 1 14
REMARK H PARENT
REMARK Flexibility Score: inf
ROOT
ATOM      1  C   UNL     1      -1.446   9.014  36.838  1.00  0.00     0.000 C 
ENDROOT
BRANCH   1   2
ATOM      2  C   UNL     1      -2.233   9.041  38.160  1.00  0.00     0.000 C 
BRANCH   2   3
ATOM      3  C   UNL     1      -1.313   9.083  39.392  1.00  0.00     0.000 C 
BRANCH   3   4
ATOM      4  C   UNL     1      -1.880   8.287  40.582  1.00  0.00     0.006 C 
BRANCH   4   5
ATOM      5  C   UNL     1      -3.248   7.670  40.265  1.00  0.00     0.053 C 
BRANCH   5   6
ATOM      6  C   UNL     1      -3.248   6.184  40.452  1.00  0.00     0.041 C 
ATOM      7  O   UNL     1      -4.126   5.476  39.892  1.00  0.00    -0.550 OA
ATOM      8  O   UNL     1      -2.300   5.584  41.269  1.00  0.00    -0.550 OA
ENDBRANCH   5   6
ENDBRANCH   4   5
ENDBRANCH   3   4
ENDBRANCH   2   3
ENDBRANCH   1   2
BRANCH   1   9
ATOM      9  C   UNL     1      -1.041   7.591  36.412  1.00  0.00     0.000 C 
BRANCH   9  10
ATOM     10  C   UNL     1      -1.966   6.468  36.916  1.00  0.00    -0.000 C 
BRANCH  10  11
ATOM     11  C   UNL     1      -1.198   5.235  37.415  1.00  0.00    -0.000 C 
BRANCH  11  12
ATOM     12  C   UNL     1       0.263   5.590  37.731  1.00  0.00    -0.000 C 
BRANCH  12  13
ATOM     13  C   UNL     1       0.521   5.738  39.238  1.00  0.00    -0.003 C 
ATOM     14  C   UNL     1       1.635   6.736  39.553  1.00  0.00     0.004 C 
ENDBRANCH  12  13
ENDBRANCH  11  12
ENDBRANCH  10  11
ENDBRANCH   9  10
ENDBRANCH   1   9
TORSDOF 10
ENDMDL
MODEL 7
REMARK VINA RESULT:    -2.939      1.856      2.376
REMARK INTER + INTRA:          -5.878
REMARK INTER:                  -4.619
REMARK INTRA:                  -1.259
REMARK UNBOUND:                -1.220
REMARK SMILES CCCCCCCCCCCC(=O)[O-]
REMARK SMILES IDX 7 1 8 2 9 3 10 4 11 5 12 6 13 7 14 8 6 9 5 10 4 11 3 12 2 13
REMARK SMILES IDX 1 14
REMARK H PARENT
REMARK Flexibility Score: inf
ROOT
ATOM      1  C   UNL     1      -0.211   8.100  41.631  1.00  0.00     0.000 C 
ENDROOT
BRANCH   1   2
ATOM      2  C   UNL     1       0.091   8.718  40.254  1.00  0.00     0.000 C 
BRANCH   2   3
ATOM      3  C   UNL     1       0.911   7.778  39.355  1.00  0.00     0.000 C 
BRANCH   3   4
ATOM      4  C   UNL     1       0.851   8.179  37.869  1.00  0.00     0.006 C 
BRANCH   4   5
ATOM      5  C   UNL     1       0.120   7.134  37.018  1.00  0.00     0.053 C 
BRANCH   5   6
ATOM      6  C   UNL     1      -1.280   7.558  36.692  1.00  0.00     0.041 C 
ATOM      7  O   UNL     1      -2.034   6.797  36.031  1.00  0.00    -0.550 OA
ATOM      8  O   UNL     1      -1.741   8.805  37.092  1.00  0.00    -0.550 OA
ENDBRANCH   5   6
ENDBRANCH   4   5
ENDBRANCH   3   4
ENDBRANCH   2   3
ENDBRANCH   1   2
BRANCH   1   9
ATOM      9  C   UNL     1      -1.720   7.991  41.920  1.00  0.00     0.000 C 
BRANCH   9  10
ATOM     10  C   UNL     1      -2.624   7.959  40.674  1.00  0.00    -0.000 C 
BRANCH  10  11
ATOM     11  C   UNL     1      -3.883   7.100  40.868  1.00  0.00    -0.000 C 
BRANCH  11  12
ATOM     12  C   UNL     1      -3.656   5.670  40.356  1.00  0.00    -0.000 C 
BRANCH  12  13
ATOM     13  C   UNL     1      -2.532   5.588  39.312  1.00  0.00    -0.003 C 
ATOM     14  C   UNL     1      -1.337   4.763  39.791  1.00  0.00     0.004 C 
ENDBRANCH  12  13
ENDBRANCH  11  12
ENDBRANCH  10  11
ENDBRANCH   9  10
ENDBRANCH   1   9
TORSDOF 10
ENDMDL
MODEL 8
REMARK VINA RESULT:    -2.925      1.547      3.299
REMARK INTER + INTRA:          -5.855
REMARK INTER:                  -4.207
REMARK INTRA:                  -1.648
REMARK UNBOUND:                -1.220
REMARK SMILES CCCCCCCCCCCC(=O)[O-]
REMARK SMILES IDX 7 1 8 2 9 3 10 4 11 5 12 6 13 7 14 8 6 9 5 10 4 11 3 12 2 13
REMARK SMILES IDX 1 14
REMARK H PARENT
REMARK Flexibility Score: inf
ROOT
ATOM      1  C   UNL     1       0.328   6.138  41.144  1.00  0.00     0.000 C 
ENDROOT
BRANCH   1   2
ATOM      2  C   UNL     1      -0.616   4.930  41.014  1.00  0.00     0.000 C 
BRANCH   2   3
ATOM      3  C   UNL     1      -0.963   4.609  39.551  1.00  0.00     0.000 C 
BRANCH   3   4
ATOM      4  C   UNL     1      -0.041   5.332  38.552  1.00  0.00     0.006 C 
BRANCH   4   5
ATOM      5  C   UNL     1      -0.834   6.143  37.518  1.00  0.00     0.053 C 
BRANCH   5   6
ATOM      6  C   UNL     1      -0.224   7.491  37.278  1.00  0.00     0.041 C 
ATOM      7  O   UNL     1       0.952   7.730  37.658  1.00  0.00    -0.550 OA
ATOM      8  O   UNL     1      -0.965   8.491  36.664  1.00  0.00    -0.550 OA
ENDBRANCH   5   6
ENDBRANCH   4   5
ENDBRANCH   3   4
ENDBRANCH   2   3
ENDBRANCH   1   2
BRANCH   1   9
ATOM      9  C   UNL     1      -0.151   7.163  42.189  1.00  0.00     0.000 C 
BRANCH   9  10
ATOM     10  C   UNL     1      -1.540   7.772  41.920  1.00  0.00    -0.000 C 
BRANCH  10  11
ATOM     11  C   UNL     1      -1.672   8.367  40.510  1.00  0.00    -0.000 C 
BRANCH  11  12
ATOM     12  C   UNL     1      -2.991   7.933  39.852  1.00  0.00    -0.000 C 
BRANCH  12  13
ATOM     13  C   UNL     1      -3.872   7.098  40.794  1.00  0.00    -0.003 C 
ATOM     14  C   UNL     1      -4.218   5.725  40.218  1.00  0.00     0.004 C 
ENDBRANCH  12  13
ENDBRANCH  11  12
ENDBRANCH  10  11
ENDBRANCH   9  10
ENDBRANCH   1   9
TORSDOF 10
ENDMDL
MODEL 9
REMARK VINA RESULT:    -1.758      1.823      3.219
REMARK INTER + INTRA:          -4.006
REMARK INTER:                  -2.651
REMARK INTRA:                  -1.355
REMARK UNBOUND:                -1.220
REMARK SMILES CCCCCCCCCCCC(=O)[O-]
REMARK SMILES IDX 7 1 8 2 9 3 10 4 11 5 12 6 13 7 14 8 6 9 5 10 4 11 3 12 2 13
REMARK SMILES IDX 1 14
REMARK H PARENT
REMARK Flexibility Score: inf
ROOT
ATOM      1  C   UNL     1      -1.667   8.954  36.776  1.00  0.00     0.000 C 
ENDROOT
BRANCH   1   2
ATOM      2  C   UNL     1      -0.991   7.585  36.582  1.00  0.00     0.000 C 
BRANCH   2   3
ATOM      3  C   UNL     1      -2.006   6.432  36.510  1.00  0.00     0.000 C 
BRANCH   3   4
ATOM      4  C   UNL     1      -1.832   5.418  37.655  1.00  0.00     0.006 C 
BRANCH   4   5
ATOM      5  C   UNL     1      -0.421   5.460  38.254  1.00  0.00     0.053 C 
BRANCH   5   6
ATOM      6  C   UNL     1      -0.032   4.147  38.862  1.00  0.00     0.041 C 
ATOM      7  O   UNL     1       0.737   3.366  38.243  1.00  0.00    -0.550 OA
ATOM      8  O   UNL     1      -0.542   3.772  40.097  1.00  0.00    -0.550 OA
ENDBRANCH   5   6
ENDBRANCH   4   5
ENDBRANCH   3   4
ENDBRANCH   2   3
ENDBRANCH   1   2
BRANCH   1   9
ATOM      9  C   UNL     1      -2.279   9.125  38.179  1.00  0.00     0.000 C 
BRANCH   9  10
ATOM     10  C   UNL     1      -1.316   8.861  39.350  1.00  0.00    -0.000 C 
BRANCH  10  11
ATOM     11  C   UNL     1      -2.000   8.191  40.552  1.00  0.00    -0.000 C 
BRANCH  11  12
ATOM     12  C   UNL     1      -3.428   7.752  40.195  1.00  0.00    -0.000 C 
BRANCH  12  13
ATOM     13  C   UNL     1      -3.893   6.536  41.010  1.00  0.00    -0.003 C 
ATOM     14  C   UNL     1      -4.381   5.385  40.132  1.00  0.00     0.004 C 
ENDBRANCH  12  13
ENDBRANCH  11  12
ENDBRANCH  10  11
ENDBRANCH   9  10
ENDBRANCH   1   9
TORSDOF 10
ENDMDL
