MODEL 1
REMARK VINA RESULT:    -4.726      0.000      0.000
REMARK INTER + INTRA:          -5.020
REMARK INTER:                  -5.140
REMARK INTRA:                   0.120
REMARK UNBOUND:                 0.120
REMARK SMILES CC1(C)CC[C@@]2(C(=O)[O-])CC[C@@]3(C)C(=CC[C@@H]4[C@@]5(C)CC[C@@H](O)C(C)(C)[C@H]5CC[C@@]43C)[C@@H]2C1
REMARK SMILES IDX 6 1 5 2 10 3 32 4 4 5 11 6 14 7 33 8 2 9 12 10 15 11 1 12
REMARK SMILES IDX 3 13 13 14 30 15 16 16 17 17 29 18 31 19 18 20 28 21 27 22
REMARK SMILES IDX 20 23 19 24 24 25 21 26 22 27 25 28 26 29 7 30 8 31 9 32
REMARK SMILES IDX 23 33
REMARK H PARENT 23 34
REMARK Flexibility Score: inf
ROOT
ATOM      1  C   UNL     1      -3.303  -7.704 -24.347  1.00  0.00     0.017 C 
ATOM      2  C   UNL     1      -4.337  -7.952 -25.475  1.00  0.00     0.014 C 
ATOM      3  C   UNL     1      -2.603  -9.044 -24.021  1.00  0.00     0.014 C 
ATOM      4  C   UNL     1      -2.220  -6.711 -24.867  1.00  0.00     0.028 C 
ATOM      5  C   UNL     1      -5.009  -6.650 -25.935  1.00  0.00     0.007 C 
ATOM      6  C   UNL     1      -1.570  -8.874 -22.902  1.00  0.00     0.013 C 
ATOM      7  C   UNL     1      -1.034  -6.575 -23.887  1.00  0.00    -0.064 C 
ATOM      8  C   UNL     1      -2.858  -5.380 -25.368  1.00  0.00     0.015 C 
ATOM      9  C   UNL     1      -3.993  -5.582 -26.416  1.00  0.00    -0.035 C 
ATOM     10  C   UNL     1      -0.434  -7.839 -23.230  1.00  0.00    -0.006 C 
ATOM     11  C   UNL     1      -0.294  -5.444 -23.865  1.00  0.00    -0.027 C 
ATOM     12  C   UNL     1      -4.739  -4.242 -26.596  1.00  0.00     0.011 C 
ATOM     13  C   UNL     1      -3.404  -5.980 -27.792  1.00  0.00     0.011 C 
ATOM     14  C   UNL     1       0.514  -8.518 -24.273  1.00  0.00     0.017 C 
ATOM     15  C   UNL     1       0.369  -7.420 -21.889  1.00  0.00    -0.020 C 
ATOM     16  C   UNL     1       1.158  -5.486 -23.498  1.00  0.00     0.032 C 
ATOM     17  C   UNL     1       1.431  -6.242 -22.165  1.00  0.00     0.006 C 
ATOM     18  C   UNL     1       1.021  -8.677 -21.260  1.00  0.00     0.008 C 
ATOM     19  C   UNL     1      -0.637  -6.872 -20.808  1.00  0.00     0.012 C 
ATOM     20  C   UNL     1       3.012  -6.441 -21.802  1.00  0.00    -0.025 C 
ATOM     21  C   UNL     1       2.154  -8.342 -20.305  1.00  0.00     0.005 C 
ATOM     22  C   UNL     1       3.370  -7.832 -21.106  1.00  0.00     0.003 C 
ATOM     23  C   UNL     1       3.399  -5.262 -20.848  1.00  0.00     0.010 C 
ATOM     24  C   UNL     1       3.868  -6.313 -23.098  1.00  0.00     0.012 C 
ATOM     25  C   UNL     1       4.750  -7.898 -20.280  1.00  0.00    -0.006 C 
ATOM     26  C   UNL     1       4.801  -5.336 -20.252  1.00  0.00     0.033 C 
ATOM     27  C   UNL     1       4.978  -6.615 -19.427  1.00  0.00     0.120 C 
ATOM     28  C   UNL     1       5.974  -8.112 -21.231  1.00  0.00     0.014 C 
ATOM     29  C   UNL     1       4.801  -9.125 -19.317  1.00  0.00     0.014 C 
ENDROOT
BRANCH   1  30
ATOM     30  C   UNL     1      -4.036  -7.199 -23.104  1.00  0.00     0.048 C 
ATOM     31  O   UNL     1      -4.998  -7.862 -22.629  1.00  0.00    -0.550 OA
ATOM     32  O   UNL     1      -3.633  -6.046 -22.443  1.00  0.00    -0.550 OA
ENDBRANCH   1  30
BRANCH  27  33
ATOM     33  O   UNL     1       4.091  -6.588 -18.334  1.00  0.00    -0.393 OA
ATOM     34  H   UNL     1       3.524  -7.400 -18.399  1.00  0.00     0.210 HD
ENDBRANCH  27  33
TORSDOF 2
ENDMDL
MODEL 2
REMARK VINA RESULT:    -3.924      2.147      8.296
REMARK INTER + INTRA:          -4.148
REMARK INTER:                  -4.286
REMARK INTRA:                   0.138
REMARK UNBOUND:                 0.120
REMARK SMILES CC1(C)CC[C@@]2(C(=O)[O-])CC[C@@]3(C)C(=CC[C@@H]4[C@@]5(C)CC[C@@H](O)C(C)(C)[C@H]5CC[C@@]43C)[C@@H]2C1
REMARK SMILES IDX 6 1 5 2 10 3 32 4 4 5 11 6 14 7 33 8 2 9 12 10 15 11 1 12
REMARK SMILES IDX 3 13 13 14 30 15 16 16 17 17 29 18 31 19 18 20 28 21 27 22
REMARK SMILES IDX 20 23 19 24 24 25 21 26 22 27 25 28 26 29 7 30 8 31 9 32
REMARK SMILES IDX 23 33
REMARK H PARENT 23 34
REMARK Flexibility Score: inf
ROOT
ATOM      1  C   UNL     1       4.620  -7.916 -20.681  1.00  0.00     0.017 C 
ATOM      2  C   UNL     1       5.898  -8.156 -19.835  1.00  0.00     0.014 C 
ATOM      3  C   UNL     1       3.674  -9.124 -20.493  1.00  0.00     0.014 C 
ATOM      4  C   UNL     1       3.892  -6.648 -20.140  1.00  0.00     0.028 C 
ATOM      5  C   UNL     1       6.852  -6.953 -19.882  1.00  0.00     0.007 C 
ATOM      6  C   UNL     1       2.390  -8.958 -21.311  1.00  0.00     0.013 C 
ATOM      7  C   UNL     1       2.499  -6.457 -20.781  1.00  0.00    -0.064 C 
ATOM      8  C   UNL     1       4.830  -5.403 -20.145  1.00  0.00     0.015 C 
ATOM      9  C   UNL     1       6.186  -5.635 -19.413  1.00  0.00    -0.035 C 
ATOM     10  C   UNL     1       1.559  -7.674 -20.947  1.00  0.00    -0.006 C 
ATOM     11  C   UNL     1       1.952  -5.225 -20.870  1.00  0.00    -0.027 C 
ATOM     12  C   UNL     1       7.132  -4.461 -19.750  1.00  0.00     0.011 C 
ATOM     13  C   UNL     1       5.983  -5.648 -17.878  1.00  0.00     0.011 C 
ATOM     14  C   UNL     1       0.880  -7.948 -19.564  1.00  0.00     0.017 C 
ATOM     15  C   UNL     1       0.461  -7.354 -22.091  1.00  0.00    -0.020 C 
ATOM     16  C   UNL     1       0.466  -5.041 -20.825  1.00  0.00     0.032 C 
ATOM     17  C   UNL     1      -0.295  -5.957 -21.828  1.00  0.00     0.006 C 
ATOM     18  C   UNL     1      -0.518  -8.547 -22.219  1.00  0.00     0.008 C 
ATOM     19  C   UNL     1       1.166  -7.225 -23.494  1.00  0.00     0.012 C 
ATOM     20  C   UNL     1      -1.923  -5.897 -21.709  1.00  0.00    -0.025 C 
ATOM     21  C   UNL     1      -1.825  -8.173 -22.896  1.00  0.00     0.005 C 
ATOM     22  C   UNL     1      -2.663  -7.292 -21.946  1.00  0.00     0.003 C 
ATOM     23  C   UNL     1      -2.408  -4.859 -22.775  1.00  0.00     0.010 C 
ATOM     24  C   UNL     1      -2.328  -5.367 -20.300  1.00  0.00     0.012 C 
ATOM     25  C   UNL     1      -4.223  -7.230 -22.344  1.00  0.00    -0.006 C 
ATOM     26  C   UNL     1      -3.920  -4.757 -22.950  1.00  0.00     0.033 C 
ATOM     27  C   UNL     1      -4.511  -6.104 -23.381  1.00  0.00     0.120 C 
ATOM     28  C   UNL     1      -5.125  -7.017 -21.084  1.00  0.00     0.014 C 
ATOM     29  C   UNL     1      -4.729  -8.576 -22.950  1.00  0.00     0.014 C 
ENDROOT
BRANCH   1  30
ATOM     30  C   UNL     1       5.013  -7.803 -22.154  1.00  0.00     0.048 C 
ATOM     31  O   UNL     1       5.734  -8.692 -22.682  1.00  0.00    -0.550 OA
ATOM     32  O   UNL     1       4.548  -6.764 -22.951  1.00  0.00    -0.550 OA
ENDBRANCH   1  30
BRANCH  27  33
ATOM     33  O   UNL     1      -3.996  -6.455 -24.643  1.00  0.00    -0.393 OA
ATOM     34  H   UNL     1      -3.014  -6.555 -24.539  1.00  0.00     0.210 HD
ENDBRANCH  27  33
TORSDOF 2
ENDMDL
MODEL 3
REMARK VINA RESULT:    -3.896      3.393      6.118
REMARK INTER + INTRA:          -4.118
REMARK INTER:                  -4.431
REMARK INTRA:                   0.313
REMARK UNBOUND:                 0.120
REMARK SMILES CC1(C)CC[C@@]2(C(=O)[O-])CC[C@@]3(C)C(=CC[C@@H]4[C@@]5(C)CC[C@@H](O)C(C)(C)[C@H]5CC[C@@]43C)[C@@H]2C1
REMARK SMILES IDX 6 1 5 2 10 3 32 4 4 5 11 6 14 7 33 8 2 9 12 10 15 11 1 12
REMARK SMILES IDX 3 13 13 14 30 15 16 16 17 17 29 18 31 19 18 20 28 21 27 22
REMARK SMILES IDX 20 23 19 24 24 25 21 26 22 27 25 28 26 29 7 30 8 31 9 32
REMARK SMILES IDX 23 33
REMARK H PARENT 23 34
REMARK Flexibility Score: inf
ROOT
ATOM      1  C   UNL     1      -4.194  -5.492 -29.259  1.00  0.00     0.017 C 
ATOM      2  C   UNL     1      -5.017  -5.548 -30.572  1.00  0.00     0.014 C 
ATOM      3  C   UNL     1      -5.058  -4.818 -28.168  1.00  0.00     0.014 C 
ATOM      4  C   UNL     1      -3.886  -6.948 -28.797  1.00  0.00     0.028 C 
ATOM      5  C   UNL     1      -4.270  -6.296 -31.686  1.00  0.00     0.007 C 
ATOM      6  C   UNL     1      -4.301  -4.720 -26.840  1.00  0.00     0.013 C 
ATOM      7  C   UNL     1      -3.258  -6.992 -27.386  1.00  0.00    -0.064 C 
ATOM      8  C   UNL     1      -3.148  -7.757 -29.906  1.00  0.00     0.015 C 
ATOM      9  C   UNL     1      -3.874  -7.740 -31.285  1.00  0.00    -0.035 C 
ATOM     10  C   UNL     1      -3.841  -6.107 -26.260  1.00  0.00    -0.006 C 
ATOM     11  C   UNL     1      -2.462  -8.023 -27.026  1.00  0.00    -0.027 C 
ATOM     12  C   UNL     1      -2.910  -8.300 -32.354  1.00  0.00     0.011 C 
ATOM     13  C   UNL     1      -5.124  -8.654 -31.256  1.00  0.00     0.011 C 
ATOM     14  C   UNL     1      -5.122  -6.816 -25.706  1.00  0.00     0.017 C 
ATOM     15  C   UNL     1      -2.730  -5.908 -25.101  1.00  0.00    -0.020 C 
ATOM     16  C   UNL     1      -2.393  -8.475 -25.599  1.00  0.00     0.032 C 
ATOM     17  C   UNL     1      -2.122  -7.312 -24.600  1.00  0.00     0.006 C 
ATOM     18  C   UNL     1      -3.330  -5.071 -23.945  1.00  0.00     0.008 C 
ATOM     19  C   UNL     1      -1.518  -5.067 -25.656  1.00  0.00     0.012 C 
ATOM     20  C   UNL     1      -2.185  -7.735 -23.024  1.00  0.00    -0.025 C 
ATOM     21  C   UNL     1      -2.564  -5.224 -22.642  1.00  0.00     0.005 C 
ATOM     22  C   UNL     1      -2.815  -6.630 -22.059  1.00  0.00     0.003 C 
ATOM     23  C   UNL     1      -0.713  -8.036 -22.586  1.00  0.00     0.010 C 
ATOM     24  C   UNL     1      -3.013  -9.046 -22.865  1.00  0.00     0.012 C 
ATOM     25  C   UNL     1      -2.459  -6.744 -20.492  1.00  0.00    -0.006 C 
ATOM     26  C   UNL     1      -0.514  -8.300 -21.097  1.00  0.00     0.033 C 
ATOM     27  C   UNL     1      -0.959  -7.093 -20.263  1.00  0.00     0.120 C 
ATOM     28  C   UNL     1      -3.355  -7.811 -19.780  1.00  0.00     0.014 C 
ATOM     29  C   UNL     1      -2.762  -5.420 -19.723  1.00  0.00     0.014 C 
ENDROOT
BRANCH   1  30
ATOM     30  C   UNL     1      -2.936  -4.656 -29.497  1.00  0.00     0.048 C 
ATOM     31  O   UNL     1      -2.999  -3.610 -30.198  1.00  0.00    -0.550 OA
ATOM     32  O   UNL     1      -1.721  -4.991 -28.911  1.00  0.00    -0.550 OA
ENDBRANCH   1  30
BRANCH  27  33
ATOM     33  O   UNL     1      -0.144  -5.989 -20.574  1.00  0.00    -0.393 OA
ATOM     34  H   UNL     1       0.690  -6.346 -20.976  1.00  0.00     0.210 HD
ENDBRANCH  27  33
TORSDOF 2
ENDMDL
MODEL 4
REMARK VINA RESULT:    -3.582      2.014      3.867
REMARK INTER + INTRA:          -3.776
REMARK INTER:                  -3.892
REMARK INTRA:                   0.116
REMARK UNBOUND:                 0.120
REMARK SMILES CC1(C)CC[C@@]2(C(=O)[O-])CC[C@@]3(C)C(=CC[C@@H]4[C@@]5(C)CC[C@@H](O)C(C)(C)[C@H]5CC[C@@]43C)[C@@H]2C1
REMARK SMILES IDX 6 1 5 2 10 3 32 4 4 5 11 6 14 7 33 8 2 9 12 10 15 11 1 12
REMARK SMILES IDX 3 13 13 14 30 15 16 16 17 17 29 18 31 19 18 20 28 21 27 22
REMARK SMILES IDX 20 23 19 24 24 25 21 26 22 27 25 28 26 29 7 30 8 31 9 32
REMARK SMILES IDX 23 33
REMARK H PARENT 23 34
REMARK Flexibility Score: inf
ROOT
ATOM      1  C   UNL     1      -1.399  -6.401 -23.697  1.00  0.00     0.017 C 
ATOM      2  C   UNL     1      -2.746  -5.794 -24.170  1.00  0.00     0.014 C 
ATOM      3  C   UNL     1      -0.286  -5.350 -23.914  1.00  0.00     0.014 C 
ATOM      4  C   UNL     1      -1.490  -6.695 -22.169  1.00  0.00     0.028 C 
ATOM      5  C   UNL     1      -3.928  -6.736 -23.895  1.00  0.00     0.007 C 
ATOM      6  C   UNL     1       1.080  -5.887 -23.476  1.00  0.00     0.013 C 
ATOM      7  C   UNL     1      -0.124  -7.097 -21.570  1.00  0.00    -0.064 C 
ATOM      8  C   UNL     1      -2.692  -7.629 -21.837  1.00  0.00     0.015 C 
ATOM      9  C   UNL     1      -4.055  -7.125 -22.400  1.00  0.00    -0.035 C 
ATOM     10  C   UNL     1       1.147  -6.310 -21.963  1.00  0.00    -0.006 C 
ATOM     11  C   UNL     1      -0.067  -7.872 -20.464  1.00  0.00    -0.027 C 
ATOM     12  C   UNL     1      -5.089  -8.266 -22.277  1.00  0.00     0.011 C 
ATOM     13  C   UNL     1      -4.579  -5.926 -21.573  1.00  0.00     0.011 C 
ATOM     14  C   UNL     1       1.173  -4.990 -21.122  1.00  0.00     0.017 C 
ATOM     15  C   UNL     1       2.454  -7.218 -21.676  1.00  0.00    -0.020 C 
ATOM     16  C   UNL     1       1.067  -7.738 -19.494  1.00  0.00     0.032 C 
ATOM     17  C   UNL     1       2.466  -7.801 -20.174  1.00  0.00     0.006 C 
ATOM     18  C   UNL     1       3.732  -6.411 -22.013  1.00  0.00     0.008 C 
ATOM     19  C   UNL     1       2.466  -8.465 -22.639  1.00  0.00     0.012 C 
ATOM     20  C   UNL     1       3.727  -7.512 -19.176  1.00  0.00    -0.025 C 
ATOM     21  C   UNL     1       4.980  -6.972 -21.352  1.00  0.00     0.005 C 
ATOM     22  C   UNL     1       4.928  -6.694 -19.835  1.00  0.00     0.003 C 
ATOM     23  C   UNL     1       4.244  -8.910 -18.699  1.00  0.00     0.010 C 
ATOM     24  C   UNL     1       3.234  -6.726 -17.923  1.00  0.00     0.012 C 
ATOM     25  C   UNL     1       6.366  -6.807 -19.118  1.00  0.00    -0.006 C 
ATOM     26  C   UNL     1       5.527  -8.887 -17.875  1.00  0.00     0.033 C 
ATOM     27  C   UNL     1       6.679  -8.268 -18.675  1.00  0.00     0.120 C 
ATOM     28  C   UNL     1       6.460  -5.858 -17.877  1.00  0.00     0.014 C 
ATOM     29  C   UNL     1       7.526  -6.332 -20.047  1.00  0.00     0.014 C 
ENDROOT
BRANCH   1  30
ATOM     30  C   UNL     1      -1.094  -7.643 -24.533  1.00  0.00     0.048 C 
ATOM     31  O   UNL     1      -1.040  -7.559 -25.790  1.00  0.00    -0.550 OA
ATOM     32  O   UNL     1      -0.816  -8.868 -23.937  1.00  0.00    -0.550 OA
ENDBRANCH   1  30
BRANCH  27  33
ATOM     33  O   UNL     1       6.951  -9.073 -19.797  1.00  0.00    -0.393 OA
ATOM     34  H   UNL     1       7.936  -9.088 -19.913  1.00  0.00     0.210 HD
ENDBRANCH  27  33
TORSDOF 2
ENDMDL
MODEL 5
REMARK VINA RESULT:    -3.390      1.966      8.265
REMARK INTER + INTRA:          -3.567
REMARK INTER:                  -3.845
REMARK INTRA:                   0.278
REMARK UNBOUND:                 0.120
REMARK SMILES CC1(C)CC[C@@]2(C(=O)[O-])CC[C@@]3(C)C(=CC[C@@H]4[C@@]5(C)CC[C@@H](O)C(C)(C)[C@H]5CC[C@@]43C)[C@@H]2C1
REMARK SMILES IDX 6 1 5 2 10 3 32 4 4 5 11 6 14 7 33 8 2 9 12 10 15 11 1 12
REMARK SMILES IDX 3 13 13 14 30 15 16 16 17 17 29 18 31 19 18 20 28 21 27 22
REMARK SMILES IDX 20 23 19 24 24 25 21 26 22 27 25 28 26 29 7 30 8 31 9 32
REMARK SMILES IDX 23 33
REMARK H PARENT 23 34
REMARK Flexibility Score: inf
ROOT
ATOM      1  C   UNL     1       4.356  -7.975 -20.933  1.00  0.00     0.017 C 
ATOM      2  C   UNL     1       5.323  -8.024 -19.722  1.00  0.00     0.014 C 
ATOM      3  C   UNL     1       3.315  -9.108 -20.775  1.00  0.00     0.014 C 
ATOM      4  C   UNL     1       3.593  -6.616 -20.911  1.00  0.00     0.028 C 
ATOM      5  C   UNL     1       6.331  -6.865 -19.745  1.00  0.00     0.007 C 
ATOM      6  C   UNL     1       2.329  -9.125 -21.947  1.00  0.00     0.013 C 
ATOM      7  C   UNL     1       2.454  -6.569 -21.954  1.00  0.00    -0.064 C 
ATOM      8  C   UNL     1       4.576  -5.407 -20.909  1.00  0.00     0.015 C 
ATOM      9  C   UNL     1       5.651  -5.473 -19.782  1.00  0.00    -0.035 C 
ATOM     10  C   UNL     1       1.519  -7.790 -22.123  1.00  0.00    -0.006 C 
ATOM     11  C   UNL     1       2.040  -5.386 -22.460  1.00  0.00    -0.027 C 
ATOM     12  C   UNL     1       6.731  -4.407 -20.072  1.00  0.00     0.011 C 
ATOM     13  C   UNL     1       5.022  -5.142 -18.407  1.00  0.00     0.011 C 
ATOM     14  C   UNL     1       0.459  -7.744 -20.972  1.00  0.00     0.017 C 
ATOM     15  C   UNL     1       0.813  -7.731 -23.577  1.00  0.00    -0.020 C 
ATOM     16  C   UNL     1       0.618  -5.193 -22.889  1.00  0.00     0.032 C 
ATOM     17  C   UNL     1       0.110  -6.307 -23.850  1.00  0.00     0.006 C 
ATOM     18  C   UNL     1      -0.169  -8.919 -23.726  1.00  0.00     0.008 C 
ATOM     19  C   UNL     1       1.893  -7.921 -24.708  1.00  0.00     0.012 C 
ATOM     20  C   UNL     1      -1.477  -6.218 -24.225  1.00  0.00    -0.025 C 
ATOM     21  C   UNL     1      -1.203  -8.701 -24.817  1.00  0.00     0.005 C 
ATOM     22  C   UNL     1      -2.213  -7.627 -24.363  1.00  0.00     0.003 C 
ATOM     23  C   UNL     1      -1.569  -5.443 -25.582  1.00  0.00     0.010 C 
ATOM     24  C   UNL     1      -2.226  -5.383 -23.142  1.00  0.00     0.012 C 
ATOM     25  C   UNL     1      -3.588  -7.651 -25.201  1.00  0.00    -0.006 C 
ATOM     26  C   UNL     1      -2.959  -5.378 -26.206  1.00  0.00     0.033 C 
ATOM     27  C   UNL     1      -3.495  -6.785 -26.493  1.00  0.00     0.120 C 
ATOM     28  C   UNL     1      -4.793  -7.158 -24.334  1.00  0.00     0.014 C 
ATOM     29  C   UNL     1      -3.993  -9.097 -25.626  1.00  0.00     0.014 C 
ENDROOT
BRANCH   1  30
ATOM     30  C   UNL     1       5.156  -8.197 -22.216  1.00  0.00     0.048 C 
ATOM     31  O   UNL     1       6.062  -9.072 -22.249  1.00  0.00    -0.550 OA
ATOM     32  O   UNL     1       4.873  -7.489 -23.379  1.00  0.00    -0.550 OA
ENDBRANCH   1  30
BRANCH  27  33
ATOM     33  O   UNL     1      -2.669  -7.412 -27.445  1.00  0.00    -0.393 OA
ATOM     34  H   UNL     1      -3.233  -7.604 -28.239  1.00  0.00     0.210 HD
ENDBRANCH  27  33
TORSDOF 2
ENDMDL
MODEL 6
REMARK VINA RESULT:    -3.240      1.314      8.289
REMARK INTER + INTRA:          -3.403
REMARK INTER:                  -3.537
REMARK INTRA:                   0.134
REMARK UNBOUND:                 0.120
REMARK SMILES CC1(C)CC[C@@]2(C(=O)[O-])CC[C@@]3(C)C(=CC[C@@H]4[C@@]5(C)CC[C@@H](O)C(C)(C)[C@H]5CC[C@@]43C)[C@@H]2C1
REMARK SMILES IDX 6 1 5 2 10 3 32 4 4 5 11 6 14 7 33 8 2 9 12 10 15 11 1 12
REMARK SMILES IDX 3 13 13 14 30 15 16 16 17 17 29 18 31 19 18 20 28 21 27 22
REMARK SMILES IDX 20 23 19 24 24 25 21 26 22 27 25 28 26 29 7 30 8 31 9 32
REMARK SMILES IDX 23 33
REMARK H PARENT 23 34
REMARK Flexibility Score: inf
ROOT
ATOM      1  C   UNL     1       3.484  -5.755 -19.877  1.00  0.00     0.017 C 
ATOM      2  C   UNL     1       4.916  -5.454 -19.364  1.00  0.00     0.014 C 
ATOM      3  C   UNL     1       3.000  -4.547 -20.714  1.00  0.00     0.014 C 
ATOM      4  C   UNL     1       3.538  -6.998 -20.816  1.00  0.00     0.028 C 
ATOM      5  C   UNL     1       5.516  -6.647 -18.606  1.00  0.00     0.007 C 
ATOM      6  C   UNL     1       1.582  -4.773 -21.248  1.00  0.00     0.013 C 
ATOM      7  C   UNL     1       2.197  -7.239 -21.544  1.00  0.00    -0.064 C 
ATOM      8  C   UNL     1       4.164  -8.231 -20.097  1.00  0.00     0.015 C 
ATOM      9  C   UNL     1       5.554  -7.944 -19.453  1.00  0.00    -0.035 C 
ATOM     10  C   UNL     1       1.435  -6.043 -22.162  1.00  0.00    -0.006 C 
ATOM     11  C   UNL     1       1.858  -8.480 -21.957  1.00  0.00    -0.027 C 
ATOM     12  C   UNL     1       5.917  -9.125 -18.526  1.00  0.00     0.011 C 
ATOM     13  C   UNL     1       6.651  -7.847 -20.541  1.00  0.00     0.011 C 
ATOM     14  C   UNL     1       2.110  -5.700 -23.531  1.00  0.00     0.017 C 
ATOM     15  C   UNL     1      -0.122  -6.438 -22.354  1.00  0.00    -0.020 C 
ATOM     16  C   UNL     1       1.005  -8.677 -23.173  1.00  0.00     0.032 C 
ATOM     17  C   UNL     1      -0.299  -7.826 -23.151  1.00  0.00     0.006 C 
ATOM     18  C   UNL     1      -0.876  -5.264 -23.027  1.00  0.00     0.008 C 
ATOM     19  C   UNL     1      -0.805  -6.638 -20.949  1.00  0.00     0.012 C 
ATOM     20  C   UNL     1      -1.185  -7.896 -24.521  1.00  0.00    -0.025 C 
ATOM     21  C   UNL     1      -2.185  -5.690 -23.669  1.00  0.00     0.005 C 
ATOM     22  C   UNL     1      -1.891  -6.525 -24.933  1.00  0.00     0.003 C 
ATOM     23  C   UNL     1      -2.273  -8.998 -24.290  1.00  0.00     0.010 C 
ATOM     24  C   UNL     1      -0.282  -8.352 -25.707  1.00  0.00     0.012 C 
ATOM     25  C   UNL     1      -3.147  -6.626 -25.936  1.00  0.00    -0.006 C 
ATOM     26  C   UNL     1      -3.320  -9.125 -25.391  1.00  0.00     0.033 C 
ATOM     27  C   UNL     1      -4.089  -7.811 -25.568  1.00  0.00     0.120 C 
ATOM     28  C   UNL     1      -2.679  -6.778 -27.421  1.00  0.00     0.014 C 
ATOM     29  C   UNL     1      -4.003  -5.321 -25.940  1.00  0.00     0.014 C 
ENDROOT
BRANCH   1  30
ATOM     30  C   UNL     1       2.556  -5.945 -18.678  1.00  0.00     0.048 C 
ATOM     31  O   UNL     1       2.344  -4.986 -17.888  1.00  0.00    -0.550 OA
ATOM     32  O   UNL     1       1.887  -7.144 -18.461  1.00  0.00    -0.550 OA
ENDBRANCH   1  30
BRANCH  27  33
ATOM     33  O   UNL     1      -4.799  -7.526 -24.387  1.00  0.00    -0.393 OA
ATOM     34  H   UNL     1      -5.013  -6.556 -24.403  1.00  0.00     0.210 HD
ENDBRANCH  27  33
TORSDOF 2
ENDMDL
MODEL 7
REMARK VINA RESULT:    -3.171      2.668      8.051
REMARK INTER + INTRA:          -3.329
REMARK INTER:                  -3.649
REMARK INTRA:                   0.320
REMARK UNBOUND:                 0.120
REMARK SMILES CC1(C)CC[C@@]2(C(=O)[O-])CC[C@@]3(C)C(=CC[C@@H]4[C@@]5(C)CC[C@@H](O)C(C)(C)[C@H]5CC[C@@]43C)[C@@H]2C1
REMARK SMILES IDX 6 1 5 2 10 3 32 4 4 5 11 6 14 7 33 8 2 9 12 10 15 11 1 12
REMARK SMILES IDX 3 13 13 14 30 15 16 16 17 17 29 18 31 19 18 20 28 21 27 22
REMARK SMILES IDX 20 23 19 24 24 25 21 26 22 27 25 28 26 29 7 30 8 31 9 32
REMARK SMILES IDX 23 33
REMARK H PARENT 23 34
REMARK Flexibility Score: inf
ROOT
ATOM      1  C   UNL     1       0.213  -6.844 -20.746  1.00  0.00     0.017 C 
ATOM      2  C   UNL     1       0.456  -7.053 -19.229  1.00  0.00     0.014 C 
ATOM      3  C   UNL     1       0.242  -8.224 -21.442  1.00  0.00     0.014 C 
ATOM      4  C   UNL     1      -1.208  -6.235 -20.947  1.00  0.00     0.028 C 
ATOM      5  C   UNL     1       0.342  -5.740 -18.442  1.00  0.00     0.007 C 
ATOM      6  C   UNL     1       0.017  -8.092 -22.952  1.00  0.00     0.013 C 
ATOM      7  C   UNL     1      -1.620  -6.195 -22.436  1.00  0.00    -0.064 C 
ATOM      8  C   UNL     1      -1.381  -4.910 -20.146  1.00  0.00     0.015 C 
ATOM      9  C   UNL     1      -1.027  -5.038 -18.634  1.00  0.00    -0.035 C 
ATOM     10  C   UNL     1      -1.350  -7.420 -23.340  1.00  0.00    -0.006 C 
ATOM     11  C   UNL     1      -2.511  -5.277 -22.871  1.00  0.00    -0.027 C 
ATOM     12  C   UNL     1      -0.940  -3.619 -18.029  1.00  0.00     0.011 C 
ATOM     13  C   UNL     1      -2.138  -5.804 -17.875  1.00  0.00     0.011 C 
ATOM     14  C   UNL     1      -2.471  -8.476 -23.064  1.00  0.00     0.017 C 
ATOM     15  C   UNL     1      -1.345  -6.956 -24.889  1.00  0.00    -0.020 C 
ATOM     16  C   UNL     1      -3.421  -5.580 -24.023  1.00  0.00     0.032 C 
ATOM     17  C   UNL     1      -2.667  -6.120 -25.273  1.00  0.00     0.006 C 
ATOM     18  C   UNL     1      -1.133  -8.190 -25.800  1.00  0.00     0.008 C 
ATOM     19  C   UNL     1      -0.119  -6.004 -25.162  1.00  0.00     0.012 C 
ATOM     20  C   UNL     1      -3.633  -6.602 -26.499  1.00  0.00    -0.025 C 
ATOM     21  C   UNL     1      -1.575  -7.952 -27.234  1.00  0.00     0.005 C 
ATOM     22  C   UNL     1      -3.116  -7.887 -27.294  1.00  0.00     0.003 C 
ATOM     23  C   UNL     1      -3.743  -5.388 -27.481  1.00  0.00     0.010 C 
ATOM     24  C   UNL     1      -5.060  -6.912 -25.953  1.00  0.00     0.012 C 
ATOM     25  C   UNL     1      -3.706  -8.112 -28.775  1.00  0.00    -0.006 C 
ATOM     26  C   UNL     1      -4.477  -5.668 -28.788  1.00  0.00     0.033 C 
ATOM     27  C   UNL     1      -3.779  -6.780 -29.579  1.00  0.00     0.120 C 
ATOM     28  C   UNL     1      -5.125  -8.769 -28.730  1.00  0.00     0.014 C 
ATOM     29  C   UNL     1      -2.849  -9.120 -29.603  1.00  0.00     0.014 C 
ENDROOT
BRANCH   1  30
ATOM     30  C   UNL     1       1.330  -5.967 -21.312  1.00  0.00     0.048 C 
ATOM     31  O   UNL     1       1.055  -5.043 -22.124  1.00  0.00    -0.550 OA
ATOM     32  O   UNL     1       2.651  -6.126 -20.909  1.00  0.00    -0.550 OA
ENDBRANCH   1  30
BRANCH  27  33
ATOM     33  O   UNL     1      -2.488  -6.353 -29.941  1.00  0.00    -0.393 OA
ATOM     34  H   UNL     1      -2.490  -6.218 -30.924  1.00  0.00     0.210 HD
ENDBRANCH  27  33
TORSDOF 2
ENDMDL
MODEL 8
REMARK VINA RESULT:    -2.712      3.003      8.300
REMARK INTER + INTRA:          -2.829
REMARK INTER:                  -2.965
REMARK INTRA:                   0.136
REMARK UNBOUND:                 0.120
REMARK SMILES CC1(C)CC[C@@]2(C(=O)[O-])CC[C@@]3(C)C(=CC[C@@H]4[C@@]5(C)CC[C@@H](O)C(C)(C)[C@H]5CC[C@@]43C)[C@@H]2C1
REMARK SMILES IDX 6 1 5 2 10 3 32 4 4 5 11 6 14 7 33 8 2 9 12 10 15 11 1 12
REMARK SMILES IDX 3 13 13 14 30 15 16 16 17 17 29 18 31 19 18 20 28 21 27 22
REMARK SMILES IDX 20 23 19 24 24 25 21 26 22 27 25 28 26 29 7 30 8 31 9 32
REMARK SMILES IDX 23 33
REMARK H PARENT 23 34
REMARK Flexibility Score: inf
ROOT
ATOM      1  C   UNL     1       4.455  -7.816 -21.075  1.00  0.00     0.017 C 
ATOM      2  C   UNL     1       5.931  -8.184 -20.774  1.00  0.00     0.014 C 
ATOM      3  C   UNL     1       3.642  -9.125 -21.207  1.00  0.00     0.014 C 
ATOM      4  C   UNL     1       3.881  -7.015 -19.867  1.00  0.00     0.028 C 
ATOM      5  C   UNL     1       6.794  -6.938 -20.524  1.00  0.00     0.007 C 
ATOM      6  C   UNL     1       2.169  -8.836 -21.516  1.00  0.00     0.013 C 
ATOM      7  C   UNL     1       2.356  -6.795 -19.984  1.00  0.00    -0.064 C 
ATOM      8  C   UNL     1       4.739  -5.751 -19.559  1.00  0.00     0.015 C 
ATOM      9  C   UNL     1       6.257  -6.052 -19.371  1.00  0.00    -0.035 C 
ATOM     10  C   UNL     1       1.445  -7.964 -20.427  1.00  0.00    -0.006 C 
ATOM     11  C   UNL     1       1.772  -5.737 -19.381  1.00  0.00    -0.027 C 
ATOM     12  C   UNL     1       7.027  -4.713 -19.382  1.00  0.00     0.011 C 
ATOM     13  C   UNL     1       6.515  -6.730 -18.003  1.00  0.00     0.011 C 
ATOM     14  C   UNL     1       1.211  -8.886 -19.185  1.00  0.00     0.017 C 
ATOM     15  C   UNL     1       0.051  -7.374 -20.995  1.00  0.00    -0.020 C 
ATOM     16  C   UNL     1       0.360  -5.821 -18.887  1.00  0.00     0.032 C 
ATOM     17  C   UNL     1      -0.635  -6.346 -19.963  1.00  0.00     0.006 C 
ATOM     18  C   UNL     1      -0.887  -8.543 -21.385  1.00  0.00     0.008 C 
ATOM     19  C   UNL     1       0.308  -6.568 -22.325  1.00  0.00     0.012 C 
ATOM     20  C   UNL     1      -2.158  -6.594 -19.425  1.00  0.00    -0.025 C 
ATOM     21  C   UNL     1      -2.346  -8.129 -21.474  1.00  0.00     0.005 C 
ATOM     22  C   UNL     1      -2.893  -7.861 -20.056  1.00  0.00     0.003 C 
ATOM     23  C   UNL     1      -2.965  -5.296 -19.764  1.00  0.00     0.010 C 
ATOM     24  C   UNL     1      -2.145  -6.762 -17.875  1.00  0.00     0.012 C 
ATOM     25  C   UNL     1      -4.502  -7.882 -19.980  1.00  0.00    -0.006 C 
ATOM     26  C   UNL     1      -4.463  -5.367 -19.489  1.00  0.00     0.033 C 
ATOM     27  C   UNL     1      -5.116  -6.488 -20.305  1.00  0.00     0.120 C 
ATOM     28  C   UNL     1      -4.999  -8.352 -18.573  1.00  0.00     0.014 C 
ATOM     29  C   UNL     1      -5.124  -8.918 -20.967  1.00  0.00     0.014 C 
ENDROOT
BRANCH   1  30
ATOM     30  C   UNL     1       4.394  -7.046 -22.393  1.00  0.00     0.048 C 
ATOM     31  O   UNL     1       4.724  -7.613 -23.469  1.00  0.00    -0.550 OA
ATOM     32  O   UNL     1       3.928  -5.737 -22.448  1.00  0.00    -0.550 OA
ENDBRANCH   1  30
BRANCH  27  33
ATOM     33  O   UNL     1      -4.984  -6.201 -21.677  1.00  0.00    -0.393 OA
ATOM     34  H   UNL     1      -4.894  -5.217 -21.761  1.00  0.00     0.210 HD
ENDBRANCH  27  33
TORSDOF 2
ENDMDL
