MODEL 1
REMARK VINA RESULT:    -3.816      0.000      0.000
REMARK INTER + INTRA:          -6.658
REMARK INTER:                  -6.047
REMARK INTRA:                  -0.611
REMARK UNBOUND:                -0.611
REMARK SMILES CCCCCCCCCCCC(=O)[O-]
REMARK SMILES IDX 7 1 8 2 9 3 10 4 11 5 12 6 13 7 14 8 6 9 5 10 4 11 3 12 2 13
REMARK SMILES IDX 1 14
REMARK H PARENT
REMARK Flexibility Score: inf
ROOT
ATOM      1  C   UNL     1      49.370  47.382  42.479  1.00  0.00     0.000 C 
ENDROOT
BRANCH   1   2
ATOM      2  C   UNL     1      47.901  47.011  42.720  1.00  0.00     0.000 C 
BRANCH   2   3
ATOM      3  C   UNL     1      47.044  47.091  41.444  1.00  0.00     0.000 C 
BRANCH   3   4
ATOM      4  C   UNL     1      45.528  47.246  41.683  1.00  0.00     0.006 C 
BRANCH   4   5
ATOM      5  C   UNL     1      44.943  48.589  41.220  1.00  0.00     0.053 C 
BRANCH   5   6
ATOM      6  C   UNL     1      43.726  48.970  42.006  1.00  0.00     0.041 C 
ATOM      7  O   UNL     1      43.804  49.836  42.916  1.00  0.00    -0.550 OA
ATOM      8  O   UNL     1      42.500  48.389  41.711  1.00  0.00    -0.550 OA
ENDBRANCH   5   6
ENDBRANCH   4   5
ENDBRANCH   3   4
ENDBRANCH   2   3
ENDBRANCH   1   2
BRANCH   1   9
ATOM      9  C   UNL     1      50.277  46.152  42.610  1.00  0.00     0.000 C 
BRANCH   9  10
ATOM     10  C   UNL     1      51.758  46.557  42.608  1.00  0.00    -0.000 C 
BRANCH  10  11
ATOM     11  C   UNL     1      52.549  45.919  43.762  1.00  0.00    -0.000 C 
BRANCH  11  12
ATOM     12  C   UNL     1      51.674  45.632  44.991  1.00  0.00    -0.000 C 
BRANCH  12  13
ATOM     13  C   UNL     1      51.716  46.803  45.979  1.00  0.00    -0.003 C 
ATOM     14  C   UNL     1      50.321  47.133  46.504  1.00  0.00     0.004 C 
ENDBRANCH  12  13
ENDBRANCH  11  12
ENDBRANCH  10  11
ENDBRANCH   9  10
ENDBRANCH   1   9
TORSDOF 10
ENDMDL
MODEL 2
REMARK VINA RESULT:    -3.780      3.398      7.268
REMARK INTER + INTRA:          -6.601
REMARK INTER:                  -5.943
REMARK INTRA:                  -0.658
REMARK UNBOUND:                -0.611
REMARK SMILES CCCCCCCCCCCC(=O)[O-]
REMARK SMILES IDX 7 1 8 2 9 3 10 4 11 5 12 6 13 7 14 8 6 9 5 10 4 11 3 12 2 13
REMARK SMILES IDX 1 14
REMARK H PARENT
REMARK Flexibility Score: inf
ROOT
ATOM      1  C   UNL     1      45.905  46.636  41.204  1.00  0.00     0.000 C 
ENDROOT
BRANCH   1   2
ATOM      2  C   UNL     1      47.268  46.162  41.728  1.00  0.00     0.000 C 
BRANCH   2   3
ATOM      3  C   UNL     1      47.872  47.114  42.777  1.00  0.00     0.000 C 
BRANCH   3   4
ATOM      4  C   UNL     1      49.357  46.865  43.107  1.00  0.00     0.006 C 
BRANCH   4   5
ATOM      5  C   UNL     1      49.596  45.923  44.298  1.00  0.00     0.053 C 
BRANCH   5   6
ATOM      6  C   UNL     1      50.444  46.561  45.354  1.00  0.00     0.041 C 
ATOM      7  O   UNL     1      51.694  46.618  45.217  1.00  0.00    -0.550 OA
ATOM      8  O   UNL     1      49.848  47.122  46.477  1.00  0.00    -0.550 OA
ENDBRANCH   5   6
ENDBRANCH   4   5
ENDBRANCH   3   4
ENDBRANCH   2   3
ENDBRANCH   1   2
BRANCH   1   9
ATOM      9  C   UNL     1      44.851  45.530  41.336  1.00  0.00     0.000 C 
BRANCH   9  10
ATOM     10  C   UNL     1      43.478  46.118  41.692  1.00  0.00    -0.000 C 
BRANCH  10  11
ATOM     11  C   UNL     1      43.229  47.486  41.036  1.00  0.00    -0.000 C 
BRANCH  11  12
ATOM     12  C   UNL     1      42.824  48.564  42.051  1.00  0.00    -0.000 C 
BRANCH  12  13
ATOM     13  C   UNL     1      43.975  49.547  42.295  1.00  0.00    -0.003 C 
ATOM     14  C   UNL     1      44.521  50.096  40.980  1.00  0.00     0.004 C 
ENDBRANCH  12  13
ENDBRANCH  11  12
ENDBRANCH  10  11
ENDBRANCH   9  10
ENDBRANCH   1   9
TORSDOF 10
ENDMDL
MODEL 3
REMARK VINA RESULT:    -3.693      3.208      7.107
REMARK INTER + INTRA:          -6.462
REMARK INTER:                  -5.963
REMARK INTRA:                  -0.499
REMARK UNBOUND:                -0.611
REMARK SMILES CCCCCCCCCCCC(=O)[O-]
REMARK SMILES IDX 7 1 8 2 9 3 10 4 11 5 12 6 13 7 14 8 6 9 5 10 4 11 3 12 2 13
REMARK SMILES IDX 1 14
REMARK H PARENT
REMARK Flexibility Score: inf
ROOT
ATOM      1  C   UNL     1      49.129  47.361  42.415  1.00  0.00     0.000 C 
ENDROOT
BRANCH   1   2
ATOM      2  C   UNL     1      49.957  46.246  41.762  1.00  0.00     0.000 C 
BRANCH   2   3
ATOM      3  C   UNL     1      51.319  46.031  42.446  1.00  0.00     0.000 C 
BRANCH   3   4
ATOM      4  C   UNL     1      51.253  45.384  43.844  1.00  0.00     0.006 C 
BRANCH   4   5
ATOM      5  C   UNL     1      52.077  46.106  44.921  1.00  0.00     0.053 C 
BRANCH   5   6
ATOM      6  C   UNL     1      51.206  46.828  45.902  1.00  0.00     0.041 C 
ATOM      7  O   UNL     1      51.721  47.536  46.807  1.00  0.00    -0.550 OA
ATOM      8  O   UNL     1      49.824  46.743  45.797  1.00  0.00    -0.550 OA
ENDBRANCH   5   6
ENDBRANCH   4   5
ENDBRANCH   3   4
ENDBRANCH   2   3
ENDBRANCH   1   2
BRANCH   1   9
ATOM      9  C   UNL     1      47.652  46.962  42.516  1.00  0.00     0.000 C 
BRANCH   9  10
ATOM     10  C   UNL     1      46.869  47.428  41.280  1.00  0.00    -0.000 C 
BRANCH  10  11
ATOM     11  C   UNL     1      45.356  47.522  41.536  1.00  0.00    -0.000 C 
BRANCH  11  12
ATOM     12  C   UNL     1      44.834  48.965  41.475  1.00  0.00    -0.000 C 
BRANCH  12  13
ATOM     13  C   UNL     1      43.481  49.088  42.185  1.00  0.00    -0.003 C 
ATOM     14  C   UNL     1      42.467  48.099  41.616  1.00  0.00     0.004 C 
ENDBRANCH  12  13
ENDBRANCH  11  12
ENDBRANCH  10  11
ENDBRANCH   9  10
ENDBRANCH   1   9
TORSDOF 10
ENDMDL
MODEL 4
REMARK VINA RESULT:    -3.454      3.876      7.439
REMARK INTER + INTRA:          -6.084
REMARK INTER:                  -5.455
REMARK INTRA:                  -0.628
REMARK UNBOUND:                -0.611
REMARK SMILES CCCCCCCCCCCC(=O)[O-]
REMARK SMILES IDX 7 1 8 2 9 3 10 4 11 5 12 6 13 7 14 8 6 9 5 10 4 11 3 12 2 13
REMARK SMILES IDX 1 14
REMARK H PARENT
REMARK Flexibility Score: inf
ROOT
ATOM      1  C   UNL     1      48.280  46.987  42.817  1.00  0.00     0.000 C 
ENDROOT
BRANCH   1   2
ATOM      2  C   UNL     1      48.450  45.468  42.958  1.00  0.00     0.000 C 
BRANCH   2   3
ATOM      3  C   UNL     1      49.352  45.072  44.142  1.00  0.00     0.000 C 
BRANCH   3   4
ATOM      4  C   UNL     1      50.151  46.232  44.771  1.00  0.00     0.006 C 
BRANCH   4   5
ATOM      5  C   UNL     1      51.635  45.922  45.020  1.00  0.00     0.053 C 
BRANCH   5   6
ATOM      6  C   UNL     1      52.449  46.037  43.768  1.00  0.00     0.041 C 
ATOM      7  O   UNL     1      52.028  46.722  42.799  1.00  0.00    -0.550 OA
ATOM      8  O   UNL     1      53.686  45.413  43.685  1.00  0.00    -0.550 OA
ENDBRANCH   5   6
ENDBRANCH   4   5
ENDBRANCH   3   4
ENDBRANCH   2   3
ENDBRANCH   1   2
BRANCH   1   9
ATOM      9  C   UNL     1      47.365  47.330  41.635  1.00  0.00     0.000 C 
BRANCH   9  10
ATOM     10  C   UNL     1      46.212  46.322  41.521  1.00  0.00    -0.000 C 
BRANCH  10  11
ATOM     11  C   UNL     1      44.916  46.961  40.994  1.00  0.00    -0.000 C 
BRANCH  11  12
ATOM     12  C   UNL     1      44.885  48.483  41.191  1.00  0.00    -0.000 C 
BRANCH  12  13
ATOM     13  C   UNL     1      43.664  48.904  42.018  1.00  0.00    -0.003 C 
ATOM     14  C   UNL     1      42.391  48.238  41.501  1.00  0.00     0.004 C 
ENDBRANCH  12  13
ENDBRANCH  11  12
ENDBRANCH  10  11
ENDBRANCH   9  10
ENDBRANCH   1   9
TORSDOF 10
ENDMDL
MODEL 5
REMARK VINA RESULT:    -3.401      1.599      2.422
REMARK INTER + INTRA:          -6.000
REMARK INTER:                  -5.265
REMARK INTRA:                  -0.735
REMARK UNBOUND:                -0.611
REMARK SMILES CCCCCCCCCCCC(=O)[O-]
REMARK SMILES IDX 7 1 8 2 9 3 10 4 11 5 12 6 13 7 14 8 6 9 5 10 4 11 3 12 2 13
REMARK SMILES IDX 1 14
REMARK H PARENT
REMARK Flexibility Score: inf
ROOT
ATOM      1  C   UNL     1      52.153  47.190  41.713  1.00  0.00     0.000 C 
ENDROOT
BRANCH   1   2
ATOM      2  C   UNL     1      50.788  47.031  41.030  1.00  0.00     0.000 C 
BRANCH   2   3
ATOM      3  C   UNL     1      49.645  47.711  41.806  1.00  0.00     0.000 C 
BRANCH   3   4
ATOM      4  C   UNL     1      48.255  47.606  41.147  1.00  0.00     0.006 C 
BRANCH   4   5
ATOM      5  C   UNL     1      47.163  47.014  42.053  1.00  0.00     0.053 C 
BRANCH   5   6
ATOM      6  C   UNL     1      45.788  47.371  41.578  1.00  0.00     0.041 C 
ATOM      7  O   UNL     1      45.568  48.499  41.065  1.00  0.00    -0.550 OA
ATOM      8  O   UNL     1      44.759  46.444  41.673  1.00  0.00    -0.550 OA
ENDBRANCH   5   6
ENDBRANCH   4   5
ENDBRANCH   3   4
ENDBRANCH   2   3
ENDBRANCH   1   2
BRANCH   1   9
ATOM      9  C   UNL     1      53.019  45.941  41.508  1.00  0.00     0.000 C 
BRANCH   9  10
ATOM     10  C   UNL     1      53.072  45.092  42.787  1.00  0.00    -0.000 C 
BRANCH  10  11
ATOM     11  C   UNL     1      52.967  45.938  44.066  1.00  0.00    -0.000 C 
BRANCH  11  12
ATOM     12  C   UNL     1      51.736  45.581  44.912  1.00  0.00    -0.000 C 
BRANCH  12  13
ATOM     13  C   UNL     1      50.954  46.842  45.301  1.00  0.00    -0.003 C 
ATOM     14  C   UNL     1      51.345  47.325  46.695  1.00  0.00     0.004 C 
ENDBRANCH  12  13
ENDBRANCH  11  12
ENDBRANCH  10  11
ENDBRANCH   9  10
ENDBRANCH   1   9
TORSDOF 10
ENDMDL
MODEL 6
REMARK VINA RESULT:    -3.329      1.266      2.181
REMARK INTER + INTRA:          -5.885
REMARK INTER:                  -5.333
REMARK INTRA:                  -0.552
REMARK UNBOUND:                -0.611
REMARK SMILES CCCCCCCCCCCC(=O)[O-]
REMARK SMILES IDX 7 1 8 2 9 3 10 4 11 5 12 6 13 7 14 8 6 9 5 10 4 11 3 12 2 13
REMARK SMILES IDX 1 14
REMARK H PARENT
REMARK Flexibility Score: inf
ROOT
ATOM      1  C   UNL     1      47.549  47.146  41.032  1.00  0.00     0.000 C 
ENDROOT
BRANCH   1   2
ATOM      2  C   UNL     1      46.391  46.436  41.748  1.00  0.00     0.000 C 
BRANCH   2   3
ATOM      3  C   UNL     1      45.085  46.448  40.933  1.00  0.00     0.000 C 
BRANCH   3   4
ATOM      4  C   UNL     1      43.868  47.055  41.659  1.00  0.00     0.006 C 
BRANCH   4   5
ATOM      5  C   UNL     1      43.334  48.354  41.033  1.00  0.00     0.053 C 
BRANCH   5   6
ATOM      6  C   UNL     1      43.985  49.567  41.620  1.00  0.00     0.041 C 
ATOM      7  O   UNL     1      44.586  50.387  40.877  1.00  0.00    -0.550 OA
ATOM      8  O   UNL     1      43.902  49.808  42.985  1.00  0.00    -0.550 OA
ENDBRANCH   5   6
ENDBRANCH   4   5
ENDBRANCH   3   4
ENDBRANCH   2   3
ENDBRANCH   1   2
BRANCH   1   9
ATOM      9  C   UNL     1      48.883  46.872  41.739  1.00  0.00     0.000 C 
BRANCH   9  10
ATOM     10  C   UNL     1      48.758  47.090  43.254  1.00  0.00    -0.000 C 
BRANCH  10  11
ATOM     11  C   UNL     1      49.393  45.953  44.071  1.00  0.00    -0.000 C 
BRANCH  11  12
ATOM     12  C   UNL     1      49.856  46.411  45.461  1.00  0.00    -0.000 C 
BRANCH  12  13
ATOM     13  C   UNL     1      51.326  46.848  45.432  1.00  0.00    -0.003 C 
ATOM     14  C   UNL     1      52.131  46.012  44.441  1.00  0.00     0.004 C 
ENDBRANCH  12  13
ENDBRANCH  11  12
ENDBRANCH  10  11
ENDBRANCH   9  10
ENDBRANCH   1   9
TORSDOF 10
ENDMDL
MODEL 7
REMARK VINA RESULT:    -3.323     20.794     22.627
REMARK INTER + INTRA:          -5.877
REMARK INTER:                  -5.375
REMARK INTRA:                  -0.502
REMARK UNBOUND:                -0.611
REMARK SMILES CCCCCCCCCCCC(=O)[O-]
REMARK SMILES IDX 7 1 8 2 9 3 10 4 11 5 12 6 13 7 14 8 6 9 5 10 4 11 3 12 2 13
REMARK SMILES IDX 1 14
REMARK H PARENT
REMARK Flexibility Score: inf
ROOT
ATOM      1  C   UNL     1      46.819  63.554  59.328  1.00  0.00     0.000 C 
ENDROOT
BRANCH   1   2
ATOM      2  C   UNL     1      45.540  64.294  59.743  1.00  0.00     0.000 C 
BRANCH   2   3
ATOM      3  C   UNL     1      44.668  64.706  58.543  1.00  0.00     0.000 C 
BRANCH   3   4
ATOM      4  C   UNL     1      44.957  63.945  57.233  1.00  0.00     0.006 C 
BRANCH   4   5
ATOM      5  C   UNL     1      43.777  63.896  56.250  1.00  0.00     0.053 C 
BRANCH   5   6
ATOM      6  C   UNL     1      44.152  63.239  54.958  1.00  0.00     0.041 C 
ATOM      7  O   UNL     1      44.671  62.092  54.957  1.00  0.00    -0.550 OA
ATOM      8  O   UNL     1      43.900  63.882  53.753  1.00  0.00    -0.550 OA
ENDBRANCH   5   6
ENDBRANCH   4   5
ENDBRANCH   3   4
ENDBRANCH   2   3
ENDBRANCH   1   2
BRANCH   1   9
ATOM      9  C   UNL     1      47.272  62.581  60.423  1.00  0.00     0.000 C 
BRANCH   9  10
ATOM     10  C   UNL     1      48.648  62.977  60.977  1.00  0.00    -0.000 C 
BRANCH  10  11
ATOM     11  C   UNL     1      49.034  64.424  60.628  1.00  0.00    -0.000 C 
BRANCH  11  12
ATOM     12  C   UNL     1      50.554  64.628  60.549  1.00  0.00    -0.000 C 
BRANCH  12  13
ATOM     13  C   UNL     1      51.169  63.745  59.456  1.00  0.00    -0.003 C 
ATOM     14  C   UNL     1      52.051  64.563  58.516  1.00  0.00     0.004 C 
ENDBRANCH  12  13
ENDBRANCH  11  12
ENDBRANCH  10  11
ENDBRANCH   9  10
ENDBRANCH   1   9
TORSDOF 10
ENDMDL
MODEL 8
REMARK VINA RESULT:    -3.238      1.224      2.241
REMARK INTER + INTRA:          -5.742
REMARK INTER:                  -5.109
REMARK INTRA:                  -0.633
REMARK UNBOUND:                -0.611
REMARK SMILES CCCCCCCCCCCC(=O)[O-]
REMARK SMILES IDX 7 1 8 2 9 3 10 4 11 5 12 6 13 7 14 8 6 9 5 10 4 11 3 12 2 13
REMARK SMILES IDX 1 14
REMARK H PARENT
REMARK Flexibility Score: inf
ROOT
ATOM      1  C   UNL     1      49.444  47.200  42.613  1.00  0.00     0.000 C 
ENDROOT
BRANCH   1   2
ATOM      2  C   UNL     1      48.392  47.070  41.503  1.00  0.00     0.000 C 
BRANCH   2   3
ATOM      3  C   UNL     1      46.949  47.082  42.039  1.00  0.00     0.000 C 
BRANCH   3   4
ATOM      4  C   UNL     1      45.851  47.145  40.957  1.00  0.00     0.006 C 
BRANCH   4   5
ATOM      5  C   UNL     1      44.780  48.220  41.197  1.00  0.00     0.053 C 
BRANCH   5   6
ATOM      6  C   UNL     1      43.502  47.632  41.710  1.00  0.00     0.041 C 
ATOM      7  O   UNL     1      43.420  46.397  41.942  1.00  0.00    -0.550 OA
ATOM      8  O   UNL     1      42.410  48.453  41.960  1.00  0.00    -0.550 OA
ENDBRANCH   5   6
ENDBRANCH   4   5
ENDBRANCH   3   4
ENDBRANCH   2   3
ENDBRANCH   1   2
BRANCH   1   9
ATOM      9  C   UNL     1      48.951  46.560  43.916  1.00  0.00     0.000 C 
BRANCH   9  10
ATOM     10  C   UNL     1      50.074  46.503  44.962  1.00  0.00    -0.000 C 
BRANCH  10  11
ATOM     11  C   UNL     1      51.466  46.728  44.349  1.00  0.00    -0.000 C 
BRANCH  11  12
ATOM     12  C   UNL     1      52.389  45.511  44.513  1.00  0.00    -0.000 C 
BRANCH  12  13
ATOM     13  C   UNL     1      53.495  45.516  43.451  1.00  0.00    -0.003 C 
ATOM     14  C   UNL     1      53.126  46.414  42.274  1.00  0.00     0.004 C 
ENDBRANCH  12  13
ENDBRANCH  11  12
ENDBRANCH  10  11
ENDBRANCH   9  10
ENDBRANCH   1   9
TORSDOF 10
ENDMDL
MODEL 9
REMARK VINA RESULT:    -3.087     20.984     22.428
REMARK INTER + INTRA:          -5.503
REMARK INTER:                  -5.119
REMARK INTRA:                  -0.384
REMARK UNBOUND:                -0.611
REMARK SMILES CCCCCCCCCCCC(=O)[O-]
REMARK SMILES IDX 7 1 8 2 9 3 10 4 11 5 12 6 13 7 14 8 6 9 5 10 4 11 3 12 2 13
REMARK SMILES IDX 1 14
REMARK H PARENT
REMARK Flexibility Score: inf
ROOT
ATOM      1  C   UNL     1      45.822  63.625  57.995  1.00  0.00     0.000 C 
ENDROOT
BRANCH   1   2
ATOM      2  C   UNL     1      44.668  64.416  57.363  1.00  0.00     0.000 C 
BRANCH   2   3
ATOM      3  C   UNL     1      44.933  64.795  55.895  1.00  0.00     0.000 C 
BRANCH   3   4
ATOM      4  C   UNL     1      44.259  63.880  54.852  1.00  0.00     0.006 C 
BRANCH   4   5
ATOM      5  C   UNL     1      43.561  64.627  53.704  1.00  0.00     0.053 C 
BRANCH   5   6
ATOM      6  C   UNL     1      42.091  64.775  53.946  1.00  0.00     0.041 C 
ATOM      7  O   UNL     1      41.292  64.851  52.976  1.00  0.00    -0.550 OA
ATOM      8  O   UNL     1      41.600  64.798  55.245  1.00  0.00    -0.550 OA
ENDBRANCH   5   6
ENDBRANCH   4   5
ENDBRANCH   3   4
ENDBRANCH   2   3
ENDBRANCH   1   2
BRANCH   1   9
ATOM      9  C   UNL     1      46.007  64.004  59.469  1.00  0.00     0.000 C 
BRANCH   9  10
ATOM     10  C   UNL     1      47.210  63.271  60.080  1.00  0.00    -0.000 C 
BRANCH  10  11
ATOM     11  C   UNL     1      48.292  64.233  60.596  1.00  0.00    -0.000 C 
BRANCH  11  12
ATOM     12  C   UNL     1      49.000  64.990  59.463  1.00  0.00    -0.000 C 
BRANCH  12  13
ATOM     13  C   UNL     1      50.509  65.080  59.723  1.00  0.00    -0.003 C 
ATOM     14  C   UNL     1      51.205  63.760  59.400  1.00  0.00     0.004 C 
ENDBRANCH  12  13
ENDBRANCH  11  12
ENDBRANCH  10  11
ENDBRANCH   9  10
ENDBRANCH   1   9
TORSDOF 10
ENDMDL
