MODEL 1
REMARK VINA RESULT:    -3.489      0.000      0.000
REMARK INTER + INTRA:          -5.862
REMARK INTER:                  -5.529
REMARK INTRA:                  -0.333
REMARK UNBOUND:                -0.333
REMARK SMILES CCCCCCCCCCCC(=O)[O-]
REMARK SMILES IDX 7 1 8 2 9 3 10 4 11 5 12 6 13 7 14 8 6 9 5 10 4 11 3 12 2 13
REMARK SMILES IDX 1 14
REMARK H PARENT
REMARK Flexibility Score: inf
ROOT
ATOM      1  C   UNL     1       9.094  -5.441   4.175  1.00  0.00     0.000 C 
ENDROOT
BRANCH   1   2
ATOM      2  C   UNL     1       7.844  -5.320   3.289  1.00  0.00     0.000 C 
BRANCH   2   3
ATOM      3  C   UNL     1       6.644  -6.094   3.854  1.00  0.00     0.000 C 
BRANCH   3   4
ATOM      4  C   UNL     1       7.000  -6.762   5.188  1.00  0.00     0.006 C 
BRANCH   4   5
ATOM      5  C   UNL     1       5.763  -6.907   6.079  1.00  0.00     0.053 C 
BRANCH   5   6
ATOM      6  C   UNL     1       5.527  -8.345   6.418  1.00  0.00     0.041 C 
ATOM      7  O   UNL     1       6.013  -9.255   5.697  1.00  0.00    -0.550 OA
ATOM      8  O   UNL     1       4.729  -8.681   7.504  1.00  0.00    -0.550 OA
ENDBRANCH   5   6
ENDBRANCH   4   5
ENDBRANCH   3   4
ENDBRANCH   2   3
ENDBRANCH   1   2
BRANCH   1   9
ATOM      9  C   UNL     1      10.401  -5.319   3.372  1.00  0.00     0.000 C 
BRANCH   9  10
ATOM     10  C   UNL     1      11.600  -5.970   4.085  1.00  0.00    -0.000 C 
BRANCH  10  11
ATOM     11  C   UNL     1      12.982  -5.468   3.621  1.00  0.00    -0.000 C 
BRANCH  11  12
ATOM     12  C   UNL     1      14.014  -5.252   4.746  1.00  0.00    -0.000 C 
BRANCH  12  13
ATOM     13  C   UNL     1      15.461  -5.620   4.375  1.00  0.00    -0.003 C 
ATOM     14  C   UNL     1      16.406  -5.599   5.576  1.00  0.00     0.004 C 
ENDBRANCH  12  13
ENDBRANCH  11  12
ENDBRANCH  10  11
ENDBRANCH   9  10
ENDBRANCH   1   9
TORSDOF 10
ENDMDL
MODEL 2
REMARK VINA RESULT:    -3.454      4.491      8.382
REMARK INTER + INTRA:          -5.807
REMARK INTER:                  -5.534
REMARK INTRA:                  -0.272
REMARK UNBOUND:                -0.333
REMARK SMILES CCCCCCCCCCCC(=O)[O-]
REMARK SMILES IDX 7 1 8 2 9 3 10 4 11 5 12 6 13 7 14 8 6 9 5 10 4 11 3 12 2 13
REMARK SMILES IDX 1 14
REMARK H PARENT
REMARK Flexibility Score: inf
ROOT
ATOM      1  C   UNL     1      10.090  -5.752   4.192  1.00  0.00     0.000 C 
ENDROOT
BRANCH   1   2
ATOM      2  C   UNL     1      11.510  -5.755   3.604  1.00  0.00     0.000 C 
BRANCH   2   3
ATOM      3  C   UNL     1      12.573  -6.163   4.635  1.00  0.00     0.000 C 
BRANCH   3   4
ATOM      4  C   UNL     1      13.822  -5.281   4.514  1.00  0.00     0.006 C 
BRANCH   4   5
ATOM      5  C   UNL     1      15.011  -6.081   3.974  1.00  0.00     0.053 C 
BRANCH   5   6
ATOM      6  C   UNL     1      16.292  -5.571   4.552  1.00  0.00     0.041 C 
ATOM      7  O   UNL     1      16.525  -5.693   5.783  1.00  0.00    -0.550 OA
ATOM      8  O   UNL     1      17.209  -4.916   3.740  1.00  0.00    -0.550 OA
ENDBRANCH   5   6
ENDBRANCH   4   5
ENDBRANCH   3   4
ENDBRANCH   2   3
ENDBRANCH   1   2
BRANCH   1   9
ATOM      9  C   UNL     1       9.056  -5.130   3.236  1.00  0.00     0.000 C 
BRANCH   9  10
ATOM     10  C   UNL     1       7.636  -5.678   3.459  1.00  0.00    -0.000 C 
BRANCH  10  11
ATOM     11  C   UNL     1       7.444  -6.471   4.768  1.00  0.00    -0.000 C 
BRANCH  11  12
ATOM     12  C   UNL     1       6.016  -6.999   5.013  1.00  0.00    -0.000 C 
BRANCH  12  13
ATOM     13  C   UNL     1       5.590  -7.048   6.490  1.00  0.00    -0.003 C 
ATOM     14  C   UNL     1       5.145  -8.441   6.935  1.00  0.00     0.004 C 
ENDBRANCH  12  13
ENDBRANCH  11  12
ENDBRANCH  10  11
ENDBRANCH   9  10
ENDBRANCH   1   9
TORSDOF 10
ENDMDL
MODEL 3
REMARK VINA RESULT:    -3.451      4.520      8.338
REMARK INTER + INTRA:          -5.801
REMARK INTER:                  -5.456
REMARK INTRA:                  -0.345
REMARK UNBOUND:                -0.333
REMARK SMILES CCCCCCCCCCCC(=O)[O-]
REMARK SMILES IDX 7 1 8 2 9 3 10 4 11 5 12 6 13 7 14 8 6 9 5 10 4 11 3 12 2 13
REMARK SMILES IDX 1 14
REMARK H PARENT
REMARK Flexibility Score: inf
ROOT
ATOM      1  C   UNL     1      10.928  -5.836   3.793  1.00  0.00     0.000 C 
ENDROOT
BRANCH   1   2
ATOM      2  C   UNL     1      12.050  -6.348   4.711  1.00  0.00     0.000 C 
BRANCH   2   3
ATOM      3  C   UNL     1      13.322  -5.493   4.620  1.00  0.00     0.000 C 
BRANCH   3   4
ATOM      4  C   UNL     1      14.382  -6.177   3.749  1.00  0.00     0.006 C 
BRANCH   4   5
ATOM      5  C   UNL     1      15.738  -5.475   3.879  1.00  0.00     0.053 C 
BRANCH   5   6
ATOM      6  C   UNL     1      16.486  -5.997   5.064  1.00  0.00     0.041 C 
ATOM      7  O   UNL     1      16.566  -5.310   6.116  1.00  0.00    -0.550 OA
ATOM      8  O   UNL     1      17.139  -7.221   4.991  1.00  0.00    -0.550 OA
ENDBRANCH   5   6
ENDBRANCH   4   5
ENDBRANCH   3   4
ENDBRANCH   2   3
ENDBRANCH   1   2
BRANCH   1   9
ATOM      9  C   UNL     1       9.600  -5.627   4.541  1.00  0.00     0.000 C 
BRANCH   9  10
ATOM     10  C   UNL     1       8.431  -5.298   3.596  1.00  0.00    -0.000 C 
BRANCH  10  11
ATOM     11  C   UNL     1       7.185  -6.189   3.771  1.00  0.00    -0.000 C 
BRANCH  11  12
ATOM     12  C   UNL     1       7.092  -6.930   5.121  1.00  0.00    -0.000 C 
BRANCH  12  13
ATOM     13  C   UNL     1       5.843  -6.596   5.956  1.00  0.00    -0.003 C 
ATOM     14  C   UNL     1       5.313  -7.797   6.738  1.00  0.00     0.004 C 
ENDBRANCH  12  13
ENDBRANCH  11  12
ENDBRANCH  10  11
ENDBRANCH   9  10
ENDBRANCH   1   9
TORSDOF 10
ENDMDL
MODEL 4
REMARK VINA RESULT:    -3.381      5.150      7.675
REMARK INTER + INTRA:          -5.691
REMARK INTER:                  -4.427
REMARK INTRA:                  -1.264
REMARK UNBOUND:                -0.333
REMARK SMILES CCCCCCCCCCCC(=O)[O-]
REMARK SMILES IDX 7 1 8 2 9 3 10 4 11 5 12 6 13 7 14 8 6 9 5 10 4 11 3 12 2 13
REMARK SMILES IDX 1 14
REMARK H PARENT
REMARK Flexibility Score: inf
ROOT
ATOM      1  C   UNL     1       6.799  -7.049   5.204  1.00  0.00     0.000 C 
ENDROOT
BRANCH   1   2
ATOM      2  C   UNL     1       6.902  -7.209   3.679  1.00  0.00     0.000 C 
BRANCH   2   3
ATOM      3  C   UNL     1       5.726  -6.558   2.937  1.00  0.00     0.000 C 
BRANCH   3   4
ATOM      4  C   UNL     1       5.656  -5.054   3.232  1.00  0.00     0.006 C 
BRANCH   4   5
ATOM      5  C   UNL     1       4.242  -4.513   2.998  1.00  0.00     0.053 C 
BRANCH   5   6
ATOM      6  C   UNL     1       3.637  -4.054   4.286  1.00  0.00     0.041 C 
ATOM      7  O   UNL     1       4.071  -4.494   5.383  1.00  0.00    -0.550 OA
ATOM      8  O   UNL     1       2.559  -3.178   4.275  1.00  0.00    -0.550 OA
ENDBRANCH   5   6
ENDBRANCH   4   5
ENDBRANCH   3   4
ENDBRANCH   2   3
ENDBRANCH   1   2
BRANCH   1   9
ATOM      9  C   UNL     1       6.398  -8.356   5.910  1.00  0.00     0.000 C 
BRANCH   9  10
ATOM     10  C   UNL     1       5.104  -8.216   6.730  1.00  0.00    -0.000 C 
BRANCH  10  11
ATOM     11  C   UNL     1       3.911  -9.041   6.206  1.00  0.00    -0.000 C 
BRANCH  11  12
ATOM     12  C   UNL     1       3.981  -9.421   4.713  1.00  0.00    -0.000 C 
BRANCH  12  13
ATOM     13  C   UNL     1       2.715  -9.091   3.903  1.00  0.00    -0.003 C 
ATOM     14  C   UNL     1       2.349  -7.608   3.949  1.00  0.00     0.004 C 
ENDBRANCH  12  13
ENDBRANCH  11  12
ENDBRANCH  10  11
ENDBRANCH   9  10
ENDBRANCH   1   9
TORSDOF 10
ENDMDL
MODEL 5
REMARK VINA RESULT:    -3.352      3.778      7.439
REMARK INTER + INTRA:          -5.644
REMARK INTER:                  -5.162
REMARK INTRA:                  -0.482
REMARK UNBOUND:                -0.333
REMARK SMILES CCCCCCCCCCCC(=O)[O-]
REMARK SMILES IDX 7 1 8 2 9 3 10 4 11 5 12 6 13 7 14 8 6 9 5 10 4 11 3 12 2 13
REMARK SMILES IDX 1 14
REMARK H PARENT
REMARK Flexibility Score: inf
ROOT
ATOM      1  C   UNL     1       7.760  -6.376   3.521  1.00  0.00     0.000 C 
ENDROOT
BRANCH   1   2
ATOM      2  C   UNL     1       8.968  -5.687   4.177  1.00  0.00     0.000 C 
BRANCH   2   3
ATOM      3  C   UNL     1       9.825  -4.911   3.167  1.00  0.00     0.000 C 
BRANCH   3   4
ATOM      4  C   UNL     1      11.190  -5.582   2.975  1.00  0.00     0.006 C 
BRANCH   4   5
ATOM      5  C   UNL     1      11.749  -6.085   4.309  1.00  0.00     0.053 C 
BRANCH   5   6
ATOM      6  C   UNL     1      13.244  -6.055   4.295  1.00  0.00     0.041 C 
ATOM      7  O   UNL     1      13.887  -6.841   3.551  1.00  0.00    -0.550 OA
ATOM      8  O   UNL     1      13.930  -5.193   5.142  1.00  0.00    -0.550 OA
ENDBRANCH   5   6
ENDBRANCH   4   5
ENDBRANCH   3   4
ENDBRANCH   2   3
ENDBRANCH   1   2
BRANCH   1   9
ATOM      9  C   UNL     1       6.544  -5.441   3.393  1.00  0.00     0.000 C 
BRANCH   9  10
ATOM     10  C   UNL     1       5.209  -6.168   3.630  1.00  0.00    -0.000 C 
BRANCH  10  11
ATOM     11  C   UNL     1       4.664  -6.069   5.069  1.00  0.00    -0.000 C 
BRANCH  11  12
ATOM     12  C   UNL     1       5.635  -6.536   6.173  1.00  0.00    -0.000 C 
BRANCH  12  13
ATOM     13  C   UNL     1       5.814  -8.061   6.272  1.00  0.00    -0.003 C 
ATOM     14  C   UNL     1       4.865  -8.707   7.281  1.00  0.00     0.004 C 
ENDBRANCH  12  13
ENDBRANCH  11  12
ENDBRANCH  10  11
ENDBRANCH   9  10
ENDBRANCH   1   9
TORSDOF 10
ENDMDL
MODEL 6
REMARK VINA RESULT:    -3.283      2.011      3.684
REMARK INTER + INTRA:          -5.535
REMARK INTER:                  -4.747
REMARK INTRA:                  -0.788
REMARK UNBOUND:                -0.333
REMARK SMILES CCCCCCCCCCCC(=O)[O-]
REMARK SMILES IDX 7 1 8 2 9 3 10 4 11 5 12 6 13 7 14 8 6 9 5 10 4 11 3 12 2 13
REMARK SMILES IDX 1 14
REMARK H PARENT
REMARK Flexibility Score: inf
ROOT
ATOM      1  C   UNL     1      13.080  -5.775   4.623  1.00  0.00     0.000 C 
ENDROOT
BRANCH   1   2
ATOM      2  C   UNL     1      11.719  -6.196   4.046  1.00  0.00     0.000 C 
BRANCH   2   3
ATOM      3  C   UNL     1      11.229  -5.247   2.942  1.00  0.00     0.000 C 
BRANCH   3   4
ATOM      4  C   UNL     1       9.717  -5.014   3.050  1.00  0.00     0.006 C 
BRANCH   4   5
ATOM      5  C   UNL     1       9.151  -5.652   4.322  1.00  0.00     0.053 C 
BRANCH   5   6
ATOM      6  C   UNL     1       7.709  -6.003   4.136  1.00  0.00     0.041 C 
ATOM      7  O   UNL     1       7.104  -5.661   3.086  1.00  0.00    -0.550 OA
ATOM      8  O   UNL     1       7.019  -6.665   5.143  1.00  0.00    -0.550 OA
ENDBRANCH   5   6
ENDBRANCH   4   5
ENDBRANCH   3   4
ENDBRANCH   2   3
ENDBRANCH   1   2
BRANCH   1   9
ATOM      9  C   UNL     1      13.846  -4.818   3.693  1.00  0.00     0.000 C 
BRANCH   9  10
ATOM     10  C   UNL     1      14.938  -5.531   2.875  1.00  0.00    -0.000 C 
BRANCH  10  11
ATOM     11  C   UNL     1      16.354  -5.456   3.480  1.00  0.00    -0.000 C 
BRANCH  11  12
ATOM     12  C   UNL     1      16.835  -6.740   4.186  1.00  0.00    -0.000 C 
BRANCH  12  13
ATOM     13  C   UNL     1      16.943  -6.633   5.717  1.00  0.00    -0.003 C 
ATOM     14  C   UNL     1      16.503  -5.271   6.251  1.00  0.00     0.004 C 
ENDBRANCH  12  13
ENDBRANCH  11  12
ENDBRANCH  10  11
ENDBRANCH   9  10
ENDBRANCH   1   9
TORSDOF 10
ENDMDL
MODEL 7
REMARK VINA RESULT:    -3.168      1.225      2.167
REMARK INTER + INTRA:          -5.353
REMARK INTER:                  -4.796
REMARK INTRA:                  -0.557
REMARK UNBOUND:                -0.333
REMARK SMILES CCCCCCCCCCCC(=O)[O-]
REMARK SMILES IDX 7 1 8 2 9 3 10 4 11 5 12 6 13 7 14 8 6 9 5 10 4 11 3 12 2 13
REMARK SMILES IDX 1 14
REMARK H PARENT
REMARK Flexibility Score: inf
ROOT
ATOM      1  C   UNL     1      11.580  -6.353   3.419  1.00  0.00     0.000 C 
ENDROOT
BRANCH   1   2
ATOM      2  C   UNL     1      10.407  -5.371   3.279  1.00  0.00     0.000 C 
BRANCH   2   3
ATOM      3  C   UNL     1       9.313  -5.606   4.330  1.00  0.00     0.000 C 
BRANCH   3   4
ATOM      4  C   UNL     1       8.164  -6.440   3.750  1.00  0.00     0.006 C 
BRANCH   4   5
ATOM      5  C   UNL     1       6.812  -5.971   4.296  1.00  0.00     0.053 C 
BRANCH   5   6
ATOM      6  C   UNL     1       6.379  -6.835   5.438  1.00  0.00     0.041 C 
ATOM      7  O   UNL     1       6.675  -8.058   5.454  1.00  0.00    -0.550 OA
ATOM      8  O   UNL     1       5.606  -6.299   6.460  1.00  0.00    -0.550 OA
ENDBRANCH   5   6
ENDBRANCH   4   5
ENDBRANCH   3   4
ENDBRANCH   2   3
ENDBRANCH   1   2
BRANCH   1   9
ATOM      9  C   UNL     1      12.270  -6.259   4.791  1.00  0.00     0.000 C 
BRANCH   9  10
ATOM     10  C   UNL     1      13.532  -5.379   4.763  1.00  0.00    -0.000 C 
BRANCH  10  11
ATOM     11  C   UNL     1      14.166  -5.200   3.368  1.00  0.00    -0.000 C 
BRANCH  11  12
ATOM     12  C   UNL     1      15.707  -5.250   3.337  1.00  0.00    -0.000 C 
BRANCH  12  13
ATOM     13  C   UNL     1      16.366  -5.702   4.651  1.00  0.00    -0.003 C 
ATOM     14  C   UNL     1      17.040  -7.069   4.539  1.00  0.00     0.004 C 
ENDBRANCH  12  13
ENDBRANCH  11  12
ENDBRANCH  10  11
ENDBRANCH   9  10
ENDBRANCH   1   9
TORSDOF 10
ENDMDL
MODEL 8
REMARK VINA RESULT:    -2.937      2.986      4.582
REMARK INTER + INTRA:          -4.987
REMARK INTER:                  -4.252
REMARK INTRA:                  -0.735
REMARK UNBOUND:                -0.333
REMARK SMILES CCCCCCCCCCCC(=O)[O-]
REMARK SMILES IDX 7 1 8 2 9 3 10 4 11 5 12 6 13 7 14 8 6 9 5 10 4 11 3 12 2 13
REMARK SMILES IDX 1 14
REMARK H PARENT
REMARK Flexibility Score: inf
ROOT
ATOM      1  C   UNL     1       5.755  -7.398   5.461  1.00  0.00     0.000 C 
ENDROOT
BRANCH   1   2
ATOM      2  C   UNL     1       4.952  -7.680   4.181  1.00  0.00     0.000 C 
BRANCH   2   3
ATOM      3  C   UNL     1       3.456  -7.888   4.458  1.00  0.00     0.000 C 
BRANCH   3   4
ATOM      4  C   UNL     1       2.629  -6.716   3.916  1.00  0.00     0.006 C 
BRANCH   4   5
ATOM      5  C   UNL     1       3.534  -5.569   3.457  1.00  0.00     0.053 C 
BRANCH   5   6
ATOM      6  C   UNL     1       3.317  -4.357   4.307  1.00  0.00     0.041 C 
ATOM      7  O   UNL     1       2.547  -3.441   3.919  1.00  0.00    -0.550 OA
ATOM      8  O   UNL     1       4.005  -4.217   5.506  1.00  0.00    -0.550 OA
ENDBRANCH   5   6
ENDBRANCH   4   5
ENDBRANCH   3   4
ENDBRANCH   2   3
ENDBRANCH   1   2
BRANCH   1   9
ATOM      9  C   UNL     1       7.030  -6.580   5.190  1.00  0.00     0.000 C 
BRANCH   9  10
ATOM     10  C   UNL     1       7.154  -6.143   3.719  1.00  0.00    -0.000 C 
BRANCH  10  11
ATOM     11  C   UNL     1       8.531  -5.572   3.327  1.00  0.00    -0.000 C 
BRANCH  11  12
ATOM     12  C   UNL     1       9.612  -5.652   4.424  1.00  0.00    -0.000 C 
BRANCH  12  13
ATOM     13  C   UNL     1      11.058  -5.719   3.902  1.00  0.00    -0.003 C 
ATOM     14  C   UNL     1      12.014  -6.396   4.884  1.00  0.00     0.004 C 
ENDBRANCH  12  13
ENDBRANCH  11  12
ENDBRANCH  10  11
ENDBRANCH   9  10
ENDBRANCH   1   9
TORSDOF 10
ENDMDL
