MODEL 1
REMARK VINA RESULT:    -6.683      0.000      0.000
REMARK INTER + INTRA:          -8.138
REMARK INTER:                  -7.855
REMARK INTRA:                  -0.283
REMARK UNBOUND:                -0.283
REMARK SMILES O=c1cc(-c2ccc(O)c(O)c2)oc2cc(O)cc(O)c12
REMARK SMILES IDX 4 1 3 2 2 3 1 4 21 5 19 6 18 7 16 8 15 9 14 10 13 11 5 12
REMARK SMILES IDX 6 13 7 14 8 15 12 16 10 17 9 18 11 20 20 22 17 24
REMARK H PARENT 9 19 11 21 20 23 17 25
REMARK Flexibility Score: inf
ROOT
ATOM      1  C   UNL     1     103.055 134.133  53.895  1.00  0.00     0.138 A 
ATOM      2  C   UNL     1     103.558 135.257  53.223  1.00  0.00     0.100 A 
ATOM      3  C   UNL     1     104.928 135.361  52.981  1.00  0.00     0.197 A 
ATOM      4  O   UNL     1     105.341 136.350  52.321  1.00  0.00    -0.289 OA
ATOM      5  C   UNL     1     105.803 134.349  53.443  1.00  0.00     0.107 A 
ATOM      6  C   UNL     1     107.221 134.370  53.288  1.00  0.00     0.134 A 
ATOM      7  C   UNL     1     107.975 133.257  53.684  1.00  0.00     0.093 A 
ATOM      8  C   UNL     1     107.366 132.150  54.281  1.00  0.00     0.123 A 
ATOM      9  C   UNL     1     105.987 132.143  54.484  1.00  0.00     0.094 A 
ATOM     10  C   UNL     1     105.205 133.223  54.070  1.00  0.00     0.146 A 
ATOM     11  O   UNL     1     103.892 133.171  54.269  1.00  0.00    -0.456 OA
ENDROOT
BRANCH   1  12
ATOM     12  C   UNL     1     101.607 133.972  54.179  1.00  0.00     0.021 A 
ATOM     13  C   UNL     1     100.987 132.708  54.163  1.00  0.00     0.016 A 
ATOM     14  C   UNL     1      99.619 132.586  54.423  1.00  0.00     0.051 A 
ATOM     15  C   UNL     1      98.848 133.723  54.695  1.00  0.00     0.157 A 
ATOM     16  C   UNL     1     100.822 135.109  54.440  1.00  0.00     0.062 A 
ATOM     17  C   UNL     1      99.449 134.986  54.702  1.00  0.00     0.158 A 
BRANCH  15  18
ATOM     18  O   UNL     1      97.484 133.605  54.957  1.00  0.00    -0.504 OA
ATOM     19  H   UNL     1      96.801 133.582  54.208  1.00  0.00     0.293 HD
ENDBRANCH  15  18
BRANCH  17  20
ATOM     20  O   UNL     1      98.679 136.116  54.970  1.00  0.00    -0.504 OA
ATOM     21  H   UNL     1      99.068 136.924  55.440  1.00  0.00     0.293 HD
ENDBRANCH  17  20
ENDBRANCH   1  12
BRANCH   6  22
ATOM     22  O   UNL     1     107.937 135.459  52.783  1.00  0.00    -0.507 OA
ATOM     23  H   UNL     1     108.404 135.477  51.889  1.00  0.00     0.293 HD
ENDBRANCH   6  22
BRANCH   8  24
ATOM     24  O   UNL     1     108.125 131.053  54.683  1.00  0.00    -0.508 OA
ATOM     25  H   UNL     1     108.820 130.636  54.075  1.00  0.00     0.293 HD
ENDBRANCH   8  24
TORSDOF 5
ENDMDL
MODEL 2
REMARK VINA RESULT:    -6.677      2.773      6.782
REMARK INTER + INTRA:          -8.131
REMARK INTER:                  -7.868
REMARK INTRA:                  -0.263
REMARK UNBOUND:                -0.283
REMARK SMILES O=c1cc(-c2ccc(O)c(O)c2)oc2cc(O)cc(O)c12
REMARK SMILES IDX 4 1 3 2 2 3 1 4 21 5 19 6 18 7 16 8 15 9 14 10 13 11 5 12
REMARK SMILES IDX 6 13 7 14 8 15 12 16 10 17 9 18 11 20 20 22 17 24
REMARK H PARENT 9 19 11 21 20 23 17 25
REMARK Flexibility Score: inf
ROOT
ATOM      1  C   UNL     1     103.303 135.333  52.752  1.00  0.00     0.138 A 
ATOM      2  C   UNL     1     102.928 136.110  51.647  1.00  0.00     0.100 A 
ATOM      3  C   UNL     1     101.782 135.775  50.925  1.00  0.00     0.197 A 
ATOM      4  O   UNL     1     101.437 136.528  49.976  1.00  0.00    -0.289 OA
ATOM      5  C   UNL     1     101.026 134.637  51.293  1.00  0.00     0.107 A 
ATOM      6  C   UNL     1      99.863 134.178  50.605  1.00  0.00     0.134 A 
ATOM      7  C   UNL     1      99.130 133.106  51.129  1.00  0.00     0.093 A 
ATOM      8  C   UNL     1      99.551 132.441  52.285  1.00  0.00     0.123 A 
ATOM      9  C   UNL     1     100.714 132.850  52.933  1.00  0.00     0.094 A 
ATOM     10  C   UNL     1     101.448 133.936  52.453  1.00  0.00     0.146 A 
ATOM     11  O   UNL     1     102.544 134.302  53.110  1.00  0.00    -0.456 OA
ENDROOT
BRANCH   1  12
ATOM     12  C   UNL     1     104.512 135.644  53.555  1.00  0.00     0.021 A 
ATOM     13  C   UNL     1     104.464 136.524  54.653  1.00  0.00     0.016 A 
ATOM     14  C   UNL     1     105.620 136.808  55.386  1.00  0.00     0.051 A 
ATOM     15  C   UNL     1     106.843 136.225  55.029  1.00  0.00     0.157 A 
ATOM     16  C   UNL     1     105.747 135.074  53.197  1.00  0.00     0.062 A 
ATOM     17  C   UNL     1     106.907 135.359  53.932  1.00  0.00     0.158 A 
BRANCH  15  18
ATOM     18  O   UNL     1     107.998 136.505  55.758  1.00  0.00    -0.504 OA
ATOM     19  H   UNL     1     108.875 136.722  55.299  1.00  0.00     0.293 HD
ENDBRANCH  15  18
BRANCH  17  20
ATOM     20  O   UNL     1     108.125 134.783  53.578  1.00  0.00    -0.504 OA
ATOM     21  H   UNL     1     108.939 135.349  53.369  1.00  0.00     0.293 HD
ENDBRANCH  17  20
ENDBRANCH   1  12
BRANCH   6  22
ATOM     22  O   UNL     1      99.405 134.715  49.398  1.00  0.00    -0.507 OA
ATOM     23  H   UNL     1      99.980 134.889  48.589  1.00  0.00     0.293 HD
ENDBRANCH   6  22
BRANCH   8  24
ATOM     24  O   UNL     1      98.822 131.367  52.791  1.00  0.00    -0.508 OA
ATOM     25  H   UNL     1      98.316 130.735  52.182  1.00  0.00     0.293 HD
ENDBRANCH   8  24
TORSDOF 5
ENDMDL
MODEL 3
REMARK VINA RESULT:    -6.565      2.679      3.063
REMARK INTER + INTRA:          -8.000
REMARK INTER:                  -7.687
REMARK INTRA:                  -0.313
REMARK UNBOUND:                -0.283
REMARK SMILES O=c1cc(-c2ccc(O)c(O)c2)oc2cc(O)cc(O)c12
REMARK SMILES IDX 4 1 3 2 2 3 1 4 21 5 19 6 18 7 16 8 15 9 14 10 13 11 5 12
REMARK SMILES IDX 6 13 7 14 8 15 12 16 10 17 9 18 11 20 20 22 17 24
REMARK H PARENT 9 19 11 21 20 23 17 25
REMARK Flexibility Score: inf
ROOT
ATOM      1  C   UNL     1     103.338 134.560  52.032  1.00  0.00     0.138 A 
ATOM      2  C   UNL     1     104.274 135.598  51.911  1.00  0.00     0.100 A 
ATOM      3  C   UNL     1     105.465 135.541  52.636  1.00  0.00     0.197 A 
ATOM      4  O   UNL     1     106.312 136.455  52.458  1.00  0.00    -0.289 OA
ATOM      5  C   UNL     1     105.705 134.454  53.510  1.00  0.00     0.107 A 
ATOM      6  C   UNL     1     106.866 134.312  54.328  1.00  0.00     0.134 A 
ATOM      7  C   UNL     1     107.049 133.137  55.068  1.00  0.00     0.093 A 
ATOM      8  C   UNL     1     106.085 132.125  55.064  1.00  0.00     0.123 A 
ATOM      9  C   UNL     1     104.923 132.279  54.309  1.00  0.00     0.094 A 
ATOM     10  C   UNL     1     104.728 133.424  53.535  1.00  0.00     0.146 A 
ATOM     11  O   UNL     1     103.613 133.524  52.819  1.00  0.00    -0.456 OA
ENDROOT
BRANCH   1  12
ATOM     12  C   UNL     1     102.055 134.570  51.285  1.00  0.00     0.021 A 
ATOM     13  C   UNL     1     101.854 135.408  50.172  1.00  0.00     0.016 A 
ATOM     14  C   UNL     1     100.632 135.406  49.494  1.00  0.00     0.051 A 
ATOM     15  C   UNL     1      99.590 134.573  49.920  1.00  0.00     0.157 A 
ATOM     16  C   UNL     1     100.998 133.747  51.714  1.00  0.00     0.062 A 
ATOM     17  C   UNL     1      99.772 133.745  51.032  1.00  0.00     0.158 A 
BRANCH  15  18
ATOM     18  O   UNL     1      98.370 134.567  49.245  1.00  0.00    -0.504 OA
ATOM     19  H   UNL     1      97.776 133.745  49.231  1.00  0.00     0.293 HD
ENDBRANCH  15  18
BRANCH  17  20
ATOM     20  O   UNL     1      98.732 132.919  51.456  1.00  0.00    -0.504 OA
ATOM     21  H   UNL     1      98.787 131.911  51.372  1.00  0.00     0.293 HD
ENDBRANCH  17  20
ENDBRANCH   1  12
BRANCH   6  22
ATOM     22  O   UNL     1     107.848 135.298  54.471  1.00  0.00    -0.507 OA
ATOM     23  H   UNL     1     108.840 135.137  54.399  1.00  0.00     0.293 HD
ENDBRANCH   6  22
BRANCH   8  24
ATOM     24  O   UNL     1     106.269 130.966  55.814  1.00  0.00    -0.508 OA
ATOM     25  H   UNL     1     106.864 130.953  56.633  1.00  0.00     0.293 HD
ENDBRANCH   8  24
TORSDOF 5
ENDMDL
MODEL 4
REMARK VINA RESULT:    -6.527      2.796      3.762
REMARK INTER + INTRA:          -7.955
REMARK INTER:                  -7.642
REMARK INTRA:                  -0.313
REMARK UNBOUND:                -0.283
REMARK SMILES O=c1cc(-c2ccc(O)c(O)c2)oc2cc(O)cc(O)c12
REMARK SMILES IDX 4 1 3 2 2 3 1 4 21 5 19 6 18 7 16 8 15 9 14 10 13 11 5 12
REMARK SMILES IDX 6 13 7 14 8 15 12 16 10 17 9 18 11 20 20 22 17 24
REMARK H PARENT 9 19 11 21 20 23 17 25
REMARK Flexibility Score: inf
ROOT
ATOM      1  C   UNL     1     102.963 133.229  52.510  1.00  0.00     0.138 A 
ATOM      2  C   UNL     1     103.107 132.012  53.193  1.00  0.00     0.100 A 
ATOM      3  C   UNL     1     104.274 131.759  53.914  1.00  0.00     0.197 A 
ATOM      4  O   UNL     1     104.347 130.685  54.566  1.00  0.00    -0.289 OA
ATOM      5  C   UNL     1     105.316 132.717  53.925  1.00  0.00     0.107 A 
ATOM      6  C   UNL     1     106.566 132.549  54.592  1.00  0.00     0.134 A 
ATOM      7  C   UNL     1     107.476 133.613  54.630  1.00  0.00     0.093 A 
ATOM      8  C   UNL     1     107.205 134.817  53.975  1.00  0.00     0.123 A 
ATOM      9  C   UNL     1     106.009 134.971  53.276  1.00  0.00     0.094 A 
ATOM     10  C   UNL     1     105.068 133.941  53.248  1.00  0.00     0.146 A 
ATOM     11  O   UNL     1     103.934 134.134  52.582  1.00  0.00    -0.456 OA
ENDROOT
BRANCH   1  12
ATOM     12  C   UNL     1     101.743 133.550  51.728  1.00  0.00     0.021 A 
ATOM     13  C   UNL     1     100.545 132.830  51.898  1.00  0.00     0.016 A 
ATOM     14  C   UNL     1      99.414 133.146  51.140  1.00  0.00     0.051 A 
ATOM     15  C   UNL     1      99.463 134.180  50.196  1.00  0.00     0.157 A 
ATOM     16  C   UNL     1     101.786 134.577  50.768  1.00  0.00     0.062 A 
ATOM     17  C   UNL     1     100.650 134.895  50.009  1.00  0.00     0.158 A 
BRANCH  15  18
ATOM     18  O   UNL     1      98.336 134.498  49.439  1.00  0.00    -0.504 OA
ATOM     19  H   UNL     1      98.410 134.754  48.461  1.00  0.00     0.293 HD
ENDBRANCH  15  18
BRANCH  17  20
ATOM     20  O   UNL     1     100.696 135.921  49.067  1.00  0.00    -0.504 OA
ATOM     21  H   UNL     1     101.576 136.310  48.748  1.00  0.00     0.293 HD
ENDBRANCH  17  20
ENDBRANCH   1  12
BRANCH   6  22
ATOM     22  O   UNL     1     106.972 131.359  55.204  1.00  0.00    -0.507 OA
ATOM     23  H   UNL     1     107.761 131.271  55.826  1.00  0.00     0.293 HD
ENDBRANCH   6  22
BRANCH   8  24
ATOM     24  O   UNL     1     108.122 135.865  54.007  1.00  0.00    -0.508 OA
ATOM     25  H   UNL     1     108.221 136.507  53.229  1.00  0.00     0.293 HD
ENDBRANCH   8  24
TORSDOF 5
ENDMDL
MODEL 5
REMARK VINA RESULT:    -6.486      2.743      6.492
REMARK INTER + INTRA:          -7.907
REMARK INTER:                  -7.590
REMARK INTRA:                  -0.317
REMARK UNBOUND:                -0.283
REMARK SMILES O=c1cc(-c2ccc(O)c(O)c2)oc2cc(O)cc(O)c12
REMARK SMILES IDX 4 1 3 2 2 3 1 4 21 5 19 6 18 7 16 8 15 9 14 10 13 11 5 12
REMARK SMILES IDX 6 13 7 14 8 15 12 16 10 17 9 18 11 20 20 22 17 24
REMARK H PARENT 9 19 11 21 20 23 17 25
REMARK Flexibility Score: inf
ROOT
ATOM      1  C   UNL     1     104.097 133.816  52.605  1.00  0.00     0.138 A 
ATOM      2  C   UNL     1     104.508 134.992  51.960  1.00  0.00     0.100 A 
ATOM      3  C   UNL     1     103.626 135.655  51.106  1.00  0.00     0.197 A 
ATOM      4  O   UNL     1     104.001 136.740  50.591  1.00  0.00    -0.289 OA
ATOM      5  C   UNL     1     102.337 135.118  50.871  1.00  0.00     0.107 A 
ATOM      6  C   UNL     1     101.370 135.686  49.989  1.00  0.00     0.134 A 
ATOM      7  C   UNL     1     100.086 135.132  49.924  1.00  0.00     0.093 A 
ATOM      8  C   UNL     1      99.753 133.995  50.667  1.00  0.00     0.123 A 
ATOM      9  C   UNL     1     100.708 133.403  51.491  1.00  0.00     0.094 A 
ATOM     10  C   UNL     1     101.987 133.952  51.601  1.00  0.00     0.146 A 
ATOM     11  O   UNL     1     102.863 133.364  52.410  1.00  0.00    -0.456 OA
ENDROOT
BRANCH   1  12
ATOM     12  C   UNL     1     104.995 133.072  53.523  1.00  0.00     0.021 A 
ATOM     13  C   UNL     1     106.360 133.393  53.645  1.00  0.00     0.016 A 
ATOM     14  C   UNL     1     107.185 132.668  54.510  1.00  0.00     0.051 A 
ATOM     15  C   UNL     1     106.662 131.607  55.260  1.00  0.00     0.157 A 
ATOM     16  C   UNL     1     104.482 131.996  54.271  1.00  0.00     0.062 A 
ATOM     17  C   UNL     1     105.311 131.269  55.139  1.00  0.00     0.158 A 
BRANCH  15  18
ATOM     18  O   UNL     1     107.482 130.883  56.125  1.00  0.00    -0.504 OA
ATOM     19  H   UNL     1     107.388 130.958  57.131  1.00  0.00     0.293 HD
ENDBRANCH  15  18
BRANCH  17  20
ATOM     20  O   UNL     1     104.794 130.211  55.884  1.00  0.00    -0.504 OA
ATOM     21  H   UNL     1     105.398 129.527  56.325  1.00  0.00     0.293 HD
ENDBRANCH  17  20
ENDBRANCH   1  12
BRANCH   6  22
ATOM     22  O   UNL     1     101.625 136.768  49.141  1.00  0.00    -0.507 OA
ATOM     23  H   UNL     1     102.447 136.869  48.566  1.00  0.00     0.293 HD
ENDBRANCH   6  22
BRANCH   8  24
ATOM     24  O   UNL     1      98.477 133.443  50.586  1.00  0.00    -0.508 OA
ATOM     25  H   UNL     1      98.300 132.477  50.837  1.00  0.00     0.293 HD
ENDBRANCH   8  24
TORSDOF 5
ENDMDL
MODEL 6
REMARK VINA RESULT:    -6.430      3.082      6.831
REMARK INTER + INTRA:          -7.841
REMARK INTER:                  -7.546
REMARK INTRA:                  -0.295
REMARK UNBOUND:                -0.283
REMARK SMILES O=c1cc(-c2ccc(O)c(O)c2)oc2cc(O)cc(O)c12
REMARK SMILES IDX 4 1 3 2 2 3 1 4 21 5 19 6 18 7 16 8 15 9 14 10 13 11 5 12
REMARK SMILES IDX 6 13 7 14 8 15 12 16 10 17 9 18 11 20 20 22 17 24
REMARK H PARENT 9 19 11 21 20 23 17 25
REMARK Flexibility Score: inf
ROOT
ATOM      1  C   UNL     1     103.207 133.004  52.704  1.00  0.00     0.138 A 
ATOM      2  C   UNL     1     101.983 132.325  52.614  1.00  0.00     0.100 A 
ATOM      3  C   UNL     1     100.989 132.806  51.762  1.00  0.00     0.197 A 
ATOM      4  O   UNL     1      99.925 132.141  51.655  1.00  0.00    -0.289 OA
ATOM      5  C   UNL     1     101.210 133.991  51.020  1.00  0.00     0.107 A 
ATOM      6  C   UNL     1     100.253 134.595  50.151  1.00  0.00     0.134 A 
ATOM      7  C   UNL     1     100.625 135.704  49.380  1.00  0.00     0.093 A 
ATOM      8  C   UNL     1     101.901 136.264  49.491  1.00  0.00     0.123 A 
ATOM      9  C   UNL     1     102.825 135.712  50.376  1.00  0.00     0.094 A 
ATOM     10  C   UNL     1     102.495 134.587  51.134  1.00  0.00     0.146 A 
ATOM     11  O   UNL     1     103.410 134.083  51.955  1.00  0.00    -0.456 OA
ENDROOT
BRANCH   1  12
ATOM     12  C   UNL     1     104.299 132.536  53.595  1.00  0.00     0.021 A 
ATOM     13  C   UNL     1     105.566 133.149  53.596  1.00  0.00     0.016 A 
ATOM     14  C   UNL     1     106.580 132.682  54.437  1.00  0.00     0.051 A 
ATOM     15  C   UNL     1     106.347 131.591  55.284  1.00  0.00     0.157 A 
ATOM     16  C   UNL     1     104.079 131.433  54.439  1.00  0.00     0.062 A 
ATOM     17  C   UNL     1     105.097 130.964  55.283  1.00  0.00     0.158 A 
BRANCH  15  18
ATOM     18  O   UNL     1     107.356 131.122  56.125  1.00  0.00    -0.504 OA
ATOM     19  H   UNL     1     108.165 130.632  55.760  1.00  0.00     0.293 HD
ENDBRANCH  15  18
BRANCH  17  20
ATOM     20  O   UNL     1     104.869 129.877  56.125  1.00  0.00    -0.504 OA
ATOM     21  H   UNL     1     105.427 129.033  56.065  1.00  0.00     0.293 HD
ENDBRANCH  17  20
ENDBRANCH   1  12
BRANCH   6  22
ATOM     22  O   UNL     1      98.927 134.168  50.030  1.00  0.00    -0.507 OA
ATOM     23  H   UNL     1      98.641 133.278  49.652  1.00  0.00     0.293 HD
ENDBRANCH   6  22
BRANCH   8  24
ATOM     24  O   UNL     1     102.257 137.375  48.730  1.00  0.00    -0.508 OA
ATOM     25  H   UNL     1     102.918 137.305  47.965  1.00  0.00     0.293 HD
ENDBRANCH   8  24
TORSDOF 5
ENDMDL
MODEL 7
REMARK VINA RESULT:    -6.175      2.600      6.456
REMARK INTER + INTRA:          -7.542
REMARK INTER:                  -7.247
REMARK INTRA:                  -0.295
REMARK UNBOUND:                -0.283
REMARK SMILES O=c1cc(-c2ccc(O)c(O)c2)oc2cc(O)cc(O)c12
REMARK SMILES IDX 4 1 3 2 2 3 1 4 21 5 19 6 18 7 16 8 15 9 14 10 13 11 5 12
REMARK SMILES IDX 6 13 7 14 8 15 12 16 10 17 9 18 11 20 20 22 17 24
REMARK H PARENT 9 19 11 21 20 23 17 25
REMARK Flexibility Score: inf
ROOT
ATOM      1  C   UNL     1     104.101 133.930  53.126  1.00  0.00     0.138 A 
ATOM      2  C   UNL     1     104.236 133.504  51.796  1.00  0.00     0.100 A 
ATOM      3  C   UNL     1     103.205 132.781  51.195  1.00  0.00     0.197 A 
ATOM      4  O   UNL     1     103.328 132.468  49.983  1.00  0.00    -0.289 OA
ATOM      5  C   UNL     1     102.047 132.455  51.941  1.00  0.00     0.107 A 
ATOM      6  C   UNL     1     100.952 131.687  51.445  1.00  0.00     0.134 A 
ATOM      7  C   UNL     1      99.808 131.525  52.236  1.00  0.00     0.093 A 
ATOM      8  C   UNL     1      99.745 132.054  53.529  1.00  0.00     0.123 A 
ATOM      9  C   UNL     1     100.831 132.759  54.042  1.00  0.00     0.094 A 
ATOM     10  C   UNL     1     101.972 132.966  53.264  1.00  0.00     0.146 A 
ATOM     11  O   UNL     1     102.981 133.657  53.786  1.00  0.00    -0.456 OA
ENDROOT
BRANCH   1  12
ATOM     12  C   UNL     1     105.167 134.702  53.814  1.00  0.00     0.021 A 
ATOM     13  C   UNL     1     106.524 134.341  53.712  1.00  0.00     0.016 A 
ATOM     14  C   UNL     1     107.506 135.079  54.379  1.00  0.00     0.051 A 
ATOM     15  C   UNL     1     107.148 136.183  55.163  1.00  0.00     0.157 A 
ATOM     16  C   UNL     1     104.816 135.804  54.615  1.00  0.00     0.062 A 
ATOM     17  C   UNL     1     105.802 136.544  55.283  1.00  0.00     0.158 A 
BRANCH  15  18
ATOM     18  O   UNL     1     108.125 136.923  55.829  1.00  0.00    -0.504 OA
ATOM     19  H   UNL     1     108.034 137.158  56.811  1.00  0.00     0.293 HD
ENDBRANCH  15  18
BRANCH  17  20
ATOM     20  O   UNL     1     105.449 137.641  56.067  1.00  0.00    -0.504 OA
ATOM     21  H   UNL     1     105.093 138.496  55.655  1.00  0.00     0.293 HD
ENDBRANCH  17  20
ENDBRANCH   1  12
BRANCH   6  22
ATOM     22  O   UNL     1     100.946 131.045  50.203  1.00  0.00    -0.507 OA
ATOM     23  H   UNL     1     101.308 131.439  49.348  1.00  0.00     0.293 HD
ENDBRANCH   6  22
BRANCH   8  24
ATOM     24  O   UNL     1      98.609 131.875  54.314  1.00  0.00    -0.508 OA
ATOM     25  H   UNL     1      97.782 131.413  53.955  1.00  0.00     0.293 HD
ENDBRANCH   8  24
TORSDOF 5
ENDMDL
MODEL 8
REMARK VINA RESULT:    -5.910      1.228      3.110
REMARK INTER + INTRA:          -7.229
REMARK INTER:                  -6.965
REMARK INTRA:                  -0.264
REMARK UNBOUND:                -0.283
REMARK SMILES O=c1cc(-c2ccc(O)c(O)c2)oc2cc(O)cc(O)c12
REMARK SMILES IDX 4 1 3 2 2 3 1 4 21 5 19 6 18 7 16 8 15 9 14 10 13 11 5 12
REMARK SMILES IDX 6 13 7 14 8 15 12 16 10 17 9 18 11 20 20 22 17 24
REMARK H PARENT 9 19 11 21 20 23 17 25
REMARK Flexibility Score: inf
ROOT
ATOM      1  C   UNL     1     103.163 132.863  54.705  1.00  0.00     0.138 A 
ATOM      2  C   UNL     1     103.782 131.753  55.299  1.00  0.00     0.100 A 
ATOM      3  C   UNL     1     105.166 131.601  55.201  1.00  0.00     0.197 A 
ATOM      4  O   UNL     1     105.699 130.629  55.797  1.00  0.00    -0.289 OA
ATOM      5  C   UNL     1     105.929 132.548  54.477  1.00  0.00     0.107 A 
ATOM      6  C   UNL     1     107.339 132.471  54.278  1.00  0.00     0.134 A 
ATOM      7  C   UNL     1     108.005 133.528  53.642  1.00  0.00     0.093 A 
ATOM      8  C   UNL     1     107.300 134.629  53.148  1.00  0.00     0.123 A 
ATOM      9  C   UNL     1     105.916 134.687  53.291  1.00  0.00     0.094 A 
ATOM     10  C   UNL     1     105.229 133.665  53.950  1.00  0.00     0.146 A 
ATOM     11  O   UNL     1     103.910 133.766  54.078  1.00  0.00    -0.456 OA
ENDROOT
BRANCH   1  12
ATOM     12  C   UNL     1     101.696 133.074  54.778  1.00  0.00     0.021 A 
ATOM     13  C   UNL     1     101.136 134.119  55.538  1.00  0.00     0.016 A 
ATOM     14  C   UNL     1      99.750 134.288  55.598  1.00  0.00     0.051 A 
ATOM     15  C   UNL     1      98.901 133.414  54.907  1.00  0.00     0.157 A 
ATOM     16  C   UNL     1     100.835 132.193  54.099  1.00  0.00     0.062 A 
ATOM     17  C   UNL     1      99.443 132.364  54.159  1.00  0.00     0.158 A 
BRANCH  15  18
ATOM     18  O   UNL     1      97.518 133.581  54.964  1.00  0.00    -0.504 OA
ATOM     19  H   UNL     1      96.889 132.786  55.000  1.00  0.00     0.293 HD
ENDBRANCH  15  18
BRANCH  17  20
ATOM     20  O   UNL     1      98.596 131.494  53.476  1.00  0.00    -0.504 OA
ATOM     21  H   UNL     1      98.219 131.727  52.565  1.00  0.00     0.293 HD
ENDBRANCH  17  20
ENDBRANCH   1  12
BRANCH   6  22
ATOM     22  O   UNL     1     108.125 131.378  54.656  1.00  0.00    -0.507 OA
ATOM     23  H   UNL     1     107.829 130.644  55.279  1.00  0.00     0.293 HD
ENDBRANCH   6  22
BRANCH   8  24
ATOM     24  O   UNL     1     107.969 135.668  52.505  1.00  0.00    -0.508 OA
ATOM     25  H   UNL     1     108.363 135.553  51.578  1.00  0.00     0.293 HD
ENDBRANCH   8  24
TORSDOF 5
ENDMDL
MODEL 9
REMARK VINA RESULT:    -5.831      2.822      7.033
REMARK INTER + INTRA:          -7.137
REMARK INTER:                  -6.869
REMARK INTRA:                  -0.268
REMARK UNBOUND:                -0.283
REMARK SMILES O=c1cc(-c2ccc(O)c(O)c2)oc2cc(O)cc(O)c12
REMARK SMILES IDX 4 1 3 2 2 3 1 4 21 5 19 6 18 7 16 8 15 9 14 10 13 11 5 12
REMARK SMILES IDX 6 13 7 14 8 15 12 16 10 17 9 18 11 20 20 22 17 24
REMARK H PARENT 9 19 11 21 20 23 17 25
REMARK Flexibility Score: inf
ROOT
ATOM      1  C   UNL     1     103.655 133.823  53.492  1.00  0.00     0.138 A 
ATOM      2  C   UNL     1     103.421 132.481  53.826  1.00  0.00     0.100 A 
ATOM      3  C   UNL     1     102.318 131.818  53.288  1.00  0.00     0.197 A 
ATOM      4  O   UNL     1     102.170 130.597  53.557  1.00  0.00    -0.289 OA
ATOM      5  C   UNL     1     101.426 132.512  52.436  1.00  0.00     0.107 A 
ATOM      6  C   UNL     1     100.247 131.949  51.864  1.00  0.00     0.134 A 
ATOM      7  C   UNL     1      99.502 132.698  50.943  1.00  0.00     0.093 A 
ATOM      8  C   UNL     1      99.863 134.009  50.620  1.00  0.00     0.123 A 
ATOM      9  C   UNL     1     100.983 134.585  51.215  1.00  0.00     0.094 A 
ATOM     10  C   UNL     1     101.764 133.853  52.112  1.00  0.00     0.146 A 
ATOM     11  O   UNL     1     102.833 134.435  52.646  1.00  0.00    -0.456 OA
ENDROOT
BRANCH   1  12
ATOM     12  C   UNL     1     104.814 134.576  54.035  1.00  0.00     0.021 A 
ATOM     13  C   UNL     1     104.821 135.071  55.353  1.00  0.00     0.016 A 
ATOM     14  C   UNL     1     105.921 135.786  55.835  1.00  0.00     0.051 A 
ATOM     15  C   UNL     1     107.026 136.025  55.008  1.00  0.00     0.157 A 
ATOM     16  C   UNL     1     105.922 134.832  53.208  1.00  0.00     0.062 A 
ATOM     17  C   UNL     1     107.026 135.550  53.693  1.00  0.00     0.158 A 
BRANCH  15  18
ATOM     18  O   UNL     1     108.125 136.737  55.487  1.00  0.00    -0.504 OA
ATOM     19  H   UNL     1     108.974 136.829  54.941  1.00  0.00     0.293 HD
ENDBRANCH  15  18
BRANCH  17  20
ATOM     20  O   UNL     1     108.125 135.792  52.871  1.00  0.00    -0.504 OA
ATOM     21  H   UNL     1     108.765 135.051  52.609  1.00  0.00     0.293 HD
ENDBRANCH  17  20
ENDBRANCH   1  12
BRANCH   6  22
ATOM     22  O   UNL     1      99.751 130.682  52.182  1.00  0.00    -0.507 OA
ATOM     23  H   UNL     1     100.319 129.878  52.400  1.00  0.00     0.293 HD
ENDBRANCH   6  22
BRANCH   8  24
ATOM     24  O   UNL     1      99.109 134.750  49.714  1.00  0.00    -0.508 OA
ATOM     25  H   UNL     1      98.542 135.536  50.012  1.00  0.00     0.293 HD
ENDBRANCH   8  24
TORSDOF 5
ENDMDL
