MODEL 1
REMARK VINA RESULT:    -6.824      0.000      0.000
REMARK INTER + INTRA:          -8.436
REMARK INTER:                  -8.220
REMARK INTRA:                  -0.216
REMARK UNBOUND:                -0.216
REMARK SMILES O=c1c(O)c(-c2ccc(O)c(O)c2)oc2cc(O)cc(O)c12
REMARK SMILES IDX 5 1 3 2 2 3 1 4 22 5 20 6 19 7 17 8 16 9 15 10 14 11 6 12
REMARK SMILES IDX 7 13 8 14 9 15 13 16 11 17 10 18 12 20 4 22 21 24 18 26
REMARK H PARENT 10 19 12 21 4 23 21 25 18 27
REMARK Flexibility Score: inf
ROOT
ATOM      1  C   UNL     1     -10.655   7.079   5.651  1.00  0.00     0.180 A 
ATOM      2  C   UNL     1     -11.561   8.144   5.503  1.00  0.00     0.208 A 
ATOM      3  C   UNL     1     -11.071   9.459   5.495  1.00  0.00     0.238 A 
ATOM      4  O   UNL     1     -11.892  10.410   5.417  1.00  0.00    -0.285 OA
ATOM      5  C   UNL     1      -9.680   9.694   5.617  1.00  0.00     0.111 A 
ATOM      6  C   UNL     1      -9.070  10.983   5.580  1.00  0.00     0.134 A 
ATOM      7  C   UNL     1      -7.699  11.107   5.842  1.00  0.00     0.093 A 
ATOM      8  C   UNL     1      -6.907   9.983   6.074  1.00  0.00     0.123 A 
ATOM      9  C   UNL     1      -7.483   8.712   6.052  1.00  0.00     0.094 A 
ATOM     10  C   UNL     1      -8.853   8.560   5.830  1.00  0.00     0.146 A 
ATOM     11  O   UNL     1      -9.364   7.335   5.829  1.00  0.00    -0.452 OA
ENDROOT
BRANCH   1  12
ATOM     12  C   UNL     1     -11.093   5.665   5.645  1.00  0.00     0.025 A 
ATOM     13  C   UNL     1     -11.785   5.152   6.751  1.00  0.00     0.016 A 
ATOM     14  C   UNL     1     -12.191   3.817   6.774  1.00  0.00     0.051 A 
ATOM     15  C   UNL     1     -11.900   2.964   5.704  1.00  0.00     0.157 A 
ATOM     16  C   UNL     1     -10.780   4.806   4.578  1.00  0.00     0.062 A 
ATOM     17  C   UNL     1     -11.178   3.463   4.594  1.00  0.00     0.158 A 
BRANCH  15  18
ATOM     18  O   UNL     1     -12.340   1.641   5.786  1.00  0.00    -0.504 OA
ATOM     19  H   UNL     1     -12.680   1.212   6.635  1.00  0.00     0.293 HD
ENDBRANCH  15  18
BRANCH  17  20
ATOM     20  O   UNL     1     -10.835   2.668   3.499  1.00  0.00    -0.504 OA
ATOM     21  H   UNL     1     -11.455   2.474   2.726  1.00  0.00     0.293 HD
ENDBRANCH  17  20
ENDBRANCH   1  12
BRANCH   2  22
ATOM     22  O   UNL     1     -12.933   7.891   5.407  1.00  0.00    -0.502 OA
ATOM     23  H   UNL     1     -13.458   7.449   6.152  1.00  0.00     0.293 HD
ENDBRANCH   2  22
BRANCH   6  24
ATOM     24  O   UNL     1      -9.753  12.162   5.268  1.00  0.00    -0.507 OA
ATOM     25  H   UNL     1      -9.472  12.817   4.554  1.00  0.00     0.293 HD
ENDBRANCH   6  24
BRANCH   8  26
ATOM     26  O   UNL     1      -5.543  10.141   6.315  1.00  0.00    -0.508 OA
ATOM     27  H   UNL     1      -5.147  11.044   6.544  1.00  0.00     0.293 HD
ENDBRANCH   8  26
TORSDOF 6
ENDMDL
MODEL 2
REMARK VINA RESULT:    -6.605      0.770      1.458
REMARK INTER + INTRA:          -8.173
REMARK INTER:                  -7.863
REMARK INTRA:                  -0.311
REMARK UNBOUND:                -0.216
REMARK SMILES O=c1c(O)c(-c2ccc(O)c(O)c2)oc2cc(O)cc(O)c12
REMARK SMILES IDX 5 1 3 2 2 3 1 4 22 5 20 6 19 7 17 8 16 9 15 10 14 11 6 12
REMARK SMILES IDX 7 13 8 14 9 15 13 16 11 17 10 18 12 20 4 22 21 24 18 26
REMARK H PARENT 10 19 12 21 4 23 21 25 18 27
REMARK Flexibility Score: inf
ROOT
ATOM      1  C   UNL     1     -10.657   6.666   5.637  1.00  0.00     0.180 A 
ATOM      2  C   UNL     1     -11.639   7.670   5.581  1.00  0.00     0.208 A 
ATOM      3  C   UNL     1     -11.240   9.016   5.607  1.00  0.00     0.238 A 
ATOM      4  O   UNL     1     -12.126   9.910   5.612  1.00  0.00    -0.285 OA
ATOM      5  C   UNL     1      -9.863   9.341   5.672  1.00  0.00     0.111 A 
ATOM      6  C   UNL     1      -9.344  10.670   5.664  1.00  0.00     0.134 A 
ATOM      7  C   UNL     1      -7.973  10.877   5.864  1.00  0.00     0.093 A 
ATOM      8  C   UNL     1      -7.096   9.803   6.007  1.00  0.00     0.123 A 
ATOM      9  C   UNL     1      -7.586   8.497   5.957  1.00  0.00     0.094 A 
ATOM     10  C   UNL     1      -8.952   8.260   5.795  1.00  0.00     0.146 A 
ATOM     11  O   UNL     1      -9.379   7.003   5.764  1.00  0.00    -0.452 OA
ENDROOT
BRANCH   1  12
ATOM     12  C   UNL     1     -10.999   5.226   5.589  1.00  0.00     0.025 A 
ATOM     13  C   UNL     1     -11.227   4.612   4.350  1.00  0.00     0.016 A 
ATOM     14  C   UNL     1     -11.571   3.260   4.282  1.00  0.00     0.051 A 
ATOM     15  C   UNL     1     -11.710   2.501   5.449  1.00  0.00     0.157 A 
ATOM     16  C   UNL     1     -11.159   4.472   6.764  1.00  0.00     0.062 A 
ATOM     17  C   UNL     1     -11.508   3.116   6.707  1.00  0.00     0.158 A 
BRANCH  15  18
ATOM     18  O   UNL     1     -12.048   1.153   5.313  1.00  0.00    -0.504 OA
ATOM     19  H   UNL     1     -12.785   0.701   5.835  1.00  0.00     0.293 HD
ENDBRANCH  15  18
BRANCH  17  20
ATOM     20  O   UNL     1     -11.647   2.428   7.914  1.00  0.00    -0.504 OA
ATOM     21  H   UNL     1     -11.974   1.476   7.986  1.00  0.00     0.293 HD
ENDBRANCH  17  20
ENDBRANCH   1  12
BRANCH   2  22
ATOM     22  O   UNL     1     -12.994   7.327   5.539  1.00  0.00    -0.502 OA
ATOM     23  H   UNL     1     -13.494   6.987   6.352  1.00  0.00     0.293 HD
ENDBRANCH   2  22
BRANCH   6  24
ATOM     24  O   UNL     1     -10.120  11.811   5.437  1.00  0.00    -0.507 OA
ATOM     25  H   UNL     1     -11.093  11.800   5.173  1.00  0.00     0.293 HD
ENDBRANCH   6  24
BRANCH   8  26
ATOM     26  O   UNL     1      -5.736  10.045   6.189  1.00  0.00    -0.508 OA
ATOM     27  H   UNL     1      -5.394  10.951   6.484  1.00  0.00     0.293 HD
ENDBRANCH   8  26
TORSDOF 6
ENDMDL
MODEL 3
REMARK VINA RESULT:    -6.319      1.953      3.745
REMARK INTER + INTRA:          -7.828
REMARK INTER:                  -7.505
REMARK INTRA:                  -0.323
REMARK UNBOUND:                -0.216
REMARK SMILES O=c1c(O)c(-c2ccc(O)c(O)c2)oc2cc(O)cc(O)c12
REMARK SMILES IDX 5 1 3 2 2 3 1 4 22 5 20 6 19 7 17 8 16 9 15 10 14 11 6 12
REMARK SMILES IDX 7 13 8 14 9 15 13 16 11 17 10 18 12 20 4 22 21 24 18 26
REMARK H PARENT 10 19 12 21 4 23 21 25 18 27
REMARK Flexibility Score: inf
ROOT
ATOM      1  C   UNL     1     -11.504   6.868   6.072  1.00  0.00     0.180 A 
ATOM      2  C   UNL     1     -10.220   7.341   5.749  1.00  0.00     0.208 A 
ATOM      3  C   UNL     1     -10.086   8.623   5.194  1.00  0.00     0.238 A 
ATOM      4  O   UNL     1      -8.940   9.019   4.856  1.00  0.00    -0.285 OA
ATOM      5  C   UNL     1     -11.236   9.423   4.983  1.00  0.00     0.111 A 
ATOM      6  C   UNL     1     -11.213  10.752   4.463  1.00  0.00     0.134 A 
ATOM      7  C   UNL     1     -12.421  11.401   4.174  1.00  0.00     0.093 A 
ATOM      8  C   UNL     1     -13.646  10.795   4.446  1.00  0.00     0.123 A 
ATOM      9  C   UNL     1     -13.679   9.519   5.010  1.00  0.00     0.094 A 
ATOM     10  C   UNL     1     -12.492   8.832   5.276  1.00  0.00     0.146 A 
ATOM     11  O   UNL     1     -12.567   7.616   5.802  1.00  0.00    -0.452 OA
ENDROOT
BRANCH   1  12
ATOM     12  C   UNL     1     -11.722   5.537   6.684  1.00  0.00     0.025 A 
ATOM     13  C   UNL     1     -11.666   5.401   8.078  1.00  0.00     0.016 A 
ATOM     14  C   UNL     1     -11.849   4.152   8.675  1.00  0.00     0.051 A 
ATOM     15  C   UNL     1     -12.074   3.013   7.892  1.00  0.00     0.157 A 
ATOM     16  C   UNL     1     -11.926   4.392   5.894  1.00  0.00     0.062 A 
ATOM     17  C   UNL     1     -12.105   3.134   6.483  1.00  0.00     0.158 A 
BRANCH  15  18
ATOM     18  O   UNL     1     -12.256   1.795   8.551  1.00  0.00    -0.504 OA
ATOM     19  H   UNL     1     -12.957   1.115   8.293  1.00  0.00     0.293 HD
ENDBRANCH  15  18
BRANCH  17  20
ATOM     20  O   UNL     1     -12.306   2.042   5.637  1.00  0.00    -0.504 OA
ATOM     21  H   UNL     1     -12.394   2.113   4.634  1.00  0.00     0.293 HD
ENDBRANCH  17  20
ENDBRANCH   1  12
BRANCH   2  22
ATOM     22  O   UNL     1      -9.101   6.526   5.945  1.00  0.00    -0.502 OA
ATOM     23  H   UNL     1      -8.232   6.665   5.443  1.00  0.00     0.293 HD
ENDBRANCH   2  22
BRANCH   6  24
ATOM     24  O   UNL     1     -10.043  11.484   4.241  1.00  0.00    -0.507 OA
ATOM     25  H   UNL     1     -10.012  12.473   4.049  1.00  0.00     0.293 HD
ENDBRANCH   6  24
BRANCH   8  26
ATOM     26  O   UNL     1     -14.828  11.476   4.161  1.00  0.00    -0.508 OA
ATOM     27  H   UNL     1     -15.148  11.607   3.209  1.00  0.00     0.293 HD
ENDBRANCH   8  26
TORSDOF 6
ENDMDL
MODEL 4
REMARK VINA RESULT:    -6.259      1.353      2.977
REMARK INTER + INTRA:          -7.756
REMARK INTER:                  -7.434
REMARK INTRA:                  -0.323
REMARK UNBOUND:                -0.216
REMARK SMILES O=c1c(O)c(-c2ccc(O)c(O)c2)oc2cc(O)cc(O)c12
REMARK SMILES IDX 5 1 3 2 2 3 1 4 22 5 20 6 19 7 17 8 16 9 15 10 14 11 6 12
REMARK SMILES IDX 7 13 8 14 9 15 13 16 11 17 10 18 12 20 4 22 21 24 18 26
REMARK H PARENT 10 19 12 21 4 23 21 25 18 27
REMARK Flexibility Score: inf
ROOT
ATOM      1  C   UNL     1     -10.660   7.328   5.699  1.00  0.00     0.180 A 
ATOM      2  C   UNL     1      -9.422   7.717   6.240  1.00  0.00     0.208 A 
ATOM      3  C   UNL     1      -9.036   9.064   6.155  1.00  0.00     0.238 A 
ATOM      4  O   UNL     1      -7.903   9.397   6.592  1.00  0.00    -0.285 OA
ATOM      5  C   UNL     1      -9.899  10.008   5.547  1.00  0.00     0.111 A 
ATOM      6  C   UNL     1      -9.627  11.405   5.443  1.00  0.00     0.134 A 
ATOM      7  C   UNL     1     -10.491  12.224   4.705  1.00  0.00     0.093 A 
ATOM      8  C   UNL     1     -11.649  11.709   4.124  1.00  0.00     0.123 A 
ATOM      9  C   UNL     1     -11.956  10.355   4.271  1.00  0.00     0.094 A 
ATOM     10  C   UNL     1     -11.095   9.507   4.969  1.00  0.00     0.146 A 
ATOM     11  O   UNL     1     -11.417   8.224   5.077  1.00  0.00    -0.452 OA
ENDROOT
BRANCH   1  12
ATOM     12  C   UNL     1     -11.146   5.931   5.771  1.00  0.00     0.025 A 
ATOM     13  C   UNL     1     -11.857   5.505   6.902  1.00  0.00     0.016 A 
ATOM     14  C   UNL     1     -12.307   4.187   7.000  1.00  0.00     0.051 A 
ATOM     15  C   UNL     1     -12.043   3.265   5.981  1.00  0.00     0.157 A 
ATOM     16  C   UNL     1     -10.860   5.002   4.756  1.00  0.00     0.062 A 
ATOM     17  C   UNL     1     -11.303   3.676   4.847  1.00  0.00     0.158 A 
BRANCH  15  18
ATOM     18  O   UNL     1     -12.527   1.965   6.137  1.00  0.00    -0.504 OA
ATOM     19  H   UNL     1     -13.127   1.674   6.896  1.00  0.00     0.293 HD
ENDBRANCH  15  18
BRANCH  17  20
ATOM     20  O   UNL     1     -10.985   2.809   3.800  1.00  0.00    -0.504 OA
ATOM     21  H   UNL     1     -10.100   2.813   3.314  1.00  0.00     0.293 HD
ENDBRANCH  17  20
ENDBRANCH   1  12
BRANCH   2  22
ATOM     22  O   UNL     1      -8.576   6.765   6.816  1.00  0.00    -0.502 OA
ATOM     23  H   UNL     1      -8.332   5.900   6.348  1.00  0.00     0.293 HD
ENDBRANCH   2  22
BRANCH   6  24
ATOM     24  O   UNL     1      -8.545  12.038   6.063  1.00  0.00    -0.507 OA
ATOM     25  H   UNL     1      -7.576  11.838   5.872  1.00  0.00     0.293 HD
ENDBRANCH   6  24
BRANCH   8  26
ATOM     26  O   UNL     1     -12.495  12.556   3.410  1.00  0.00    -0.508 OA
ATOM     27  H   UNL     1     -12.469  13.560   3.536  1.00  0.00     0.293 HD
ENDBRANCH   8  26
TORSDOF 6
ENDMDL
MODEL 5
REMARK VINA RESULT:    -6.187      1.648      7.072
REMARK INTER + INTRA:          -7.670
REMARK INTER:                  -7.422
REMARK INTRA:                  -0.248
REMARK UNBOUND:                -0.216
REMARK SMILES O=c1c(O)c(-c2ccc(O)c(O)c2)oc2cc(O)cc(O)c12
REMARK SMILES IDX 5 1 3 2 2 3 1 4 22 5 20 6 19 7 17 8 16 9 15 10 14 11 6 12
REMARK SMILES IDX 7 13 8 14 9 15 13 16 11 17 10 18 12 20 4 22 21 24 18 26
REMARK H PARENT 10 19 12 21 4 23 21 25 18 27
REMARK Flexibility Score: inf
ROOT
ATOM      1  C   UNL     1      -9.897   6.601   5.994  1.00  0.00     0.180 A 
ATOM      2  C   UNL     1      -9.852   5.762   4.866  1.00  0.00     0.208 A 
ATOM      3  C   UNL     1     -10.384   4.467   4.958  1.00  0.00     0.238 A 
ATOM      4  O   UNL     1     -10.291   3.702   3.963  1.00  0.00    -0.285 OA
ATOM      5  C   UNL     1     -10.969   4.030   6.172  1.00  0.00     0.111 A 
ATOM      6  C   UNL     1     -11.574   2.753   6.366  1.00  0.00     0.134 A 
ATOM      7  C   UNL     1     -12.005   2.380   7.646  1.00  0.00     0.093 A 
ATOM      8  C   UNL     1     -11.912   3.261   8.722  1.00  0.00     0.123 A 
ATOM      9  C   UNL     1     -11.377   4.536   8.530  1.00  0.00     0.094 A 
ATOM     10  C   UNL     1     -10.906   4.923   7.274  1.00  0.00     0.146 A 
ATOM     11  O   UNL     1     -10.394   6.140   7.135  1.00  0.00    -0.452 OA
ENDROOT
BRANCH   1  12
ATOM     12  C   UNL     1      -9.379   7.987   5.965  1.00  0.00     0.025 A 
ATOM     13  C   UNL     1      -8.241   8.315   6.715  1.00  0.00     0.016 A 
ATOM     14  C   UNL     1      -7.747   9.621   6.718  1.00  0.00     0.051 A 
ATOM     15  C   UNL     1      -8.388  10.628   5.988  1.00  0.00     0.157 A 
ATOM     16  C   UNL     1     -10.038   9.001   5.248  1.00  0.00     0.062 A 
ATOM     17  C   UNL     1      -9.553  10.315   5.248  1.00  0.00     0.158 A 
BRANCH  15  18
ATOM     18  O   UNL     1      -7.839  11.911   6.027  1.00  0.00    -0.504 OA
ATOM     19  H   UNL     1      -6.913  12.139   5.693  1.00  0.00     0.293 HD
ENDBRANCH  15  18
BRANCH  17  20
ATOM     20  O   UNL     1     -10.257  11.270   4.512  1.00  0.00    -0.504 OA
ATOM     21  H   UNL     1     -10.683  11.088   3.615  1.00  0.00     0.293 HD
ENDBRANCH  17  20
ENDBRANCH   1  12
BRANCH   2  22
ATOM     22  O   UNL     1      -9.249   6.205   3.684  1.00  0.00    -0.502 OA
ATOM     23  H   UNL     1      -9.754   6.272   2.809  1.00  0.00     0.293 HD
ENDBRANCH   2  22
BRANCH   6  24
ATOM     24  O   UNL     1     -11.799   1.831   5.339  1.00  0.00    -0.507 OA
ATOM     25  H   UNL     1     -11.923   0.840   5.474  1.00  0.00     0.293 HD
ENDBRANCH   6  24
BRANCH   8  26
ATOM     26  O   UNL     1     -12.365   2.863   9.978  1.00  0.00    -0.508 OA
ATOM     27  H   UNL     1     -11.763   2.373  10.628  1.00  0.00     0.293 HD
ENDBRANCH   8  26
TORSDOF 6
ENDMDL
MODEL 6
REMARK VINA RESULT:    -6.103      3.565      6.957
REMARK INTER + INTRA:          -7.569
REMARK INTER:                  -7.247
REMARK INTRA:                  -0.322
REMARK UNBOUND:                -0.216
REMARK SMILES O=c1c(O)c(-c2ccc(O)c(O)c2)oc2cc(O)cc(O)c12
REMARK SMILES IDX 5 1 3 2 2 3 1 4 22 5 20 6 19 7 17 8 16 9 15 10 14 11 6 12
REMARK SMILES IDX 7 13 8 14 9 15 13 16 11 17 10 18 12 20 4 22 21 24 18 26
REMARK H PARENT 10 19 12 21 4 23 21 25 18 27
REMARK Flexibility Score: inf
ROOT
ATOM      1  C   UNL     1     -10.927  10.682   5.348  1.00  0.00     0.180 A 
ATOM      2  C   UNL     1     -11.179  11.454   4.200  1.00  0.00     0.208 A 
ATOM      3  C   UNL     1     -12.363  11.235   3.479  1.00  0.00     0.238 A 
ATOM      4  O   UNL     1     -12.558  11.890   2.422  1.00  0.00    -0.285 OA
ATOM      5  C   UNL     1     -13.289  10.260   3.924  1.00  0.00     0.111 A 
ATOM      6  C   UNL     1     -14.539   9.983   3.294  1.00  0.00     0.134 A 
ATOM      7  C   UNL     1     -15.316   8.907   3.744  1.00  0.00     0.093 A 
ATOM      8  C   UNL     1     -14.919   8.141   4.840  1.00  0.00     0.123 A 
ATOM      9  C   UNL     1     -13.727   8.442   5.500  1.00  0.00     0.094 A 
ATOM     10  C   UNL     1     -12.914   9.485   5.053  1.00  0.00     0.146 A 
ATOM     11  O   UNL     1     -11.783   9.731   5.702  1.00  0.00    -0.452 OA
ENDROOT
BRANCH   1  12
ATOM     12  C   UNL     1      -9.712  10.872   6.173  1.00  0.00     0.025 A 
ATOM     13  C   UNL     1      -9.728  11.802   7.222  1.00  0.00     0.016 A 
ATOM     14  C   UNL     1      -8.588  12.012   8.000  1.00  0.00     0.051 A 
ATOM     15  C   UNL     1      -7.406  11.311   7.736  1.00  0.00     0.157 A 
ATOM     16  C   UNL     1      -8.520  10.183   5.892  1.00  0.00     0.062 A 
ATOM     17  C   UNL     1      -7.369  10.390   6.663  1.00  0.00     0.158 A 
BRANCH  15  18
ATOM     18  O   UNL     1      -6.303  11.562   8.555  1.00  0.00    -0.504 OA
ATOM     19  H   UNL     1      -5.344  11.506   8.242  1.00  0.00     0.293 HD
ENDBRANCH  15  18
BRANCH  17  20
ATOM     20  O   UNL     1      -6.222   9.669   6.327  1.00  0.00    -0.504 OA
ATOM     21  H   UNL     1      -6.015   9.338   5.396  1.00  0.00     0.293 HD
ENDBRANCH  17  20
ENDBRANCH   1  12
BRANCH   2  22
ATOM     22  O   UNL     1     -10.241  12.395   3.766  1.00  0.00    -0.502 OA
ATOM     23  H   UNL     1      -9.444  12.144   3.194  1.00  0.00     0.293 HD
ENDBRANCH   2  22
BRANCH   6  24
ATOM     24  O   UNL     1     -15.073  10.744   2.250  1.00  0.00    -0.507 OA
ATOM     25  H   UNL     1     -15.237  11.738   2.289  1.00  0.00     0.293 HD
ENDBRANCH   6  24
BRANCH   8  26
ATOM     26  O   UNL     1     -15.725   7.089   5.270  1.00  0.00    -0.508 OA
ATOM     27  H   UNL     1     -16.732   7.175   5.312  1.00  0.00     0.293 HD
ENDBRANCH   8  26
TORSDOF 6
ENDMDL
MODEL 7
REMARK VINA RESULT:    -6.056      1.393      6.722
REMARK INTER + INTRA:          -7.511
REMARK INTER:                  -7.188
REMARK INTRA:                  -0.323
REMARK UNBOUND:                -0.216
REMARK SMILES O=c1c(O)c(-c2ccc(O)c(O)c2)oc2cc(O)cc(O)c12
REMARK SMILES IDX 5 1 3 2 2 3 1 4 22 5 20 6 19 7 17 8 16 9 15 10 14 11 6 12
REMARK SMILES IDX 7 13 8 14 9 15 13 16 11 17 10 18 12 20 4 22 21 24 18 26
REMARK H PARENT 10 19 12 21 4 23 21 25 18 27
REMARK Flexibility Score: inf
ROOT
ATOM      1  C   UNL     1      -9.905   8.462   5.823  1.00  0.00     0.180 A 
ATOM      2  C   UNL     1     -11.175   9.009   5.571  1.00  0.00     0.208 A 
ATOM      3  C   UNL     1     -12.280   8.148   5.476  1.00  0.00     0.238 A 
ATOM      4  O   UNL     1     -13.406   8.637   5.196  1.00  0.00    -0.285 OA
ATOM      5  C   UNL     1     -12.104   6.753   5.651  1.00  0.00     0.111 A 
ATOM      6  C   UNL     1     -13.159   5.793   5.615  1.00  0.00     0.134 A 
ATOM      7  C   UNL     1     -12.852   4.427   5.670  1.00  0.00     0.093 A 
ATOM      8  C   UNL     1     -11.537   3.991   5.824  1.00  0.00     0.123 A 
ATOM      9  C   UNL     1     -10.504   4.924   5.920  1.00  0.00     0.094 A 
ATOM     10  C   UNL     1     -10.775   6.291   5.832  1.00  0.00     0.146 A 
ATOM     11  O   UNL     1      -9.762   7.145   5.916  1.00  0.00    -0.452 OA
ENDROOT
BRANCH   1  12
ATOM     12  C   UNL     1      -8.697   9.308   5.960  1.00  0.00     0.025 A 
ATOM     13  C   UNL     1      -7.824   9.447   4.872  1.00  0.00     0.016 A 
ATOM     14  C   UNL     1      -6.670  10.224   4.986  1.00  0.00     0.051 A 
ATOM     15  C   UNL     1      -6.355  10.862   6.192  1.00  0.00     0.157 A 
ATOM     16  C   UNL     1      -8.373   9.929   7.178  1.00  0.00     0.062 A 
ATOM     17  C   UNL     1      -7.215  10.707   7.305  1.00  0.00     0.158 A 
BRANCH  15  18
ATOM     18  O   UNL     1      -5.190  11.630   6.238  1.00  0.00    -0.504 OA
ATOM     19  H   UNL     1      -4.287  11.303   5.926  1.00  0.00     0.293 HD
ENDBRANCH  15  18
BRANCH  17  20
ATOM     20  O   UNL     1      -6.957  11.296   8.544  1.00  0.00    -0.504 OA
ATOM     21  H   UNL     1      -7.315  12.197   8.825  1.00  0.00     0.293 HD
ENDBRANCH  17  20
ENDBRANCH   1  12
BRANCH   2  22
ATOM     22  O   UNL     1     -11.323  10.386   5.380  1.00  0.00    -0.502 OA
ATOM     23  H   UNL     1     -11.369  11.040   6.152  1.00  0.00     0.293 HD
ENDBRANCH   2  22
BRANCH   6  24
ATOM     24  O   UNL     1     -14.516   6.126   5.556  1.00  0.00    -0.507 OA
ATOM     25  H   UNL     1     -15.170   6.009   6.314  1.00  0.00     0.293 HD
ENDBRANCH   6  24
BRANCH   8  26
ATOM     26  O   UNL     1     -11.270   2.625   5.891  1.00  0.00    -0.508 OA
ATOM     27  H   UNL     1     -12.004   1.936   5.790  1.00  0.00     0.293 HD
ENDBRANCH   8  26
TORSDOF 6
ENDMDL
MODEL 8
REMARK VINA RESULT:    -5.961      2.169      2.995
REMARK INTER + INTRA:          -7.398
REMARK INTER:                  -7.070
REMARK INTRA:                  -0.327
REMARK UNBOUND:                -0.216
REMARK SMILES O=c1c(O)c(-c2ccc(O)c(O)c2)oc2cc(O)cc(O)c12
REMARK SMILES IDX 5 1 3 2 2 3 1 4 22 5 20 6 19 7 17 8 16 9 15 10 14 11 6 12
REMARK SMILES IDX 7 13 8 14 9 15 13 16 11 17 10 18 12 20 4 22 21 24 18 26
REMARK H PARENT 10 19 12 21 4 23 21 25 18 27
REMARK Flexibility Score: inf
ROOT
ATOM      1  C   UNL     1     -12.563   7.268   5.628  1.00  0.00     0.180 A 
ATOM      2  C   UNL     1     -13.894   7.659   5.403  1.00  0.00     0.208 A 
ATOM      3  C   UNL     1     -14.171   9.007   5.128  1.00  0.00     0.238 A 
ATOM      4  O   UNL     1     -15.370   9.362   4.982  1.00  0.00    -0.285 OA
ATOM      5  C   UNL     1     -13.111   9.945   5.063  1.00  0.00     0.111 A 
ATOM      6  C   UNL     1     -13.272  11.328   4.752  1.00  0.00     0.134 A 
ATOM      7  C   UNL     1     -12.171  12.190   4.845  1.00  0.00     0.093 A 
ATOM      8  C   UNL     1     -10.905  11.706   5.174  1.00  0.00     0.123 A 
ATOM      9  C   UNL     1     -10.725  10.345   5.422  1.00  0.00     0.094 A 
ATOM     10  C   UNL     1     -11.811   9.468   5.373  1.00  0.00     0.146 A 
ATOM     11  O   UNL     1     -11.600   8.182   5.626  1.00  0.00    -0.452 OA
ENDROOT
BRANCH   1  12
ATOM     12  C   UNL     1     -12.191   5.861   5.900  1.00  0.00     0.025 A 
ATOM     13  C   UNL     1     -11.991   5.443   7.223  1.00  0.00     0.016 A 
ATOM     14  C   UNL     1     -11.620   4.125   7.501  1.00  0.00     0.051 A 
ATOM     15  C   UNL     1     -11.426   3.205   6.464  1.00  0.00     0.157 A 
ATOM     16  C   UNL     1     -11.975   4.945   4.856  1.00  0.00     0.062 A 
ATOM     17  C   UNL     1     -11.599   3.623   5.123  1.00  0.00     0.158 A 
BRANCH  15  18
ATOM     18  O   UNL     1     -11.063   1.902   6.810  1.00  0.00    -0.504 OA
ATOM     19  H   UNL     1     -10.996   1.569   7.761  1.00  0.00     0.293 HD
ENDBRANCH  15  18
BRANCH  17  20
ATOM     20  O   UNL     1     -11.404   2.768   4.037  1.00  0.00    -0.504 OA
ATOM     21  H   UNL     1     -12.089   2.613   3.311  1.00  0.00     0.293 HD
ENDBRANCH  17  20
ENDBRANCH   1  12
BRANCH   2  22
ATOM     22  O   UNL     1     -14.927   6.721   5.493  1.00  0.00    -0.502 OA
ATOM     23  H   UNL     1     -14.765   5.724   5.413  1.00  0.00     0.293 HD
ENDBRANCH   2  22
BRANCH   6  24
ATOM     24  O   UNL     1     -14.474  11.898   4.323  1.00  0.00    -0.507 OA
ATOM     25  H   UNL     1     -15.214  12.207   4.935  1.00  0.00     0.293 HD
ENDBRANCH   6  24
BRANCH   8  26
ATOM     26  O   UNL     1      -9.829  12.589   5.242  1.00  0.00    -0.508 OA
ATOM     27  H   UNL     1      -8.895  12.308   4.968  1.00  0.00     0.293 HD
ENDBRANCH   8  26
TORSDOF 6
ENDMDL
MODEL 9
REMARK VINA RESULT:    -5.443      4.358      5.366
REMARK INTER + INTRA:          -6.773
REMARK INTER:                  -6.527
REMARK INTRA:                  -0.246
REMARK UNBOUND:                -0.216
REMARK SMILES O=c1c(O)c(-c2ccc(O)c(O)c2)oc2cc(O)cc(O)c12
REMARK SMILES IDX 5 1 3 2 2 3 1 4 22 5 20 6 19 7 17 8 16 9 15 10 14 11 6 12
REMARK SMILES IDX 7 13 8 14 9 15 13 16 11 17 10 18 12 20 4 22 21 24 18 26
REMARK H PARENT 10 19 12 21 4 23 21 25 18 27
REMARK Flexibility Score: inf
ROOT
ATOM      1  C   UNL     1     -11.222  11.198   5.351  1.00  0.00     0.180 A 
ATOM      2  C   UNL     1     -11.522  11.802   6.585  1.00  0.00     0.208 A 
ATOM      3  C   UNL     1     -10.490  11.998   7.516  1.00  0.00     0.238 A 
ATOM      4  O   UNL     1     -10.773  12.489   8.640  1.00  0.00    -0.285 OA
ATOM      5  C   UNL     1      -9.167  11.603   7.196  1.00  0.00     0.111 A 
ATOM      6  C   UNL     1      -8.038  11.791   8.047  1.00  0.00     0.134 A 
ATOM      7  C   UNL     1      -6.800  11.244   7.683  1.00  0.00     0.093 A 
ATOM      8  C   UNL     1      -6.638  10.574   6.471  1.00  0.00     0.123 A 
ATOM      9  C   UNL     1      -7.723  10.438   5.604  1.00  0.00     0.094 A 
ATOM     10  C   UNL     1      -8.977  10.941   5.955  1.00  0.00     0.146 A 
ATOM     11  O   UNL     1      -9.986  10.780   5.107  1.00  0.00    -0.452 OA
ENDROOT
BRANCH   1  12
ATOM     12  C   UNL     1     -12.252  10.981   4.310  1.00  0.00     0.025 A 
ATOM     13  C   UNL     1     -12.291  11.825   3.191  1.00  0.00     0.016 A 
ATOM     14  C   UNL     1     -13.266  11.651   2.207  1.00  0.00     0.051 A 
ATOM     15  C   UNL     1     -14.230  10.644   2.329  1.00  0.00     0.157 A 
ATOM     16  C   UNL     1     -13.232   9.983   4.446  1.00  0.00     0.062 A 
ATOM     17  C   UNL     1     -14.218   9.803   3.467  1.00  0.00     0.158 A 
BRANCH  15  18
ATOM     18  O   UNL     1     -15.174  10.518   1.307  1.00  0.00    -0.504 OA
ATOM     19  H   UNL     1     -15.149  11.050   0.449  1.00  0.00     0.293 HD
ENDBRANCH  15  18
BRANCH  17  20
ATOM     20  O   UNL     1     -15.157   8.791   3.667  1.00  0.00    -0.504 OA
ATOM     21  H   UNL     1     -14.928   7.866   4.002  1.00  0.00     0.293 HD
ENDBRANCH  17  20
ENDBRANCH   1  12
BRANCH   2  22
ATOM     22  O   UNL     1     -12.837  12.164   6.890  1.00  0.00    -0.502 OA
ATOM     23  H   UNL     1     -13.119  13.127   7.022  1.00  0.00     0.293 HD
ENDBRANCH   2  22
BRANCH   6  24
ATOM     24  O   UNL     1      -8.070  12.523   9.238  1.00  0.00    -0.507 OA
ATOM     25  H   UNL     1      -8.894  12.960   9.622  1.00  0.00     0.293 HD
ENDBRANCH   6  24
BRANCH   8  26
ATOM     26  O   UNL     1      -5.389  10.057   6.134  1.00  0.00    -0.508 OA
ATOM     27  H   UNL     1      -4.635  10.655   5.820  1.00  0.00     0.293 HD
ENDBRANCH   8  26
TORSDOF 6
ENDMDL
