MODEL 1
REMARK VINA RESULT:    -1.316      0.000      0.000
REMARK INTER + INTRA:          -3.061
REMARK INTER:                  -3.315
REMARK INTRA:                   0.254
REMARK UNBOUND:                 0.254
REMARK SMILES CCCCCCCCCCCCCCCCCCCCCCCCCCCC(=O)[O-]
REMARK SMILES IDX 15 1 16 2 17 3 18 4 19 5 20 6 21 7 22 8 23 9 24 10 25 11
REMARK SMILES IDX 26 12 27 13 28 14 29 15 30 16 14 17 13 18 12 19 11 20 10 21
REMARK SMILES IDX 9 22 8 23 7 24 6 25 5 26 4 27 3 28 2 29 1 30
REMARK H PARENT
REMARK Flexibility Score: inf
ROOT
ATOM      1  C   UNL     1      15.437  11.540 -14.317  1.00  0.00     0.000 C 
ENDROOT
BRANCH   1   2
ATOM      2  C   UNL     1      14.013  11.051 -14.009  1.00  0.00     0.000 C 
BRANCH   2   3
ATOM      3  C   UNL     1      13.748   9.622 -14.531  1.00  0.00     0.000 C 
BRANCH   3   4
ATOM      4  C   UNL     1      14.660   8.549 -13.906  1.00  0.00     0.000 C 
BRANCH   4   5
ATOM      5  C   UNL     1      15.821   8.077 -14.796  1.00  0.00     0.000 C 
BRANCH   5   6
ATOM      6  C   UNL     1      17.076   8.956 -14.657  1.00  0.00     0.000 C 
BRANCH   6   7
ATOM      7  C   UNL     1      18.016   8.850 -15.873  1.00  0.00     0.000 C 
BRANCH   7   8
ATOM      8  C   UNL     1      19.479   9.247 -15.597  1.00  0.00     0.000 C 
BRANCH   8   9
ATOM      9  C   UNL     1      20.482   8.155 -16.002  1.00  0.00     0.000 C 
BRANCH   9  10
ATOM     10  C   UNL     1      21.905   8.719 -16.103  1.00  0.00     0.000 C 
BRANCH  10  11
ATOM     11  C   UNL     1      21.885  10.256 -16.125  1.00  0.00     0.000 C 
BRANCH  11  12
ATOM     12  C   UNL     1      22.460  10.875 -14.842  1.00  0.00     0.006 C 
BRANCH  12  13
ATOM     13  C   UNL     1      22.166  12.376 -14.723  1.00  0.00     0.053 C 
BRANCH  13  14
ATOM     14  C   UNL     1      22.686  12.908 -13.425  1.00  0.00     0.041 C 
ATOM     15  O   UNL     1      22.996  12.118 -12.495  1.00  0.00    -0.550 OA
ATOM     16  O   UNL     1      22.780  14.280 -13.225  1.00  0.00    -0.550 OA
ENDBRANCH  13  14
ENDBRANCH  12  13
ENDBRANCH  11  12
ENDBRANCH  10  11
ENDBRANCH   9  10
ENDBRANCH   8   9
ENDBRANCH   7   8
ENDBRANCH   6   7
ENDBRANCH   5   6
ENDBRANCH   4   5
ENDBRANCH   3   4
ENDBRANCH   2   3
ENDBRANCH   1   2
BRANCH   1  17
ATOM     17  C   UNL     1      15.565  11.963 -15.785  1.00  0.00     0.000 C 
BRANCH  17  18
ATOM     18  C   UNL     1      16.710  12.965 -15.974  1.00  0.00     0.000 C 
BRANCH  18  19
ATOM     19  C   UNL     1      18.039  12.377 -15.487  1.00  0.00     0.000 C 
BRANCH  19  20
ATOM     20  C   UNL     1      18.599  13.178 -14.303  1.00  0.00     0.000 C 
BRANCH  20  21
ATOM     21  C   UNL     1      19.944  13.848 -14.627  1.00  0.00     0.000 C 
BRANCH  21  22
ATOM     22  C   UNL     1      20.000  14.406 -16.060  1.00  0.00    -0.000 C 
BRANCH  22  23
ATOM     23  C   UNL     1      19.686  15.909 -16.123  1.00  0.00    -0.000 C 
BRANCH  23  24
ATOM     24  C   UNL     1      20.666  16.751 -15.293  1.00  0.00    -0.000 C 
BRANCH  24  25
ATOM     25  C   UNL     1      22.091  16.198 -15.394  1.00  0.00    -0.000 C 
BRANCH  25  26
ATOM     26  C   UNL     1      23.110  17.330 -15.608  1.00  0.00    -0.000 C 
BRANCH  26  27
ATOM     27  C   UNL     1      22.972  18.449 -14.556  1.00  0.00    -0.000 C 
BRANCH  27  28
ATOM     28  C   UNL     1      21.838  19.452 -14.852  1.00  0.00    -0.000 C 
BRANCH  28  29
ATOM     29  C   UNL     1      22.229  20.584 -15.822  1.00  0.00    -0.003 C 
ATOM     30  C   UNL     1      22.433  21.923 -15.112  1.00  0.00     0.004 C 
ENDBRANCH  28  29
ENDBRANCH  27  28
ENDBRANCH  26  27
ENDBRANCH  25  26
ENDBRANCH  24  25
ENDBRANCH  23  24
ENDBRANCH  22  23
ENDBRANCH  21  22
ENDBRANCH  20  21
ENDBRANCH  19  20
ENDBRANCH  18  19
ENDBRANCH  17  18
ENDBRANCH   1  17
TORSDOF 26
ENDMDL
MODEL 2
REMARK VINA RESULT:     1.168      1.963      4.946
REMARK INTER + INTRA:           3.197
REMARK INTER:                   1.572
REMARK INTRA:                   1.624
REMARK UNBOUND:                 0.254
REMARK SMILES CCCCCCCCCCCCCCCCCCCCCCCCCCCC(=O)[O-]
REMARK SMILES IDX 15 1 16 2 17 3 18 4 19 5 20 6 21 7 22 8 23 9 24 10 25 11
REMARK SMILES IDX 26 12 27 13 28 14 29 15 30 16 14 17 13 18 12 19 11 20 10 21
REMARK SMILES IDX 9 22 8 23 7 24 6 25 5 26 4 27 3 28 2 29 1 30
REMARK H PARENT
REMARK Flexibility Score: inf
ROOT
ATOM      1  C   UNL     1      21.431  10.903 -15.714  1.00  0.00     0.000 C 
ENDROOT
BRANCH   1   2
ATOM      2  C   UNL     1      21.951   9.479 -15.972  1.00  0.00     0.000 C 
BRANCH   2   3
ATOM      3  C   UNL     1      21.025   8.392 -15.384  1.00  0.00     0.000 C 
BRANCH   3   4
ATOM      4  C   UNL     1      19.586   8.433 -15.934  1.00  0.00     0.000 C 
BRANCH   4   5
ATOM      5  C   UNL     1      18.598   9.281 -15.118  1.00  0.00     0.000 C 
BRANCH   5   6
ATOM      6  C   UNL     1      17.236   9.446 -15.816  1.00  0.00     0.000 C 
BRANCH   6   7
ATOM      7  C   UNL     1      16.368   8.176 -15.736  1.00  0.00     0.000 C 
BRANCH   7   8
ATOM      8  C   UNL     1      15.112   8.303 -14.853  1.00  0.00     0.000 C 
BRANCH   8   9
ATOM      9  C   UNL     1      15.176   9.500 -13.891  1.00  0.00     0.000 C 
BRANCH   9  10
ATOM     10  C   UNL     1      14.754  10.798 -14.592  1.00  0.00     0.000 C 
BRANCH  10  11
ATOM     11  C   UNL     1      15.258  12.028 -13.818  1.00  0.00     0.000 C 
BRANCH  11  12
ATOM     12  C   UNL     1      16.464  11.710 -12.921  1.00  0.00     0.006 C 
BRANCH  12  13
ATOM     13  C   UNL     1      17.749  12.408 -13.385  1.00  0.00     0.053 C 
BRANCH  13  14
ATOM     14  C   UNL     1      17.798  12.468 -14.880  1.00  0.00     0.041 C 
ATOM     15  O   UNL     1      18.899  12.614 -15.472  1.00  0.00    -0.550 OA
ATOM     16  O   UNL     1      16.621  12.415 -15.616  1.00  0.00    -0.550 OA
ENDBRANCH  13  14
ENDBRANCH  12  13
ENDBRANCH  11  12
ENDBRANCH  10  11
ENDBRANCH   9  10
ENDBRANCH   8   9
ENDBRANCH   7   8
ENDBRANCH   6   7
ENDBRANCH   5   6
ENDBRANCH   4   5
ENDBRANCH   3   4
ENDBRANCH   2   3
ENDBRANCH   1   2
BRANCH   1  17
ATOM     17  C   UNL     1      22.390  11.679 -14.805  1.00  0.00     0.000 C 
BRANCH  17  18
ATOM     18  C   UNL     1      21.638  12.350 -13.649  1.00  0.00     0.000 C 
BRANCH  18  19
ATOM     19  C   UNL     1      21.295  13.804 -13.990  1.00  0.00     0.000 C 
BRANCH  19  20
ATOM     20  C   UNL     1      22.561  14.669 -14.061  1.00  0.00     0.000 C 
BRANCH  20  21
ATOM     21  C   UNL     1      23.118  14.783 -15.489  1.00  0.00     0.000 C 
BRANCH  21  22
ATOM     22  C   UNL     1      23.120  16.230 -16.013  1.00  0.00    -0.000 C 
BRANCH  22  23
ATOM     23  C   UNL     1      22.114  17.128 -15.276  1.00  0.00    -0.000 C 
BRANCH  23  24
ATOM     24  C   UNL     1      21.670  18.332 -16.119  1.00  0.00    -0.000 C 
BRANCH  24  25
ATOM     25  C   UNL     1      20.663  19.198 -15.355  1.00  0.00    -0.000 C 
BRANCH  25  26
ATOM     26  C   UNL     1      21.113  20.667 -15.318  1.00  0.00    -0.000 C 
BRANCH  26  27
ATOM     27  C   UNL     1      22.447  20.853 -14.568  1.00  0.00    -0.000 C 
BRANCH  27  28
ATOM     28  C   UNL     1      23.102  22.233 -14.786  1.00  0.00    -0.000 C 
BRANCH  28  29
ATOM     29  C   UNL     1      22.611  22.978 -16.043  1.00  0.00    -0.003 C 
ATOM     30  C   UNL     1      22.796  24.492 -15.939  1.00  0.00     0.004 C 
ENDBRANCH  28  29
ENDBRANCH  27  28
ENDBRANCH  26  27
ENDBRANCH  25  26
ENDBRANCH  24  25
ENDBRANCH  23  24
ENDBRANCH  22  23
ENDBRANCH  21  22
ENDBRANCH  20  21
ENDBRANCH  19  20
ENDBRANCH  18  19
ENDBRANCH  17  18
ENDBRANCH   1  17
TORSDOF 26
ENDMDL
MODEL 3
REMARK VINA RESULT:     1.609      1.751      4.092
REMARK INTER + INTRA:           4.309
REMARK INTER:                  -0.084
REMARK INTRA:                   4.393
REMARK UNBOUND:                 0.254
REMARK SMILES CCCCCCCCCCCCCCCCCCCCCCCCCCCC(=O)[O-]
REMARK SMILES IDX 15 1 16 2 17 3 18 4 19 5 20 6 21 7 22 8 23 9 24 10 25 11
REMARK SMILES IDX 26 12 27 13 28 14 29 15 30 16 14 17 13 18 12 19 11 20 10 21
REMARK SMILES IDX 9 22 8 23 7 24 6 25 5 26 4 27 3 28 2 29 1 30
REMARK H PARENT
REMARK Flexibility Score: inf
ROOT
ATOM      1  C   UNL     1      17.839   9.544 -14.343  1.00  0.00     0.000 C 
ENDROOT
BRANCH   1   2
ATOM      2  C   UNL     1      16.937   8.355 -14.713  1.00  0.00     0.000 C 
BRANCH   2   3
ATOM      3  C   UNL     1      16.136   8.597 -16.010  1.00  0.00     0.000 C 
BRANCH   3   4
ATOM      4  C   UNL     1      14.775   7.875 -16.048  1.00  0.00     0.000 C 
BRANCH   4   5
ATOM      5  C   UNL     1      13.591   8.681 -15.489  1.00  0.00     0.000 C 
BRANCH   5   6
ATOM      6  C   UNL     1      13.597  10.149 -15.951  1.00  0.00     0.000 C 
BRANCH   6   7
ATOM      7  C   UNL     1      14.864  10.907 -15.511  1.00  0.00     0.000 C 
BRANCH   7   8
ATOM      8  C   UNL     1      14.670  12.419 -15.289  1.00  0.00     0.000 C 
BRANCH   8   9
ATOM      9  C   UNL     1      14.975  12.857 -13.848  1.00  0.00     0.000 C 
BRANCH   9  10
ATOM     10  C   UNL     1      16.424  13.341 -13.711  1.00  0.00     0.000 C 
BRANCH  10  11
ATOM     11  C   UNL     1      17.404  12.156 -13.753  1.00  0.00     0.000 C 
BRANCH  11  12
ATOM     12  C   UNL     1      17.979  11.912 -15.157  1.00  0.00     0.006 C 
BRANCH  12  13
ATOM     13  C   UNL     1      17.765  13.103 -16.100  1.00  0.00     0.053 C 
BRANCH  13  14
ATOM     14  C   UNL     1      18.963  14.000 -16.087  1.00  0.00     0.041 C 
ATOM     15  O   UNL     1      20.122  13.509 -16.038  1.00  0.00    -0.550 OA
ATOM     16  O   UNL     1      18.798  15.379 -16.077  1.00  0.00    -0.550 OA
ENDBRANCH  13  14
ENDBRANCH  12  13
ENDBRANCH  11  12
ENDBRANCH  10  11
ENDBRANCH   9  10
ENDBRANCH   8   9
ENDBRANCH   7   8
ENDBRANCH   6   7
ENDBRANCH   5   6
ENDBRANCH   4   5
ENDBRANCH   3   4
ENDBRANCH   2   3
ENDBRANCH   1   2
BRANCH   1  17
ATOM     17  C   UNL     1      19.312   9.121 -14.299  1.00  0.00     0.000 C 
BRANCH  17  18
ATOM     18  C   UNL     1      20.147  10.108 -13.476  1.00  0.00     0.000 C 
BRANCH  18  19
ATOM     19  C   UNL     1      21.504  10.365 -14.141  1.00  0.00     0.000 C 
BRANCH  19  20
ATOM     20  C   UNL     1      21.343  10.624 -15.646  1.00  0.00     0.000 C 
BRANCH  20  21
ATOM     21  C   UNL     1      21.878  12.002 -16.067  1.00  0.00     0.000 C 
BRANCH  21  22
ATOM     22  C   UNL     1      23.125  12.425 -15.271  1.00  0.00    -0.000 C 
BRANCH  22  23
ATOM     23  C   UNL     1      22.956  13.789 -14.584  1.00  0.00    -0.000 C 
BRANCH  23  24
ATOM     24  C   UNL     1      22.230  14.810 -15.473  1.00  0.00    -0.000 C 
BRANCH  24  25
ATOM     25  C   UNL     1      23.063  16.086 -15.639  1.00  0.00    -0.000 C 
BRANCH  25  26
ATOM     26  C   UNL     1      22.175  17.279 -16.028  1.00  0.00    -0.000 C 
BRANCH  26  27
ATOM     27  C   UNL     1      21.588  17.999 -14.798  1.00  0.00    -0.000 C 
BRANCH  27  28
ATOM     28  C   UNL     1      22.076  19.453 -14.630  1.00  0.00    -0.000 C 
BRANCH  28  29
ATOM     29  C   UNL     1      22.545  20.120 -15.939  1.00  0.00    -0.003 C 
ATOM     30  C   UNL     1      22.294  21.629 -15.952  1.00  0.00     0.004 C 
ENDBRANCH  28  29
ENDBRANCH  27  28
ENDBRANCH  26  27
ENDBRANCH  25  26
ENDBRANCH  24  25
ENDBRANCH  23  24
ENDBRANCH  22  23
ENDBRANCH  21  22
ENDBRANCH  20  21
ENDBRANCH  19  20
ENDBRANCH  18  19
ENDBRANCH  17  18
ENDBRANCH   1  17
TORSDOF 26
ENDMDL
