MODEL 1
REMARK VINA RESULT:    -4.677      0.000      0.000
REMARK INTER + INTRA:          -5.517
REMARK INTER:                  -5.360
REMARK INTRA:                  -0.156
REMARK UNBOUND:                -0.156
REMARK SMILES O=C([O-])C=Cc1ccc(O)cc1
REMARK SMILES IDX 6 1 7 2 12 3 8 4 11 5 9 6 5 7 4 8 2 9 1 10 3 11 10 12
REMARK H PARENT 10 13
REMARK Flexibility Score: inf
ROOT
ATOM      1  C   UNL     1      16.701  19.611  16.531  1.00  0.00    -0.025 A 
ATOM      2  C   UNL     1      16.072  18.454  17.025  1.00  0.00     0.012 A 
ATOM      3  C   UNL     1      17.889  20.055  17.131  1.00  0.00     0.012 A 
ATOM      4  C   UNL     1      16.654  17.726  18.068  1.00  0.00     0.047 A 
ATOM      5  C   UNL     1      18.469  19.326  18.174  1.00  0.00     0.047 A 
ATOM      6  C   UNL     1      17.856  18.159  18.643  1.00  0.00     0.115 A 
ENDROOT
BRANCH   1   7
ATOM      7  C   UNL     1      16.079  20.426  15.468  1.00  0.00     0.010 C 
ATOM      8  C   UNL     1      15.815  20.006  14.219  1.00  0.00     0.025 C 
BRANCH   8   9
ATOM      9  C   UNL     1      16.255  18.727  13.629  1.00  0.00     0.064 C 
ATOM     10  O   UNL     1      15.486  17.732  13.564  1.00  0.00    -0.545 OA
ATOM     11  O   UNL     1      17.569  18.598  13.199  1.00  0.00    -0.545 OA
ENDBRANCH   8   9
ENDBRANCH   1   7
BRANCH   6  12
ATOM     12  O   UNL     1      18.446  17.442  19.681  1.00  0.00    -0.508 OA
ATOM     13  H   UNL     1      18.403  17.765  20.640  1.00  0.00     0.293 HD
ENDBRANCH   6  12
TORSDOF 3
ENDMDL
MODEL 2
REMARK VINA RESULT:    -4.566      2.278      3.148
REMARK INTER + INTRA:          -5.389
REMARK INTER:                  -5.113
REMARK INTRA:                  -0.276
REMARK UNBOUND:                -0.156
REMARK SMILES O=C([O-])C=Cc1ccc(O)cc1
REMARK SMILES IDX 6 1 7 2 12 3 8 4 11 5 9 6 5 7 4 8 2 9 1 10 3 11 10 12
REMARK H PARENT 10 13
REMARK Flexibility Score: inf
ROOT
ATOM      1  C   UNL     1      17.274  17.776  16.452  1.00  0.00    -0.025 A 
ATOM      2  C   UNL     1      17.305  19.116  16.026  1.00  0.00     0.012 A 
ATOM      3  C   UNL     1      17.655  17.465  17.766  1.00  0.00     0.012 A 
ATOM      4  C   UNL     1      17.660  20.132  16.920  1.00  0.00     0.047 A 
ATOM      5  C   UNL     1      18.012  18.481  18.657  1.00  0.00     0.047 A 
ATOM      6  C   UNL     1      18.012  19.816  18.240  1.00  0.00     0.115 A 
ENDROOT
BRANCH   1   7
ATOM      7  C   UNL     1      16.955  16.682  15.513  1.00  0.00     0.010 C 
ATOM      8  C   UNL     1      15.724  16.208  15.259  1.00  0.00     0.025 C 
BRANCH   8   9
ATOM      9  C   UNL     1      14.495  16.566  15.994  1.00  0.00     0.064 C 
ATOM     10  O   UNL     1      13.976  15.782  16.832  1.00  0.00    -0.545 OA
ATOM     11  O   UNL     1      13.858  17.765  15.702  1.00  0.00    -0.545 OA
ENDBRANCH   8   9
ENDBRANCH   1   7
BRANCH   6  12
ATOM     12  O   UNL     1      18.366  20.819  19.139  1.00  0.00    -0.508 OA
ATOM     13  H   UNL     1      18.127  20.759  20.121  1.00  0.00     0.293 HD
ENDBRANCH   6  12
TORSDOF 3
ENDMDL
MODEL 3
REMARK VINA RESULT:    -4.521      2.332      3.028
REMARK INTER + INTRA:          -5.339
REMARK INTER:                  -5.063
REMARK INTRA:                  -0.276
REMARK UNBOUND:                -0.156
REMARK SMILES O=C([O-])C=Cc1ccc(O)cc1
REMARK SMILES IDX 6 1 7 2 12 3 8 4 11 5 9 6 5 7 4 8 2 9 1 10 3 11 10 12
REMARK H PARENT 10 13
REMARK Flexibility Score: inf
ROOT
ATOM      1  C   UNL     1      16.788  17.756  16.559  1.00  0.00    -0.025 A 
ATOM      2  C   UNL     1      17.218  19.036  16.162  1.00  0.00     0.012 A 
ATOM      3  C   UNL     1      17.190  17.253  17.805  1.00  0.00     0.012 A 
ATOM      4  C   UNL     1      17.994  19.817  17.024  1.00  0.00     0.047 A 
ATOM      5  C   UNL     1      17.967  18.035  18.665  1.00  0.00     0.047 A 
ATOM      6  C   UNL     1      18.368  19.319  18.280  1.00  0.00     0.115 A 
ENDROOT
BRANCH   1   7
ATOM      7  C   UNL     1      16.014  16.891  15.645  1.00  0.00     0.010 C 
ATOM      8  C   UNL     1      16.529  15.928  14.863  1.00  0.00     0.025 C 
BRANCH   8   9
ATOM      9  C   UNL     1      17.965  15.676  14.639  1.00  0.00     0.064 C 
ATOM     10  O   UNL     1      18.626  16.335  13.794  1.00  0.00    -0.545 OA
ATOM     11  O   UNL     1      18.585  14.641  15.326  1.00  0.00    -0.545 OA
ENDBRANCH   8   9
ENDBRANCH   1   7
BRANCH   6  12
ATOM     12  O   UNL     1      19.139  20.088  19.148  1.00  0.00    -0.508 OA
ATOM     13  H   UNL     1      20.129  20.236  18.988  1.00  0.00     0.293 HD
ENDBRANCH   6  12
TORSDOF 3
ENDMDL
MODEL 4
REMARK VINA RESULT:    -4.519      1.567      2.405
REMARK INTER + INTRA:          -5.336
REMARK INTER:                  -5.051
REMARK INTRA:                  -0.284
REMARK UNBOUND:                -0.156
REMARK SMILES O=C([O-])C=Cc1ccc(O)cc1
REMARK SMILES IDX 6 1 7 2 12 3 8 4 11 5 9 6 5 7 4 8 2 9 1 10 3 11 10 12
REMARK H PARENT 10 13
REMARK Flexibility Score: inf
ROOT
ATOM      1  C   UNL     1      16.648  18.356  15.900  1.00  0.00    -0.025 A 
ATOM      2  C   UNL     1      17.139  19.674  15.882  1.00  0.00     0.012 A 
ATOM      3  C   UNL     1      17.010  17.503  16.953  1.00  0.00     0.012 A 
ATOM      4  C   UNL     1      17.936  20.144  16.932  1.00  0.00     0.047 A 
ATOM      5  C   UNL     1      17.808  17.974  18.001  1.00  0.00     0.047 A 
ATOM      6  C   UNL     1      18.270  19.294  17.996  1.00  0.00     0.115 A 
ENDROOT
BRANCH   1   7
ATOM      7  C   UNL     1      15.851  17.821  14.777  1.00  0.00     0.010 C 
ATOM      8  C   UNL     1      16.351  17.226  13.682  1.00  0.00     0.025 C 
BRANCH   8   9
ATOM      9  C   UNL     1      17.778  17.155  13.315  1.00  0.00     0.064 C 
ATOM     10  O   UNL     1      18.298  17.987  12.525  1.00  0.00    -0.545 OA
ATOM     11  O   UNL     1      18.549  16.106  13.798  1.00  0.00    -0.545 OA
ENDBRANCH   8   9
ENDBRANCH   1   7
BRANCH   6  12
ATOM     12  O   UNL     1      19.061  19.751  19.047  1.00  0.00    -0.508 OA
ATOM     13  H   UNL     1      19.975  20.156  18.885  1.00  0.00     0.293 HD
ENDBRANCH   6  12
TORSDOF 3
ENDMDL
MODEL 5
REMARK VINA RESULT:    -4.483      1.365      2.119
REMARK INTER + INTRA:          -5.294
REMARK INTER:                  -5.008
REMARK INTRA:                  -0.287
REMARK UNBOUND:                -0.156
REMARK SMILES O=C([O-])C=Cc1ccc(O)cc1
REMARK SMILES IDX 6 1 7 2 12 3 8 4 11 5 9 6 5 7 4 8 2 9 1 10 3 11 10 12
REMARK H PARENT 10 13
REMARK Flexibility Score: inf
ROOT
ATOM      1  C   UNL     1      15.888  18.722  16.586  1.00  0.00    -0.025 A 
ATOM      2  C   UNL     1      16.515  19.973  16.439  1.00  0.00     0.012 A 
ATOM      3  C   UNL     1      16.459  17.765  17.439  1.00  0.00     0.012 A 
ATOM      4  C   UNL     1      17.664  20.277  17.175  1.00  0.00     0.047 A 
ATOM      5  C   UNL     1      17.609  18.070  18.173  1.00  0.00     0.047 A 
ATOM      6  C   UNL     1      18.213  19.326  18.047  1.00  0.00     0.115 A 
ENDROOT
BRANCH   1   7
ATOM      7  C   UNL     1      14.705  18.359  15.780  1.00  0.00     0.010 C 
ATOM      8  C   UNL     1      14.735  17.724  14.596  1.00  0.00     0.025 C 
BRANCH   8   9
ATOM      9  C   UNL     1      15.946  17.435  13.804  1.00  0.00     0.064 C 
ATOM     10  O   UNL     1      16.399  18.259  12.967  1.00  0.00    -0.545 OA
ATOM     11  O   UNL     1      16.560  16.196  13.937  1.00  0.00    -0.545 OA
ENDBRANCH   8   9
ENDBRANCH   1   7
BRANCH   6  12
ATOM     12  O   UNL     1      19.356  19.617  18.786  1.00  0.00    -0.508 OA
ATOM     13  H   UNL     1      19.377  19.514  19.794  1.00  0.00     0.293 HD
ENDBRANCH   6  12
TORSDOF 3
ENDMDL
MODEL 6
REMARK VINA RESULT:    -4.428      3.212      5.061
REMARK INTER + INTRA:          -5.231
REMARK INTER:                  -4.942
REMARK INTRA:                  -0.289
REMARK UNBOUND:                -0.156
REMARK SMILES O=C([O-])C=Cc1ccc(O)cc1
REMARK SMILES IDX 6 1 7 2 12 3 8 4 11 5 9 6 5 7 4 8 2 9 1 10 3 11 10 12
REMARK H PARENT 10 13
REMARK Flexibility Score: inf
ROOT
ATOM      1  C   UNL     1      17.349  16.443  14.963  1.00  0.00    -0.025 A 
ATOM      2  C   UNL     1      17.776  17.195  13.854  1.00  0.00     0.012 A 
ATOM      3  C   UNL     1      17.967  15.213  15.236  1.00  0.00     0.012 A 
ATOM      4  C   UNL     1      18.839  16.746  13.064  1.00  0.00     0.047 A 
ATOM      5  C   UNL     1      19.030  14.765  14.445  1.00  0.00     0.047 A 
ATOM      6  C   UNL     1      19.471  15.530  13.361  1.00  0.00     0.115 A 
ENDROOT
BRANCH   1   7
ATOM      7  C   UNL     1      16.194  16.868  15.779  1.00  0.00     0.010 C 
ATOM      8  C   UNL     1      16.255  17.665  16.859  1.00  0.00     0.025 C 
BRANCH   8   9
ATOM      9  C   UNL     1      17.490  18.113  17.530  1.00  0.00     0.064 C 
ATOM     10  O   UNL     1      17.963  17.498  18.522  1.00  0.00    -0.545 OA
ATOM     11  O   UNL     1      18.108  19.280  17.100  1.00  0.00    -0.545 OA
ENDBRANCH   8   9
ENDBRANCH   1   7
BRANCH   6  12
ATOM     12  O   UNL     1      20.532  15.074  12.582  1.00  0.00    -0.508 OA
ATOM     13  H   UNL     1      21.098  14.284  12.868  1.00  0.00     0.293 HD
ENDBRANCH   6  12
TORSDOF 3
ENDMDL
MODEL 7
REMARK VINA RESULT:    -4.366      8.260     10.472
REMARK INTER + INTRA:          -5.160
REMARK INTER:                  -4.875
REMARK INTRA:                  -0.286
REMARK UNBOUND:                -0.156
REMARK SMILES O=C([O-])C=Cc1ccc(O)cc1
REMARK SMILES IDX 6 1 7 2 12 3 8 4 11 5 9 6 5 7 4 8 2 9 1 10 3 11 10 12
REMARK H PARENT 10 13
REMARK Flexibility Score: inf
ROOT
ATOM      1  C   UNL     1      20.634  23.022   8.668  1.00  0.00    -0.025 A 
ATOM      2  C   UNL     1      21.300  23.245   7.449  1.00  0.00     0.012 A 
ATOM      3  C   UNL     1      19.563  23.854   9.027  1.00  0.00     0.012 A 
ATOM      4  C   UNL     1      20.862  24.251   6.581  1.00  0.00     0.047 A 
ATOM      5  C   UNL     1      19.128  24.859   8.158  1.00  0.00     0.047 A 
ATOM      6  C   UNL     1      19.772  25.059   6.933  1.00  0.00     0.115 A 
ENDROOT
BRANCH   1   7
ATOM      7  C   UNL     1      21.111  22.003   9.625  1.00  0.00     0.010 C 
ATOM      8  C   UNL     1      20.817  20.693   9.576  1.00  0.00     0.025 C 
BRANCH   8   9
ATOM      9  C   UNL     1      19.833  20.063   8.676  1.00  0.00     0.064 C 
ATOM     10  O   UNL     1      20.191  19.402   7.665  1.00  0.00    -0.545 OA
ATOM     11  O   UNL     1      18.478  20.262   8.910  1.00  0.00    -0.545 OA
ENDBRANCH   8   9
ENDBRANCH   1   7
BRANCH   6  12
ATOM     12  O   UNL     1      19.328  26.063   6.076  1.00  0.00    -0.508 OA
ATOM     13  H   UNL     1      18.434  26.521   6.215  1.00  0.00     0.293 HD
ENDBRANCH   6  12
TORSDOF 3
ENDMDL
MODEL 8
REMARK VINA RESULT:    -4.290      7.543      8.590
REMARK INTER + INTRA:          -5.073
REMARK INTER:                  -4.958
REMARK INTRA:                  -0.115
REMARK UNBOUND:                -0.156
REMARK SMILES O=C([O-])C=Cc1ccc(O)cc1
REMARK SMILES IDX 6 1 7 2 12 3 8 4 11 5 9 6 5 7 4 8 2 9 1 10 3 11 10 12
REMARK H PARENT 10 13
REMARK Flexibility Score: inf
ROOT
ATOM      1  C   UNL     1      20.748  20.625   8.646  1.00  0.00    -0.025 A 
ATOM      2  C   UNL     1      20.992  20.341  10.002  1.00  0.00     0.012 A 
ATOM      3  C   UNL     1      20.504  19.567   7.757  1.00  0.00     0.012 A 
ATOM      4  C   UNL     1      20.940  19.024  10.467  1.00  0.00     0.047 A 
ATOM      5  C   UNL     1      20.454  18.250   8.224  1.00  0.00     0.047 A 
ATOM      6  C   UNL     1      20.667  17.974   9.578  1.00  0.00     0.115 A 
ENDROOT
BRANCH   1   7
ATOM      7  C   UNL     1      20.851  22.002   8.121  1.00  0.00     0.010 C 
ATOM      8  C   UNL     1      20.125  23.051   8.541  1.00  0.00     0.025 C 
BRANCH   8   9
ATOM      9  C   UNL     1      18.979  22.990   9.468  1.00  0.00     0.064 C 
ATOM     10  O   UNL     1      17.853  22.563   9.098  1.00  0.00    -0.545 OA
ATOM     11  O   UNL     1      19.126  23.480  10.759  1.00  0.00    -0.545 OA
ENDBRANCH   8   9
ENDBRANCH   1   7
BRANCH   6  12
ATOM     12  O   UNL     1      20.611  16.658  10.030  1.00  0.00    -0.508 OA
ATOM     13  H   UNL     1      21.218  15.941   9.651  1.00  0.00     0.293 HD
ENDBRANCH   6  12
TORSDOF 3
ENDMDL
MODEL 9
REMARK VINA RESULT:    -4.274      7.229      8.255
REMARK INTER + INTRA:          -5.055
REMARK INTER:                  -4.788
REMARK INTRA:                  -0.267
REMARK UNBOUND:                -0.156
REMARK SMILES O=C([O-])C=Cc1ccc(O)cc1
REMARK SMILES IDX 6 1 7 2 12 3 8 4 11 5 9 6 5 7 4 8 2 9 1 10 3 11 10 12
REMARK H PARENT 10 13
REMARK Flexibility Score: inf
ROOT
ATOM      1  C   UNL     1      17.491  12.599  11.961  1.00  0.00    -0.025 A 
ATOM      2  C   UNL     1      16.871  12.340  13.197  1.00  0.00     0.012 A 
ATOM      3  C   UNL     1      18.524  13.547  11.898  1.00  0.00     0.012 A 
ATOM      4  C   UNL     1      17.316  12.981  14.358  1.00  0.00     0.047 A 
ATOM      5  C   UNL     1      18.967  14.188  13.059  1.00  0.00     0.047 A 
ATOM      6  C   UNL     1      18.368  13.905  14.292  1.00  0.00     0.115 A 
ENDROOT
BRANCH   1   7
ATOM      7  C   UNL     1      17.004  11.976  10.714  1.00  0.00     0.010 C 
ATOM      8  C   UNL     1      17.312  10.739  10.291  1.00  0.00     0.025 C 
BRANCH   8   9
ATOM      9  C   UNL     1      18.323   9.849  10.893  1.00  0.00     0.064 C 
ATOM     10  O   UNL     1      19.453   9.679  10.363  1.00  0.00    -0.545 OA
ATOM     11  O   UNL     1      17.995   9.129  12.035  1.00  0.00    -0.545 OA
ENDBRANCH   8   9
ENDBRANCH   1   7
BRANCH   6  12
ATOM     12  O   UNL     1      18.820  14.549  15.441  1.00  0.00    -0.508 OA
ATOM     13  H   UNL     1      18.578  14.214  16.366  1.00  0.00     0.293 HD
ENDBRANCH   6  12
TORSDOF 3
ENDMDL
