MODEL 1
REMARK VINA RESULT:    -3.408      0.000      0.000
REMARK INTER + INTRA:          -8.907
REMARK INTER:                  -6.595
REMARK INTRA:                  -2.312
REMARK UNBOUND:                -2.312
REMARK SMILES CCCCCCCCCCCCCCCCCC(=O)[O-]
REMARK SMILES IDX 10 1 11 2 12 3 13 4 14 5 15 6 16 7 17 8 18 9 19 10 20 11
REMARK SMILES IDX 9 12 8 13 7 14 6 15 5 16 4 17 3 18 2 19 1 20
REMARK H PARENT
REMARK Flexibility Score: inf
ROOT
ATOM      1  C   UNL     1      51.427  31.131  87.965  1.00  0.00     0.000 C 
ENDROOT
BRANCH   1   2
ATOM      2  C   UNL     1      50.965  30.319  89.182  1.00  0.00     0.000 C 
BRANCH   2   3
ATOM      3  C   UNL     1      50.868  31.205  90.432  1.00  0.00     0.000 C 
BRANCH   3   4
ATOM      4  C   UNL     1      49.582  30.939  91.244  1.00  0.00     0.000 C 
BRANCH   4   5
ATOM      5  C   UNL     1      48.420  30.385  90.396  1.00  0.00     0.000 C 
BRANCH   5   6
ATOM      6  C   UNL     1      47.055  30.346  91.111  1.00  0.00     0.000 C 
BRANCH   6   7
ATOM      7  C   UNL     1      46.068  31.449  90.688  1.00  0.00     0.006 C 
BRANCH   7   8
ATOM      8  C   UNL     1      44.605  31.081  90.965  1.00  0.00     0.053 C 
BRANCH   8   9
ATOM      9  C   UNL     1      44.323  31.120  92.434  1.00  0.00     0.041 C 
ATOM     10  O   UNL     1      44.402  32.206  93.065  1.00  0.00    -0.550 OA
ATOM     11  O   UNL     1      44.023  29.948  93.115  1.00  0.00    -0.550 OA
ENDBRANCH   8   9
ENDBRANCH   7   8
ENDBRANCH   6   7
ENDBRANCH   5   6
ENDBRANCH   4   5
ENDBRANCH   3   4
ENDBRANCH   2   3
ENDBRANCH   1   2
BRANCH   1  12
ATOM     12  C   UNL     1      52.847  31.675  88.173  1.00  0.00     0.000 C 
BRANCH  12  13
ATOM     13  C   UNL     1      53.025  33.108  87.643  1.00  0.00    -0.000 C 
BRANCH  13  14
ATOM     14  C   UNL     1      52.404  34.208  88.524  1.00  0.00    -0.000 C 
BRANCH  14  15
ATOM     15  C   UNL     1      51.345  35.042  87.781  1.00  0.00    -0.000 C 
BRANCH  15  16
ATOM     16  C   UNL     1      50.970  34.445  86.416  1.00  0.00    -0.000 C 
BRANCH  16  17
ATOM     17  C   UNL     1      49.451  34.376  86.200  1.00  0.00    -0.000 C 
BRANCH  17  18
ATOM     18  C   UNL     1      48.702  34.467  87.539  1.00  0.00    -0.000 C 
BRANCH  18  19
ATOM     19  C   UNL     1      48.260  33.092  88.062  1.00  0.00    -0.003 C 
ATOM     20  C   UNL     1      47.945  32.106  86.937  1.00  0.00     0.004 C 
ENDBRANCH  18  19
ENDBRANCH  17  18
ENDBRANCH  16  17
ENDBRANCH  15  16
ENDBRANCH  14  15
ENDBRANCH  13  14
ENDBRANCH  12  13
ENDBRANCH   1  12
TORSDOF 16
ENDMDL
MODEL 2
REMARK VINA RESULT:    -3.380     15.907     17.739
REMARK INTER + INTRA:          -8.853
REMARK INTER:                  -6.332
REMARK INTRA:                  -2.521
REMARK UNBOUND:                -2.312
REMARK SMILES CCCCCCCCCCCCCCCCCC(=O)[O-]
REMARK SMILES IDX 10 1 11 2 12 3 13 4 14 5 15 6 16 7 17 8 18 9 19 10 20 11
REMARK SMILES IDX 9 12 8 13 7 14 6 15 5 16 4 17 3 18 2 19 1 20
REMARK H PARENT
REMARK Flexibility Score: inf
ROOT
ATOM      1  C   UNL     1      43.181  23.051  75.832  1.00  0.00     0.000 C 
ENDROOT
BRANCH   1   2
ATOM      2  C   UNL     1      42.711  21.731  75.205  1.00  0.00     0.000 C 
BRANCH   2   3
ATOM      3  C   UNL     1      41.217  21.493  75.475  1.00  0.00     0.000 C 
BRANCH   3   4
ATOM      4  C   UNL     1      40.777  22.022  76.856  1.00  0.00     0.000 C 
BRANCH   4   5
ATOM      5  C   UNL     1      40.718  20.933  77.945  1.00  0.00     0.000 C 
BRANCH   5   6
ATOM      6  C   UNL     1      40.478  21.456  79.374  1.00  0.00     0.000 C 
BRANCH   6   7
ATOM      7  C   UNL     1      39.253  20.857  80.089  1.00  0.00     0.006 C 
BRANCH   7   8
ATOM      8  C   UNL     1      39.361  19.340  80.294  1.00  0.00     0.053 C 
BRANCH   8   9
ATOM      9  C   UNL     1      38.001  18.727  80.400  1.00  0.00     0.041 C 
ATOM     10  O   UNL     1      37.039  19.396  80.860  1.00  0.00    -0.550 OA
ATOM     11  O   UNL     1      37.806  17.401  80.037  1.00  0.00    -0.550 OA
ENDBRANCH   8   9
ENDBRANCH   7   8
ENDBRANCH   6   7
ENDBRANCH   5   6
ENDBRANCH   4   5
ENDBRANCH   3   4
ENDBRANCH   2   3
ENDBRANCH   1   2
BRANCH   1  12
ATOM     12  C   UNL     1      44.632  22.941  76.320  1.00  0.00     0.000 C 
BRANCH  12  13
ATOM     13  C   UNL     1      44.803  23.353  77.793  1.00  0.00    -0.000 C 
BRANCH  13  14
ATOM     14  C   UNL     1      44.020  22.493  78.802  1.00  0.00    -0.000 C 
BRANCH  14  15
ATOM     15  C   UNL     1      44.773  21.214  79.209  1.00  0.00    -0.000 C 
BRANCH  15  16
ATOM     16  C   UNL     1      44.248  19.962  78.489  1.00  0.00    -0.000 C 
BRANCH  16  17
ATOM     17  C   UNL     1      45.370  19.154  77.819  1.00  0.00    -0.000 C 
BRANCH  17  18
ATOM     18  C   UNL     1      45.402  19.410  76.304  1.00  0.00    -0.000 C 
BRANCH  18  19
ATOM     19  C   UNL     1      46.782  19.874  75.814  1.00  0.00    -0.003 C 
ATOM     20  C   UNL     1      47.556  20.650  76.878  1.00  0.00     0.004 C 
ENDBRANCH  18  19
ENDBRANCH  17  18
ENDBRANCH  16  17
ENDBRANCH  15  16
ENDBRANCH  14  15
ENDBRANCH  13  14
ENDBRANCH  12  13
ENDBRANCH   1  12
TORSDOF 16
ENDMDL
MODEL 3
REMARK VINA RESULT:    -3.372      1.389      2.986
REMARK INTER + INTRA:          -8.838
REMARK INTER:                  -6.038
REMARK INTRA:                  -2.800
REMARK UNBOUND:                -2.312
REMARK SMILES CCCCCCCCCCCCCCCCCC(=O)[O-]
REMARK SMILES IDX 10 1 11 2 12 3 13 4 14 5 15 6 16 7 17 8 18 9 19 10 20 11
REMARK SMILES IDX 9 12 8 13 7 14 6 15 5 16 4 17 3 18 2 19 1 20
REMARK H PARENT
REMARK Flexibility Score: inf
ROOT
ATOM      1  C   UNL     1      50.034  30.472  87.082  1.00  0.00     0.000 C 
ENDROOT
BRANCH   1   2
ATOM      2  C   UNL     1      51.271  30.775  87.937  1.00  0.00     0.000 C 
BRANCH   2   3
ATOM      3  C   UNL     1      50.881  31.491  89.238  1.00  0.00     0.000 C 
BRANCH   3   4
ATOM      4  C   UNL     1      50.128  30.565  90.217  1.00  0.00     0.000 C 
BRANCH   4   5
ATOM      5  C   UNL     1      48.774  31.132  90.687  1.00  0.00     0.000 C 
BRANCH   5   6
ATOM      6  C   UNL     1      47.557  30.675  89.859  1.00  0.00     0.000 C 
BRANCH   6   7
ATOM      7  C   UNL     1      46.286  31.522  90.049  1.00  0.00     0.006 C 
BRANCH   7   8
ATOM      8  C   UNL     1      45.514  31.167  91.326  1.00  0.00     0.053 C 
BRANCH   8   9
ATOM      9  C   UNL     1      45.258  29.695  91.392  1.00  0.00     0.041 C 
ATOM     10  O   UNL     1      44.566  29.132  90.502  1.00  0.00    -0.550 OA
ATOM     11  O   UNL     1      45.740  28.952  92.461  1.00  0.00    -0.550 OA
ENDBRANCH   8   9
ENDBRANCH   7   8
ENDBRANCH   6   7
ENDBRANCH   5   6
ENDBRANCH   4   5
ENDBRANCH   3   4
ENDBRANCH   2   3
ENDBRANCH   1   2
BRANCH   1  12
ATOM     12  C   UNL     1      49.619  31.701  86.260  1.00  0.00     0.000 C 
BRANCH  12  13
ATOM     13  C   UNL     1      48.240  32.254  86.659  1.00  0.00    -0.000 C 
BRANCH  13  14
ATOM     14  C   UNL     1      48.277  33.515  87.542  1.00  0.00    -0.000 C 
BRANCH  14  15
ATOM     15  C   UNL     1      49.009  34.692  86.871  1.00  0.00    -0.000 C 
BRANCH  15  16
ATOM     16  C   UNL     1      49.927  35.450  87.842  1.00  0.00    -0.000 C 
BRANCH  16  17
ATOM     17  C   UNL     1      51.344  34.860  87.895  1.00  0.00    -0.000 C 
BRANCH  17  18
ATOM     18  C   UNL     1      51.878  34.586  86.480  1.00  0.00    -0.000 C 
BRANCH  18  19
ATOM     19  C   UNL     1      53.110  33.668  86.483  1.00  0.00    -0.003 C 
ATOM     20  C   UNL     1      53.125  32.697  85.304  1.00  0.00     0.004 C 
ENDBRANCH  18  19
ENDBRANCH  17  18
ENDBRANCH  16  17
ENDBRANCH  15  16
ENDBRANCH  14  15
ENDBRANCH  13  14
ENDBRANCH  12  13
ENDBRANCH   1  12
TORSDOF 16
ENDMDL
MODEL 4
REMARK VINA RESULT:    -3.364      3.669      6.882
REMARK INTER + INTRA:          -8.823
REMARK INTER:                  -6.216
REMARK INTRA:                  -2.607
REMARK UNBOUND:                -2.312
REMARK SMILES CCCCCCCCCCCCCCCCCC(=O)[O-]
REMARK SMILES IDX 10 1 11 2 12 3 13 4 14 5 15 6 16 7 17 8 18 9 19 10 20 11
REMARK SMILES IDX 9 12 8 13 7 14 6 15 5 16 4 17 3 18 2 19 1 20
REMARK H PARENT
REMARK Flexibility Score: inf
ROOT
ATOM      1  C   UNL     1      48.268  33.434  88.034  1.00  0.00     0.000 C 
ENDROOT
BRANCH   1   2
ATOM      2  C   UNL     1      48.559  34.733  87.271  1.00  0.00     0.000 C 
BRANCH   2   3
ATOM      3  C   UNL     1      49.839  35.403  87.790  1.00  0.00     0.000 C 
BRANCH   3   4
ATOM      4  C   UNL     1      51.031  34.425  87.855  1.00  0.00     0.000 C 
BRANCH   4   5
ATOM      5  C   UNL     1      52.295  34.943  87.142  1.00  0.00     0.000 C 
BRANCH   5   6
ATOM      6  C   UNL     1      52.537  34.355  85.739  1.00  0.00     0.000 C 
BRANCH   6   7
ATOM      7  C   UNL     1      51.401  33.466  85.201  1.00  0.00     0.006 C 
BRANCH   7   8
ATOM      8  C   UNL     1      50.710  34.058  83.967  1.00  0.00     0.053 C 
BRANCH   8   9
ATOM      9  C   UNL     1      49.332  33.494  83.817  1.00  0.00     0.041 C 
ATOM     10  O   UNL     1      49.169  32.258  83.645  1.00  0.00    -0.550 OA
ATOM     11  O   UNL     1      48.231  34.341  83.816  1.00  0.00    -0.550 OA
ENDBRANCH   8   9
ENDBRANCH   7   8
ENDBRANCH   6   7
ENDBRANCH   5   6
ENDBRANCH   4   5
ENDBRANCH   3   4
ENDBRANCH   2   3
ENDBRANCH   1   2
BRANCH   1  12
ATOM     12  C   UNL     1      48.125  32.249  87.069  1.00  0.00     0.000 C 
BRANCH  12  13
ATOM     13  C   UNL     1      49.227  31.189  87.252  1.00  0.00    -0.000 C 
BRANCH  13  14
ATOM     14  C   UNL     1      48.901  30.086  88.276  1.00  0.00    -0.000 C 
BRANCH  14  15
ATOM     15  C   UNL     1      49.659  30.260  89.604  1.00  0.00    -0.000 C 
BRANCH  15  16
ATOM     16  C   UNL     1      48.780  30.856  90.714  1.00  0.00    -0.000 C 
BRANCH  16  17
ATOM     17  C   UNL     1      47.340  30.323  90.676  1.00  0.00    -0.000 C 
BRANCH  17  18
ATOM     18  C   UNL     1      46.332  31.474  90.532  1.00  0.00    -0.000 C 
BRANCH  18  19
ATOM     19  C   UNL     1      45.019  31.028  89.871  1.00  0.00    -0.003 C 
ATOM     20  C   UNL     1      45.245  30.231  88.587  1.00  0.00     0.004 C 
ENDBRANCH  18  19
ENDBRANCH  17  18
ENDBRANCH  16  17
ENDBRANCH  15  16
ENDBRANCH  14  15
ENDBRANCH  13  14
ENDBRANCH  12  13
ENDBRANCH   1  12
TORSDOF 16
ENDMDL
MODEL 5
REMARK VINA RESULT:    -3.353      3.221      7.182
REMARK INTER + INTRA:          -8.800
REMARK INTER:                  -6.143
REMARK INTRA:                  -2.657
REMARK UNBOUND:                -2.312
REMARK SMILES CCCCCCCCCCCCCCCCCC(=O)[O-]
REMARK SMILES IDX 10 1 11 2 12 3 13 4 14 5 15 6 16 7 17 8 18 9 19 10 20 11
REMARK SMILES IDX 9 12 8 13 7 14 6 15 5 16 4 17 3 18 2 19 1 20
REMARK H PARENT
REMARK Flexibility Score: inf
ROOT
ATOM      1  C   UNL     1      46.553  27.963  91.894  1.00  0.00     0.000 C 
ENDROOT
BRANCH   1   2
ATOM      2  C   UNL     1      47.702  28.053  90.881  1.00  0.00     0.000 C 
BRANCH   2   3
ATOM      3  C   UNL     1      48.582  29.282  91.151  1.00  0.00     0.000 C 
BRANCH   3   4
ATOM      4  C   UNL     1      49.324  29.764  89.886  1.00  0.00     0.000 C 
BRANCH   4   5
ATOM      5  C   UNL     1      49.537  31.289  89.838  1.00  0.00     0.000 C 
BRANCH   5   6
ATOM      6  C   UNL     1      49.218  31.947  88.482  1.00  0.00     0.000 C 
BRANCH   6   7
ATOM      7  C   UNL     1      50.379  32.739  87.853  1.00  0.00     0.006 C 
BRANCH   7   8
ATOM      8  C   UNL     1      49.903  33.884  86.950  1.00  0.00     0.053 C 
BRANCH   8   9
ATOM      9  C   UNL     1      49.943  35.185  87.688  1.00  0.00     0.041 C 
ATOM     10  O   UNL     1      51.044  35.660  88.075  1.00  0.00    -0.550 OA
ATOM     11  O   UNL     1      48.762  35.848  87.992  1.00  0.00    -0.550 OA
ENDBRANCH   8   9
ENDBRANCH   7   8
ENDBRANCH   6   7
ENDBRANCH   5   6
ENDBRANCH   4   5
ENDBRANCH   3   4
ENDBRANCH   2   3
ENDBRANCH   1   2
BRANCH   1  12
ATOM     12  C   UNL     1      45.245  27.547  91.208  1.00  0.00     0.000 C 
BRANCH  12  13
ATOM     13  C   UNL     1      43.995  28.123  91.897  1.00  0.00    -0.000 C 
BRANCH  13  14
ATOM     14  C   UNL     1      44.273  28.909  93.192  1.00  0.00    -0.000 C 
BRANCH  14  15
ATOM     15  C   UNL     1      43.855  30.387  93.096  1.00  0.00    -0.000 C 
BRANCH  15  16
ATOM     16  C   UNL     1      44.109  30.985  91.704  1.00  0.00    -0.000 C 
BRANCH  16  17
ATOM     17  C   UNL     1      45.543  31.512  91.541  1.00  0.00    -0.000 C 
BRANCH  17  18
ATOM     18  C   UNL     1      45.938  31.579  90.057  1.00  0.00    -0.000 C 
BRANCH  18  19
ATOM     19  C   UNL     1      45.132  30.602  89.188  1.00  0.00    -0.003 C 
ATOM     20  C   UNL     1      45.978  29.942  88.101  1.00  0.00     0.004 C 
ENDBRANCH  18  19
ENDBRANCH  17  18
ENDBRANCH  16  17
ENDBRANCH  15  16
ENDBRANCH  14  15
ENDBRANCH  13  14
ENDBRANCH  12  13
ENDBRANCH   1  12
TORSDOF 16
ENDMDL
MODEL 6
REMARK VINA RESULT:    -3.327      3.648      5.411
REMARK INTER + INTRA:          -8.750
REMARK INTER:                  -6.328
REMARK INTRA:                  -2.423
REMARK UNBOUND:                -2.312
REMARK SMILES CCCCCCCCCCCCCCCCCC(=O)[O-]
REMARK SMILES IDX 10 1 11 2 12 3 13 4 14 5 15 6 16 7 17 8 18 9 19 10 20 11
REMARK SMILES IDX 9 12 8 13 7 14 6 15 5 16 4 17 3 18 2 19 1 20
REMARK H PARENT
REMARK Flexibility Score: inf
ROOT
ATOM      1  C   UNL     1      46.848  31.035  88.232  1.00  0.00     0.000 C 
ENDROOT
BRANCH   1   2
ATOM      2  C   UNL     1      46.782  31.697  89.614  1.00  0.00     0.000 C 
BRANCH   2   3
ATOM      3  C   UNL     1      47.228  30.722  90.714  1.00  0.00     0.000 C 
BRANCH   3   4
ATOM      4  C   UNL     1      48.695  30.947  91.140  1.00  0.00     0.000 C 
BRANCH   4   5
ATOM      5  C   UNL     1      49.698  30.043  90.397  1.00  0.00     0.000 C 
BRANCH   5   6
ATOM      6  C   UNL     1      51.154  30.549  90.400  1.00  0.00     0.000 C 
BRANCH   6   7
ATOM      7  C   UNL     1      51.362  31.930  91.048  1.00  0.00     0.006 C 
BRANCH   7   8
ATOM      8  C   UNL     1      52.776  32.120  91.612  1.00  0.00     0.053 C 
BRANCH   8   9
ATOM      9  C   UNL     1      53.553  33.077  90.764  1.00  0.00     0.041 C 
ATOM     10  O   UNL     1      54.211  34.007  91.300  1.00  0.00    -0.550 OA
ATOM     11  O   UNL     1      53.512  32.971  89.380  1.00  0.00    -0.550 OA
ENDBRANCH   8   9
ENDBRANCH   7   8
ENDBRANCH   6   7
ENDBRANCH   5   6
ENDBRANCH   4   5
ENDBRANCH   3   4
ENDBRANCH   2   3
ENDBRANCH   1   2
BRANCH   1  12
ATOM     12  C   UNL     1      47.803  31.797  87.302  1.00  0.00     0.000 C 
BRANCH  12  13
ATOM     13  C   UNL     1      48.303  33.120  87.908  1.00  0.00    -0.000 C 
BRANCH  13  14
ATOM     14  C   UNL     1      49.832  33.229  88.054  1.00  0.00    -0.000 C 
BRANCH  14  15
ATOM     15  C   UNL     1      50.350  34.666  87.867  1.00  0.00    -0.000 C 
BRANCH  15  16
ATOM     16  C   UNL     1      51.600  34.735  86.977  1.00  0.00    -0.000 C 
BRANCH  16  17
ATOM     17  C   UNL     1      51.629  33.626  85.914  1.00  0.00    -0.000 C 
BRANCH  17  18
ATOM     18  C   UNL     1      50.983  34.105  84.605  1.00  0.00    -0.000 C 
BRANCH  18  19
ATOM     19  C   UNL     1      49.640  33.414  84.324  1.00  0.00    -0.003 C 
ATOM     20  C   UNL     1      48.498  34.408  84.113  1.00  0.00     0.004 C 
ENDBRANCH  18  19
ENDBRANCH  17  18
ENDBRANCH  16  17
ENDBRANCH  15  16
ENDBRANCH  14  15
ENDBRANCH  13  14
ENDBRANCH  12  13
ENDBRANCH   1  12
TORSDOF 16
ENDMDL
MODEL 7
REMARK VINA RESULT:    -3.311      1.284      2.297
REMARK INTER + INTRA:          -8.720
REMARK INTER:                  -5.861
REMARK INTRA:                  -2.860
REMARK UNBOUND:                -2.312
REMARK SMILES CCCCCCCCCCCCCCCCCC(=O)[O-]
REMARK SMILES IDX 10 1 11 2 12 3 13 4 14 5 15 6 16 7 17 8 18 9 19 10 20 11
REMARK SMILES IDX 9 12 8 13 7 14 6 15 5 16 4 17 3 18 2 19 1 20
REMARK H PARENT
REMARK Flexibility Score: inf
ROOT
ATOM      1  C   UNL     1      51.862  32.484  87.649  1.00  0.00     0.000 C 
ENDROOT
BRANCH   1   2
ATOM      2  C   UNL     1      51.961  32.745  89.157  1.00  0.00     0.000 C 
BRANCH   2   3
ATOM      3  C   UNL     1      50.816  32.055  89.913  1.00  0.00     0.000 C 
BRANCH   3   4
ATOM      4  C   UNL     1      50.691  30.559  89.555  1.00  0.00     0.000 C 
BRANCH   4   5
ATOM      5  C   UNL     1      49.683  29.795  90.435  1.00  0.00     0.000 C 
BRANCH   5   6
ATOM      6  C   UNL     1      48.575  30.665  91.059  1.00  0.00     0.000 C 
BRANCH   6   7
ATOM      7  C   UNL     1      47.193  30.535  90.393  1.00  0.00     0.006 C 
BRANCH   7   8
ATOM      8  C   UNL     1      46.130  31.434  91.039  1.00  0.00     0.053 C 
BRANCH   8   9
ATOM      9  C   UNL     1      45.064  30.606  91.683  1.00  0.00     0.041 C 
ATOM     10  O   UNL     1      43.870  31.004  91.688  1.00  0.00    -0.550 OA
ATOM     11  O   UNL     1      45.397  29.419  92.323  1.00  0.00    -0.550 OA
ENDBRANCH   8   9
ENDBRANCH   7   8
ENDBRANCH   6   7
ENDBRANCH   5   6
ENDBRANCH   4   5
ENDBRANCH   3   4
ENDBRANCH   2   3
ENDBRANCH   1   2
BRANCH   1  12
ATOM     12  C   UNL     1      51.561  33.781  86.885  1.00  0.00     0.000 C 
BRANCH  12  13
ATOM     13  C   UNL     1      51.334  34.987  87.814  1.00  0.00    -0.000 C 
BRANCH  13  14
ATOM     14  C   UNL     1      49.891  35.524  87.839  1.00  0.00    -0.000 C 
BRANCH  14  15
ATOM     15  C   UNL     1      48.905  34.623  87.074  1.00  0.00    -0.000 C 
BRANCH  15  16
ATOM     16  C   UNL     1      48.173  33.632  87.993  1.00  0.00    -0.000 C 
BRANCH  16  17
ATOM     17  C   UNL     1      48.034  32.238  87.364  1.00  0.00    -0.000 C 
BRANCH  17  18
ATOM     18  C   UNL     1      48.209  32.304  85.838  1.00  0.00    -0.000 C 
BRANCH  18  19
ATOM     19  C   UNL     1      49.214  31.266  85.315  1.00  0.00    -0.003 C 
ATOM     20  C   UNL     1      49.294  30.024  86.201  1.00  0.00     0.004 C 
ENDBRANCH  18  19
ENDBRANCH  17  18
ENDBRANCH  16  17
ENDBRANCH  15  16
ENDBRANCH  14  15
ENDBRANCH  13  14
ENDBRANCH  12  13
ENDBRANCH   1  12
TORSDOF 16
ENDMDL
MODEL 8
REMARK VINA RESULT:    -3.303      1.506      1.983
REMARK INTER + INTRA:          -8.704
REMARK INTER:                  -5.953
REMARK INTRA:                  -2.751
REMARK UNBOUND:                -2.312
REMARK SMILES CCCCCCCCCCCCCCCCCC(=O)[O-]
REMARK SMILES IDX 10 1 11 2 12 3 13 4 14 5 15 6 16 7 17 8 18 9 19 10 20 11
REMARK SMILES IDX 9 12 8 13 7 14 6 15 5 16 4 17 3 18 2 19 1 20
REMARK H PARENT
REMARK Flexibility Score: inf
ROOT
ATOM      1  C   UNL     1      51.771  31.324  87.118  1.00  0.00     0.000 C 
ENDROOT
BRANCH   1   2
ATOM      2  C   UNL     1      52.880  31.440  88.172  1.00  0.00     0.000 C 
BRANCH   2   3
ATOM      3  C   UNL     1      52.298  31.783  89.551  1.00  0.00     0.000 C 
BRANCH   3   4
ATOM      4  C   UNL     1      50.756  31.854  89.538  1.00  0.00     0.000 C 
BRANCH   4   5
ATOM      5  C   UNL     1      50.082  30.842  90.485  1.00  0.00     0.000 C 
BRANCH   5   6
ATOM      6  C   UNL     1      48.714  30.316  90.008  1.00  0.00     0.000 C 
BRANCH   6   7
ATOM      7  C   UNL     1      47.558  31.327  90.110  1.00  0.00     0.006 C 
BRANCH   7   8
ATOM      8  C   UNL     1      46.495  30.920  91.139  1.00  0.00     0.053 C 
BRANCH   8   9
ATOM      9  C   UNL     1      45.122  31.084  90.569  1.00  0.00     0.041 C 
ATOM     10  O   UNL     1      44.149  31.341  91.325  1.00  0.00    -0.550 OA
ATOM     11  O   UNL     1      44.908  30.903  89.208  1.00  0.00    -0.550 OA
ENDBRANCH   8   9
ENDBRANCH   7   8
ENDBRANCH   6   7
ENDBRANCH   5   6
ENDBRANCH   4   5
ENDBRANCH   3   4
ENDBRANCH   2   3
ENDBRANCH   1   2
BRANCH   1  12
ATOM     12  C   UNL     1      52.259  31.817  85.749  1.00  0.00     0.000 C 
BRANCH  12  13
ATOM     13  C   UNL     1      53.057  33.131  85.833  1.00  0.00    -0.000 C 
BRANCH  13  14
ATOM     14  C   UNL     1      52.198  34.406  85.928  1.00  0.00    -0.000 C 
BRANCH  14  15
ATOM     15  C   UNL     1      52.208  35.030  87.335  1.00  0.00    -0.000 C 
BRANCH  15  16
ATOM     16  C   UNL     1      50.803  35.136  87.946  1.00  0.00    -0.000 C 
BRANCH  16  17
ATOM     17  C   UNL     1      49.694  34.800  86.938  1.00  0.00    -0.000 C 
BRANCH  17  18
ATOM     18  C   UNL     1      48.544  34.041  87.619  1.00  0.00    -0.000 C 
BRANCH  18  19
ATOM     19  C   UNL     1      48.237  32.700  86.935  1.00  0.00    -0.003 C 
ATOM     20  C   UNL     1      48.484  32.736  85.427  1.00  0.00     0.004 C 
ENDBRANCH  18  19
ENDBRANCH  17  18
ENDBRANCH  16  17
ENDBRANCH  15  16
ENDBRANCH  14  15
ENDBRANCH  13  14
ENDBRANCH  12  13
ENDBRANCH   1  12
TORSDOF 16
ENDMDL
MODEL 9
REMARK VINA RESULT:    -3.297      1.815      3.470
REMARK INTER + INTRA:          -8.692
REMARK INTER:                  -5.669
REMARK INTRA:                  -3.023
REMARK UNBOUND:                -2.312
REMARK SMILES CCCCCCCCCCCCCCCCCC(=O)[O-]
REMARK SMILES IDX 10 1 11 2 12 3 13 4 14 5 15 6 16 7 17 8 18 9 19 10 20 11
REMARK SMILES IDX 9 12 8 13 7 14 6 15 5 16 4 17 3 18 2 19 1 20
REMARK H PARENT
REMARK Flexibility Score: inf
ROOT
ATOM      1  C   UNL     1      52.996  33.012  86.027  1.00  0.00     0.000 C 
ENDROOT
BRANCH   1   2
ATOM      2  C   UNL     1      51.925  31.978  85.656  1.00  0.00     0.000 C 
BRANCH   2   3
ATOM      3  C   UNL     1      51.588  31.078  86.853  1.00  0.00     0.000 C 
BRANCH   3   4
ATOM      4  C   UNL     1      52.569  31.271  88.029  1.00  0.00     0.000 C 
BRANCH   4   5
ATOM      5  C   UNL     1      51.878  31.651  89.354  1.00  0.00     0.000 C 
BRANCH   5   6
ATOM      6  C   UNL     1      51.059  30.521  90.007  1.00  0.00     0.000 C 
BRANCH   6   7
ATOM      7  C   UNL     1      49.717  30.960  90.621  1.00  0.00     0.006 C 
BRANCH   7   8
ATOM      8  C   UNL     1      48.582  31.027  89.592  1.00  0.00     0.053 C 
BRANCH   8   9
ATOM      9  C   UNL     1      47.253  31.051  90.278  1.00  0.00     0.041 C 
ATOM     10  O   UNL     1      46.401  31.928  89.978  1.00  0.00    -0.550 OA
ATOM     11  O   UNL     1      46.974  30.135  91.285  1.00  0.00    -0.550 OA
ENDBRANCH   8   9
ENDBRANCH   7   8
ENDBRANCH   6   7
ENDBRANCH   5   6
ENDBRANCH   4   5
ENDBRANCH   3   4
ENDBRANCH   2   3
ENDBRANCH   1   2
BRANCH   1  12
ATOM     12  C   UNL     1      52.406  34.429  86.057  1.00  0.00     0.000 C 
BRANCH  12  13
ATOM     13  C   UNL     1      52.208  34.968  87.485  1.00  0.00    -0.000 C 
BRANCH  13  14
ATOM     14  C   UNL     1      50.762  35.365  87.834  1.00  0.00    -0.000 C 
BRANCH  14  15
ATOM     15  C   UNL     1      49.827  34.151  87.979  1.00  0.00    -0.000 C 
BRANCH  15  16
ATOM     16  C   UNL     1      48.612  34.222  87.041  1.00  0.00    -0.000 C 
BRANCH  16  17
ATOM     17  C   UNL     1      48.266  32.860  86.421  1.00  0.00    -0.000 C 
BRANCH  17  18
ATOM     18  C   UNL     1      48.428  32.896  84.893  1.00  0.00    -0.000 C 
BRANCH  18  19
ATOM     19  C   UNL     1      48.622  34.321  84.354  1.00  0.00    -0.003 C 
ATOM     20  C   UNL     1      49.805  34.434  83.394  1.00  0.00     0.004 C 
ENDBRANCH  18  19
ENDBRANCH  17  18
ENDBRANCH  16  17
ENDBRANCH  15  16
ENDBRANCH  14  15
ENDBRANCH  13  14
ENDBRANCH  12  13
ENDBRANCH   1  12
TORSDOF 16
ENDMDL
