MODEL 1
REMARK VINA RESULT:    -5.732      0.000      0.000
REMARK INTER + INTRA:         -17.541
REMARK INTER:                 -14.443
REMARK INTRA:                  -3.098
REMARK UNBOUND:                -3.098
REMARK SMILES CCCCCCCCCCCCCCCCCCCCCCCCCCCC(=O)[O-]
REMARK SMILES IDX 15 1 16 2 17 3 18 4 19 5 20 6 21 7 22 8 23 9 24 10 25 11
REMARK SMILES IDX 26 12 27 13 28 14 29 15 30 16 14 17 13 18 12 19 11 20 10 21
REMARK SMILES IDX 9 22 8 23 7 24 6 25 5 26 4 27 3 28 2 29 1 30
REMARK H PARENT
REMARK Flexibility Score: inf
ROOT
ATOM      1  C   UNL     1     -19.755  39.124  89.721  1.00  0.00     0.000 C 
ENDROOT
BRANCH   1   2
ATOM      2  C   UNL     1     -20.535  38.911  91.028  1.00  0.00     0.000 C 
BRANCH   2   3
ATOM      3  C   UNL     1     -21.086  40.220  91.611  1.00  0.00     0.000 C 
BRANCH   3   4
ATOM      4  C   UNL     1     -21.012  41.353  90.579  1.00  0.00     0.000 C 
BRANCH   4   5
ATOM      5  C   UNL     1     -22.232  42.279  90.691  1.00  0.00     0.000 C 
BRANCH   5   6
ATOM      6  C   UNL     1     -22.311  43.294  89.539  1.00  0.00     0.000 C 
BRANCH   6   7
ATOM      7  C   UNL     1     -23.757  43.567  89.088  1.00  0.00     0.000 C 
BRANCH   7   8
ATOM      8  C   UNL     1     -24.026  45.060  88.842  1.00  0.00     0.000 C 
BRANCH   8   9
ATOM      9  C   UNL     1     -25.232  45.299  87.919  1.00  0.00     0.000 C 
BRANCH   9  10
ATOM     10  C   UNL     1     -26.172  46.394  88.449  1.00  0.00     0.000 C 
BRANCH  10  11
ATOM     11  C   UNL     1     -26.303  46.367  89.981  1.00  0.00     0.000 C 
BRANCH  11  12
ATOM     12  C   UNL     1     -27.503  45.534  90.470  1.00  0.00     0.006 C 
BRANCH  12  13
ATOM     13  C   UNL     1     -27.145  44.084  90.839  1.00  0.00     0.053 C 
BRANCH  13  14
ATOM     14  C   UNL     1     -28.171  43.100  90.363  1.00  0.00     0.041 C 
ATOM     15  O   UNL     1     -29.012  42.624  91.170  1.00  0.00    -0.550 OA
ATOM     16  O   UNL     1     -28.172  42.677  89.040  1.00  0.00    -0.550 OA
ENDBRANCH  13  14
ENDBRANCH  12  13
ENDBRANCH  11  12
ENDBRANCH  10  11
ENDBRANCH   9  10
ENDBRANCH   8   9
ENDBRANCH   7   8
ENDBRANCH   6   7
ENDBRANCH   5   6
ENDBRANCH   4   5
ENDBRANCH   3   4
ENDBRANCH   2   3
ENDBRANCH   1   2
BRANCH   1  17
ATOM     17  C   UNL     1     -20.244  38.214  88.583  1.00  0.00     0.000 C 
BRANCH  17  18
ATOM     18  C   UNL     1     -21.092  39.001  87.573  1.00  0.00     0.000 C 
BRANCH  18  19
ATOM     19  C   UNL     1     -20.245  39.704  86.499  1.00  0.00     0.000 C 
BRANCH  19  20
ATOM     20  C   UNL     1     -19.746  41.089  86.947  1.00  0.00     0.000 C 
BRANCH  20  21
ATOM     21  C   UNL     1     -20.656  42.234  86.468  1.00  0.00     0.000 C 
BRANCH  21  22
ATOM     22  C   UNL     1     -19.931  43.375  85.730  1.00  0.00    -0.000 C 
BRANCH  22  23
ATOM     23  C   UNL     1     -20.291  44.765  86.283  1.00  0.00    -0.000 C 
BRANCH  23  24
ATOM     24  C   UNL     1     -21.806  45.049  86.264  1.00  0.00    -0.000 C 
BRANCH  24  25
ATOM     25  C   UNL     1     -22.245  46.214  85.358  1.00  0.00    -0.000 C 
BRANCH  25  26
ATOM     26  C   UNL     1     -21.071  46.896  84.638  1.00  0.00    -0.000 C 
BRANCH  26  27
ATOM     27  C   UNL     1     -20.862  46.301  83.237  1.00  0.00    -0.000 C 
BRANCH  27  28
ATOM     28  C   UNL     1     -19.381  46.343  82.799  1.00  0.00    -0.000 C 
BRANCH  28  29
ATOM     29  C   UNL     1     -18.424  46.819  83.904  1.00  0.00    -0.003 C 
ATOM     30  C   UNL     1     -17.435  45.743  84.344  1.00  0.00     0.004 C 
ENDBRANCH  28  29
ENDBRANCH  27  28
ENDBRANCH  26  27
ENDBRANCH  25  26
ENDBRANCH  24  25
ENDBRANCH  23  24
ENDBRANCH  22  23
ENDBRANCH  21  22
ENDBRANCH  20  21
ENDBRANCH  19  20
ENDBRANCH  18  19
ENDBRANCH  17  18
ENDBRANCH   1  17
TORSDOF 26
ENDMDL
MODEL 2
REMARK VINA RESULT:    -5.562      1.221      6.197
REMARK INTER + INTRA:         -17.114
REMARK INTER:                 -13.903
REMARK INTRA:                  -3.210
REMARK UNBOUND:                -3.098
REMARK SMILES CCCCCCCCCCCCCCCCCCCCCCCCCCCC(=O)[O-]
REMARK SMILES IDX 15 1 16 2 17 3 18 4 19 5 20 6 21 7 22 8 23 9 24 10 25 11
REMARK SMILES IDX 26 12 27 13 28 14 29 15 30 16 14 17 13 18 12 19 11 20 10 21
REMARK SMILES IDX 9 22 8 23 7 24 6 25 5 26 4 27 3 28 2 29 1 30
REMARK H PARENT
REMARK Flexibility Score: inf
ROOT
ATOM      1  C   UNL     1     -19.457  42.971  85.961  1.00  0.00     0.000 C 
ENDROOT
BRANCH   1   2
ATOM      2  C   UNL     1     -18.994  44.018  84.936  1.00  0.00     0.000 C 
BRANCH   2   3
ATOM      3  C   UNL     1     -19.728  45.358  85.082  1.00  0.00     0.000 C 
BRANCH   3   4
ATOM      4  C   UNL     1     -20.479  45.715  83.794  1.00  0.00     0.000 C 
BRANCH   4   5
ATOM      5  C   UNL     1     -21.746  46.525  84.102  1.00  0.00     0.000 C 
BRANCH   5   6
ATOM      6  C   UNL     1     -22.121  46.491  85.593  1.00  0.00     0.000 C 
BRANCH   6   7
ATOM      7  C   UNL     1     -23.568  46.947  85.851  1.00  0.00     0.000 C 
BRANCH   7   8
ATOM      8  C   UNL     1     -24.243  46.154  86.981  1.00  0.00     0.000 C 
BRANCH   8   9
ATOM      9  C   UNL     1     -25.755  46.421  87.068  1.00  0.00     0.000 C 
BRANCH   9  10
ATOM     10  C   UNL     1     -26.438  45.591  88.169  1.00  0.00     0.000 C 
BRANCH  10  11
ATOM     11  C   UNL     1     -25.507  45.316  89.362  1.00  0.00     0.000 C 
BRANCH  11  12
ATOM     12  C   UNL     1     -25.821  43.990  90.079  1.00  0.00     0.006 C 
BRANCH  12  13
ATOM     13  C   UNL     1     -27.096  44.034  90.939  1.00  0.00     0.053 C 
BRANCH  13  14
ATOM     14  C   UNL     1     -28.138  43.063  90.473  1.00  0.00     0.041 C 
ATOM     15  O   UNL     1     -28.985  42.606  91.284  1.00  0.00    -0.550 OA
ATOM     16  O   UNL     1     -28.149  42.630  89.152  1.00  0.00    -0.550 OA
ENDBRANCH  13  14
ENDBRANCH  12  13
ENDBRANCH  11  12
ENDBRANCH  10  11
ENDBRANCH   9  10
ENDBRANCH   8   9
ENDBRANCH   7   8
ENDBRANCH   6   7
ENDBRANCH   5   6
ENDBRANCH   4   5
ENDBRANCH   3   4
ENDBRANCH   2   3
ENDBRANCH   1   2
BRANCH   1  17
ATOM     17  C   UNL     1     -20.809  43.325  86.602  1.00  0.00     0.000 C 
BRANCH  17  18
ATOM     18  C   UNL     1     -20.919  42.741  88.018  1.00  0.00     0.000 C 
BRANCH  18  19
ATOM     19  C   UNL     1     -22.243  43.099  88.712  1.00  0.00     0.000 C 
BRANCH  19  20
ATOM     20  C   UNL     1     -22.288  42.642  90.180  1.00  0.00     0.000 C 
BRANCH  20  21
ATOM     21  C   UNL     1     -21.156  41.662  90.536  1.00  0.00     0.000 C 
BRANCH  21  22
ATOM     22  C   UNL     1     -21.350  40.896  91.858  1.00  0.00    -0.000 C 
BRANCH  22  23
ATOM     23  C   UNL     1     -20.616  39.544  91.877  1.00  0.00    -0.000 C 
BRANCH  23  24
ATOM     24  C   UNL     1     -19.130  39.658  91.485  1.00  0.00    -0.000 C 
BRANCH  24  25
ATOM     25  C   UNL     1     -18.661  38.679  90.392  1.00  0.00    -0.000 C 
BRANCH  25  26
ATOM     26  C   UNL     1     -19.764  37.711  89.935  1.00  0.00    -0.000 C 
BRANCH  26  27
ATOM     27  C   UNL     1     -19.995  37.814  88.419  1.00  0.00    -0.000 C 
BRANCH  27  28
ATOM     28  C   UNL     1     -20.939  38.979  88.050  1.00  0.00    -0.000 C 
BRANCH  28  29
ATOM     29  C   UNL     1     -20.937  39.324  86.552  1.00  0.00    -0.003 C 
ATOM     30  C   UNL     1     -20.179  38.306  85.704  1.00  0.00     0.004 C 
ENDBRANCH  28  29
ENDBRANCH  27  28
ENDBRANCH  26  27
ENDBRANCH  25  26
ENDBRANCH  24  25
ENDBRANCH  23  24
ENDBRANCH  22  23
ENDBRANCH  21  22
ENDBRANCH  20  21
ENDBRANCH  19  20
ENDBRANCH  18  19
ENDBRANCH  17  18
ENDBRANCH   1  17
TORSDOF 26
ENDMDL
MODEL 3
REMARK VINA RESULT:    -5.537      3.811      8.505
REMARK INTER + INTRA:         -17.051
REMARK INTER:                 -13.734
REMARK INTRA:                  -3.317
REMARK UNBOUND:                -3.098
REMARK SMILES CCCCCCCCCCCCCCCCCCCCCCCCCCCC(=O)[O-]
REMARK SMILES IDX 15 1 16 2 17 3 18 4 19 5 20 6 21 7 22 8 23 9 24 10 25 11
REMARK SMILES IDX 26 12 27 13 28 14 29 15 30 16 14 17 13 18 12 19 11 20 10 21
REMARK SMILES IDX 9 22 8 23 7 24 6 25 5 26 4 27 3 28 2 29 1 30
REMARK H PARENT
REMARK Flexibility Score: inf
ROOT
ATOM      1  C   UNL     1     -19.431  43.261  85.459  1.00  0.00     0.000 C 
ENDROOT
BRANCH   1   2
ATOM      2  C   UNL     1     -20.553  42.975  86.470  1.00  0.00     0.000 C 
BRANCH   2   3
ATOM      3  C   UNL     1     -20.283  41.724  87.318  1.00  0.00     0.000 C 
BRANCH   3   4
ATOM      4  C   UNL     1     -20.668  41.963  88.783  1.00  0.00     0.000 C 
BRANCH   4   5
ATOM      5  C   UNL     1     -19.776  41.142  89.726  1.00  0.00     0.000 C 
BRANCH   5   6
ATOM      6  C   UNL     1     -20.583  40.384  90.793  1.00  0.00     0.000 C 
BRANCH   6   7
ATOM      7  C   UNL     1     -20.743  38.889  90.463  1.00  0.00     0.000 C 
BRANCH   7   8
ATOM      8  C   UNL     1     -19.510  38.307  89.753  1.00  0.00     0.000 C 
BRANCH   8   9
ATOM      9  C   UNL     1     -19.862  37.636  88.415  1.00  0.00     0.000 C 
BRANCH   9  10
ATOM     10  C   UNL     1     -21.085  38.276  87.738  1.00  0.00     0.000 C 
BRANCH  10  11
ATOM     11  C   UNL     1     -20.888  38.465  86.224  1.00  0.00     0.000 C 
BRANCH  11  12
ATOM     12  C   UNL     1     -19.454  38.153  85.758  1.00  0.00     0.006 C 
BRANCH  12  13
ATOM     13  C   UNL     1     -19.379  37.516  84.359  1.00  0.00     0.053 C 
BRANCH  13  14
ATOM     14  C   UNL     1     -18.074  36.821  84.113  1.00  0.00     0.041 C 
ATOM     15  O   UNL     1     -17.366  37.137  83.121  1.00  0.00    -0.550 OA
ATOM     16  O   UNL     1     -17.659  35.797  84.955  1.00  0.00    -0.550 OA
ENDBRANCH  13  14
ENDBRANCH  12  13
ENDBRANCH  11  12
ENDBRANCH  10  11
ENDBRANCH   9  10
ENDBRANCH   8   9
ENDBRANCH   7   8
ENDBRANCH   6   7
ENDBRANCH   5   6
ENDBRANCH   4   5
ENDBRANCH   3   4
ENDBRANCH   2   3
ENDBRANCH   1   2
BRANCH   1  17
ATOM     17  C   UNL     1     -18.809  44.656  85.642  1.00  0.00     0.000 C 
BRANCH  17  18
ATOM     18  C   UNL     1     -18.950  45.494  84.362  1.00  0.00     0.000 C 
BRANCH  18  19
ATOM     19  C   UNL     1     -19.979  46.629  84.501  1.00  0.00     0.000 C 
BRANCH  19  20
ATOM     20  C   UNL     1     -21.414  46.173  84.187  1.00  0.00     0.000 C 
BRANCH  20  21
ATOM     21  C   UNL     1     -22.321  46.155  85.431  1.00  0.00     0.000 C 
BRANCH  21  22
ATOM     22  C   UNL     1     -21.760  46.904  86.655  1.00  0.00    -0.000 C 
BRANCH  22  23
ATOM     23  C   UNL     1     -21.771  46.047  87.933  1.00  0.00    -0.000 C 
BRANCH  23  24
ATOM     24  C   UNL     1     -23.192  45.711  88.422  1.00  0.00    -0.000 C 
BRANCH  24  25
ATOM     25  C   UNL     1     -23.570  44.219  88.371  1.00  0.00    -0.000 C 
BRANCH  25  26
ATOM     26  C   UNL     1     -24.794  43.876  89.235  1.00  0.00    -0.000 C 
BRANCH  26  27
ATOM     27  C   UNL     1     -25.448  45.148  89.797  1.00  0.00    -0.000 C 
BRANCH  27  28
ATOM     28  C   UNL     1     -26.814  44.860  90.457  1.00  0.00    -0.000 C 
BRANCH  28  29
ATOM     29  C   UNL     1     -27.363  43.457  90.153  1.00  0.00    -0.003 C 
ATOM     30  C   UNL     1     -28.741  43.209  90.761  1.00  0.00     0.004 C 
ENDBRANCH  28  29
ENDBRANCH  27  28
ENDBRANCH  26  27
ENDBRANCH  25  26
ENDBRANCH  24  25
ENDBRANCH  23  24
ENDBRANCH  22  23
ENDBRANCH  21  22
ENDBRANCH  20  21
ENDBRANCH  19  20
ENDBRANCH  18  19
ENDBRANCH  17  18
ENDBRANCH   1  17
TORSDOF 26
ENDMDL
MODEL 4
REMARK VINA RESULT:    -5.443      1.027      2.970
REMARK INTER + INTRA:         -16.814
REMARK INTER:                 -13.284
REMARK INTRA:                  -3.531
REMARK UNBOUND:                -3.098
REMARK SMILES CCCCCCCCCCCCCCCCCCCCCCCCCCCC(=O)[O-]
REMARK SMILES IDX 15 1 16 2 17 3 18 4 19 5 20 6 21 7 22 8 23 9 24 10 25 11
REMARK SMILES IDX 26 12 27 13 28 14 29 15 30 16 14 17 13 18 12 19 11 20 10 21
REMARK SMILES IDX 9 22 8 23 7 24 6 25 5 26 4 27 3 28 2 29 1 30
REMARK H PARENT
REMARK Flexibility Score: inf
ROOT
ATOM      1  C   UNL     1     -20.825  41.108  91.271  1.00  0.00     0.000 C 
ENDROOT
BRANCH   1   2
ATOM      2  C   UNL     1     -22.099  41.557  92.004  1.00  0.00     0.000 C 
BRANCH   2   3
ATOM      3  C   UNL     1     -22.894  42.612  91.222  1.00  0.00     0.000 C 
BRANCH   3   4
ATOM      4  C   UNL     1     -22.184  42.971  89.911  1.00  0.00     0.000 C 
BRANCH   4   5
ATOM      5  C   UNL     1     -23.120  43.751  88.976  1.00  0.00     0.000 C 
BRANCH   5   6
ATOM      6  C   UNL     1     -22.580  45.149  88.632  1.00  0.00     0.000 C 
BRANCH   6   7
ATOM      7  C   UNL     1     -23.489  45.910  87.650  1.00  0.00     0.000 C 
BRANCH   7   8
ATOM      8  C   UNL     1     -24.943  45.409  87.685  1.00  0.00     0.000 C 
BRANCH   8   9
ATOM      9  C   UNL     1     -25.942  46.522  88.043  1.00  0.00     0.000 C 
BRANCH   9  10
ATOM     10  C   UNL     1     -26.054  46.747  89.560  1.00  0.00     0.000 C 
BRANCH  10  11
ATOM     11  C   UNL     1     -27.125  45.855  90.210  1.00  0.00     0.000 C 
BRANCH  11  12
ATOM     12  C   UNL     1     -26.532  44.647  90.959  1.00  0.00     0.006 C 
BRANCH  12  13
ATOM     13  C   UNL     1     -26.655  43.318  90.193  1.00  0.00     0.053 C 
BRANCH  13  14
ATOM     14  C   UNL     1     -28.081  42.930  89.942  1.00  0.00     0.041 C 
ATOM     15  O   UNL     1     -28.905  42.899  90.893  1.00  0.00    -0.550 OA
ATOM     16  O   UNL     1     -28.490  42.563  88.666  1.00  0.00    -0.550 OA
ENDBRANCH  13  14
ENDBRANCH  12  13
ENDBRANCH  11  12
ENDBRANCH  10  11
ENDBRANCH   9  10
ENDBRANCH   8   9
ENDBRANCH   7   8
ENDBRANCH   6   7
ENDBRANCH   5   6
ENDBRANCH   4   5
ENDBRANCH   3   4
ENDBRANCH   2   3
ENDBRANCH   1   2
BRANCH   1  17
ATOM     17  C   UNL     1     -20.179  39.867  91.908  1.00  0.00     0.000 C 
BRANCH  17  18
ATOM     18  C   UNL     1     -18.732  39.688  91.424  1.00  0.00     0.000 C 
BRANCH  18  19
ATOM     19  C   UNL     1     -18.547  38.445  90.539  1.00  0.00     0.000 C 
BRANCH  19  20
ATOM     20  C   UNL     1     -19.880  37.884  90.014  1.00  0.00     0.000 C 
BRANCH  20  21
ATOM     21  C   UNL     1     -20.038  38.046  88.491  1.00  0.00     0.000 C 
BRANCH  21  22
ATOM     22  C   UNL     1     -20.920  39.229  88.051  1.00  0.00    -0.000 C 
BRANCH  22  23
ATOM     23  C   UNL     1     -20.116  40.525  87.843  1.00  0.00    -0.000 C 
BRANCH  23  24
ATOM     24  C   UNL     1     -20.369  41.178  86.470  1.00  0.00    -0.000 C 
BRANCH  24  25
ATOM     25  C   UNL     1     -19.795  42.597  86.301  1.00  0.00    -0.000 C 
BRANCH  25  26
ATOM     26  C   UNL     1     -20.869  43.647  85.974  1.00  0.00    -0.000 C 
BRANCH  26  27
ATOM     27  C   UNL     1     -20.234  45.017  85.690  1.00  0.00    -0.000 C 
BRANCH  27  28
ATOM     28  C   UNL     1     -20.461  45.476  84.233  1.00  0.00    -0.000 C 
BRANCH  28  29
ATOM     29  C   UNL     1     -19.165  45.840  83.492  1.00  0.00    -0.003 C 
ATOM     30  C   UNL     1     -17.912  45.300  84.176  1.00  0.00     0.004 C 
ENDBRANCH  28  29
ENDBRANCH  27  28
ENDBRANCH  26  27
ENDBRANCH  25  26
ENDBRANCH  24  25
ENDBRANCH  23  24
ENDBRANCH  22  23
ENDBRANCH  21  22
ENDBRANCH  20  21
ENDBRANCH  19  20
ENDBRANCH  18  19
ENDBRANCH  17  18
ENDBRANCH   1  17
TORSDOF 26
ENDMDL
MODEL 5
REMARK VINA RESULT:    -5.431      2.788      7.396
REMARK INTER + INTRA:         -16.783
REMARK INTER:                 -12.898
REMARK INTRA:                  -3.885
REMARK UNBOUND:                -3.098
REMARK SMILES CCCCCCCCCCCCCCCCCCCCCCCCCCCC(=O)[O-]
REMARK SMILES IDX 15 1 16 2 17 3 18 4 19 5 20 6 21 7 22 8 23 9 24 10 25 11
REMARK SMILES IDX 26 12 27 13 28 14 29 15 30 16 14 17 13 18 12 19 11 20 10 21
REMARK SMILES IDX 9 22 8 23 7 24 6 25 5 26 4 27 3 28 2 29 1 30
REMARK H PARENT
REMARK Flexibility Score: inf
ROOT
ATOM      1  C   UNL     1     -19.383  43.584  85.500  1.00  0.00     0.000 C 
ENDROOT
BRANCH   1   2
ATOM      2  C   UNL     1     -20.315  43.685  86.718  1.00  0.00     0.000 C 
BRANCH   2   3
ATOM      3  C   UNL     1     -21.675  43.013  86.480  1.00  0.00     0.000 C 
BRANCH   3   4
ATOM      4  C   UNL     1     -22.638  43.301  87.639  1.00  0.00     0.000 C 
BRANCH   4   5
ATOM      5  C   UNL     1     -21.867  43.671  88.915  1.00  0.00     0.000 C 
BRANCH   5   6
ATOM      6  C   UNL     1     -22.055  42.639  90.039  1.00  0.00     0.000 C 
BRANCH   6   7
ATOM      7  C   UNL     1     -21.011  41.510  89.988  1.00  0.00     0.000 C 
BRANCH   7   8
ATOM      8  C   UNL     1     -20.795  40.844  91.356  1.00  0.00     0.000 C 
BRANCH   8   9
ATOM      9  C   UNL     1     -19.425  40.154  91.468  1.00  0.00     0.000 C 
BRANCH   9  10
ATOM     10  C   UNL     1     -19.002  39.471  90.157  1.00  0.00     0.000 C 
BRANCH  10  11
ATOM     11  C   UNL     1     -19.431  37.995  90.097  1.00  0.00     0.000 C 
BRANCH  11  12
ATOM     12  C   UNL     1     -19.660  37.491  88.660  1.00  0.00     0.006 C 
BRANCH  12  13
ATOM     13  C   UNL     1     -20.803  38.209  87.923  1.00  0.00     0.053 C 
BRANCH  13  14
ATOM     14  C   UNL     1     -20.354  38.840  86.640  1.00  0.00     0.041 C 
ATOM     15  O   UNL     1     -20.350  38.171  85.573  1.00  0.00    -0.550 OA
ATOM     16  O   UNL     1     -19.902  40.154  86.628  1.00  0.00    -0.550 OA
ENDBRANCH  13  14
ENDBRANCH  12  13
ENDBRANCH  11  12
ENDBRANCH  10  11
ENDBRANCH   9  10
ENDBRANCH   8   9
ENDBRANCH   7   8
ENDBRANCH   6   7
ENDBRANCH   5   6
ENDBRANCH   4   5
ENDBRANCH   3   4
ENDBRANCH   2   3
ENDBRANCH   1   2
BRANCH   1  17
ATOM     17  C   UNL     1     -18.443  44.794  85.371  1.00  0.00     0.000 C 
BRANCH  17  18
ATOM     18  C   UNL     1     -18.170  45.126  83.896  1.00  0.00     0.000 C 
BRANCH  18  19
ATOM     19  C   UNL     1     -18.707  46.507  83.485  1.00  0.00     0.000 C 
BRANCH  19  20
ATOM     20  C   UNL     1     -19.897  46.419  82.514  1.00  0.00     0.000 C 
BRANCH  20  21
ATOM     21  C   UNL     1     -21.252  46.320  83.239  1.00  0.00     0.000 C 
BRANCH  21  22
ATOM     22  C   UNL     1     -21.278  46.925  84.654  1.00  0.00    -0.000 C 
BRANCH  22  23
ATOM     23  C   UNL     1     -22.528  46.518  85.453  1.00  0.00    -0.000 C 
BRANCH  23  24
ATOM     24  C   UNL     1     -22.477  46.970  86.925  1.00  0.00    -0.000 C 
BRANCH  24  25
ATOM     25  C   UNL     1     -23.774  46.749  87.727  1.00  0.00    -0.000 C 
BRANCH  25  26
ATOM     26  C   UNL     1     -24.963  46.331  86.847  1.00  0.00    -0.000 C 
BRANCH  26  27
ATOM     27  C   UNL     1     -26.086  45.711  87.694  1.00  0.00    -0.000 C 
BRANCH  27  28
ATOM     28  C   UNL     1     -25.704  45.609  89.187  1.00  0.00    -0.000 C 
BRANCH  28  29
ATOM     29  C   UNL     1     -25.585  44.163  89.695  1.00  0.00    -0.003 C 
ATOM     30  C   UNL     1     -26.281  43.941  91.035  1.00  0.00     0.004 C 
ENDBRANCH  28  29
ENDBRANCH  27  28
ENDBRANCH  26  27
ENDBRANCH  25  26
ENDBRANCH  24  25
ENDBRANCH  23  24
ENDBRANCH  22  23
ENDBRANCH  21  22
ENDBRANCH  20  21
ENDBRANCH  19  20
ENDBRANCH  18  19
ENDBRANCH  17  18
ENDBRANCH   1  17
TORSDOF 26
ENDMDL
MODEL 6
REMARK VINA RESULT:    -5.425      4.078      8.344
REMARK INTER + INTRA:         -16.768
REMARK INTER:                 -13.562
REMARK INTRA:                  -3.206
REMARK UNBOUND:                -3.098
REMARK SMILES CCCCCCCCCCCCCCCCCCCCCCCCCCCC(=O)[O-]
REMARK SMILES IDX 15 1 16 2 17 3 18 4 19 5 20 6 21 7 22 8 23 9 24 10 25 11
REMARK SMILES IDX 26 12 27 13 28 14 29 15 30 16 14 17 13 18 12 19 11 20 10 21
REMARK SMILES IDX 9 22 8 23 7 24 6 25 5 26 4 27 3 28 2 29 1 30
REMARK H PARENT
REMARK Flexibility Score: inf
ROOT
ATOM      1  C   UNL     1     -21.894  42.385  88.247  1.00  0.00     0.000 C 
ENDROOT
BRANCH   1   2
ATOM      2  C   UNL     1     -20.845  42.132  89.341  1.00  0.00     0.000 C 
BRANCH   2   3
ATOM      3  C   UNL     1     -21.467  41.656  90.662  1.00  0.00     0.000 C 
BRANCH   3   4
ATOM      4  C   UNL     1     -20.487  40.770  91.441  1.00  0.00     0.000 C 
BRANCH   4   5
ATOM      5  C   UNL     1     -19.086  40.819  90.815  1.00  0.00     0.000 C 
BRANCH   5   6
ATOM      6  C   UNL     1     -18.451  39.425  90.678  1.00  0.00     0.000 C 
BRANCH   6   7
ATOM      7  C   UNL     1     -19.501  38.305  90.563  1.00  0.00     0.000 C 
BRANCH   7   8
ATOM      8  C   UNL     1     -19.587  37.723  89.143  1.00  0.00     0.000 C 
BRANCH   8   9
ATOM      9  C   UNL     1     -20.420  38.601  88.194  1.00  0.00     0.000 C 
BRANCH   9  10
ATOM     10  C   UNL     1     -20.653  37.936  86.827  1.00  0.00     0.000 C 
BRANCH  10  11
ATOM     11  C   UNL     1     -19.969  38.696  85.678  1.00  0.00     0.000 C 
BRANCH  11  12
ATOM     12  C   UNL     1     -19.602  37.789  84.489  1.00  0.00     0.006 C 
BRANCH  12  13
ATOM     13  C   UNL     1     -18.442  36.822  84.777  1.00  0.00     0.053 C 
BRANCH  13  14
ATOM     14  C   UNL     1     -17.630  36.516  83.555  1.00  0.00     0.041 C 
ATOM     15  O   UNL     1     -18.034  35.660  82.726  1.00  0.00    -0.550 OA
ATOM     16  O   UNL     1     -16.408  37.146  83.352  1.00  0.00    -0.550 OA
ENDBRANCH  13  14
ENDBRANCH  12  13
ENDBRANCH  11  12
ENDBRANCH  10  11
ENDBRANCH   9  10
ENDBRANCH   8   9
ENDBRANCH   7   8
ENDBRANCH   6   7
ENDBRANCH   5   6
ENDBRANCH   4   5
ENDBRANCH   3   4
ENDBRANCH   2   3
ENDBRANCH   1   2
BRANCH   1  17
ATOM     17  C   UNL     1     -21.440  41.891  86.864  1.00  0.00     0.000 C 
BRANCH  17  18
ATOM     18  C   UNL     1     -19.958  42.216  86.622  1.00  0.00     0.000 C 
BRANCH  18  19
ATOM     19  C   UNL     1     -19.749  43.278  85.530  1.00  0.00     0.000 C 
BRANCH  19  20
ATOM     20  C   UNL     1     -20.164  44.688  85.984  1.00  0.00     0.000 C 
BRANCH  20  21
ATOM     21  C   UNL     1     -21.312  45.273  85.142  1.00  0.00     0.000 C 
BRANCH  21  22
ATOM     22  C   UNL     1     -21.899  46.594  85.671  1.00  0.00    -0.000 C 
BRANCH  22  23
ATOM     23  C   UNL     1     -22.584  46.436  87.040  1.00  0.00    -0.000 C 
BRANCH  23  24
ATOM     24  C   UNL     1     -23.623  45.299  87.066  1.00  0.00    -0.000 C 
BRANCH  24  25
ATOM     25  C   UNL     1     -24.938  45.626  87.798  1.00  0.00    -0.000 C 
BRANCH  25  26
ATOM     26  C   UNL     1     -24.847  45.433  89.319  1.00  0.00    -0.000 C 
BRANCH  26  27
ATOM     27  C   UNL     1     -25.109  43.970  89.708  1.00  0.00    -0.000 C 
BRANCH  27  28
ATOM     28  C   UNL     1     -26.099  43.846  90.886  1.00  0.00    -0.000 C 
BRANCH  28  29
ATOM     29  C   UNL     1     -27.527  44.300  90.543  1.00  0.00    -0.003 C 
ATOM     30  C   UNL     1     -28.536  43.155  90.544  1.00  0.00     0.004 C 
ENDBRANCH  28  29
ENDBRANCH  27  28
ENDBRANCH  26  27
ENDBRANCH  25  26
ENDBRANCH  24  25
ENDBRANCH  23  24
ENDBRANCH  22  23
ENDBRANCH  21  22
ENDBRANCH  20  21
ENDBRANCH  19  20
ENDBRANCH  18  19
ENDBRANCH  17  18
ENDBRANCH   1  17
TORSDOF 26
ENDMDL
MODEL 7
REMARK VINA RESULT:    -5.403      4.245      9.275
REMARK INTER + INTRA:         -16.714
REMARK INTER:                 -13.115
REMARK INTRA:                  -3.599
REMARK UNBOUND:                -3.098
REMARK SMILES CCCCCCCCCCCCCCCCCCCCCCCCCCCC(=O)[O-]
REMARK SMILES IDX 15 1 16 2 17 3 18 4 19 5 20 6 21 7 22 8 23 9 24 10 25 11
REMARK SMILES IDX 26 12 27 13 28 14 29 15 30 16 14 17 13 18 12 19 11 20 10 21
REMARK SMILES IDX 9 22 8 23 7 24 6 25 5 26 4 27 3 28 2 29 1 30
REMARK H PARENT
REMARK Flexibility Score: inf
ROOT
ATOM      1  C   UNL     1     -19.160  45.985  83.189  1.00  0.00     0.000 C 
ENDROOT
BRANCH   1   2
ATOM      2  C   UNL     1     -18.002  46.164  84.184  1.00  0.00     0.000 C 
BRANCH   2   3
ATOM      3  C   UNL     1     -17.641  44.863  84.914  1.00  0.00     0.000 C 
BRANCH   3   4
ATOM      4  C   UNL     1     -18.784  44.415  85.833  1.00  0.00     0.000 C 
BRANCH   4   5
ATOM      5  C   UNL     1     -19.277  43.012  85.453  1.00  0.00     0.000 C 
BRANCH   5   6
ATOM      6  C   UNL     1     -20.412  42.517  86.365  1.00  0.00     0.000 C 
BRANCH   6   7
ATOM      7  C   UNL     1     -20.075  41.187  87.063  1.00  0.00     0.000 C 
BRANCH   7   8
ATOM      8  C   UNL     1     -21.184  40.136  86.892  1.00  0.00     0.000 C 
BRANCH   8   9
ATOM      9  C   UNL     1     -20.706  38.714  87.236  1.00  0.00     0.000 C 
BRANCH   9  10
ATOM     10  C   UNL     1     -19.694  38.169  86.215  1.00  0.00     0.000 C 
BRANCH  10  11
ATOM     11  C   UNL     1     -20.233  38.206  84.774  1.00  0.00     0.000 C 
BRANCH  11  12
ATOM     12  C   UNL     1     -19.507  37.225  83.834  1.00  0.00     0.006 C 
BRANCH  12  13
ATOM     13  C   UNL     1     -17.973  37.306  83.914  1.00  0.00     0.053 C 
BRANCH  13  14
ATOM     14  C   UNL     1     -17.344  35.987  84.247  1.00  0.00     0.041 C 
ATOM     15  O   UNL     1     -17.410  35.533  85.419  1.00  0.00    -0.550 OA
ATOM     16  O   UNL     1     -16.650  35.279  83.274  1.00  0.00    -0.550 OA
ENDBRANCH  13  14
ENDBRANCH  12  13
ENDBRANCH  11  12
ENDBRANCH  10  11
ENDBRANCH   9  10
ENDBRANCH   8   9
ENDBRANCH   7   8
ENDBRANCH   6   7
ENDBRANCH   5   6
ENDBRANCH   4   5
ENDBRANCH   3   4
ENDBRANCH   2   3
ENDBRANCH   1   2
BRANCH   1  17
ATOM     17  C   UNL     1     -20.304  46.985  83.423  1.00  0.00     0.000 C 
BRANCH  17  18
ATOM     18  C   UNL     1     -21.505  46.304  84.096  1.00  0.00     0.000 C 
BRANCH  18  19
ATOM     19  C   UNL     1     -21.724  46.771  85.544  1.00  0.00     0.000 C 
BRANCH  19  20
ATOM     20  C   UNL     1     -22.327  45.675  86.439  1.00  0.00     0.000 C 
BRANCH  20  21
ATOM     21  C   UNL     1     -21.599  45.537  87.788  1.00  0.00     0.000 C 
BRANCH  21  22
ATOM     22  C   UNL     1     -22.483  45.073  88.960  1.00  0.00    -0.000 C 
BRANCH  22  23
ATOM     23  C   UNL     1     -22.819  43.573  88.894  1.00  0.00    -0.000 C 
BRANCH  23  24
ATOM     24  C   UNL     1     -21.891  42.708  89.768  1.00  0.00    -0.000 C 
BRANCH  24  25
ATOM     25  C   UNL     1     -22.450  42.337  91.155  1.00  0.00    -0.000 C 
BRANCH  25  26
ATOM     26  C   UNL     1     -21.748  41.123  91.783  1.00  0.00    -0.000 C 
BRANCH  26  27
ATOM     27  C   UNL     1     -21.011  40.298  90.718  1.00  0.00    -0.000 C 
BRANCH  27  28
ATOM     28  C   UNL     1     -20.327  39.048  91.315  1.00  0.00    -0.000 C 
BRANCH  28  29
ATOM     29  C   UNL     1     -19.022  38.659  90.603  1.00  0.00    -0.003 C 
ATOM     30  C   UNL     1     -18.106  39.851  90.339  1.00  0.00     0.004 C 
ENDBRANCH  28  29
ENDBRANCH  27  28
ENDBRANCH  26  27
ENDBRANCH  25  26
ENDBRANCH  24  25
ENDBRANCH  23  24
ENDBRANCH  22  23
ENDBRANCH  21  22
ENDBRANCH  20  21
ENDBRANCH  19  20
ENDBRANCH  18  19
ENDBRANCH  17  18
ENDBRANCH   1  17
TORSDOF 26
ENDMDL
MODEL 8
REMARK VINA RESULT:    -5.395      2.378      5.506
REMARK INTER + INTRA:         -16.692
REMARK INTER:                 -13.396
REMARK INTRA:                  -3.296
REMARK UNBOUND:                -3.098
REMARK SMILES CCCCCCCCCCCCCCCCCCCCCCCCCCCC(=O)[O-]
REMARK SMILES IDX 15 1 16 2 17 3 18 4 19 5 20 6 21 7 22 8 23 9 24 10 25 11
REMARK SMILES IDX 26 12 27 13 28 14 29 15 30 16 14 17 13 18 12 19 11 20 10 21
REMARK SMILES IDX 9 22 8 23 7 24 6 25 5 26 4 27 3 28 2 29 1 30
REMARK H PARENT
REMARK Flexibility Score: inf
ROOT
ATOM      1  C   UNL     1     -20.257  41.466  88.354  1.00  0.00     0.000 C 
ENDROOT
BRANCH   1   2
ATOM      2  C   UNL     1     -20.953  42.568  87.541  1.00  0.00     0.000 C 
BRANCH   2   3
ATOM      3  C   UNL     1     -22.451  42.300  87.338  1.00  0.00     0.000 C 
BRANCH   3   4
ATOM      4  C   UNL     1     -23.298  43.370  88.038  1.00  0.00     0.000 C 
BRANCH   4   5
ATOM      5  C   UNL     1     -22.417  44.514  88.561  1.00  0.00     0.000 C 
BRANCH   5   6
ATOM      6  C   UNL     1     -22.987  45.901  88.225  1.00  0.00     0.000 C 
BRANCH   6   7
ATOM      7  C   UNL     1     -23.390  46.033  86.745  1.00  0.00     0.000 C 
BRANCH   7   8
ATOM      8  C   UNL     1     -24.784  46.654  86.566  1.00  0.00     0.000 C 
BRANCH   8   9
ATOM      9  C   UNL     1     -25.859  45.942  87.405  1.00  0.00     0.000 C 
BRANCH   9  10
ATOM     10  C   UNL     1     -26.528  46.880  88.424  1.00  0.00     0.000 C 
BRANCH  10  11
ATOM     11  C   UNL     1     -26.440  46.345  89.864  1.00  0.00     0.000 C 
BRANCH  11  12
ATOM     12  C   UNL     1     -26.187  44.828  89.929  1.00  0.00     0.006 C 
BRANCH  12  13
ATOM     13  C   UNL     1     -27.020  44.104  91.002  1.00  0.00     0.053 C 
BRANCH  13  14
ATOM     14  C   UNL     1     -28.043  43.182  90.411  1.00  0.00     0.041 C 
ATOM     15  O   UNL     1     -28.009  42.903  89.184  1.00  0.00    -0.550 OA
ATOM     16  O   UNL     1     -29.057  42.662  91.205  1.00  0.00    -0.550 OA
ENDBRANCH  13  14
ENDBRANCH  12  13
ENDBRANCH  11  12
ENDBRANCH  10  11
ENDBRANCH   9  10
ENDBRANCH   8   9
ENDBRANCH   7   8
ENDBRANCH   6   7
ENDBRANCH   5   6
ENDBRANCH   4   5
ENDBRANCH   3   4
ENDBRANCH   2   3
ENDBRANCH   1   2
BRANCH   1  17
ATOM     17  C   UNL     1     -20.058  41.852  89.829  1.00  0.00     0.000 C 
BRANCH  17  18
ATOM     18  C   UNL     1     -21.085  41.147  90.727  1.00  0.00     0.000 C 
BRANCH  18  19
ATOM     19  C   UNL     1     -20.506  40.742  92.093  1.00  0.00     0.000 C 
BRANCH  19  20
ATOM     20  C   UNL     1     -20.021  39.283  92.125  1.00  0.00     0.000 C 
BRANCH  20  21
ATOM     21  C   UNL     1     -18.604  39.112  91.549  1.00  0.00     0.000 C 
BRANCH  21  22
ATOM     22  C   UNL     1     -18.543  38.465  90.153  1.00  0.00    -0.000 C 
BRANCH  22  23
ATOM     23  C   UNL     1     -19.878  37.825  89.734  1.00  0.00    -0.000 C 
BRANCH  23  24
ATOM     24  C   UNL     1     -19.883  37.341  88.272  1.00  0.00    -0.000 C 
BRANCH  24  25
ATOM     25  C   UNL     1     -20.633  38.251  87.280  1.00  0.00    -0.000 C 
BRANCH  25  26
ATOM     26  C   UNL     1     -19.808  38.588  86.028  1.00  0.00    -0.000 C 
BRANCH  26  27
ATOM     27  C   UNL     1     -20.298  37.787  84.812  1.00  0.00    -0.000 C 
BRANCH  27  28
ATOM     28  C   UNL     1     -19.177  37.554  83.776  1.00  0.00    -0.000 C 
BRANCH  28  29
ATOM     29  C   UNL     1     -18.006  36.713  84.310  1.00  0.00    -0.003 C 
ATOM     30  C   UNL     1     -16.728  36.878  83.494  1.00  0.00     0.004 C 
ENDBRANCH  28  29
ENDBRANCH  27  28
ENDBRANCH  26  27
ENDBRANCH  25  26
ENDBRANCH  24  25
ENDBRANCH  23  24
ENDBRANCH  22  23
ENDBRANCH  21  22
ENDBRANCH  20  21
ENDBRANCH  19  20
ENDBRANCH  18  19
ENDBRANCH  17  18
ENDBRANCH   1  17
TORSDOF 26
ENDMDL
MODEL 9
REMARK VINA RESULT:    -5.343      2.059      6.627
REMARK INTER + INTRA:         -16.562
REMARK INTER:                 -12.845
REMARK INTRA:                  -3.718
REMARK UNBOUND:                -3.098
REMARK SMILES CCCCCCCCCCCCCCCCCCCCCCCCCCCC(=O)[O-]
REMARK SMILES IDX 15 1 16 2 17 3 18 4 19 5 20 6 21 7 22 8 23 9 24 10 25 11
REMARK SMILES IDX 26 12 27 13 28 14 29 15 30 16 14 17 13 18 12 19 11 20 10 21
REMARK SMILES IDX 9 22 8 23 7 24 6 25 5 26 4 27 3 28 2 29 1 30
REMARK H PARENT
REMARK Flexibility Score: inf
ROOT
ATOM      1  C   UNL     1     -20.371  42.868  87.516  1.00  0.00     0.000 C 
ENDROOT
BRANCH   1   2
ATOM      2  C   UNL     1     -20.626  43.011  86.007  1.00  0.00     0.000 C 
BRANCH   2   3
ATOM      3  C   UNL     1     -19.355  43.361  85.221  1.00  0.00     0.000 C 
BRANCH   3   4
ATOM      4  C   UNL     1     -18.564  44.470  85.925  1.00  0.00     0.000 C 
BRANCH   4   5
ATOM      5  C   UNL     1     -18.157  45.569  84.933  1.00  0.00     0.000 C 
BRANCH   5   6
ATOM      6  C   UNL     1     -18.459  45.190  83.474  1.00  0.00     0.000 C 
BRANCH   6   7
ATOM      7  C   UNL     1     -19.330  46.239  82.758  1.00  0.00     0.000 C 
BRANCH   7   8
ATOM      8  C   UNL     1     -20.831  46.041  83.027  1.00  0.00     0.000 C 
BRANCH   8   9
ATOM      9  C   UNL     1     -21.359  46.967  84.135  1.00  0.00     0.000 C 
BRANCH   9  10
ATOM     10  C   UNL     1     -22.176  46.210  85.195  1.00  0.00     0.000 C 
BRANCH  10  11
ATOM     11  C   UNL     1     -21.676  46.475  86.625  1.00  0.00     0.000 C 
BRANCH  11  12
ATOM     12  C   UNL     1     -22.773  46.297  87.691  1.00  0.00     0.006 C 
BRANCH  12  13
ATOM     13  C   UNL     1     -23.915  45.361  87.259  1.00  0.00     0.053 C 
BRANCH  13  14
ATOM     14  C   UNL     1     -25.149  45.538  88.090  1.00  0.00     0.041 C 
ATOM     15  O   UNL     1     -26.240  45.852  87.544  1.00  0.00    -0.550 OA
ATOM     16  O   UNL     1     -25.089  45.397  89.471  1.00  0.00    -0.550 OA
ENDBRANCH  13  14
ENDBRANCH  12  13
ENDBRANCH  11  12
ENDBRANCH  10  11
ENDBRANCH   9  10
ENDBRANCH   8   9
ENDBRANCH   7   8
ENDBRANCH   6   7
ENDBRANCH   5   6
ENDBRANCH   4   5
ENDBRANCH   3   4
ENDBRANCH   2   3
ENDBRANCH   1   2
BRANCH   1  17
ATOM     17  C   UNL     1     -21.670  42.771  88.332  1.00  0.00     0.000 C 
BRANCH  17  18
ATOM     18  C   UNL     1     -21.401  42.200  89.732  1.00  0.00     0.000 C 
BRANCH  18  19
ATOM     19  C   UNL     1     -20.086  41.408  89.813  1.00  0.00     0.000 C 
BRANCH  19  20
ATOM     20  C   UNL     1     -19.714  41.018  91.254  1.00  0.00     0.000 C 
BRANCH  20  21
ATOM     21  C   UNL     1     -19.385  39.521  91.401  1.00  0.00     0.000 C 
BRANCH  21  22
ATOM     22  C   UNL     1     -20.289  38.574  90.590  1.00  0.00    -0.000 C 
BRANCH  22  23
ATOM     23  C   UNL     1     -19.544  37.885  89.434  1.00  0.00    -0.000 C 
BRANCH  23  24
ATOM     24  C   UNL     1     -20.408  37.725  88.168  1.00  0.00    -0.000 C 
BRANCH  24  25
ATOM     25  C   UNL     1     -20.829  39.042  87.488  1.00  0.00    -0.000 C 
BRANCH  25  26
ATOM     26  C   UNL     1     -20.152  39.260  86.126  1.00  0.00    -0.000 C 
BRANCH  26  27
ATOM     27  C   UNL     1     -20.223  37.991  85.263  1.00  0.00    -0.000 C 
BRANCH  27  28
ATOM     28  C   UNL     1     -19.066  37.910  84.244  1.00  0.00    -0.000 C 
BRANCH  28  29
ATOM     29  C   UNL     1     -18.275  36.594  84.311  1.00  0.00    -0.003 C 
ATOM     30  C   UNL     1     -16.967  36.640  83.525  1.00  0.00     0.004 C 
ENDBRANCH  28  29
ENDBRANCH  27  28
ENDBRANCH  26  27
ENDBRANCH  25  26
ENDBRANCH  24  25
ENDBRANCH  23  24
ENDBRANCH  22  23
ENDBRANCH  21  22
ENDBRANCH  20  21
ENDBRANCH  19  20
ENDBRANCH  18  19
ENDBRANCH  17  18
ENDBRANCH   1  17
TORSDOF 26
ENDMDL
