MODEL 1
REMARK VINA RESULT:    -7.176      0.000      0.000
REMARK INTER + INTRA:          -7.385
REMARK INTER:                  -7.385
REMARK INTRA:                   0.000
REMARK UNBOUND:                 0.000
REMARK SMILES CC1(C)CC[C@]2(C)CC[C@]3(C)C(=CC[C@@H]4[C@@]5(C)CC[C@H](O)C(C)(C)[C@H]5CC[C@]43C)[C@@H]2C1
REMARK SMILES IDX 1 1 2 2 4 3 5 4 6 5 8 6 9 7 10 8 12 9 13 10 14 11 15 12
REMARK SMILES IDX 28 13 27 14 26 15 25 16 16 17 18 18 19 19 20 20 22 21 23 22
REMARK SMILES IDX 24 23 17 24 29 25 30 26 31 27 11 28 7 29 3 30 21 31
REMARK H PARENT 21 32
REMARK Flexibility Score: inf
ROOT
ATOM      1  C   UNL     1     126.009 122.600 122.694  1.00  0.00     0.011 C 
ATOM      2  C   UNL     1     125.454 122.692 121.246  1.00  0.00    -0.035 C 
ATOM      3  C   UNL     1     125.836 121.404 120.433  1.00  0.00     0.007 C 
ATOM      4  C   UNL     1     124.625 120.708 119.771  1.00  0.00     0.008 C 
ATOM      5  C   UNL     1     123.478 120.387 120.790  1.00  0.00    -0.026 C 
ATOM      6  C   UNL     1     122.231 119.879 120.001  1.00  0.00     0.008 C 
ATOM      7  C   UNL     1     121.302 121.011 119.537  1.00  0.00     0.012 C 
ATOM      8  C   UNL     1     120.682 121.888 120.689  1.00  0.00    -0.006 C 
ATOM      9  C   UNL     1     121.651 121.912 121.880  1.00  0.00    -0.064 C 
ATOM     10  C   UNL     1     121.225 122.257 123.123  1.00  0.00    -0.027 C 
ATOM     11  C   UNL     1     119.797 122.204 123.574  1.00  0.00     0.032 C 
ATOM     12  C   UNL     1     118.772 122.250 122.412  1.00  0.00     0.006 C 
ATOM     13  C   UNL     1     119.227 121.365 121.184  1.00  0.00    -0.020 C 
ATOM     14  C   UNL     1     118.177 121.463 120.031  1.00  0.00     0.008 C 
ATOM     15  C   UNL     1     116.728 121.316 120.480  1.00  0.00     0.005 C 
ATOM     16  C   UNL     1     116.295 122.277 121.624  1.00  0.00     0.003 C 
ATOM     17  C   UNL     1     117.252 122.178 122.878  1.00  0.00    -0.025 C 
ATOM     18  C   UNL     1     116.968 123.364 123.864  1.00  0.00     0.010 C 
ATOM     19  C   UNL     1     115.500 123.804 123.837  1.00  0.00     0.033 C 
ATOM     20  C   UNL     1     115.095 124.411 122.479  1.00  0.00     0.120 C 
ATOM     21  C   UNL     1     115.833 123.751 121.230  1.00  0.00    -0.006 C 
ATOM     22  C   UNL     1     114.855 123.679 120.023  1.00  0.00     0.014 C 
ATOM     23  C   UNL     1     116.975 124.706 120.787  1.00  0.00     0.014 C 
ATOM     24  C   UNL     1     116.918 120.859 123.663  1.00  0.00     0.012 C 
ATOM     25  C   UNL     1     119.318 119.870 121.610  1.00  0.00     0.012 C 
ATOM     26  C   UNL     1     123.154 121.636 121.697  1.00  0.00     0.022 C 
ATOM     27  C   UNL     1     123.912 122.906 121.264  1.00  0.00     0.015 C 
ATOM     28  C   UNL     1     120.613 123.350 120.116  1.00  0.00     0.017 C 
ATOM     29  C   UNL     1     123.952 119.207 121.684  1.00  0.00     0.012 C 
ATOM     30  C   UNL     1     126.090 123.940 120.585  1.00  0.00     0.011 C 
ENDROOT
BRANCH  20  31
ATOM     31  O   UNL     1     113.699 124.304 122.359  1.00  0.00    -0.393 OA
ATOM     32  H   UNL     1     113.367 125.061 121.812  1.00  0.00     0.210 HD
ENDBRANCH  20  31
TORSDOF 1
ENDMDL
MODEL 2
REMARK VINA RESULT:    -6.767      5.691      9.718
REMARK INTER + INTRA:          -6.964
REMARK INTER:                  -6.964
REMARK INTRA:                   0.000
REMARK UNBOUND:                 0.000
REMARK SMILES CC1(C)CC[C@]2(C)CC[C@]3(C)C(=CC[C@@H]4[C@@]5(C)CC[C@H](O)C(C)(C)[C@H]5CC[C@]43C)[C@@H]2C1
REMARK SMILES IDX 1 1 2 2 4 3 5 4 6 5 8 6 9 7 10 8 12 9 13 10 14 11 15 12
REMARK SMILES IDX 28 13 27 14 26 15 25 16 16 17 18 18 19 19 20 20 22 21 23 22
REMARK SMILES IDX 24 23 17 24 29 25 30 26 31 27 11 28 7 29 3 30 21 31
REMARK H PARENT 21 32
REMARK Flexibility Score: inf
ROOT
ATOM      1  C   UNL     1     117.445 120.436 119.796  1.00  0.00     0.011 C 
ATOM      2  C   UNL     1     118.836 120.156 120.428  1.00  0.00    -0.035 C 
ATOM      3  C   UNL     1     118.812 118.803 121.224  1.00  0.00     0.007 C 
ATOM      4  C   UNL     1     119.930 117.820 120.808  1.00  0.00     0.008 C 
ATOM      5  C   UNL     1     119.953 117.545 119.264  1.00  0.00    -0.026 C 
ATOM      6  C   UNL     1     121.228 116.714 118.920  1.00  0.00     0.008 C 
ATOM      7  C   UNL     1     122.461 117.583 118.633  1.00  0.00     0.012 C 
ATOM      8  C   UNL     1     122.320 118.572 117.415  1.00  0.00    -0.006 C 
ATOM      9  C   UNL     1     120.845 118.973 117.261  1.00  0.00    -0.064 C 
ATOM     10  C   UNL     1     120.379 119.492 116.096  1.00  0.00    -0.027 C 
ATOM     11  C   UNL     1     121.046 119.322 114.765  1.00  0.00     0.032 C 
ATOM     12  C   UNL     1     122.557 118.986 114.862  1.00  0.00     0.006 C 
ATOM     13  C   UNL     1     122.862 117.951 116.016  1.00  0.00    -0.020 C 
ATOM     14  C   UNL     1     124.397 117.665 116.091  1.00  0.00     0.008 C 
ATOM     15  C   UNL     1     125.057 117.400 114.743  1.00  0.00     0.005 C 
ATOM     16  C   UNL     1     124.812 118.495 113.667  1.00  0.00     0.003 C 
ATOM     17  C   UNL     1     123.274 118.788 113.455  1.00  0.00    -0.025 C 
ATOM     18  C   UNL     1     123.088 120.092 112.603  1.00  0.00     0.010 C 
ATOM     19  C   UNL     1     124.228 120.299 111.600  1.00  0.00     0.033 C 
ATOM     20  C   UNL     1     125.580 120.559 112.296  1.00  0.00     0.120 C 
ATOM     21  C   UNL     1     125.759 119.779 113.674  1.00  0.00    -0.006 C 
ATOM     22  C   UNL     1     127.239 119.327 113.831  1.00  0.00     0.014 C 
ATOM     23  C   UNL     1     125.502 120.783 114.831  1.00  0.00     0.014 C 
ATOM     24  C   UNL     1     122.650 117.616 112.614  1.00  0.00     0.012 C 
ATOM     25  C   UNL     1     122.146 116.600 115.723  1.00  0.00     0.012 C 
ATOM     26  C   UNL     1     119.863 118.887 118.443  1.00  0.00     0.022 C 
ATOM     27  C   UNL     1     119.943 120.144 119.333  1.00  0.00     0.015 C 
ATOM     28  C   UNL     1     123.113 119.865 117.826  1.00  0.00     0.017 C 
ATOM     29  C   UNL     1     118.729 116.647 118.924  1.00  0.00     0.012 C 
ATOM     30  C   UNL     1     119.149 121.328 121.392  1.00  0.00     0.011 C 
ENDROOT
BRANCH  20  31
ATOM     31  O   UNL     1     126.601 120.228 111.389  1.00  0.00    -0.393 OA
ATOM     32  H   UNL     1     126.348 120.558 110.489  1.00  0.00     0.210 HD
ENDBRANCH  20  31
TORSDOF 1
ENDMDL
MODEL 3
REMARK VINA RESULT:    -6.758      4.640      6.615
REMARK INTER + INTRA:          -6.955
REMARK INTER:                  -6.955
REMARK INTRA:                   0.000
REMARK UNBOUND:                 0.000
REMARK SMILES CC1(C)CC[C@]2(C)CC[C@]3(C)C(=CC[C@@H]4[C@@]5(C)CC[C@H](O)C(C)(C)[C@H]5CC[C@]43C)[C@@H]2C1
REMARK SMILES IDX 1 1 2 2 4 3 5 4 6 5 8 6 9 7 10 8 12 9 13 10 14 11 15 12
REMARK SMILES IDX 28 13 27 14 26 15 25 16 16 17 18 18 19 19 20 20 22 21 23 22
REMARK SMILES IDX 24 23 17 24 29 25 30 26 31 27 11 28 7 29 3 30 21 31
REMARK H PARENT 21 32
REMARK Flexibility Score: inf
ROOT
ATOM      1  C   UNL     1     125.750 122.125 114.285  1.00  0.00     0.011 C 
ATOM      2  C   UNL     1     124.967 121.017 113.529  1.00  0.00    -0.035 C 
ATOM      3  C   UNL     1     125.929 119.839 113.138  1.00  0.00     0.007 C 
ATOM      4  C   UNL     1     125.434 118.453 113.610  1.00  0.00     0.008 C 
ATOM      5  C   UNL     1     125.118 118.412 115.145  1.00  0.00    -0.026 C 
ATOM      6  C   UNL     1     124.438 117.048 115.483  1.00  0.00     0.008 C 
ATOM      7  C   UNL     1     122.911 117.073 115.320  1.00  0.00     0.012 C 
ATOM      8  C   UNL     1     122.152 118.105 116.236  1.00  0.00    -0.006 C 
ATOM      9  C   UNL     1     123.075 119.300 116.520  1.00  0.00    -0.064 C 
ATOM     10  C   UNL     1     122.839 120.134 117.565  1.00  0.00    -0.027 C 
ATOM     11  C   UNL     1     122.013 119.778 118.763  1.00  0.00     0.032 C 
ATOM     12  C   UNL     1     121.010 118.623 118.511  1.00  0.00     0.006 C 
ATOM     13  C   UNL     1     121.645 117.467 117.640  1.00  0.00    -0.020 C 
ATOM     14  C   UNL     1     120.591 116.340 117.391  1.00  0.00     0.008 C 
ATOM     15  C   UNL     1     119.815 115.914 118.632  1.00  0.00     0.005 C 
ATOM     16  C   UNL     1     119.124 117.075 119.404  1.00  0.00     0.003 C 
ATOM     17  C   UNL     1     120.138 118.226 119.781  1.00  0.00    -0.025 C 
ATOM     18  C   UNL     1     119.354 119.492 120.274  1.00  0.00     0.010 C 
ATOM     19  C   UNL     1     118.045 119.126 120.982  1.00  0.00     0.033 C 
ATOM     20  C   UNL     1     117.027 118.468 120.029  1.00  0.00     0.120 C 
ATOM     21  C   UNL     1     117.692 117.562 118.898  1.00  0.00    -0.006 C 
ATOM     22  C   UNL     1     116.793 116.323 118.625  1.00  0.00     0.014 C 
ATOM     23  C   UNL     1     117.699 118.375 117.575  1.00  0.00     0.014 C 
ATOM     24  C   UNL     1     121.014 117.747 120.995  1.00  0.00     0.012 C 
ATOM     25  C   UNL     1     122.846 116.827 118.397  1.00  0.00     0.012 C 
ATOM     26  C   UNL     1     124.245 119.649 115.582  1.00  0.00     0.022 C 
ATOM     27  C   UNL     1     123.774 120.505 114.389  1.00  0.00     0.015 C 
ATOM     28  C   UNL     1     120.954 118.639 115.370  1.00  0.00     0.017 C 
ATOM     29  C   UNL     1     126.472 118.437 115.910  1.00  0.00     0.012 C 
ATOM     30  C   UNL     1     124.375 121.659 112.250  1.00  0.00     0.011 C 
ENDROOT
BRANCH  20  31
ATOM     31  O   UNL     1     116.125 117.725 120.809  1.00  0.00    -0.393 OA
ATOM     32  H   UNL     1     115.274 117.631 120.310  1.00  0.00     0.210 HD
ENDBRANCH  20  31
TORSDOF 1
ENDMDL
MODEL 4
REMARK VINA RESULT:    -6.705      2.682      5.098
REMARK INTER + INTRA:          -6.901
REMARK INTER:                  -6.901
REMARK INTRA:                   0.000
REMARK UNBOUND:                 0.000
REMARK SMILES CC1(C)CC[C@]2(C)CC[C@]3(C)C(=CC[C@@H]4[C@@]5(C)CC[C@H](O)C(C)(C)[C@H]5CC[C@]43C)[C@@H]2C1
REMARK SMILES IDX 1 1 2 2 4 3 5 4 6 5 8 6 9 7 10 8 12 9 13 10 14 11 15 12
REMARK SMILES IDX 28 13 27 14 26 15 25 16 16 17 18 18 19 19 20 20 22 21 23 22
REMARK SMILES IDX 24 23 17 24 29 25 30 26 31 27 11 28 7 29 3 30 21 31
REMARK H PARENT 21 32
REMARK Flexibility Score: inf
ROOT
ATOM      1  C   UNL     1     119.468 115.705 118.612  1.00  0.00     0.011 C 
ATOM      2  C   UNL     1     119.443 115.787 120.163  1.00  0.00    -0.035 C 
ATOM      3  C   UNL     1     120.904 115.748 120.736  1.00  0.00     0.007 C 
ATOM      4  C   UNL     1     121.228 116.921 121.689  1.00  0.00     0.008 C 
ATOM      5  C   UNL     1     120.930 118.322 121.050  1.00  0.00    -0.026 C 
ATOM      6  C   UNL     1     121.090 119.420 122.147  1.00  0.00     0.008 C 
ATOM      7  C   UNL     1     119.803 119.676 122.945  1.00  0.00     0.012 C 
ATOM      8  C   UNL     1     118.572 120.172 122.097  1.00  0.00    -0.006 C 
ATOM      9  C   UNL     1     118.685 119.613 120.671  1.00  0.00    -0.064 C 
ATOM     10  C   UNL     1     117.995 120.172 119.643  1.00  0.00    -0.027 C 
ATOM     11  C   UNL     1     117.454 121.569 119.647  1.00  0.00     0.032 C 
ATOM     12  C   UNL     1     117.252 122.158 121.067  1.00  0.00     0.006 C 
ATOM     13  C   UNL     1     118.444 121.790 122.037  1.00  0.00    -0.020 C 
ATOM     14  C   UNL     1     118.183 122.382 123.460  1.00  0.00     0.008 C 
ATOM     15  C   UNL     1     117.720 123.834 123.466  1.00  0.00     0.005 C 
ATOM     16  C   UNL     1     116.481 124.131 122.573  1.00  0.00     0.003 C 
ATOM     17  C   UNL     1     116.691 123.647 121.084  1.00  0.00    -0.025 C 
ATOM     18  C   UNL     1     115.327 123.684 120.310  1.00  0.00     0.010 C 
ATOM     19  C   UNL     1     114.403 124.799 120.813  1.00  0.00     0.033 C 
ATOM     20  C   UNL     1     113.943 124.569 122.266  1.00  0.00     0.120 C 
ATOM     21  C   UNL     1     115.034 123.857 123.185  1.00  0.00    -0.006 C 
ATOM     22  C   UNL     1     114.965 124.439 124.625  1.00  0.00     0.014 C 
ATOM     23  C   UNL     1     114.645 122.359 123.319  1.00  0.00     0.014 C 
ATOM     24  C   UNL     1     117.642 124.663 120.354  1.00  0.00     0.012 C 
ATOM     25  C   UNL     1     119.771 122.408 121.507  1.00  0.00     0.012 C 
ATOM     26  C   UNL     1     119.509 118.348 120.368  1.00  0.00     0.022 C 
ATOM     27  C   UNL     1     118.691 117.068 120.631  1.00  0.00     0.015 C 
ATOM     28  C   UNL     1     117.309 119.511 122.757  1.00  0.00     0.017 C 
ATOM     29  C   UNL     1     122.023 118.598 119.979  1.00  0.00     0.012 C 
ATOM     30  C   UNL     1     118.643 114.565 120.678  1.00  0.00     0.011 C 
ENDROOT
BRANCH  20  31
ATOM     31  O   UNL     1     113.564 125.812 122.800  1.00  0.00    -0.393 OA
ATOM     32  H   UNL     1     113.264 126.399 122.059  1.00  0.00     0.210 HD
ENDBRANCH  20  31
TORSDOF 1
ENDMDL
MODEL 5
REMARK VINA RESULT:    -6.623      8.356     10.868
REMARK INTER + INTRA:          -6.816
REMARK INTER:                  -6.816
REMARK INTRA:                   0.000
REMARK UNBOUND:                 0.000
REMARK SMILES CC1(C)CC[C@]2(C)CC[C@]3(C)C(=CC[C@@H]4[C@@]5(C)CC[C@H](O)C(C)(C)[C@H]5CC[C@]43C)[C@@H]2C1
REMARK SMILES IDX 1 1 2 2 4 3 5 4 6 5 8 6 9 7 10 8 12 9 13 10 14 11 15 12
REMARK SMILES IDX 28 13 27 14 26 15 25 16 16 17 18 18 19 19 20 20 22 21 23 22
REMARK SMILES IDX 24 23 17 24 29 25 30 26 31 27 11 28 7 29 3 30 21 31
REMARK H PARENT 21 32
REMARK Flexibility Score: inf
ROOT
ATOM      1  C   UNL     1     126.153 120.416 111.672  1.00  0.00     0.011 C 
ATOM      2  C   UNL     1     125.049 120.715 112.722  1.00  0.00    -0.035 C 
ATOM      3  C   UNL     1     123.659 120.183 112.219  1.00  0.00     0.007 C 
ATOM      4  C   UNL     1     122.949 119.253 113.229  1.00  0.00     0.008 C 
ATOM      5  C   UNL     1     123.853 118.059 113.694  1.00  0.00    -0.026 C 
ATOM      6  C   UNL     1     123.132 117.304 114.853  1.00  0.00     0.008 C 
ATOM      7  C   UNL     1     123.440 117.884 116.242  1.00  0.00     0.012 C 
ATOM      8  C   UNL     1     124.957 117.853 116.664  1.00  0.00    -0.006 C 
ATOM      9  C   UNL     1     125.832 117.946 115.404  1.00  0.00    -0.064 C 
ATOM     10  C   UNL     1     127.134 117.563 115.426  1.00  0.00    -0.027 C 
ATOM     11  C   UNL     1     127.728 116.637 116.443  1.00  0.00     0.032 C 
ATOM     12  C   UNL     1     126.922 116.560 117.766  1.00  0.00     0.006 C 
ATOM     13  C   UNL     1     125.363 116.528 117.509  1.00  0.00    -0.020 C 
ATOM     14  C   UNL     1     124.594 116.477 118.869  1.00  0.00     0.008 C 
ATOM     15  C   UNL     1     125.144 115.466 119.869  1.00  0.00     0.005 C 
ATOM     16  C   UNL     1     126.664 115.599 120.167  1.00  0.00     0.003 C 
ATOM     17  C   UNL     1     127.534 115.567 118.848  1.00  0.00    -0.025 C 
ATOM     18  C   UNL     1     129.006 116.008 119.164  1.00  0.00     0.010 C 
ATOM     19  C   UNL     1     129.438 115.617 120.582  1.00  0.00     0.033 C 
ATOM     20  C   UNL     1     128.637 116.366 121.667  1.00  0.00     0.120 C 
ATOM     21  C   UNL     1     127.123 116.662 121.264  1.00  0.00    -0.006 C 
ATOM     22  C   UNL     1     126.214 116.532 122.519  1.00  0.00     0.014 C 
ATOM     23  C   UNL     1     127.025 118.149 120.827  1.00  0.00     0.014 C 
ATOM     24  C   UNL     1     127.617 114.084 118.335  1.00  0.00     0.012 C 
ATOM     25  C   UNL     1     124.982 115.249 116.706  1.00  0.00     0.012 C 
ATOM     26  C   UNL     1     125.294 118.557 114.098  1.00  0.00     0.022 C 
ATOM     27  C   UNL     1     125.420 120.093 114.101  1.00  0.00     0.015 C 
ATOM     28  C   UNL     1     125.193 119.168 117.491  1.00  0.00     0.017 C 
ATOM     29  C   UNL     1     123.964 117.058 112.509  1.00  0.00     0.012 C 
ATOM     30  C   UNL     1     124.989 122.251 112.906  1.00  0.00     0.011 C 
ENDROOT
BRANCH  20  31
ATOM     31  O   UNL     1     128.709 115.614 122.852  1.00  0.00    -0.393 OA
ATOM     32  H   UNL     1     127.912 115.814 123.405  1.00  0.00     0.210 HD
ENDBRANCH  20  31
TORSDOF 1
ENDMDL
MODEL 6
REMARK VINA RESULT:    -6.491      2.330      4.477
REMARK INTER + INTRA:          -6.680
REMARK INTER:                  -6.680
REMARK INTRA:                   0.000
REMARK UNBOUND:                 0.000
REMARK SMILES CC1(C)CC[C@]2(C)CC[C@]3(C)C(=CC[C@@H]4[C@@]5(C)CC[C@H](O)C(C)(C)[C@H]5CC[C@]43C)[C@@H]2C1
REMARK SMILES IDX 1 1 2 2 4 3 5 4 6 5 8 6 9 7 10 8 12 9 13 10 14 11 15 12
REMARK SMILES IDX 28 13 27 14 26 15 25 16 16 17 18 18 19 19 20 20 22 21 23 22
REMARK SMILES IDX 24 23 17 24 29 25 30 26 31 27 11 28 7 29 3 30 21 31
REMARK H PARENT 21 32
REMARK Flexibility Score: inf
ROOT
ATOM      1  C   UNL     1     123.297 121.636 121.612  1.00  0.00     0.011 C 
ATOM      2  C   UNL     1     122.709 120.367 122.288  1.00  0.00    -0.035 C 
ATOM      3  C   UNL     1     123.200 120.264 123.776  1.00  0.00     0.007 C 
ATOM      4  C   UNL     1     122.051 120.107 124.798  1.00  0.00     0.008 C 
ATOM      5  C   UNL     1     120.959 121.224 124.660  1.00  0.00    -0.026 C 
ATOM      6  C   UNL     1     119.753 120.867 125.584  1.00  0.00     0.008 C 
ATOM      7  C   UNL     1     118.709 119.969 124.903  1.00  0.00     0.012 C 
ATOM      8  C   UNL     1     118.028 120.582 123.621  1.00  0.00    -0.006 C 
ATOM      9  C   UNL     1     119.013 121.544 122.940  1.00  0.00    -0.064 C 
ATOM     10  C   UNL     1     118.578 122.484 122.060  1.00  0.00    -0.027 C 
ATOM     11  C   UNL     1     117.171 122.994 121.993  1.00  0.00     0.032 C 
ATOM     12  C   UNL     1     116.125 122.026 122.604  1.00  0.00     0.006 C 
ATOM     13  C   UNL     1     116.641 121.363 123.941  1.00  0.00    -0.020 C 
ATOM     14  C   UNL     1     115.565 120.378 124.504  1.00  0.00     0.008 C 
ATOM     15  C   UNL     1     114.146 120.935 124.521  1.00  0.00     0.005 C 
ATOM     16  C   UNL     1     113.643 121.487 123.157  1.00  0.00     0.003 C 
ATOM     17  C   UNL     1     114.628 122.565 122.551  1.00  0.00    -0.025 C 
ATOM     18  C   UNL     1     114.248 122.861 121.059  1.00  0.00     0.010 C 
ATOM     19  C   UNL     1     112.744 122.717 120.802  1.00  0.00     0.033 C 
ATOM     20  C   UNL     1     112.256 121.264 120.976  1.00  0.00     0.120 C 
ATOM     21  C   UNL     1     113.032 120.453 122.108  1.00  0.00    -0.006 C 
ATOM     22  C   UNL     1     112.043 119.502 122.840  1.00  0.00     0.014 C 
ATOM     23  C   UNL     1     114.066 119.528 121.412  1.00  0.00     0.014 C 
ATOM     24  C   UNL     1     114.439 123.915 123.333  1.00  0.00     0.012 C 
ATOM     25  C   UNL     1     116.885 122.458 125.020  1.00  0.00     0.012 C 
ATOM     26  C   UNL     1     120.532 121.423 123.156  1.00  0.00     0.022 C 
ATOM     27  C   UNL     1     121.154 120.376 122.210  1.00  0.00     0.015 C 
ATOM     28  C   UNL     1     117.806 119.374 122.642  1.00  0.00     0.017 C 
ATOM     29  C   UNL     1     121.563 122.549 125.207  1.00  0.00     0.012 C 
ATOM     30  C   UNL     1     123.207 119.141 121.484  1.00  0.00     0.011 C 
ENDROOT
BRANCH  20  31
ATOM     31  O   UNL     1     110.875 121.302 121.234  1.00  0.00    -0.393 OA
ATOM     32  H   UNL     1     110.559 120.380 121.415  1.00  0.00     0.210 HD
ENDBRANCH  20  31
TORSDOF 1
ENDMDL
MODEL 7
REMARK VINA RESULT:    -6.414      2.479      3.429
REMARK INTER + INTRA:          -6.602
REMARK INTER:                  -6.602
REMARK INTRA:                   0.000
REMARK UNBOUND:                 0.000
REMARK SMILES CC1(C)CC[C@]2(C)CC[C@]3(C)C(=CC[C@@H]4[C@@]5(C)CC[C@H](O)C(C)(C)[C@H]5CC[C@]43C)[C@@H]2C1
REMARK SMILES IDX 1 1 2 2 4 3 5 4 6 5 8 6 9 7 10 8 12 9 13 10 14 11 15 12
REMARK SMILES IDX 28 13 27 14 26 15 25 16 16 17 18 18 19 19 20 20 22 21 23 22
REMARK SMILES IDX 24 23 17 24 29 25 30 26 31 27 11 28 7 29 3 30 21 31
REMARK H PARENT 21 32
REMARK Flexibility Score: inf
ROOT
ATOM      1  C   UNL     1     123.875 119.579 118.044  1.00  0.00     0.011 C 
ATOM      2  C   UNL     1     122.542 119.055 117.443  1.00  0.00    -0.035 C 
ATOM      3  C   UNL     1     122.426 117.502 117.644  1.00  0.00     0.007 C 
ATOM      4  C   UNL     1     121.113 117.063 118.331  1.00  0.00     0.008 C 
ATOM      5  C   UNL     1     120.860 117.808 119.688  1.00  0.00    -0.026 C 
ATOM      6  C   UNL     1     119.428 117.453 120.197  1.00  0.00     0.008 C 
ATOM      7  C   UNL     1     118.338 118.387 119.651  1.00  0.00     0.012 C 
ATOM      8  C   UNL     1     118.502 119.907 120.029  1.00  0.00    -0.006 C 
ATOM      9  C   UNL     1     119.995 120.224 120.204  1.00  0.00    -0.064 C 
ATOM     10  C   UNL     1     120.402 121.324 120.888  1.00  0.00    -0.027 C 
ATOM     11  C   UNL     1     119.562 122.059 121.887  1.00  0.00     0.032 C 
ATOM     12  C   UNL     1     118.038 121.832 121.711  1.00  0.00     0.006 C 
ATOM     13  C   UNL     1     117.699 120.325 121.377  1.00  0.00    -0.020 C 
ATOM     14  C   UNL     1     116.158 120.150 121.183  1.00  0.00     0.008 C 
ATOM     15  C   UNL     1     115.306 120.822 122.254  1.00  0.00     0.005 C 
ATOM     16  C   UNL     1     115.607 122.331 122.479  1.00  0.00     0.003 C 
ATOM     17  C   UNL     1     117.136 122.595 122.776  1.00  0.00    -0.025 C 
ATOM     18  C   UNL     1     117.442 124.131 122.691  1.00  0.00     0.010 C 
ATOM     19  C   UNL     1     116.243 124.988 123.115  1.00  0.00     0.033 C 
ATOM     20  C   UNL     1     115.049 124.843 122.150  1.00  0.00     0.120 C 
ATOM     21  C   UNL     1     114.904 123.388 121.514  1.00  0.00    -0.006 C 
ATOM     22  C   UNL     1     113.397 123.031 121.368  1.00  0.00     0.014 C 
ATOM     23  C   UNL     1     115.466 123.439 120.067  1.00  0.00     0.014 C 
ATOM     24  C   UNL     1     117.444 122.164 124.256  1.00  0.00     0.012 C 
ATOM     25  C   UNL     1     118.130 119.407 122.558  1.00  0.00     0.012 C 
ATOM     26  C   UNL     1     121.082 119.361 119.536  1.00  0.00     0.022 C 
ATOM     27  C   UNL     1     121.327 119.795 118.077  1.00  0.00     0.015 C 
ATOM     28  C   UNL     1     118.000 120.712 118.777  1.00  0.00     0.017 C 
ATOM     29  C   UNL     1     121.860 117.241 120.735  1.00  0.00     0.012 C 
ATOM     30  C   UNL     1     122.552 119.391 115.931  1.00  0.00     0.011 C 
ENDROOT
BRANCH  20  31
ATOM     31  O   UNL     1     113.886 125.212 122.846  1.00  0.00    -0.393 OA
ATOM     32  H   UNL     1     113.220 124.481 122.764  1.00  0.00     0.210 HD
ENDBRANCH  20  31
TORSDOF 1
ENDMDL
MODEL 8
REMARK VINA RESULT:    -6.353      5.384      8.306
REMARK INTER + INTRA:          -6.538
REMARK INTER:                  -6.538
REMARK INTRA:                   0.000
REMARK UNBOUND:                 0.000
REMARK SMILES CC1(C)CC[C@]2(C)CC[C@]3(C)C(=CC[C@@H]4[C@@]5(C)CC[C@H](O)C(C)(C)[C@H]5CC[C@]43C)[C@@H]2C1
REMARK SMILES IDX 1 1 2 2 4 3 5 4 6 5 8 6 9 7 10 8 12 9 13 10 14 11 15 12
REMARK SMILES IDX 28 13 27 14 26 15 25 16 16 17 18 18 19 19 20 20 22 21 23 22
REMARK SMILES IDX 24 23 17 24 29 25 30 26 31 27 11 28 7 29 3 30 21 31
REMARK H PARENT 21 32
REMARK Flexibility Score: inf
ROOT
ATOM      1  C   UNL     1     125.845 119.849 112.132  1.00  0.00     0.011 C 
ATOM      2  C   UNL     1     124.597 120.634 112.621  1.00  0.00    -0.035 C 
ATOM      3  C   UNL     1     123.389 120.403 111.645  1.00  0.00     0.007 C 
ATOM      4  C   UNL     1     122.105 119.916 112.354  1.00  0.00     0.008 C 
ATOM      5  C   UNL     1     122.345 118.642 113.237  1.00  0.00    -0.026 C 
ATOM      6  C   UNL     1     121.053 118.352 114.063  1.00  0.00     0.008 C 
ATOM      7  C   UNL     1     121.011 119.095 115.407  1.00  0.00     0.012 C 
ATOM      8  C   UNL     1     122.179 118.747 116.406  1.00  0.00    -0.006 C 
ATOM      9  C   UNL     1     123.427 118.350 115.602  1.00  0.00    -0.064 C 
ATOM     10  C   UNL     1     124.437 117.648 116.177  1.00  0.00    -0.027 C 
ATOM     11  C   UNL     1     124.293 116.819 117.417  1.00  0.00     0.032 C 
ATOM     12  C   UNL     1     123.087 117.225 118.304  1.00  0.00     0.006 C 
ATOM     13  C   UNL     1     121.804 117.557 117.445  1.00  0.00    -0.020 C 
ATOM     14  C   UNL     1     120.626 117.985 118.379  1.00  0.00     0.008 C 
ATOM     15  C   UNL     1     120.423 117.086 119.593  1.00  0.00     0.005 C 
ATOM     16  C   UNL     1     121.691 116.866 120.466  1.00  0.00     0.003 C 
ATOM     17  C   UNL     1     122.915 116.341 119.617  1.00  0.00    -0.025 C 
ATOM     18  C   UNL     1     124.233 116.429 120.463  1.00  0.00     0.010 C 
ATOM     19  C   UNL     1     123.976 116.228 121.961  1.00  0.00     0.033 C 
ATOM     20  C   UNL     1     123.128 117.364 122.567  1.00  0.00     0.120 C 
ATOM     21  C   UNL     1     122.042 117.965 121.567  1.00  0.00    -0.006 C 
ATOM     22  C   UNL     1     120.753 118.335 122.355  1.00  0.00     0.014 C 
ATOM     23  C   UNL     1     122.593 119.306 121.011  1.00  0.00     0.014 C 
ATOM     24  C   UNL     1     122.692 114.818 119.300  1.00  0.00     0.012 C 
ATOM     25  C   UNL     1     121.345 116.293 116.661  1.00  0.00     0.012 C 
ATOM     26  C   UNL     1     123.622 118.809 114.145  1.00  0.00     0.022 C 
ATOM     27  C   UNL     1     124.228 120.225 114.077  1.00  0.00     0.015 C 
ATOM     28  C   UNL     1     122.514 120.089 117.150  1.00  0.00     0.017 C 
ATOM     29  C   UNL     1     122.543 117.432 112.280  1.00  0.00     0.012 C 
ATOM     30  C   UNL     1     124.975 122.136 112.643  1.00  0.00     0.011 C 
ENDROOT
BRANCH  20  31
ATOM     31  O   UNL     1     122.523 116.872 123.737  1.00  0.00    -0.393 OA
ATOM     32  H   UNL     1     123.082 117.126 124.516  1.00  0.00     0.210 HD
ENDBRANCH  20  31
TORSDOF 1
ENDMDL
MODEL 9
REMARK VINA RESULT:    -6.220      1.662      3.565
REMARK INTER + INTRA:          -6.402
REMARK INTER:                  -6.402
REMARK INTRA:                   0.000
REMARK UNBOUND:                 0.000
REMARK SMILES CC1(C)CC[C@]2(C)CC[C@]3(C)C(=CC[C@@H]4[C@@]5(C)CC[C@H](O)C(C)(C)[C@H]5CC[C@]43C)[C@@H]2C1
REMARK SMILES IDX 1 1 2 2 4 3 5 4 6 5 8 6 9 7 10 8 12 9 13 10 14 11 15 12
REMARK SMILES IDX 28 13 27 14 26 15 25 16 16 17 18 18 19 19 20 20 22 21 23 22
REMARK SMILES IDX 24 23 17 24 29 25 30 26 31 27 11 28 7 29 3 30 21 31
REMARK H PARENT 21 32
REMARK Flexibility Score: inf
ROOT
ATOM      1  C   UNL     1     124.477 119.871 119.924  1.00  0.00     0.011 C 
ATOM      2  C   UNL     1     123.752 119.018 121.000  1.00  0.00    -0.035 C 
ATOM      3  C   UNL     1     124.489 119.140 122.381  1.00  0.00     0.007 C 
ATOM      4  C   UNL     1     123.560 119.559 123.544  1.00  0.00     0.008 C 
ATOM      5  C   UNL     1     122.758 120.870 123.236  1.00  0.00    -0.026 C 
ATOM      6  C   UNL     1     121.709 121.096 124.370  1.00  0.00     0.008 C 
ATOM      7  C   UNL     1     120.369 120.391 124.108  1.00  0.00     0.012 C 
ATOM      8  C   UNL     1     119.612 120.845 122.804  1.00  0.00    -0.006 C 
ATOM      9  C   UNL     1     120.641 121.302 121.758  1.00  0.00    -0.064 C 
ATOM     10  C   UNL     1     120.275 122.087 120.712  1.00  0.00    -0.027 C 
ATOM     11  C   UNL     1     119.043 122.940 120.683  1.00  0.00     0.032 C 
ATOM     12  C   UNL     1     117.940 122.479 121.671  1.00  0.00     0.006 C 
ATOM     13  C   UNL     1     118.540 122.036 123.064  1.00  0.00    -0.020 C 
ATOM     14  C   UNL     1     117.395 121.556 124.015  1.00  0.00     0.008 C 
ATOM     15  C   UNL     1     116.179 122.475 124.054  1.00  0.00     0.005 C 
ATOM     16  C   UNL     1     115.562 122.804 122.665  1.00  0.00     0.003 C 
ATOM     17  C   UNL     1     116.633 123.386 121.660  1.00  0.00    -0.025 C 
ATOM     18  C   UNL     1     116.046 123.412 120.206  1.00  0.00     0.010 C 
ATOM     19  C   UNL     1     114.530 123.637 120.194  1.00  0.00     0.033 C 
ATOM     20  C   UNL     1     113.758 122.465 120.832  1.00  0.00     0.120 C 
ATOM     21  C   UNL     1     114.529 121.763 122.039  1.00  0.00    -0.006 C 
ATOM     22  C   UNL     1     113.508 121.330 123.129  1.00  0.00     0.014 C 
ATOM     23  C   UNL     1     115.157 120.447 121.506  1.00  0.00     0.014 C 
ATOM     24  C   UNL     1     116.926 124.881 122.046  1.00  0.00     0.012 C 
ATOM     25  C   UNL     1     119.244 123.244 123.750  1.00  0.00     0.012 C 
ATOM     26  C   UNL     1     122.101 120.816 121.804  1.00  0.00     0.022 C 
ATOM     27  C   UNL     1     122.259 119.443 121.122  1.00  0.00     0.015 C 
ATOM     28  C   UNL     1     118.923 119.550 122.242  1.00  0.00     0.017 C 
ATOM     29  C   UNL     1     123.753 122.064 123.305  1.00  0.00     0.012 C 
ATOM     30  C   UNL     1     123.778 117.546 120.518  1.00  0.00     0.011 C 
ENDROOT
BRANCH  20  31
ATOM     31  O   UNL     1     112.504 122.948 121.243  1.00  0.00    -0.393 OA
ATOM     32  H   UNL     1     111.799 122.497 120.712  1.00  0.00     0.210 HD
ENDBRANCH  20  31
TORSDOF 1
ENDMDL
