MODEL 1
REMARK VINA RESULT:    -2.305      0.000      0.000
REMARK INTER + INTRA:         -10.129
REMARK INTER:                  -5.270
REMARK INTRA:                  -4.859
REMARK UNBOUND:                -4.859
REMARK SMILES CCCCCCCCCCCCCCCCCCCCCCCC(=O)[O-]
REMARK SMILES IDX 13 1 14 2 15 3 16 4 17 5 18 6 19 7 20 8 21 9 22 10 23 11
REMARK SMILES IDX 24 12 25 13 26 14 12 15 11 16 10 17 9 18 8 19 7 20 6 21 5 22
REMARK SMILES IDX 4 23 3 24 2 25 1 26
REMARK H PARENT
REMARK Flexibility Score: inf
ROOT
ATOM      1  C   UNL     1      54.350 -34.963  23.019  1.00  0.00     0.000 C 
ENDROOT
BRANCH   1   2
ATOM      2  C   UNL     1      55.072 -35.983  22.126  1.00  0.00     0.000 C 
BRANCH   2   3
ATOM      3  C   UNL     1      56.588 -35.929  22.352  1.00  0.00     0.000 C 
BRANCH   3   4
ATOM      4  C   UNL     1      57.027 -36.949  23.413  1.00  0.00     0.000 C 
BRANCH   4   5
ATOM      5  C   UNL     1      57.897 -36.326  24.518  1.00  0.00     0.000 C 
BRANCH   5   6
ATOM      6  C   UNL     1      57.120 -35.999  25.810  1.00  0.00     0.000 C 
BRANCH   6   7
ATOM      7  C   UNL     1      56.702 -34.518  25.883  1.00  0.00     0.000 C 
BRANCH   7   8
ATOM      8  C   UNL     1      57.661 -33.598  25.097  1.00  0.00     0.000 C 
BRANCH   8   9
ATOM      9  C   UNL     1      56.939 -32.610  24.158  1.00  0.00     0.000 C 
BRANCH   9  10
ATOM     10  C   UNL     1      57.407 -31.145  24.274  1.00  0.00     0.006 C 
BRANCH  10  11
ATOM     11  C   UNL     1      57.116 -30.496  25.636  1.00  0.00     0.053 C 
BRANCH  11  12
ATOM     12  C   UNL     1      56.165 -29.344  25.513  1.00  0.00     0.041 C 
ATOM     13  O   UNL     1      55.969 -28.801  24.394  1.00  0.00    -0.550 OA
ATOM     14  O   UNL     1      55.470 -28.893  26.628  1.00  0.00    -0.550 OA
ENDBRANCH  11  12
ENDBRANCH  10  11
ENDBRANCH   9  10
ENDBRANCH   8   9
ENDBRANCH   7   8
ENDBRANCH   6   7
ENDBRANCH   5   6
ENDBRANCH   4   5
ENDBRANCH   3   4
ENDBRANCH   2   3
ENDBRANCH   1   2
BRANCH   1  15
ATOM     15  C   UNL     1      53.651 -35.616  24.228  1.00  0.00     0.000 C 
BRANCH  15  16
ATOM     16  C   UNL     1      52.110 -35.617  24.155  1.00  0.00     0.000 C 
BRANCH  16  17
ATOM     17  C   UNL     1      51.525 -34.721  23.047  1.00  0.00     0.000 C 
BRANCH  17  18
ATOM     18  C   UNL     1      50.138 -34.160  23.409  1.00  0.00    -0.000 C 
BRANCH  18  19
ATOM     19  C   UNL     1      50.039 -32.642  23.167  1.00  0.00    -0.000 C 
BRANCH  19  20
ATOM     20  C   UNL     1      51.403 -31.964  22.930  1.00  0.00    -0.000 C 
BRANCH  20  21
ATOM     21  C   UNL     1      51.532 -30.628  23.679  1.00  0.00    -0.000 C 
BRANCH  21  22
ATOM     22  C   UNL     1      52.864 -30.553  24.441  1.00  0.00    -0.000 C 
BRANCH  22  23
ATOM     23  C   UNL     1      53.432 -31.942  24.785  1.00  0.00    -0.000 C 
BRANCH  23  24
ATOM     24  C   UNL     1      53.816 -32.141  26.266  1.00  0.00    -0.000 C 
BRANCH  24  25
ATOM     25  C   UNL     1      52.979 -33.193  27.017  1.00  0.00    -0.003 C 
ATOM     26  C   UNL     1      51.483 -33.090  26.715  1.00  0.00     0.004 C 
ENDBRANCH  24  25
ENDBRANCH  23  24
ENDBRANCH  22  23
ENDBRANCH  21  22
ENDBRANCH  20  21
ENDBRANCH  19  20
ENDBRANCH  18  19
ENDBRANCH  17  18
ENDBRANCH  16  17
ENDBRANCH  15  16
ENDBRANCH   1  15
TORSDOF 22
ENDMDL
MODEL 2
REMARK VINA RESULT:    -2.172      1.310      5.250
REMARK INTER + INTRA:          -9.824
REMARK INTER:                  -5.354
REMARK INTRA:                  -4.470
REMARK UNBOUND:                -4.859
REMARK SMILES CCCCCCCCCCCCCCCCCCCCCCCC(=O)[O-]
REMARK SMILES IDX 13 1 14 2 15 3 16 4 17 5 18 6 19 7 20 8 21 9 22 10 23 11
REMARK SMILES IDX 24 12 25 13 26 14 12 15 11 16 10 17 9 18 8 19 7 20 6 21 5 22
REMARK SMILES IDX 4 23 3 24 2 25 1 26
REMARK H PARENT
REMARK Flexibility Score: inf
ROOT
ATOM      1  C   UNL     1      53.956 -35.641  24.016  1.00  0.00     0.000 C 
ENDROOT
BRANCH   1   2
ATOM      2  C   UNL     1      52.437 -35.593  24.236  1.00  0.00     0.000 C 
BRANCH   2   3
ATOM      3  C   UNL     1      51.754 -34.753  23.148  1.00  0.00     0.000 C 
BRANCH   3   4
ATOM      4  C   UNL     1      50.567 -33.965  23.721  1.00  0.00     0.000 C 
BRANCH   4   5
ATOM      5  C   UNL     1      50.545 -32.497  23.261  1.00  0.00     0.000 C 
BRANCH   5   6
ATOM      6  C   UNL     1      51.943 -31.854  23.166  1.00  0.00     0.000 C 
BRANCH   6   7
ATOM      7  C   UNL     1      52.146 -30.736  24.204  1.00  0.00     0.000 C 
BRANCH   7   8
ATOM      8  C   UNL     1      53.597 -30.675  24.727  1.00  0.00     0.000 C 
BRANCH   8   9
ATOM      9  C   UNL     1      54.329 -32.031  24.681  1.00  0.00     0.000 C 
BRANCH   9  10
ATOM     10  C   UNL     1      55.813 -31.983  25.096  1.00  0.00     0.006 C 
BRANCH  10  11
ATOM     11  C   UNL     1      56.799 -31.977  23.917  1.00  0.00     0.053 C 
BRANCH  11  12
ATOM     12  C   UNL     1      57.423 -30.629  23.720  1.00  0.00     0.041 C 
ATOM     13  O   UNL     1      57.019 -29.640  24.386  1.00  0.00    -0.550 OA
ATOM     14  O   UNL     1      58.474 -30.473  22.825  1.00  0.00    -0.550 OA
ENDBRANCH  11  12
ENDBRANCH  10  11
ENDBRANCH   9  10
ENDBRANCH   8   9
ENDBRANCH   7   8
ENDBRANCH   6   7
ENDBRANCH   5   6
ENDBRANCH   4   5
ENDBRANCH   3   4
ENDBRANCH   2   3
ENDBRANCH   1   2
BRANCH   1  15
ATOM     15  C   UNL     1      54.402 -34.874  22.756  1.00  0.00     0.000 C 
BRANCH  15  16
ATOM     16  C   UNL     1      55.409 -35.633  21.865  1.00  0.00     0.000 C 
BRANCH  16  17
ATOM     17  C   UNL     1      56.307 -36.627  22.625  1.00  0.00     0.000 C 
BRANCH  17  18
ATOM     18  C   UNL     1      57.774 -36.167  22.694  1.00  0.00    -0.000 C 
BRANCH  18  19
ATOM     19  C   UNL     1      58.318 -36.157  24.135  1.00  0.00    -0.000 C 
BRANCH  19  20
ATOM     20  C   UNL     1      57.457 -35.336  25.115  1.00  0.00    -0.000 C 
BRANCH  20  21
ATOM     21  C   UNL     1      56.854 -36.201  26.233  1.00  0.00    -0.000 C 
BRANCH  21  22
ATOM     22  C   UNL     1      55.854 -35.392  27.072  1.00  0.00    -0.000 C 
BRANCH  22  23
ATOM     23  C   UNL     1      54.666 -36.240  27.564  1.00  0.00    -0.000 C 
BRANCH  23  24
ATOM     24  C   UNL     1      53.435 -35.434  28.025  1.00  0.00    -0.000 C 
BRANCH  24  25
ATOM     25  C   UNL     1      53.421 -33.960  27.581  1.00  0.00    -0.003 C 
ATOM     26  C   UNL     1      52.032 -33.479  27.158  1.00  0.00     0.004 C 
ENDBRANCH  24  25
ENDBRANCH  23  24
ENDBRANCH  22  23
ENDBRANCH  21  22
ENDBRANCH  20  21
ENDBRANCH  19  20
ENDBRANCH  18  19
ENDBRANCH  17  18
ENDBRANCH  16  17
ENDBRANCH  15  16
ENDBRANCH   1  15
TORSDOF 22
ENDMDL
MODEL 3
REMARK VINA RESULT:    -2.163      1.891      5.564
REMARK INTER + INTRA:          -9.803
REMARK INTER:                  -5.491
REMARK INTRA:                  -4.312
REMARK UNBOUND:                -4.859
REMARK SMILES CCCCCCCCCCCCCCCCCCCCCCCC(=O)[O-]
REMARK SMILES IDX 13 1 14 2 15 3 16 4 17 5 18 6 19 7 20 8 21 9 22 10 23 11
REMARK SMILES IDX 24 12 25 13 26 14 12 15 11 16 10 17 9 18 8 19 7 20 6 21 5 22
REMARK SMILES IDX 4 23 3 24 2 25 1 26
REMARK H PARENT
REMARK Flexibility Score: inf
ROOT
ATOM      1  C   UNL     1      55.655 -36.215  26.284  1.00  0.00     0.000 C 
ENDROOT
BRANCH   1   2
ATOM      2  C   UNL     1      54.731 -35.427  27.225  1.00  0.00     0.000 C 
BRANCH   2   3
ATOM      3  C   UNL     1      53.273 -35.510  26.755  1.00  0.00     0.000 C 
BRANCH   3   4
ATOM      4  C   UNL     1      53.095 -36.607  25.696  1.00  0.00     0.000 C 
BRANCH   4   5
ATOM      5  C   UNL     1      51.639 -37.088  25.571  1.00  0.00     0.000 C 
BRANCH   5   6
ATOM      6  C   UNL     1      50.622 -35.948  25.363  1.00  0.00     0.000 C 
BRANCH   6   7
ATOM      7  C   UNL     1      50.065 -35.915  23.927  1.00  0.00     0.000 C 
BRANCH   7   8
ATOM      8  C   UNL     1      50.808 -34.900  23.032  1.00  0.00     0.000 C 
BRANCH   8   9
ATOM      9  C   UNL     1      51.148 -33.577  23.748  1.00  0.00     0.000 C 
BRANCH   9  10
ATOM     10  C   UNL     1      50.600 -32.309  23.063  1.00  0.00     0.006 C 
BRANCH  10  11
ATOM     11  C   UNL     1      51.642 -31.196  22.868  1.00  0.00     0.053 C 
BRANCH  11  12
ATOM     12  C   UNL     1      51.439 -30.067  23.832  1.00  0.00     0.041 C 
ATOM     13  O   UNL     1      51.793 -30.188  25.033  1.00  0.00    -0.550 OA
ATOM     14  O   UNL     1      50.886 -28.870  23.394  1.00  0.00    -0.550 OA
ENDBRANCH  11  12
ENDBRANCH  10  11
ENDBRANCH   9  10
ENDBRANCH   8   9
ENDBRANCH   7   8
ENDBRANCH   6   7
ENDBRANCH   5   6
ENDBRANCH   4   5
ENDBRANCH   3   4
ENDBRANCH   2   3
ENDBRANCH   1   2
BRANCH   1  15
ATOM     15  C   UNL     1      57.050 -35.576  26.143  1.00  0.00     0.000 C 
BRANCH  15  16
ATOM     16  C   UNL     1      57.771 -35.897  24.817  1.00  0.00     0.000 C 
BRANCH  16  17
ATOM     17  C   UNL     1      56.940 -36.734  23.827  1.00  0.00     0.000 C 
BRANCH  17  18
ATOM     18  C   UNL     1      56.791 -36.053  22.455  1.00  0.00    -0.000 C 
BRANCH  18  19
ATOM     19  C   UNL     1      55.318 -35.905  22.031  1.00  0.00    -0.000 C 
BRANCH  19  20
ATOM     20  C   UNL     1      54.492 -35.001  22.967  1.00  0.00    -0.000 C 
BRANCH  20  21
ATOM     21  C   UNL     1      55.154 -33.633  23.196  1.00  0.00    -0.000 C 
BRANCH  21  22
ATOM     22  C   UNL     1      54.495 -32.895  24.371  1.00  0.00    -0.000 C 
BRANCH  22  23
ATOM     23  C   UNL     1      55.521 -32.337  25.374  1.00  0.00    -0.000 C 
BRANCH  23  24
ATOM     24  C   UNL     1      56.640 -31.476  24.753  1.00  0.00    -0.000 C 
BRANCH  24  25
ATOM     25  C   UNL     1      58.070 -31.910  25.119  1.00  0.00    -0.003 C 
ATOM     26  C   UNL     1      58.828 -32.519  23.938  1.00  0.00     0.004 C 
ENDBRANCH  24  25
ENDBRANCH  23  24
ENDBRANCH  22  23
ENDBRANCH  21  22
ENDBRANCH  20  21
ENDBRANCH  19  20
ENDBRANCH  18  19
ENDBRANCH  17  18
ENDBRANCH  16  17
ENDBRANCH  15  16
ENDBRANCH   1  15
TORSDOF 22
ENDMDL
MODEL 4
REMARK VINA RESULT:    -2.131      1.510      5.170
REMARK INTER + INTRA:          -9.731
REMARK INTER:                  -5.310
REMARK INTRA:                  -4.421
REMARK UNBOUND:                -4.859
REMARK SMILES CCCCCCCCCCCCCCCCCCCCCCCC(=O)[O-]
REMARK SMILES IDX 13 1 14 2 15 3 16 4 17 5 18 6 19 7 20 8 21 9 22 10 23 11
REMARK SMILES IDX 24 12 25 13 26 14 12 15 11 16 10 17 9 18 8 19 7 20 6 21 5 22
REMARK SMILES IDX 4 23 3 24 2 25 1 26
REMARK H PARENT
REMARK Flexibility Score: inf
ROOT
ATOM      1  C   UNL     1      56.502 -36.057  23.611  1.00  0.00     0.000 C 
ENDROOT
BRANCH   1   2
ATOM      2  C   UNL     1      55.826 -35.682  22.283  1.00  0.00     0.000 C 
BRANCH   2   3
ATOM      3  C   UNL     1      54.333 -35.396  22.493  1.00  0.00     0.000 C 
BRANCH   3   4
ATOM      4  C   UNL     1      53.928 -35.615  23.957  1.00  0.00     0.000 C 
BRANCH   4   5
ATOM      5  C   UNL     1      52.520 -35.082  24.275  1.00  0.00     0.000 C 
BRANCH   5   6
ATOM      6  C   UNL     1      51.605 -34.967  23.039  1.00  0.00     0.000 C 
BRANCH   6   7
ATOM      7  C   UNL     1      50.597 -33.810  23.162  1.00  0.00     0.000 C 
BRANCH   7   8
ATOM      8  C   UNL     1      51.290 -32.447  23.378  1.00  0.00     0.000 C 
BRANCH   8   9
ATOM      9  C   UNL     1      50.871 -31.741  24.683  1.00  0.00     0.000 C 
BRANCH   9  10
ATOM     10  C   UNL     1      51.484 -30.341  24.889  1.00  0.00     0.006 C 
BRANCH  10  11
ATOM     11  C   UNL     1      51.906 -29.638  23.588  1.00  0.00     0.053 C 
BRANCH  11  12
ATOM     12  C   UNL     1      52.667 -28.376  23.859  1.00  0.00     0.041 C 
ATOM     13  O   UNL     1      52.195 -27.264  23.507  1.00  0.00    -0.550 OA
ATOM     14  O   UNL     1      53.883 -28.427  24.528  1.00  0.00    -0.550 OA
ENDBRANCH  11  12
ENDBRANCH  10  11
ENDBRANCH   9  10
ENDBRANCH   8   9
ENDBRANCH   7   8
ENDBRANCH   6   7
ENDBRANCH   5   6
ENDBRANCH   4   5
ENDBRANCH   3   4
ENDBRANCH   2   3
ENDBRANCH   1   2
BRANCH   1  15
ATOM     15  C   UNL     1      58.010 -35.738  23.624  1.00  0.00     0.000 C 
BRANCH  15  16
ATOM     16  C   UNL     1      58.573 -35.362  25.012  1.00  0.00     0.000 C 
BRANCH  16  17
ATOM     17  C   UNL     1      59.222 -33.966  25.078  1.00  0.00     0.000 C 
BRANCH  17  18
ATOM     18  C   UNL     1      58.874 -33.093  23.859  1.00  0.00    -0.000 C 
BRANCH  18  19
ATOM     19  C   UNL     1      58.518 -31.649  24.256  1.00  0.00    -0.000 C 
BRANCH  19  20
ATOM     20  C   UNL     1      57.128 -31.198  23.767  1.00  0.00    -0.000 C 
BRANCH  20  21
ATOM     21  C   UNL     1      56.105 -32.345  23.766  1.00  0.00    -0.000 C 
BRANCH  21  22
ATOM     22  C   UNL     1      54.790 -31.908  24.429  1.00  0.00    -0.000 C 
BRANCH  22  23
ATOM     23  C   UNL     1      54.628 -32.468  25.854  1.00  0.00    -0.000 C 
BRANCH  23  24
ATOM     24  C   UNL     1      55.759 -33.408  26.319  1.00  0.00    -0.000 C 
BRANCH  24  25
ATOM     25  C   UNL     1      55.315 -34.537  27.266  1.00  0.00    -0.003 C 
ATOM     26  C   UNL     1      53.826 -34.474  27.611  1.00  0.00     0.004 C 
ENDBRANCH  24  25
ENDBRANCH  23  24
ENDBRANCH  22  23
ENDBRANCH  21  22
ENDBRANCH  20  21
ENDBRANCH  19  20
ENDBRANCH  18  19
ENDBRANCH  17  18
ENDBRANCH  16  17
ENDBRANCH  15  16
ENDBRANCH   1  15
TORSDOF 22
ENDMDL
MODEL 5
REMARK VINA RESULT:    -2.108      1.877      3.219
REMARK INTER + INTRA:          -9.678
REMARK INTER:                  -5.773
REMARK INTRA:                  -3.905
REMARK UNBOUND:                -4.859
REMARK SMILES CCCCCCCCCCCCCCCCCCCCCCCC(=O)[O-]
REMARK SMILES IDX 13 1 14 2 15 3 16 4 17 5 18 6 19 7 20 8 21 9 22 10 23 11
REMARK SMILES IDX 24 12 25 13 26 14 12 15 11 16 10 17 9 18 8 19 7 20 6 21 5 22
REMARK SMILES IDX 4 23 3 24 2 25 1 26
REMARK H PARENT
REMARK Flexibility Score: inf
ROOT
ATOM      1  C   UNL     1      53.791 -35.583  25.038  1.00  0.00     0.000 C 
ENDROOT
BRANCH   1   2
ATOM      2  C   UNL     1      54.639 -34.344  24.712  1.00  0.00     0.000 C 
BRANCH   2   3
ATOM      3  C   UNL     1      54.846 -34.207  23.198  1.00  0.00     0.000 C 
BRANCH   3   4
ATOM      4  C   UNL     1      54.732 -35.569  22.498  1.00  0.00     0.000 C 
BRANCH   4   5
ATOM      5  C   UNL     1      56.064 -36.047  21.896  1.00  0.00     0.000 C 
BRANCH   5   6
ATOM      6  C   UNL     1      57.004 -36.717  22.919  1.00  0.00     0.000 C 
BRANCH   6   7
ATOM      7  C   UNL     1      58.118 -35.770  23.400  1.00  0.00     0.000 C 
BRANCH   7   8
ATOM      8  C   UNL     1      58.224 -35.722  24.940  1.00  0.00     0.000 C 
BRANCH   8   9
ATOM      9  C   UNL     1      58.864 -34.425  25.475  1.00  0.00     0.000 C 
BRANCH   9  10
ATOM     10  C   UNL     1      57.915 -33.212  25.541  1.00  0.00     0.006 C 
BRANCH  10  11
ATOM     11  C   UNL     1      57.925 -32.333  24.279  1.00  0.00     0.053 C 
BRANCH  11  12
ATOM     12  C   UNL     1      59.281 -31.752  24.016  1.00  0.00     0.041 C 
ATOM     13  O   UNL     1      59.754 -30.875  24.786  1.00  0.00    -0.550 OA
ATOM     14  O   UNL     1      60.034 -32.202  22.939  1.00  0.00    -0.550 OA
ENDBRANCH  11  12
ENDBRANCH  10  11
ENDBRANCH   9  10
ENDBRANCH   8   9
ENDBRANCH   7   8
ENDBRANCH   6   7
ENDBRANCH   5   6
ENDBRANCH   4   5
ENDBRANCH   3   4
ENDBRANCH   2   3
ENDBRANCH   1   2
BRANCH   1  15
ATOM     15  C   UNL     1      52.308 -35.244  25.284  1.00  0.00     0.000 C 
BRANCH  15  16
ATOM     16  C   UNL     1      51.347 -35.733  24.180  1.00  0.00     0.000 C 
BRANCH  16  17
ATOM     17  C   UNL     1      51.126 -34.726  23.036  1.00  0.00     0.000 C 
BRANCH  17  18
ATOM     18  C   UNL     1      50.286 -33.511  23.470  1.00  0.00    -0.000 C 
BRANCH  18  19
ATOM     19  C   UNL     1      50.851 -32.185  22.930  1.00  0.00    -0.000 C 
BRANCH  19  20
ATOM     20  C   UNL     1      52.220 -31.807  23.529  1.00  0.00    -0.000 C 
BRANCH  20  21
ATOM     21  C   UNL     1      52.145 -31.527  25.038  1.00  0.00    -0.000 C 
BRANCH  21  22
ATOM     22  C   UNL     1      53.481 -30.981  25.562  1.00  0.00    -0.000 C 
BRANCH  22  23
ATOM     23  C   UNL     1      53.933 -29.706  24.826  1.00  0.00    -0.000 C 
BRANCH  23  24
ATOM     24  C   UNL     1      52.984 -28.499  24.968  1.00  0.00    -0.000 C 
BRANCH  24  25
ATOM     25  C   UNL     1      52.370 -27.996  23.649  1.00  0.00    -0.003 C 
ATOM     26  C   UNL     1      50.880 -28.318  23.525  1.00  0.00     0.004 C 
ENDBRANCH  24  25
ENDBRANCH  23  24
ENDBRANCH  22  23
ENDBRANCH  21  22
ENDBRANCH  20  21
ENDBRANCH  19  20
ENDBRANCH  18  19
ENDBRANCH  17  18
ENDBRANCH  16  17
ENDBRANCH  15  16
ENDBRANCH   1  15
TORSDOF 22
ENDMDL
MODEL 6
REMARK VINA RESULT:    -2.100      1.807      3.912
REMARK INTER + INTRA:          -9.659
REMARK INTER:                  -5.342
REMARK INTRA:                  -4.317
REMARK UNBOUND:                -4.859
REMARK SMILES CCCCCCCCCCCCCCCCCCCCCCCC(=O)[O-]
REMARK SMILES IDX 13 1 14 2 15 3 16 4 17 5 18 6 19 7 20 8 21 9 22 10 23 11
REMARK SMILES IDX 24 12 25 13 26 14 12 15 11 16 10 17 9 18 8 19 7 20 6 21 5 22
REMARK SMILES IDX 4 23 3 24 2 25 1 26
REMARK H PARENT
REMARK Flexibility Score: inf
ROOT
ATOM      1  C   UNL     1      56.637 -35.302  27.145  1.00  0.00     0.000 C 
ENDROOT
BRANCH   1   2
ATOM      2  C   UNL     1      57.112 -36.547  26.381  1.00  0.00     0.000 C 
BRANCH   2   3
ATOM      3  C   UNL     1      57.598 -36.172  24.974  1.00  0.00     0.000 C 
BRANCH   3   4
ATOM      4  C   UNL     1      56.675 -36.755  23.896  1.00  0.00     0.000 C 
BRANCH   4   5
ATOM      5  C   UNL     1      56.864 -36.090  22.521  1.00  0.00     0.000 C 
BRANCH   5   6
ATOM      6  C   UNL     1      55.545 -35.640  21.862  1.00  0.00     0.000 C 
BRANCH   6   7
ATOM      7  C   UNL     1      54.399 -35.498  22.880  1.00  0.00     0.000 C 
BRANCH   7   8
ATOM      8  C   UNL     1      54.093 -34.022  23.218  1.00  0.00     0.000 C 
BRANCH   8   9
ATOM      9  C   UNL     1      54.751 -33.538  24.526  1.00  0.00     0.000 C 
BRANCH   9  10
ATOM     10  C   UNL     1      55.701 -32.334  24.367  1.00  0.00     0.006 C 
BRANCH  10  11
ATOM     11  C   UNL     1      57.190 -32.709  24.297  1.00  0.00     0.053 C 
BRANCH  11  12
ATOM     12  C   UNL     1      58.065 -31.497  24.186  1.00  0.00     0.041 C 
ATOM     13  O   UNL     1      58.954 -31.276  25.049  1.00  0.00    -0.550 OA
ATOM     14  O   UNL     1      57.919 -30.630  23.110  1.00  0.00    -0.550 OA
ENDBRANCH  11  12
ENDBRANCH  10  11
ENDBRANCH   9  10
ENDBRANCH   8   9
ENDBRANCH   7   8
ENDBRANCH   6   7
ENDBRANCH   5   6
ENDBRANCH   4   5
ENDBRANCH   3   4
ENDBRANCH   2   3
ENDBRANCH   1   2
BRANCH   1  15
ATOM     15  C   UNL     1      55.165 -35.400  27.589  1.00  0.00     0.000 C 
BRANCH  15  16
ATOM     16  C   UNL     1      54.465 -36.721  27.205  1.00  0.00     0.000 C 
BRANCH  16  17
ATOM     17  C   UNL     1      53.324 -36.563  26.182  1.00  0.00     0.000 C 
BRANCH  17  18
ATOM     18  C   UNL     1      51.950 -36.940  26.764  1.00  0.00    -0.000 C 
BRANCH  18  19
ATOM     19  C   UNL     1      50.833 -35.993  26.288  1.00  0.00    -0.000 C 
BRANCH  19  20
ATOM     20  C   UNL     1      51.232 -35.124  25.079  1.00  0.00    -0.000 C 
BRANCH  20  21
ATOM     21  C   UNL     1      50.729 -35.705  23.748  1.00  0.00    -0.000 C 
BRANCH  21  22
ATOM     22  C   UNL     1      50.359 -34.584  22.765  1.00  0.00    -0.000 C 
BRANCH  22  23
ATOM     23  C   UNL     1      49.919 -33.290  23.476  1.00  0.00    -0.000 C 
BRANCH  23  24
ATOM     24  C   UNL     1      50.259 -31.986  22.726  1.00  0.00    -0.000 C 
BRANCH  24  25
ATOM     25  C   UNL     1      51.613 -31.357  23.099  1.00  0.00    -0.003 C 
ATOM     26  C   UNL     1      51.838 -31.282  24.610  1.00  0.00     0.004 C 
ENDBRANCH  24  25
ENDBRANCH  23  24
ENDBRANCH  22  23
ENDBRANCH  21  22
ENDBRANCH  20  21
ENDBRANCH  19  20
ENDBRANCH  18  19
ENDBRANCH  17  18
ENDBRANCH  16  17
ENDBRANCH  15  16
ENDBRANCH   1  15
TORSDOF 22
ENDMDL
MODEL 7
REMARK VINA RESULT:    -2.077      1.762      5.792
REMARK INTER + INTRA:          -9.606
REMARK INTER:                  -5.486
REMARK INTRA:                  -4.120
REMARK UNBOUND:                -4.859
REMARK SMILES CCCCCCCCCCCCCCCCCCCCCCCC(=O)[O-]
REMARK SMILES IDX 13 1 14 2 15 3 16 4 17 5 18 6 19 7 20 8 21 9 22 10 23 11
REMARK SMILES IDX 24 12 25 13 26 14 12 15 11 16 10 17 9 18 8 19 7 20 6 21 5 22
REMARK SMILES IDX 4 23 3 24 2 25 1 26
REMARK H PARENT
REMARK Flexibility Score: inf
ROOT
ATOM      1  C   UNL     1      55.489 -34.780  25.812  1.00  0.00     0.000 C 
ENDROOT
BRANCH   1   2
ATOM      2  C   UNL     1      54.740 -35.992  26.386  1.00  0.00     0.000 C 
BRANCH   2   3
ATOM      3  C   UNL     1      53.768 -35.560  27.492  1.00  0.00     0.000 C 
BRANCH   3   4
ATOM      4  C   UNL     1      52.317 -35.883  27.111  1.00  0.00     0.000 C 
BRANCH   4   5
ATOM      5  C   UNL     1      52.204 -37.054  26.120  1.00  0.00     0.000 C 
BRANCH   5   6
ATOM      6  C   UNL     1      51.346 -36.737  24.878  1.00  0.00     0.000 C 
BRANCH   6   7
ATOM      7  C   UNL     1      51.156 -35.223  24.669  1.00  0.00     0.000 C 
BRANCH   7   8
ATOM      8  C   UNL     1      50.793 -34.873  23.210  1.00  0.00     0.000 C 
BRANCH   8   9
ATOM      9  C   UNL     1      50.412 -33.393  23.006  1.00  0.00     0.000 C 
BRANCH   9  10
ATOM     10  C   UNL     1      51.382 -32.378  23.644  1.00  0.00     0.006 C 
BRANCH  10  11
ATOM     11  C   UNL     1      51.361 -30.987  22.989  1.00  0.00     0.053 C 
BRANCH  11  12
ATOM     12  C   UNL     1      52.157 -29.990  23.775  1.00  0.00     0.041 C 
ATOM     13  O   UNL     1      52.049 -28.760  23.532  1.00  0.00    -0.550 OA
ATOM     14  O   UNL     1      52.995 -30.419  24.797  1.00  0.00    -0.550 OA
ENDBRANCH  11  12
ENDBRANCH  10  11
ENDBRANCH   9  10
ENDBRANCH   8   9
ENDBRANCH   7   8
ENDBRANCH   6   7
ENDBRANCH   5   6
ENDBRANCH   4   5
ENDBRANCH   3   4
ENDBRANCH   2   3
ENDBRANCH   1   2
BRANCH   1  15
ATOM     15  C   UNL     1      54.571 -33.833  25.015  1.00  0.00     0.000 C 
BRANCH  15  16
ATOM     16  C   UNL     1      54.748 -33.906  23.483  1.00  0.00     0.000 C 
BRANCH  16  17
ATOM     17  C   UNL     1      54.403 -35.275  22.867  1.00  0.00     0.000 C 
BRANCH  17  18
ATOM     18  C   UNL     1      55.473 -35.764  21.874  1.00  0.00    -0.000 C 
BRANCH  18  19
ATOM     19  C   UNL     1      56.377 -36.855  22.478  1.00  0.00    -0.000 C 
BRANCH  19  20
ATOM     20  C   UNL     1      57.826 -36.393  22.724  1.00  0.00    -0.000 C 
BRANCH  20  21
ATOM     21  C   UNL     1      58.264 -36.584  24.184  1.00  0.00    -0.000 C 
BRANCH  21  22
ATOM     22  C   UNL     1      58.894 -35.298  24.741  1.00  0.00    -0.000 C 
BRANCH  22  23
ATOM     23  C   UNL     1      58.592 -34.063  23.872  1.00  0.00    -0.000 C 
BRANCH  23  24
ATOM     24  C   UNL     1      58.978 -32.710  24.504  1.00  0.00    -0.000 C 
BRANCH  24  25
ATOM     25  C   UNL     1      57.856 -31.658  24.521  1.00  0.00    -0.003 C 
ATOM     26  C   UNL     1      57.250 -31.456  25.911  1.00  0.00     0.004 C 
ENDBRANCH  24  25
ENDBRANCH  23  24
ENDBRANCH  22  23
ENDBRANCH  21  22
ENDBRANCH  20  21
ENDBRANCH  19  20
ENDBRANCH  18  19
ENDBRANCH  17  18
ENDBRANCH  16  17
ENDBRANCH  15  16
ENDBRANCH   1  15
TORSDOF 22
ENDMDL
MODEL 8
REMARK VINA RESULT:    -2.053      1.151      5.618
REMARK INTER + INTRA:          -9.553
REMARK INTER:                  -5.351
REMARK INTRA:                  -4.202
REMARK UNBOUND:                -4.859
REMARK SMILES CCCCCCCCCCCCCCCCCCCCCCCC(=O)[O-]
REMARK SMILES IDX 13 1 14 2 15 3 16 4 17 5 18 6 19 7 20 8 21 9 22 10 23 11
REMARK SMILES IDX 24 12 25 13 26 14 12 15 11 16 10 17 9 18 8 19 7 20 6 21 5 22
REMARK SMILES IDX 4 23 3 24 2 25 1 26
REMARK H PARENT
REMARK Flexibility Score: inf
ROOT
ATOM      1  C   UNL     1      54.183 -35.513  24.272  1.00  0.00     0.000 C 
ENDROOT
BRANCH   1   2
ATOM      2  C   UNL     1      52.650 -35.603  24.306  1.00  0.00     0.000 C 
BRANCH   2   3
ATOM      3  C   UNL     1      52.032 -34.845  23.124  1.00  0.00     0.000 C 
BRANCH   3   4
ATOM      4  C   UNL     1      50.668 -34.250  23.500  1.00  0.00     0.000 C 
BRANCH   4   5
ATOM      5  C   UNL     1      50.565 -32.747  23.194  1.00  0.00     0.000 C 
BRANCH   5   6
ATOM      6  C   UNL     1      51.913 -32.002  23.270  1.00  0.00     0.000 C 
BRANCH   6   7
ATOM      7  C   UNL     1      52.125 -31.314  24.631  1.00  0.00     0.000 C 
BRANCH   7   8
ATOM      8  C   UNL     1      52.904 -32.203  25.625  1.00  0.00     0.000 C 
BRANCH   8   9
ATOM      9  C   UNL     1      54.288 -31.639  26.005  1.00  0.00     0.000 C 
BRANCH   9  10
ATOM     10  C   UNL     1      54.951 -30.760  24.925  1.00  0.00     0.006 C 
BRANCH  10  11
ATOM     11  C   UNL     1      55.717 -29.549  25.479  1.00  0.00     0.053 C 
BRANCH  11  12
ATOM     12  C   UNL     1      55.487 -28.319  24.653  1.00  0.00     0.041 C 
ATOM     13  O   UNL     1      54.322 -27.867  24.501  1.00  0.00    -0.550 OA
ATOM     14  O   UNL     1      56.564 -27.655  24.079  1.00  0.00    -0.550 OA
ENDBRANCH  11  12
ENDBRANCH  10  11
ENDBRANCH   9  10
ENDBRANCH   8   9
ENDBRANCH   7   8
ENDBRANCH   6   7
ENDBRANCH   5   6
ENDBRANCH   4   5
ENDBRANCH   3   4
ENDBRANCH   2   3
ENDBRANCH   1   2
BRANCH   1  15
ATOM     15  C   UNL     1      54.709 -34.724  23.057  1.00  0.00     0.000 C 
BRANCH  15  16
ATOM     16  C   UNL     1      55.437 -35.583  22.001  1.00  0.00     0.000 C 
BRANCH  16  17
ATOM     17  C   UNL     1      56.429 -36.606  22.586  1.00  0.00     0.000 C 
BRANCH  17  18
ATOM     18  C   UNL     1      57.897 -36.182  22.397  1.00  0.00    -0.000 C 
BRANCH  18  19
ATOM     19  C   UNL     1      58.732 -36.375  23.676  1.00  0.00    -0.000 C 
BRANCH  19  20
ATOM     20  C   UNL     1      57.953 -37.036  24.830  1.00  0.00    -0.000 C 
BRANCH  20  21
ATOM     21  C   UNL     1      58.161 -36.313  26.170  1.00  0.00    -0.000 C 
BRANCH  21  22
ATOM     22  C   UNL     1      56.857 -35.660  26.649  1.00  0.00    -0.000 C 
BRANCH  22  23
ATOM     23  C   UNL     1      56.865 -34.128  26.491  1.00  0.00    -0.000 C 
BRANCH  23  24
ATOM     24  C   UNL     1      58.257 -33.470  26.581  1.00  0.00    -0.000 C 
BRANCH  24  25
ATOM     25  C   UNL     1      58.737 -32.787  25.289  1.00  0.00    -0.003 C 
ATOM     26  C   UNL     1      57.714 -32.872  24.155  1.00  0.00     0.004 C 
ENDBRANCH  24  25
ENDBRANCH  23  24
ENDBRANCH  22  23
ENDBRANCH  21  22
ENDBRANCH  20  21
ENDBRANCH  19  20
ENDBRANCH  18  19
ENDBRANCH  17  18
ENDBRANCH  16  17
ENDBRANCH  15  16
ENDBRANCH   1  15
TORSDOF 22
ENDMDL
MODEL 9
REMARK VINA RESULT:    -2.052      1.202      5.952
REMARK INTER + INTRA:          -9.549
REMARK INTER:                  -5.078
REMARK INTRA:                  -4.472
REMARK UNBOUND:                -4.859
REMARK SMILES CCCCCCCCCCCCCCCCCCCCCCCC(=O)[O-]
REMARK SMILES IDX 13 1 14 2 15 3 16 4 17 5 18 6 19 7 20 8 21 9 22 10 23 11
REMARK SMILES IDX 24 12 25 13 26 14 12 15 11 16 10 17 9 18 8 19 7 20 6 21 5 22
REMARK SMILES IDX 4 23 3 24 2 25 1 26
REMARK H PARENT
REMARK Flexibility Score: inf
ROOT
ATOM      1  C   UNL     1      54.273 -33.001  25.519  1.00  0.00     0.000 C 
ENDROOT
BRANCH   1   2
ATOM      2  C   UNL     1      53.386 -34.216  25.830  1.00  0.00     0.000 C 
BRANCH   2   3
ATOM      3  C   UNL     1      53.334 -35.175  24.633  1.00  0.00     0.000 C 
BRANCH   3   4
ATOM      4  C   UNL     1      51.887 -35.561  24.295  1.00  0.00     0.000 C 
BRANCH   4   5
ATOM      5  C   UNL     1      51.261 -34.656  23.220  1.00  0.00     0.000 C 
BRANCH   5   6
ATOM      6  C   UNL     1      50.427 -33.493  23.795  1.00  0.00     0.000 C 
BRANCH   6   7
ATOM      7  C   UNL     1      50.146 -32.400  22.747  1.00  0.00     0.000 C 
BRANCH   7   8
ATOM      8  C   UNL     1      51.222 -31.293  22.749  1.00  0.00     0.000 C 
BRANCH   8   9
ATOM      9  C   UNL     1      51.714 -30.911  24.159  1.00  0.00     0.000 C 
BRANCH   9  10
ATOM     10  C   UNL     1      52.470 -29.570  24.242  1.00  0.00     0.006 C 
BRANCH  10  11
ATOM     11  C   UNL     1      53.099 -29.283  25.615  1.00  0.00     0.053 C 
BRANCH  11  12
ATOM     12  C   UNL     1      54.233 -28.308  25.515  1.00  0.00     0.041 C 
ATOM     13  O   UNL     1      54.692 -27.763  26.553  1.00  0.00    -0.550 OA
ATOM     14  O   UNL     1      54.803 -28.028  24.280  1.00  0.00    -0.550 OA
ENDBRANCH  11  12
ENDBRANCH  10  11
ENDBRANCH   9  10
ENDBRANCH   8   9
ENDBRANCH   7   8
ENDBRANCH   6   7
ENDBRANCH   5   6
ENDBRANCH   4   5
ENDBRANCH   3   4
ENDBRANCH   2   3
ENDBRANCH   1   2
BRANCH   1  15
ATOM     15  C   UNL     1      54.691 -32.930  24.037  1.00  0.00     0.000 C 
BRANCH  15  16
ATOM     16  C   UNL     1      55.953 -32.084  23.766  1.00  0.00     0.000 C 
BRANCH  16  17
ATOM     17  C   UNL     1      56.398 -31.208  24.952  1.00  0.00     0.000 C 
BRANCH  17  18
ATOM     18  C   UNL     1      57.830 -31.526  25.419  1.00  0.00    -0.000 C 
BRANCH  18  19
ATOM     19  C   UNL     1      57.852 -32.330  26.733  1.00  0.00    -0.000 C 
BRANCH  19  20
ATOM     20  C   UNL     1      58.168 -33.826  26.537  1.00  0.00    -0.000 C 
BRANCH  20  21
ATOM     21  C   UNL     1      57.081 -34.738  27.125  1.00  0.00    -0.000 C 
BRANCH  21  22
ATOM     22  C   UNL     1      56.713 -35.858  26.140  1.00  0.00    -0.000 C 
BRANCH  22  23
ATOM     23  C   UNL     1      57.118 -35.533  24.691  1.00  0.00    -0.000 C 
BRANCH  23  24
ATOM     24  C   UNL     1      56.704 -36.588  23.645  1.00  0.00    -0.000 C 
BRANCH  24  25
ATOM     25  C   UNL     1      56.607 -36.066  22.200  1.00  0.00    -0.003 C 
ATOM     26  C   UNL     1      55.164 -35.843  21.743  1.00  0.00     0.004 C 
ENDBRANCH  24  25
ENDBRANCH  23  24
ENDBRANCH  22  23
ENDBRANCH  21  22
ENDBRANCH  20  21
ENDBRANCH  19  20
ENDBRANCH  18  19
ENDBRANCH  17  18
ENDBRANCH  16  17
ENDBRANCH  15  16
ENDBRANCH   1  15
TORSDOF 22
ENDMDL
