MODEL 1
REMARK VINA RESULT:    -5.162      0.000      0.000
REMARK INTER + INTRA:         -19.003
REMARK INTER:                 -13.613
REMARK INTRA:                  -5.390
REMARK UNBOUND:                -5.390
REMARK SMILES CCCCCCCCCCCCCCCCCCCCCCCCCCCCCC(=O)[O-]
REMARK SMILES IDX 16 1 17 2 18 3 19 4 20 5 21 6 22 7 23 8 24 9 25 10 26 11
REMARK SMILES IDX 27 12 28 13 29 14 30 15 31 16 32 17 15 18 14 19 13 20 12 21
REMARK SMILES IDX 11 22 10 23 9 24 8 25 7 26 6 27 5 28 4 29 3 30 2 31 1 32
REMARK H PARENT
REMARK Flexibility Score: inf
ROOT
ATOM      1  C   UNL     1       9.628  47.326   7.130  1.00  0.00     0.000 C 
ENDROOT
BRANCH   1   2
ATOM      2  C   UNL     1      10.585  47.170   5.932  1.00  0.00     0.000 C 
BRANCH   2   3
ATOM      3  C   UNL     1      12.062  47.365   6.315  1.00  0.00     0.000 C 
BRANCH   3   4
ATOM      4  C   UNL     1      12.442  46.637   7.622  1.00  0.00     0.000 C 
BRANCH   4   5
ATOM      5  C   UNL     1      13.601  45.634   7.462  1.00  0.00     0.000 C 
BRANCH   5   6
ATOM      6  C   UNL     1      13.236  44.169   7.763  1.00  0.00     0.000 C 
BRANCH   6   7
ATOM      7  C   UNL     1      13.103  43.257   6.524  1.00  0.00     0.000 C 
BRANCH   7   8
ATOM      8  C   UNL     1      12.011  43.668   5.519  1.00  0.00     0.000 C 
BRANCH   8   9
ATOM      9  C   UNL     1      12.553  43.871   4.094  1.00  0.00     0.000 C 
BRANCH   9  10
ATOM     10  C   UNL     1      13.474  45.099   3.975  1.00  0.00     0.000 C 
BRANCH  10  11
ATOM     11  C   UNL     1      14.845  44.831   3.321  1.00  0.00     0.000 C 
BRANCH  11  12
ATOM     12  C   UNL     1      15.591  43.589   3.843  1.00  0.00     0.000 C 
BRANCH  12  13
ATOM     13  C   UNL     1      16.718  43.876   4.853  1.00  0.00     0.006 C 
BRANCH  13  14
ATOM     14  C   UNL     1      16.610  43.068   6.160  1.00  0.00     0.053 C 
BRANCH  14  15
ATOM     15  C   UNL     1      16.983  43.873   7.368  1.00  0.00     0.041 C 
ATOM     16  O   UNL     1      17.515  45.005   7.235  1.00  0.00    -0.550 OA
ATOM     17  O   UNL     1      16.714  43.385   8.641  1.00  0.00    -0.550 OA
ENDBRANCH  14  15
ENDBRANCH  13  14
ENDBRANCH  12  13
ENDBRANCH  11  12
ENDBRANCH  10  11
ENDBRANCH   9  10
ENDBRANCH   8   9
ENDBRANCH   7   8
ENDBRANCH   6   7
ENDBRANCH   5   6
ENDBRANCH   4   5
ENDBRANCH   3   4
ENDBRANCH   2   3
ENDBRANCH   1   2
BRANCH   1  18
ATOM     18  C   UNL     1       8.542  48.404   6.963  1.00  0.00     0.000 C 
BRANCH  18  19
ATOM     19  C   UNL     1       7.419  48.291   8.009  1.00  0.00     0.000 C 
BRANCH  19  20
ATOM     20  C   UNL     1       7.710  47.225   9.082  1.00  0.00     0.000 C 
BRANCH  20  21
ATOM     21  C   UNL     1       7.031  47.457  10.447  1.00  0.00     0.000 C 
BRANCH  21  22
ATOM     22  C   UNL     1       5.955  46.426  10.832  1.00  0.00     0.000 C 
BRANCH  22  23
ATOM     23  C   UNL     1       5.702  45.387   9.727  1.00  0.00     0.000 C 
BRANCH  23  24
ATOM     24  C   UNL     1       4.548  45.779   8.783  1.00  0.00    -0.000 C 
BRANCH  24  25
ATOM     25  C   UNL     1       4.529  45.054   7.424  1.00  0.00    -0.000 C 
BRANCH  25  26
ATOM     26  C   UNL     1       5.830  45.238   6.625  1.00  0.00    -0.000 C 
BRANCH  26  27
ATOM     27  C   UNL     1       6.741  44.001   6.684  1.00  0.00    -0.000 C 
BRANCH  27  28
ATOM     28  C   UNL     1       8.189  44.345   7.068  1.00  0.00    -0.000 C 
BRANCH  28  29
ATOM     29  C   UNL     1       8.578  43.679   8.396  1.00  0.00    -0.000 C 
BRANCH  29  30
ATOM     30  C   UNL     1       9.915  44.192   8.954  1.00  0.00    -0.000 C 
BRANCH  30  31
ATOM     31  C   UNL     1       9.867  44.532  10.458  1.00  0.00    -0.003 C 
ATOM     32  C   UNL     1       8.748  43.788  11.187  1.00  0.00     0.004 C 
ENDBRANCH  30  31
ENDBRANCH  29  30
ENDBRANCH  28  29
ENDBRANCH  27  28
ENDBRANCH  26  27
ENDBRANCH  25  26
ENDBRANCH  24  25
ENDBRANCH  23  24
ENDBRANCH  22  23
ENDBRANCH  21  22
ENDBRANCH  20  21
ENDBRANCH  19  20
ENDBRANCH  18  19
ENDBRANCH   1  18
TORSDOF 28
ENDMDL
MODEL 2
REMARK VINA RESULT:    -5.125      1.227      3.663
REMARK INTER + INTRA:         -18.905
REMARK INTER:                 -13.477
REMARK INTRA:                  -5.429
REMARK UNBOUND:                -5.390
REMARK SMILES CCCCCCCCCCCCCCCCCCCCCCCCCCCCCC(=O)[O-]
REMARK SMILES IDX 16 1 17 2 18 3 19 4 20 5 21 6 22 7 23 8 24 9 25 10 26 11
REMARK SMILES IDX 27 12 28 13 29 14 30 15 31 16 32 17 15 18 14 19 13 20 12 21
REMARK SMILES IDX 11 22 10 23 9 24 8 25 7 26 6 27 5 28 4 29 3 30 2 31 1 32
REMARK H PARENT
REMARK Flexibility Score: inf
ROOT
ATOM      1  C   UNL     1      10.940  47.140   5.565  1.00  0.00     0.000 C 
ENDROOT
BRANCH   1   2
ATOM      2  C   UNL     1      12.207  47.580   6.323  1.00  0.00     0.000 C 
BRANCH   2   3
ATOM      3  C   UNL     1      13.210  46.432   6.533  1.00  0.00     0.000 C 
BRANCH   3   4
ATOM      4  C   UNL     1      12.688  45.353   7.507  1.00  0.00     0.000 C 
BRANCH   4   5
ATOM      5  C   UNL     1      12.722  43.925   6.931  1.00  0.00     0.000 C 
BRANCH   5   6
ATOM      6  C   UNL     1      12.190  43.793   5.492  1.00  0.00     0.000 C 
BRANCH   6   7
ATOM      7  C   UNL     1      12.862  42.695   4.640  1.00  0.00     0.000 C 
BRANCH   7   8
ATOM      8  C   UNL     1      13.731  43.207   3.475  1.00  0.00     0.000 C 
BRANCH   8   9
ATOM      9  C   UNL     1      14.123  44.686   3.624  1.00  0.00     0.000 C 
BRANCH   9  10
ATOM     10  C   UNL     1      15.547  44.875   4.177  1.00  0.00     0.000 C 
BRANCH  10  11
ATOM     11  C   UNL     1      16.372  43.580   4.322  1.00  0.00     0.000 C 
BRANCH  11  12
ATOM     12  C   UNL     1      16.888  43.285   5.743  1.00  0.00     0.000 C 
BRANCH  12  13
ATOM     13  C   UNL     1      15.971  42.395   6.603  1.00  0.00     0.006 C 
BRANCH  13  14
ATOM     14  C   UNL     1      16.406  42.286   8.077  1.00  0.00     0.053 C 
BRANCH  14  15
ATOM     15  C   UNL     1      16.770  43.613   8.672  1.00  0.00     0.041 C 
ATOM     16  O   UNL     1      17.882  43.769   9.239  1.00  0.00    -0.550 OA
ATOM     17  O   UNL     1      15.893  44.686   8.572  1.00  0.00    -0.550 OA
ENDBRANCH  14  15
ENDBRANCH  13  14
ENDBRANCH  12  13
ENDBRANCH  11  12
ENDBRANCH  10  11
ENDBRANCH   9  10
ENDBRANCH   8   9
ENDBRANCH   7   8
ENDBRANCH   6   7
ENDBRANCH   5   6
ENDBRANCH   4   5
ENDBRANCH   3   4
ENDBRANCH   2   3
ENDBRANCH   1   2
BRANCH   1  18
ATOM     18  C   UNL     1       9.615  47.678   6.136  1.00  0.00     0.000 C 
BRANCH  18  19
ATOM     19  C   UNL     1       9.152  46.918   7.391  1.00  0.00     0.000 C 
BRANCH  19  20
ATOM     20  C   UNL     1       8.773  45.455   7.096  1.00  0.00     0.000 C 
BRANCH  20  21
ATOM     21  C   UNL     1       9.205  44.430   8.165  1.00  0.00     0.000 C 
BRANCH  21  22
ATOM     22  C   UNL     1       9.647  45.029   9.512  1.00  0.00     0.000 C 
BRANCH  22  23
ATOM     23  C   UNL     1      10.563  44.087  10.311  1.00  0.00     0.000 C 
BRANCH  23  24
ATOM     24  C   UNL     1       9.949  43.643  11.652  1.00  0.00    -0.000 C 
BRANCH  24  25
ATOM     25  C   UNL     1       8.432  43.375  11.630  1.00  0.00    -0.000 C 
BRANCH  25  26
ATOM     26  C   UNL     1       7.701  43.949  12.856  1.00  0.00    -0.000 C 
BRANCH  26  27
ATOM     27  C   UNL     1       7.937  45.458  13.033  1.00  0.00    -0.000 C 
BRANCH  27  28
ATOM     28  C   UNL     1       6.794  46.311  12.461  1.00  0.00    -0.000 C 
BRANCH  28  29
ATOM     29  C   UNL     1       7.290  47.185  11.301  1.00  0.00    -0.000 C 
BRANCH  29  30
ATOM     30  C   UNL     1       6.536  46.921   9.988  1.00  0.00    -0.000 C 
BRANCH  30  31
ATOM     31  C   UNL     1       5.931  45.505   9.897  1.00  0.00    -0.003 C 
ATOM     32  C   UNL     1       5.301  45.227   8.532  1.00  0.00     0.004 C 
ENDBRANCH  30  31
ENDBRANCH  29  30
ENDBRANCH  28  29
ENDBRANCH  27  28
ENDBRANCH  26  27
ENDBRANCH  25  26
ENDBRANCH  24  25
ENDBRANCH  23  24
ENDBRANCH  22  23
ENDBRANCH  21  22
ENDBRANCH  20  21
ENDBRANCH  19  20
ENDBRANCH  18  19
ENDBRANCH   1  18
TORSDOF 28
ENDMDL
MODEL 3
REMARK VINA RESULT:    -5.111      1.247      2.989
REMARK INTER + INTRA:         -18.867
REMARK INTER:                 -13.861
REMARK INTRA:                  -5.006
REMARK UNBOUND:                -5.390
REMARK SMILES CCCCCCCCCCCCCCCCCCCCCCCCCCCCCC(=O)[O-]
REMARK SMILES IDX 16 1 17 2 18 3 19 4 20 5 21 6 22 7 23 8 24 9 25 10 26 11
REMARK SMILES IDX 27 12 28 13 29 14 30 15 31 16 32 17 15 18 14 19 13 20 12 21
REMARK SMILES IDX 11 22 10 23 9 24 8 25 7 26 6 27 5 28 4 29 3 30 2 31 1 32
REMARK H PARENT
REMARK Flexibility Score: inf
ROOT
ATOM      1  C   UNL     1      12.624  46.811   7.011  1.00  0.00     0.000 C 
ENDROOT
BRANCH   1   2
ATOM      2  C   UNL     1      11.953  45.944   8.093  1.00  0.00     0.000 C 
BRANCH   2   3
ATOM      3  C   UNL     1      12.465  44.493   8.103  1.00  0.00     0.000 C 
BRANCH   3   4
ATOM      4  C   UNL     1      13.625  44.262   7.111  1.00  0.00     0.000 C 
BRANCH   4   5
ATOM      5  C   UNL     1      13.633  42.857   6.479  1.00  0.00     0.000 C 
BRANCH   5   6
ATOM      6  C   UNL     1      12.501  42.594   5.469  1.00  0.00     0.000 C 
BRANCH   6   7
ATOM      7  C   UNL     1      12.778  43.075   4.029  1.00  0.00     0.000 C 
BRANCH   7   8
ATOM      8  C   UNL     1      12.655  44.595   3.809  1.00  0.00     0.000 C 
BRANCH   8   9
ATOM      9  C   UNL     1      14.018  45.292   3.667  1.00  0.00     0.000 C 
BRANCH   9  10
ATOM     10  C   UNL     1      15.187  44.299   3.541  1.00  0.00     0.000 C 
BRANCH  10  11
ATOM     11  C   UNL     1      16.391  44.580   4.463  1.00  0.00     0.000 C 
BRANCH  11  12
ATOM     12  C   UNL     1      16.967  43.349   5.188  1.00  0.00     0.000 C 
BRANCH  12  13
ATOM     13  C   UNL     1      17.845  43.661   6.415  1.00  0.00     0.006 C 
BRANCH  13  14
ATOM     14  C   UNL     1      17.349  43.012   7.721  1.00  0.00     0.053 C 
BRANCH  14  15
ATOM     15  C   UNL     1      16.679  43.993   8.635  1.00  0.00     0.041 C 
ATOM     16  O   UNL     1      16.818  45.229   8.448  1.00  0.00    -0.550 OA
ATOM     17  O   UNL     1      15.875  43.541   9.675  1.00  0.00    -0.550 OA
ENDBRANCH  14  15
ENDBRANCH  13  14
ENDBRANCH  12  13
ENDBRANCH  11  12
ENDBRANCH  10  11
ENDBRANCH   9  10
ENDBRANCH   8   9
ENDBRANCH   7   8
ENDBRANCH   6   7
ENDBRANCH   5   6
ENDBRANCH   4   5
ENDBRANCH   3   4
ENDBRANCH   2   3
ENDBRANCH   1   2
BRANCH   1  18
ATOM     18  C   UNL     1      11.679  47.335   5.914  1.00  0.00     0.000 C 
BRANCH  18  19
ATOM     19  C   UNL     1      10.198  47.034   6.205  1.00  0.00     0.000 C 
BRANCH  19  20
ATOM     20  C   UNL     1       9.342  48.309   6.319  1.00  0.00     0.000 C 
BRANCH  20  21
ATOM     21  C   UNL     1       8.249  48.278   7.407  1.00  0.00     0.000 C 
BRANCH  21  22
ATOM     22  C   UNL     1       8.403  47.171   8.465  1.00  0.00     0.000 C 
BRANCH  22  23
ATOM     23  C   UNL     1       7.402  47.309   9.623  1.00  0.00     0.000 C 
BRANCH  23  24
ATOM     24  C   UNL     1       6.096  46.524   9.389  1.00  0.00    -0.000 C 
BRANCH  24  25
ATOM     25  C   UNL     1       5.652  45.616  10.550  1.00  0.00    -0.000 C 
BRANCH  25  26
ATOM     26  C   UNL     1       6.610  45.664  11.753  1.00  0.00    -0.000 C 
BRANCH  26  27
ATOM     27  C   UNL     1       6.749  44.303  12.454  1.00  0.00    -0.000 C 
BRANCH  27  28
ATOM     28  C   UNL     1       7.857  43.428  11.845  1.00  0.00    -0.000 C 
BRANCH  28  29
ATOM     29  C   UNL     1       9.071  44.279  11.448  1.00  0.00    -0.000 C 
BRANCH  29  30
ATOM     30  C   UNL     1       9.562  43.993  10.020  1.00  0.00    -0.000 C 
BRANCH  30  31
ATOM     31  C   UNL     1       8.424  43.670   9.029  1.00  0.00    -0.003 C 
ATOM     32  C   UNL     1       8.872  43.779   7.572  1.00  0.00     0.004 C 
ENDBRANCH  30  31
ENDBRANCH  29  30
ENDBRANCH  28  29
ENDBRANCH  27  28
ENDBRANCH  26  27
ENDBRANCH  25  26
ENDBRANCH  24  25
ENDBRANCH  23  24
ENDBRANCH  22  23
ENDBRANCH  21  22
ENDBRANCH  20  21
ENDBRANCH  19  20
ENDBRANCH  18  19
ENDBRANCH   1  18
TORSDOF 28
ENDMDL
MODEL 4
REMARK VINA RESULT:    -5.106      1.162      3.134
REMARK INTER + INTRA:         -18.853
REMARK INTER:                 -13.566
REMARK INTRA:                  -5.287
REMARK UNBOUND:                -5.390
REMARK SMILES CCCCCCCCCCCCCCCCCCCCCCCCCCCCCC(=O)[O-]
REMARK SMILES IDX 16 1 17 2 18 3 19 4 20 5 21 6 22 7 23 8 24 9 25 10 26 11
REMARK SMILES IDX 27 12 28 13 29 14 30 15 31 16 32 17 15 18 14 19 13 20 12 21
REMARK SMILES IDX 11 22 10 23 9 24 8 25 7 26 6 27 5 28 4 29 3 30 2 31 1 32
REMARK H PARENT
REMARK Flexibility Score: inf
ROOT
ATOM      1  C   UNL     1       9.804  47.619   6.713  1.00  0.00     0.000 C 
ENDROOT
BRANCH   1   2
ATOM      2  C   UNL     1      10.583  47.072   5.502  1.00  0.00     0.000 C 
BRANCH   2   3
ATOM      3  C   UNL     1      12.105  47.042   5.730  1.00  0.00     0.000 C 
BRANCH   3   4
ATOM      4  C   UNL     1      12.892  46.662   4.458  1.00  0.00     0.000 C 
BRANCH   4   5
ATOM      5  C   UNL     1      14.261  46.014   4.743  1.00  0.00     0.000 C 
BRANCH   5   6
ATOM      6  C   UNL     1      14.873  45.244   3.559  1.00  0.00     0.000 C 
BRANCH   6   7
ATOM      7  C   UNL     1      14.686  43.712   3.603  1.00  0.00     0.000 C 
BRANCH   7   8
ATOM      8  C   UNL     1      13.269  43.213   3.262  1.00  0.00     0.000 C 
BRANCH   8   9
ATOM      9  C   UNL     1      12.654  42.349   4.376  1.00  0.00     0.000 C 
BRANCH   9  10
ATOM     10  C   UNL     1      11.765  43.159   5.337  1.00  0.00     0.000 C 
BRANCH  10  11
ATOM     11  C   UNL     1      12.441  43.582   6.657  1.00  0.00     0.000 C 
BRANCH  11  12
ATOM     12  C   UNL     1      13.764  42.864   6.979  1.00  0.00     0.000 C 
BRANCH  12  13
ATOM     13  C   UNL     1      14.934  43.786   7.371  1.00  0.00     0.006 C 
BRANCH  13  14
ATOM     14  C   UNL     1      16.325  43.159   7.160  1.00  0.00     0.053 C 
BRANCH  14  15
ATOM     15  C   UNL     1      17.305  43.555   8.222  1.00  0.00     0.041 C 
ATOM     16  O   UNL     1      17.956  42.675   8.843  1.00  0.00    -0.550 OA
ATOM     17  O   UNL     1      17.521  44.898   8.506  1.00  0.00    -0.550 OA
ENDBRANCH  14  15
ENDBRANCH  13  14
ENDBRANCH  12  13
ENDBRANCH  11  12
ENDBRANCH  10  11
ENDBRANCH   9  10
ENDBRANCH   8   9
ENDBRANCH   7   8
ENDBRANCH   6   7
ENDBRANCH   5   6
ENDBRANCH   4   5
ENDBRANCH   3   4
ENDBRANCH   2   3
ENDBRANCH   1   2
BRANCH   1  18
ATOM     18  C   UNL     1       8.784  48.725   6.390  1.00  0.00     0.000 C 
BRANCH  18  19
ATOM     19  C   UNL     1       7.702  48.877   7.473  1.00  0.00     0.000 C 
BRANCH  19  20
ATOM     20  C   UNL     1       7.790  47.790   8.560  1.00  0.00     0.000 C 
BRANCH  20  21
ATOM     21  C   UNL     1       6.452  47.409   9.226  1.00  0.00     0.000 C 
BRANCH  21  22
ATOM     22  C   UNL     1       6.572  46.598  10.530  1.00  0.00     0.000 C 
BRANCH  22  23
ATOM     23  C   UNL     1       6.283  45.101  10.330  1.00  0.00     0.000 C 
BRANCH  23  24
ATOM     24  C   UNL     1       7.157  44.195  11.218  1.00  0.00    -0.000 C 
BRANCH  24  25
ATOM     25  C   UNL     1       8.261  43.412  10.483  1.00  0.00    -0.000 C 
BRANCH  25  26
ATOM     26  C   UNL     1       9.501  44.268  10.173  1.00  0.00    -0.000 C 
BRANCH  26  27
ATOM     27  C   UNL     1       9.673  44.538   8.669  1.00  0.00    -0.000 C 
BRANCH  27  28
ATOM     28  C   UNL     1       8.680  43.746   7.803  1.00  0.00    -0.000 C 
BRANCH  28  29
ATOM     29  C   UNL     1       7.740  44.691   7.043  1.00  0.00    -0.000 C 
BRANCH  29  30
ATOM     30  C   UNL     1       6.419  44.020   6.633  1.00  0.00    -0.000 C 
BRANCH  30  31
ATOM     31  C   UNL     1       5.235  45.002   6.522  1.00  0.00    -0.003 C 
ATOM     32  C   UNL     1       5.637  46.331   5.883  1.00  0.00     0.004 C 
ENDBRANCH  30  31
ENDBRANCH  29  30
ENDBRANCH  28  29
ENDBRANCH  27  28
ENDBRANCH  26  27
ENDBRANCH  25  26
ENDBRANCH  24  25
ENDBRANCH  23  24
ENDBRANCH  22  23
ENDBRANCH  21  22
ENDBRANCH  20  21
ENDBRANCH  19  20
ENDBRANCH  18  19
ENDBRANCH   1  18
TORSDOF 28
ENDMDL
MODEL 5
REMARK VINA RESULT:    -5.104      4.602      7.665
REMARK INTER + INTRA:         -18.849
REMARK INTER:                 -15.126
REMARK INTRA:                  -3.723
REMARK UNBOUND:                -5.390
REMARK SMILES CCCCCCCCCCCCCCCCCCCCCCCCCCCCCC(=O)[O-]
REMARK SMILES IDX 16 1 17 2 18 3 19 4 20 5 21 6 22 7 23 8 24 9 25 10 26 11
REMARK SMILES IDX 27 12 28 13 29 14 30 15 31 16 32 17 15 18 14 19 13 20 12 21
REMARK SMILES IDX 11 22 10 23 9 24 8 25 7 26 6 27 5 28 4 29 3 30 2 31 1 32
REMARK H PARENT
REMARK Flexibility Score: inf
ROOT
ATOM      1  C   UNL     1      16.779  42.947   5.600  1.00  0.00     0.000 C 
ENDROOT
BRANCH   1   2
ATOM      2  C   UNL     1      17.615  43.756   6.610  1.00  0.00     0.000 C 
BRANCH   2   3
ATOM      3  C   UNL     1      16.986  45.118   6.955  1.00  0.00     0.000 C 
BRANCH   3   4
ATOM      4  C   UNL     1      16.432  45.173   8.394  1.00  0.00     0.000 C 
BRANCH   4   5
ATOM      5  C   UNL     1      16.200  43.787   9.026  1.00  0.00     0.000 C 
BRANCH   5   6
ATOM      6  C   UNL     1      14.787  43.210   8.824  1.00  0.00     0.000 C 
BRANCH   6   7
ATOM      7  C   UNL     1      14.738  41.744   8.345  1.00  0.00     0.000 C 
BRANCH   7   8
ATOM      8  C   UNL     1      15.963  40.888   8.719  1.00  0.00     0.000 C 
BRANCH   8   9
ATOM      9  C   UNL     1      15.596  39.644   9.544  1.00  0.00     0.000 C 
BRANCH   9  10
ATOM     10  C   UNL     1      14.112  39.255   9.410  1.00  0.00     0.000 C 
BRANCH  10  11
ATOM     11  C   UNL     1      13.355  39.084  10.743  1.00  0.00     0.000 C 
BRANCH  11  12
ATOM     12  C   UNL     1      13.207  37.633  11.235  1.00  0.00     0.000 C 
BRANCH  12  13
ATOM     13  C   UNL     1      14.336  37.133  12.156  1.00  0.00     0.006 C 
BRANCH  13  14
ATOM     14  C   UNL     1      13.912  36.000  13.109  1.00  0.00     0.053 C 
BRANCH  14  15
ATOM     15  C   UNL     1      14.056  34.641  12.492  1.00  0.00     0.041 C 
ATOM     16  O   UNL     1      13.149  34.183  11.750  1.00  0.00    -0.550 OA
ATOM     17  O   UNL     1      15.207  33.894  12.712  1.00  0.00    -0.550 OA
ENDBRANCH  14  15
ENDBRANCH  13  14
ENDBRANCH  12  13
ENDBRANCH  11  12
ENDBRANCH  10  11
ENDBRANCH   9  10
ENDBRANCH   8   9
ENDBRANCH   7   8
ENDBRANCH   6   7
ENDBRANCH   5   6
ENDBRANCH   4   5
ENDBRANCH   3   4
ENDBRANCH   2   3
ENDBRANCH   1   2
BRANCH   1  18
ATOM     18  C   UNL     1      16.666  43.569   4.197  1.00  0.00     0.000 C 
BRANCH  18  19
ATOM     19  C   UNL     1      15.210  43.831   3.774  1.00  0.00     0.000 C 
BRANCH  19  20
ATOM     20  C   UNL     1      14.211  43.643   4.930  1.00  0.00     0.000 C 
BRANCH  20  21
ATOM     21  C   UNL     1      12.768  44.106   4.640  1.00  0.00     0.000 C 
BRANCH  21  22
ATOM     22  C   UNL     1      12.326  45.384   5.376  1.00  0.00     0.000 C 
BRANCH  22  23
ATOM     23  C   UNL     1      13.386  45.900   6.364  1.00  0.00     0.000 C 
BRANCH  23  24
ATOM     24  C   UNL     1      12.801  46.259   7.743  1.00  0.00    -0.000 C 
BRANCH  24  25
ATOM     25  C   UNL     1      11.286  46.028   7.901  1.00  0.00    -0.000 C 
BRANCH  25  26
ATOM     26  C   UNL     1      10.951  44.817   8.789  1.00  0.00    -0.000 C 
BRANCH  26  27
ATOM     27  C   UNL     1       9.572  44.216   8.474  1.00  0.00    -0.000 C 
BRANCH  27  28
ATOM     28  C   UNL     1       8.711  45.128   7.585  1.00  0.00    -0.000 C 
BRANCH  28  29
ATOM     29  C   UNL     1       7.544  45.727   8.382  1.00  0.00    -0.000 C 
BRANCH  29  30
ATOM     30  C   UNL     1       7.863  47.117   8.958  1.00  0.00    -0.000 C 
BRANCH  30  31
ATOM     31  C   UNL     1       6.967  48.239   8.395  1.00  0.00    -0.003 C 
ATOM     32  C   UNL     1       7.616  48.971   7.221  1.00  0.00     0.004 C 
ENDBRANCH  30  31
ENDBRANCH  29  30
ENDBRANCH  28  29
ENDBRANCH  27  28
ENDBRANCH  26  27
ENDBRANCH  25  26
ENDBRANCH  24  25
ENDBRANCH  23  24
ENDBRANCH  22  23
ENDBRANCH  21  22
ENDBRANCH  20  21
ENDBRANCH  19  20
ENDBRANCH  18  19
ENDBRANCH   1  18
TORSDOF 28
ENDMDL
MODEL 6
REMARK VINA RESULT:    -5.074      1.671      3.286
REMARK INTER + INTRA:         -18.770
REMARK INTER:                 -13.535
REMARK INTRA:                  -5.235
REMARK UNBOUND:                -5.390
REMARK SMILES CCCCCCCCCCCCCCCCCCCCCCCCCCCCCC(=O)[O-]
REMARK SMILES IDX 16 1 17 2 18 3 19 4 20 5 21 6 22 7 23 8 24 9 25 10 26 11
REMARK SMILES IDX 27 12 28 13 29 14 30 15 31 16 32 17 15 18 14 19 13 20 12 21
REMARK SMILES IDX 11 22 10 23 9 24 8 25 7 26 6 27 5 28 4 29 3 30 2 31 1 32
REMARK H PARENT
REMARK Flexibility Score: inf
ROOT
ATOM      1  C   UNL     1      12.711  46.660   7.329  1.00  0.00     0.000 C 
ENDROOT
BRANCH   1   2
ATOM      2  C   UNL     1      13.283  45.251   7.083  1.00  0.00     0.000 C 
BRANCH   2   3
ATOM      3  C   UNL     1      12.230  44.140   7.239  1.00  0.00     0.000 C 
BRANCH   3   4
ATOM      4  C   UNL     1      11.693  43.631   5.884  1.00  0.00     0.000 C 
BRANCH   4   5
ATOM      5  C   UNL     1      12.518  42.479   5.280  1.00  0.00     0.000 C 
BRANCH   5   6
ATOM      6  C   UNL     1      13.244  42.820   3.966  1.00  0.00     0.000 C 
BRANCH   6   7
ATOM      7  C   UNL     1      13.084  44.279   3.486  1.00  0.00     0.000 C 
BRANCH   7   8
ATOM      8  C   UNL     1      14.286  45.200   3.767  1.00  0.00     0.000 C 
BRANCH   8   9
ATOM      9  C   UNL     1      15.622  44.440   3.826  1.00  0.00     0.000 C 
BRANCH   9  10
ATOM     10  C   UNL     1      16.333  44.587   5.183  1.00  0.00     0.000 C 
BRANCH  10  11
ATOM     11  C   UNL     1      16.915  43.283   5.765  1.00  0.00     0.000 C 
BRANCH  11  12
ATOM     12  C   UNL     1      15.932  42.438   6.596  1.00  0.00     0.000 C 
BRANCH  12  13
ATOM     13  C   UNL     1      15.883  42.775   8.098  1.00  0.00     0.006 C 
BRANCH  13  14
ATOM     14  C   UNL     1      14.765  42.047   8.868  1.00  0.00     0.053 C 
BRANCH  14  15
ATOM     15  C   UNL     1      15.091  40.609   9.136  1.00  0.00     0.041 C 
ATOM     16  O   UNL     1      14.168  39.762   9.255  1.00  0.00    -0.550 OA
ATOM     17  O   UNL     1      16.415  40.199   9.225  1.00  0.00    -0.550 OA
ENDBRANCH  14  15
ENDBRANCH  13  14
ENDBRANCH  12  13
ENDBRANCH  11  12
ENDBRANCH  10  11
ENDBRANCH   9  10
ENDBRANCH   8   9
ENDBRANCH   7   8
ENDBRANCH   6   7
ENDBRANCH   5   6
ENDBRANCH   4   5
ENDBRANCH   3   4
ENDBRANCH   2   3
ENDBRANCH   1   2
BRANCH   1  18
ATOM     18  C   UNL     1      11.175  46.742   7.381  1.00  0.00     0.000 C 
BRANCH  18  19
ATOM     19  C   UNL     1      10.566  47.376   6.118  1.00  0.00     0.000 C 
BRANCH  19  20
ATOM     20  C   UNL     1       9.031  47.483   6.185  1.00  0.00     0.000 C 
BRANCH  20  21
ATOM     21  C   UNL     1       8.472  48.219   7.420  1.00  0.00     0.000 C 
BRANCH  21  22
ATOM     22  C   UNL     1       6.944  48.148   7.594  1.00  0.00     0.000 C 
BRANCH  22  23
ATOM     23  C   UNL     1       6.288  47.101   6.679  1.00  0.00     0.000 C 
BRANCH  23  24
ATOM     24  C   UNL     1       5.376  46.120   7.442  1.00  0.00    -0.000 C 
BRANCH  24  25
ATOM     25  C   UNL     1       6.078  44.878   8.022  1.00  0.00    -0.000 C 
BRANCH  25  26
ATOM     26  C   UNL     1       7.005  44.182   7.010  1.00  0.00    -0.000 C 
BRANCH  26  27
ATOM     27  C   UNL     1       8.454  44.073   7.512  1.00  0.00    -0.000 C 
BRANCH  27  28
ATOM     28  C   UNL     1       8.680  44.801   8.846  1.00  0.00    -0.000 C 
BRANCH  28  29
ATOM     29  C   UNL     1       9.573  43.972   9.779  1.00  0.00    -0.000 C 
BRANCH  29  30
ATOM     30  C   UNL     1       9.027  43.891  11.214  1.00  0.00    -0.000 C 
BRANCH  30  31
ATOM     31  C   UNL     1       7.538  43.493  11.286  1.00  0.00    -0.003 C 
ATOM     32  C   UNL     1       6.679  44.573  11.944  1.00  0.00     0.004 C 
ENDBRANCH  30  31
ENDBRANCH  29  30
ENDBRANCH  28  29
ENDBRANCH  27  28
ENDBRANCH  26  27
ENDBRANCH  25  26
ENDBRANCH  24  25
ENDBRANCH  23  24
ENDBRANCH  22  23
ENDBRANCH  21  22
ENDBRANCH  20  21
ENDBRANCH  19  20
ENDBRANCH  18  19
ENDBRANCH   1  18
TORSDOF 28
ENDMDL
MODEL 7
REMARK VINA RESULT:    -5.024      1.138      2.920
REMARK INTER + INTRA:         -18.638
REMARK INTER:                 -13.371
REMARK INTRA:                  -5.267
REMARK UNBOUND:                -5.390
REMARK SMILES CCCCCCCCCCCCCCCCCCCCCCCCCCCCCC(=O)[O-]
REMARK SMILES IDX 16 1 17 2 18 3 19 4 20 5 21 6 22 7 23 8 24 9 25 10 26 11
REMARK SMILES IDX 27 12 28 13 29 14 30 15 31 16 32 17 15 18 14 19 13 20 12 21
REMARK SMILES IDX 11 22 10 23 9 24 8 25 7 26 6 27 5 28 4 29 3 30 2 31 1 32
REMARK H PARENT
REMARK Flexibility Score: inf
ROOT
ATOM      1  C   UNL     1       9.395  48.543   6.240  1.00  0.00     0.000 C 
ENDROOT
BRANCH   1   2
ATOM      2  C   UNL     1      10.127  47.188   6.251  1.00  0.00     0.000 C 
BRANCH   2   3
ATOM      3  C   UNL     1      11.250  47.103   5.202  1.00  0.00     0.000 C 
BRANCH   3   4
ATOM      4  C   UNL     1      12.638  46.857   5.831  1.00  0.00     0.000 C 
BRANCH   4   5
ATOM      5  C   UNL     1      12.610  46.707   7.364  1.00  0.00     0.000 C 
BRANCH   5   6
ATOM      6  C   UNL     1      12.804  45.269   7.878  1.00  0.00     0.000 C 
BRANCH   6   7
ATOM      7  C   UNL     1      13.169  44.228   6.797  1.00  0.00     0.000 C 
BRANCH   7   8
ATOM      8  C   UNL     1      11.974  43.480   6.176  1.00  0.00     0.000 C 
BRANCH   8   9
ATOM      9  C   UNL     1      12.382  42.561   5.013  1.00  0.00     0.000 C 
BRANCH   9  10
ATOM     10  C   UNL     1      12.647  43.332   3.707  1.00  0.00     0.000 C 
BRANCH  10  11
ATOM     11  C   UNL     1      14.130  43.442   3.298  1.00  0.00     0.000 C 
BRANCH  11  12
ATOM     12  C   UNL     1      14.776  44.820   3.530  1.00  0.00     0.000 C 
BRANCH  12  13
ATOM     13  C   UNL     1      16.024  44.817   4.433  1.00  0.00     0.006 C 
BRANCH  13  14
ATOM     14  C   UNL     1      16.539  43.408   4.786  1.00  0.00     0.053 C 
BRANCH  14  15
ATOM     15  C   UNL     1      16.690  43.201   6.262  1.00  0.00     0.041 C 
ATOM     16  O   UNL     1      16.151  42.211   6.821  1.00  0.00    -0.550 OA
ATOM     17  O   UNL     1      17.452  44.085   7.016  1.00  0.00    -0.550 OA
ENDBRANCH  14  15
ENDBRANCH  13  14
ENDBRANCH  12  13
ENDBRANCH  11  12
ENDBRANCH  10  11
ENDBRANCH   9  10
ENDBRANCH   8   9
ENDBRANCH   7   8
ENDBRANCH   6   7
ENDBRANCH   5   6
ENDBRANCH   4   5
ENDBRANCH   3   4
ENDBRANCH   2   3
ENDBRANCH   1   2
BRANCH   1  18
ATOM     18  C   UNL     1       8.120  48.605   7.100  1.00  0.00     0.000 C 
BRANCH  18  19
ATOM     19  C   UNL     1       8.124  47.585   8.252  1.00  0.00     0.000 C 
BRANCH  19  20
ATOM     20  C   UNL     1       6.907  47.733   9.184  1.00  0.00     0.000 C 
BRANCH  20  21
ATOM     21  C   UNL     1       7.056  47.083  10.575  1.00  0.00     0.000 C 
BRANCH  21  22
ATOM     22  C   UNL     1       6.141  45.873  10.839  1.00  0.00     0.000 C 
BRANCH  22  23
ATOM     23  C   UNL     1       6.883  44.697  11.496  1.00  0.00     0.000 C 
BRANCH  23  24
ATOM     24  C   UNL     1       8.407  44.743  11.271  1.00  0.00    -0.000 C 
BRANCH  24  25
ATOM     25  C   UNL     1       8.952  43.752  10.225  1.00  0.00    -0.000 C 
BRANCH  25  26
ATOM     26  C   UNL     1       9.497  44.446   8.965  1.00  0.00    -0.000 C 
BRANCH  26  27
ATOM     27  C   UNL     1       8.761  44.015   7.686  1.00  0.00    -0.000 C 
BRANCH  27  28
ATOM     28  C   UNL     1       7.232  44.078   7.828  1.00  0.00    -0.000 C 
BRANCH  28  29
ATOM     29  C   UNL     1       6.587  44.655   6.560  1.00  0.00    -0.000 C 
BRANCH  29  30
ATOM     30  C   UNL     1       5.261  45.381   6.840  1.00  0.00    -0.000 C 
BRANCH  30  31
ATOM     31  C   UNL     1       4.829  46.336   5.708  1.00  0.00    -0.003 C 
ATOM     32  C   UNL     1       4.605  47.764   6.205  1.00  0.00     0.004 C 
ENDBRANCH  30  31
ENDBRANCH  29  30
ENDBRANCH  28  29
ENDBRANCH  27  28
ENDBRANCH  26  27
ENDBRANCH  25  26
ENDBRANCH  24  25
ENDBRANCH  23  24
ENDBRANCH  22  23
ENDBRANCH  21  22
ENDBRANCH  20  21
ENDBRANCH  19  20
ENDBRANCH  18  19
ENDBRANCH   1  18
TORSDOF 28
ENDMDL
MODEL 8
REMARK VINA RESULT:    -5.022      3.727      8.326
REMARK INTER + INTRA:         -18.633
REMARK INTER:                 -13.063
REMARK INTRA:                  -5.570
REMARK UNBOUND:                -5.390
REMARK SMILES CCCCCCCCCCCCCCCCCCCCCCCCCCCCCC(=O)[O-]
REMARK SMILES IDX 16 1 17 2 18 3 19 4 20 5 21 6 22 7 23 8 24 9 25 10 26 11
REMARK SMILES IDX 27 12 28 13 29 14 30 15 31 16 32 17 15 18 14 19 13 20 12 21
REMARK SMILES IDX 11 22 10 23 9 24 8 25 7 26 6 27 5 28 4 29 3 30 2 31 1 32
REMARK H PARENT
REMARK Flexibility Score: inf
ROOT
ATOM      1  C   UNL     1       8.209  48.395   7.004  1.00  0.00     0.000 C 
ENDROOT
BRANCH   1   2
ATOM      2  C   UNL     1       7.914  47.718   8.356  1.00  0.00     0.000 C 
BRANCH   2   3
ATOM      3  C   UNL     1       6.598  48.199   8.994  1.00  0.00     0.000 C 
BRANCH   3   4
ATOM      4  C   UNL     1       6.136  47.300  10.160  1.00  0.00     0.000 C 
BRANCH   4   5
ATOM      5  C   UNL     1       7.225  46.339  10.675  1.00  0.00     0.000 C 
BRANCH   5   6
ATOM      6  C   UNL     1       6.738  44.911  10.981  1.00  0.00     0.000 C 
BRANCH   6   7
ATOM      7  C   UNL     1       7.783  43.797  10.757  1.00  0.00     0.000 C 
BRANCH   7   8
ATOM      8  C   UNL     1       9.220  44.287  10.495  1.00  0.00     0.000 C 
BRANCH   8   9
ATOM      9  C   UNL     1       9.636  44.161   9.021  1.00  0.00     0.000 C 
BRANCH   9  10
ATOM     10  C   UNL     1       8.544  43.523   8.144  1.00  0.00     0.000 C 
BRANCH  10  11
ATOM     11  C   UNL     1       7.928  44.454   7.079  1.00  0.00     0.000 C 
BRANCH  11  12
ATOM     12  C   UNL     1       6.472  44.139   6.692  1.00  0.00     0.000 C 
BRANCH  12  13
ATOM     13  C   UNL     1       5.452  45.248   7.014  1.00  0.00     0.006 C 
BRANCH  13  14
ATOM     14  C   UNL     1       5.288  46.293   5.894  1.00  0.00     0.053 C 
BRANCH  14  15
ATOM     15  C   UNL     1       3.855  46.658   5.649  1.00  0.00     0.041 C 
ATOM     16  O   UNL     1       3.118  45.902   4.966  1.00  0.00    -0.550 OA
ATOM     17  O   UNL     1       3.327  47.818   6.201  1.00  0.00    -0.550 OA
ENDBRANCH  14  15
ENDBRANCH  13  14
ENDBRANCH  12  13
ENDBRANCH  11  12
ENDBRANCH  10  11
ENDBRANCH   9  10
ENDBRANCH   8   9
ENDBRANCH   7   8
ENDBRANCH   6   7
ENDBRANCH   5   6
ENDBRANCH   4   5
ENDBRANCH   3   4
ENDBRANCH   2   3
ENDBRANCH   1   2
BRANCH   1  18
ATOM     18  C   UNL     1       9.378  47.785   6.209  1.00  0.00     0.000 C 
BRANCH  18  19
ATOM     19  C   UNL     1      10.405  47.072   7.105  1.00  0.00     0.000 C 
BRANCH  19  20
ATOM     20  C   UNL     1      11.509  46.362   6.299  1.00  0.00     0.000 C 
BRANCH  20  21
ATOM     21  C   UNL     1      12.628  45.713   7.139  1.00  0.00     0.000 C 
BRANCH  21  22
ATOM     22  C   UNL     1      12.819  44.200   6.926  1.00  0.00     0.000 C 
BRANCH  22  23
ATOM     23  C   UNL     1      11.786  43.600   5.957  1.00  0.00     0.000 C 
BRANCH  23  24
ATOM     24  C   UNL     1      12.358  42.455   5.099  1.00  0.00    -0.000 C 
BRANCH  24  25
ATOM     25  C   UNL     1      12.705  42.828   3.645  1.00  0.00    -0.000 C 
BRANCH  25  26
ATOM     26  C   UNL     1      14.131  43.384   3.490  1.00  0.00    -0.000 C 
BRANCH  26  27
ATOM     27  C   UNL     1      14.179  44.919   3.562  1.00  0.00    -0.000 C 
BRANCH  27  28
ATOM     28  C   UNL     1      15.441  45.444   4.265  1.00  0.00    -0.000 C 
BRANCH  28  29
ATOM     29  C   UNL     1      16.132  44.326   5.058  1.00  0.00    -0.000 C 
BRANCH  29  30
ATOM     30  C   UNL     1      16.540  44.762   6.475  1.00  0.00    -0.000 C 
BRANCH  30  31
ATOM     31  C   UNL     1      16.436  43.633   7.522  1.00  0.00    -0.003 C 
ATOM     32  C   UNL     1      16.021  42.299   6.901  1.00  0.00     0.004 C 
ENDBRANCH  30  31
ENDBRANCH  29  30
ENDBRANCH  28  29
ENDBRANCH  27  28
ENDBRANCH  26  27
ENDBRANCH  25  26
ENDBRANCH  24  25
ENDBRANCH  23  24
ENDBRANCH  22  23
ENDBRANCH  21  22
ENDBRANCH  20  21
ENDBRANCH  19  20
ENDBRANCH  18  19
ENDBRANCH   1  18
TORSDOF 28
ENDMDL
MODEL 9
REMARK VINA RESULT:    -4.992      3.411      8.911
REMARK INTER + INTRA:         -18.554
REMARK INTER:                 -13.155
REMARK INTRA:                  -5.400
REMARK UNBOUND:                -5.390
REMARK SMILES CCCCCCCCCCCCCCCCCCCCCCCCCCCCCC(=O)[O-]
REMARK SMILES IDX 16 1 17 2 18 3 19 4 20 5 21 6 22 7 23 8 24 9 25 10 26 11
REMARK SMILES IDX 27 12 28 13 29 14 30 15 31 16 32 17 15 18 14 19 13 20 12 21
REMARK SMILES IDX 11 22 10 23 9 24 8 25 7 26 6 27 5 28 4 29 3 30 2 31 1 32
REMARK H PARENT
REMARK Flexibility Score: inf
ROOT
ATOM      1  C   UNL     1      11.491  46.328   6.101  1.00  0.00     0.000 C 
ENDROOT
BRANCH   1   2
ATOM      2  C   UNL     1      10.218  47.094   6.509  1.00  0.00     0.000 C 
BRANCH   2   3
ATOM      3  C   UNL     1       9.437  46.401   7.640  1.00  0.00     0.000 C 
BRANCH   3   4
ATOM      4  C   UNL     1       9.159  44.911   7.349  1.00  0.00     0.000 C 
BRANCH   4   5
ATOM      5  C   UNL     1       9.052  44.039   8.615  1.00  0.00     0.000 C 
BRANCH   5   6
ATOM      6  C   UNL     1      10.005  44.435   9.757  1.00  0.00     0.000 C 
BRANCH   6   7
ATOM      7  C   UNL     1       9.411  44.323  11.178  1.00  0.00     0.000 C 
BRANCH   7   8
ATOM      8  C   UNL     1       8.004  43.699  11.255  1.00  0.00     0.000 C 
BRANCH   8   9
ATOM      9  C   UNL     1       6.893  44.748  11.431  1.00  0.00     0.000 C 
BRANCH   9  10
ATOM     10  C   UNL     1       7.430  46.190  11.451  1.00  0.00     0.000 C 
BRANCH  10  11
ATOM     11  C   UNL     1       6.959  47.083  10.285  1.00  0.00     0.000 C 
BRANCH  11  12
ATOM     12  C   UNL     1       6.153  46.362   9.188  1.00  0.00     0.000 C 
BRANCH  12  13
ATOM     13  C   UNL     1       5.462  47.286   8.167  1.00  0.00     0.006 C 
BRANCH  13  14
ATOM     14  C   UNL     1       5.990  47.135   6.728  1.00  0.00     0.053 C 
BRANCH  14  15
ATOM     15  C   UNL     1       5.079  46.319   5.861  1.00  0.00     0.041 C 
ATOM     16  O   UNL     1       4.282  46.887   5.070  1.00  0.00    -0.550 OA
ATOM     17  O   UNL     1       5.132  44.932   5.905  1.00  0.00    -0.550 OA
ENDBRANCH  14  15
ENDBRANCH  13  14
ENDBRANCH  12  13
ENDBRANCH  11  12
ENDBRANCH  10  11
ENDBRANCH   9  10
ENDBRANCH   8   9
ENDBRANCH   7   8
ENDBRANCH   6   7
ENDBRANCH   5   6
ENDBRANCH   4   5
ENDBRANCH   3   4
ENDBRANCH   2   3
ENDBRANCH   1   2
BRANCH   1  18
ATOM     18  C   UNL     1      12.772  46.745   6.848  1.00  0.00     0.000 C 
BRANCH  18  19
ATOM     19  C   UNL     1      13.079  45.845   8.058  1.00  0.00     0.000 C 
BRANCH  19  20
ATOM     20  C   UNL     1      13.052  44.345   7.707  1.00  0.00     0.000 C 
BRANCH  20  21
ATOM     21  C   UNL     1      13.949  43.445   8.581  1.00  0.00     0.000 C 
BRANCH  21  22
ATOM     22  C   UNL     1      14.586  42.246   7.855  1.00  0.00     0.000 C 
BRANCH  22  23
ATOM     23  C   UNL     1      16.117  42.209   7.996  1.00  0.00     0.000 C 
BRANCH  23  24
ATOM     24  C   UNL     1      16.724  43.581   8.349  1.00  0.00    -0.000 C 
BRANCH  24  25
ATOM     25  C   UNL     1      17.150  44.446   7.149  1.00  0.00    -0.000 C 
BRANCH  25  26
ATOM     26  C   UNL     1      17.528  43.614   5.911  1.00  0.00    -0.000 C 
BRANCH  26  27
ATOM     27  C   UNL     1      16.617  43.898   4.706  1.00  0.00    -0.000 C 
BRANCH  27  28
ATOM     28  C   UNL     1      15.517  44.925   5.018  1.00  0.00    -0.000 C 
BRANCH  28  29
ATOM     29  C   UNL     1      14.418  44.894   3.947  1.00  0.00    -0.000 C 
BRANCH  29  30
ATOM     30  C   UNL     1      14.099  43.472   3.457  1.00  0.00    -0.000 C 
BRANCH  30  31
ATOM     31  C   UNL     1      13.352  42.613   4.499  1.00  0.00    -0.003 C 
ATOM     32  C   UNL     1      11.858  42.930   4.551  1.00  0.00     0.004 C 
ENDBRANCH  30  31
ENDBRANCH  29  30
ENDBRANCH  28  29
ENDBRANCH  27  28
ENDBRANCH  26  27
ENDBRANCH  25  26
ENDBRANCH  24  25
ENDBRANCH  23  24
ENDBRANCH  22  23
ENDBRANCH  21  22
ENDBRANCH  20  21
ENDBRANCH  19  20
ENDBRANCH  18  19
ENDBRANCH   1  18
TORSDOF 28
ENDMDL
