MODEL 1
REMARK VINA RESULT:    11.561      0.000      0.000
REMARK INTER + INTRA:          12.726
REMARK INTER:                  12.574
REMARK INTRA:                   0.152
REMARK UNBOUND:                 0.152
REMARK SMILES C[C@@H]1[C@@H](C)CC[C@]2(C(=O)[O-])CC[C@]3(C)C(=CC[C@H]4[C@]5(C)CC[C@H](O)C(C)(C)[C@@H]5CC[C@@]43C)[C@@H]12
REMARK SMILES IDX 7 1 6 2 11 3 33 4 5 5 12 6 15 7 2 8 3 9 13 10 16 11 1 12
REMARK SMILES IDX 4 13 14 14 31 15 17 16 18 17 30 18 32 19 19 20 29 21 28 22
REMARK SMILES IDX 21 23 20 24 25 25 22 26 23 27 26 28 27 29 8 30 9 31 10 32
REMARK SMILES IDX 24 33
REMARK H PARENT 24 34
REMARK Flexibility Score: inf
ROOT
ATOM      1  C   UNL     1       2.092   6.205 -12.182  1.00  0.00     0.017 C 
ATOM      2  C   UNL     1       2.252   5.268 -10.937  1.00  0.00     0.014 C 
ATOM      3  C   UNL     1       3.446   6.300 -12.954  1.00  0.00     0.014 C 
ATOM      4  C   UNL     1       1.737   7.667 -11.758  1.00  0.00     0.030 C 
ATOM      5  C   UNL     1       2.315   6.018  -9.602  1.00  0.00     0.004 C 
ATOM      6  C   UNL     1       3.421   7.277 -14.168  1.00  0.00     0.013 C 
ATOM      7  C   UNL     1       1.545   8.496 -13.029  1.00  0.00    -0.063 C 
ATOM      8  C   UNL     1       0.655   7.750 -10.639  1.00  0.00    -0.003 C 
ATOM      9  C   UNL     1       1.078   6.923  -9.373  1.00  0.00    -0.011 C 
ATOM     10  C   UNL     1       2.823   8.715 -13.879  1.00  0.00    -0.006 C 
ATOM     11  C   UNL     1       0.298   8.630 -13.545  1.00  0.00    -0.027 C 
ATOM     12  C   UNL     1       0.384   9.214 -10.236  1.00  0.00     0.008 C 
ATOM     13  C   UNL     1      -0.106   6.107  -8.829  1.00  0.00     0.008 C 
ATOM     14  C   UNL     1       3.881   9.491 -13.031  1.00  0.00     0.017 C 
ATOM     15  C   UNL     1       2.500   9.556 -15.224  1.00  0.00    -0.020 C 
ATOM     16  C   UNL     1      -0.008   9.146 -14.916  1.00  0.00     0.032 C 
ATOM     17  C   UNL     1       1.182   8.976 -15.882  1.00  0.00     0.006 C 
ATOM     18  C   UNL     1       3.704   9.507 -16.233  1.00  0.00     0.008 C 
ATOM     19  C   UNL     1       2.283  11.063 -14.863  1.00  0.00     0.012 C 
ATOM     20  C   UNL     1       0.850   9.348 -17.414  1.00  0.00    -0.025 C 
ATOM     21  C   UNL     1       3.367   8.896 -17.594  1.00  0.00     0.005 C 
ATOM     22  C   UNL     1       2.175   9.657 -18.238  1.00  0.00     0.003 C 
ATOM     23  C   UNL     1       0.109   8.112 -18.028  1.00  0.00     0.010 C 
ATOM     24  C   UNL     1      -0.125  10.565 -17.476  1.00  0.00     0.012 C 
ATOM     25  C   UNL     1       2.083   9.521 -19.839  1.00  0.00    -0.006 C 
ATOM     26  C   UNL     1      -0.105   8.178 -19.539  1.00  0.00     0.033 C 
ATOM     27  C   UNL     1       1.219   8.299 -20.302  1.00  0.00     0.120 C 
ATOM     28  C   UNL     1       1.475  10.818 -20.463  1.00  0.00     0.014 C 
ATOM     29  C   UNL     1       3.489   9.402 -20.500  1.00  0.00     0.014 C 
ENDROOT
BRANCH   1  30
ATOM     30  C   UNL     1       1.021   5.581 -13.083  1.00  0.00     0.048 C 
ATOM     31  O   UNL     1      -0.125   5.307 -12.634  1.00  0.00    -0.550 OA
ATOM     32  O   UNL     1       1.252   5.414 -14.442  1.00  0.00    -0.550 OA
ENDBRANCH   1  30
BRANCH  27  33
ATOM     33  O   UNL     1       1.921   7.079 -20.270  1.00  0.00    -0.393 OA
ATOM     34  H   UNL     1       1.627   6.568 -19.477  1.00  0.00     0.210 HD
ENDBRANCH  27  33
TORSDOF 2
ENDMDL
