MODEL 1
REMARK VINA RESULT:    -5.168      0.000      0.000
REMARK INTER + INTRA:          -6.220
REMARK INTER:                  -6.225
REMARK INTRA:                   0.005
REMARK UNBOUND:                 0.005
REMARK SMILES O=c1c(O)c(-c2ccc(O)c(O)c2)oc2cc(O)cc(O)c12
REMARK SMILES IDX 5 1 3 2 2 3 1 4 22 5 20 6 19 7 17 8 16 9 15 10 14 11 6 12
REMARK SMILES IDX 7 13 8 14 9 15 13 16 11 17 10 18 12 20 4 22 21 24 18 26
REMARK H PARENT 10 19 12 21 4 23 21 25 18 27
REMARK Flexibility Score: inf
ROOT
ATOM      1  C   UNL     1      97.808 103.676  90.264  1.00  0.00     0.180 A 
ATOM      2  C   UNL     1      97.566 105.019  89.926  1.00  0.00     0.208 A 
ATOM      3  C   UNL     1      98.587 105.762  89.314  1.00  0.00     0.238 A 
ATOM      4  O   UNL     1      98.383 106.979  89.064  1.00  0.00    -0.285 OA
ATOM      5  C   UNL     1      99.832 105.151  89.033  1.00  0.00     0.111 A 
ATOM      6  C   UNL     1     100.924 105.798  88.380  1.00  0.00     0.134 A 
ATOM      7  C   UNL     1     102.154 105.136  88.271  1.00  0.00     0.093 A 
ATOM      8  C   UNL     1     102.312 103.830  88.732  1.00  0.00     0.123 A 
ATOM      9  C   UNL     1     101.234 103.166  89.318  1.00  0.00     0.094 A 
ATOM     10  C   UNL     1     100.005 103.813  89.473  1.00  0.00     0.146 A 
ATOM     11  O   UNL     1      99.008 103.150  90.046  1.00  0.00    -0.452 OA
ENDROOT
BRANCH   1  12
ATOM     12  C   UNL     1      96.773 102.821  90.887  1.00  0.00     0.025 A 
ATOM     13  C   UNL     1      95.465 102.764  90.375  1.00  0.00     0.016 A 
ATOM     14  C   UNL     1      94.511 101.931  90.966  1.00  0.00     0.051 A 
ATOM     15  C   UNL     1      94.849 101.135  92.065  1.00  0.00     0.157 A 
ATOM     16  C   UNL     1      97.115 102.005  91.978  1.00  0.00     0.062 A 
ATOM     17  C   UNL     1      96.159 101.169  92.572  1.00  0.00     0.158 A 
BRANCH  15  18
ATOM     18  O   UNL     1      93.875 100.316  92.634  1.00  0.00    -0.504 OA
ATOM     19  H   UNL     1      93.701  99.376  92.301  1.00  0.00     0.293 HD
ENDBRANCH  15  18
BRANCH  17  20
ATOM     20  O   UNL     1      96.505 100.372  93.662  1.00  0.00    -0.504 OA
ATOM     21  H   UNL     1      96.958 100.760  94.481  1.00  0.00     0.293 HD
ENDBRANCH  17  20
ENDBRANCH   1  12
BRANCH   2  22
ATOM     22  O   UNL     1      96.336 105.610  90.231  1.00  0.00    -0.502 OA
ATOM     23  H   UNL     1      95.454 105.131  90.098  1.00  0.00     0.293 HD
ENDBRANCH   2  22
BRANCH   6  24
ATOM     24  O   UNL     1     100.847 107.068  87.801  1.00  0.00    -0.507 OA
ATOM     25  H   UNL     1     101.376 107.365  86.994  1.00  0.00     0.293 HD
ENDBRANCH   6  24
BRANCH   8  26
ATOM     26  O   UNL     1     103.546 103.197  88.592  1.00  0.00    -0.508 OA
ATOM     27  H   UNL     1     104.035 103.180  87.705  1.00  0.00     0.293 HD
ENDBRANCH   8  26
TORSDOF 6
ENDMDL
MODEL 2
REMARK VINA RESULT:    -4.650      1.347      6.512
REMARK INTER + INTRA:          -5.597
REMARK INTER:                  -5.555
REMARK INTRA:                  -0.042
REMARK UNBOUND:                 0.005
REMARK SMILES O=c1c(O)c(-c2ccc(O)c(O)c2)oc2cc(O)cc(O)c12
REMARK SMILES IDX 5 1 3 2 2 3 1 4 22 5 20 6 19 7 17 8 16 9 15 10 14 11 6 12
REMARK SMILES IDX 7 13 8 14 9 15 13 16 11 17 10 18 12 20 4 22 21 24 18 26
REMARK H PARENT 10 19 12 21 4 23 21 25 18 27
REMARK Flexibility Score: inf
ROOT
ATOM      1  C   UNL     1      98.655 104.192  89.375  1.00  0.00     0.180 A 
ATOM      2  C   UNL     1      97.977 105.405  89.168  1.00  0.00     0.208 A 
ATOM      3  C   UNL     1      96.642 105.520  89.587  1.00  0.00     0.238 A 
ATOM      4  O   UNL     1      96.023 106.590  89.349  1.00  0.00    -0.285 OA
ATOM      5  C   UNL     1      96.007 104.426  90.223  1.00  0.00     0.111 A 
ATOM      6  C   UNL     1      94.670 104.445  90.724  1.00  0.00     0.134 A 
ATOM      7  C   UNL     1      94.102 103.263  91.218  1.00  0.00     0.093 A 
ATOM      8  C   UNL     1      94.841 102.083  91.287  1.00  0.00     0.123 A 
ATOM      9  C   UNL     1      96.167 102.069  90.855  1.00  0.00     0.094 A 
ATOM     10  C   UNL     1      96.751 103.222  90.325  1.00  0.00     0.146 A 
ATOM     11  O   UNL     1      98.012 103.164  89.915  1.00  0.00    -0.452 OA
ENDROOT
BRANCH   1  12
ATOM     12  C   UNL     1     100.071 104.003  88.983  1.00  0.00     0.025 A 
ATOM     13  C   UNL     1     101.067 104.912  89.381  1.00  0.00     0.016 A 
ATOM     14  C   UNL     1     102.400 104.700  89.019  1.00  0.00     0.051 A 
ATOM     15  C   UNL     1     102.761 103.576  88.269  1.00  0.00     0.157 A 
ATOM     16  C   UNL     1     100.439 102.865  88.248  1.00  0.00     0.062 A 
ATOM     17  C   UNL     1     101.776 102.651  87.884  1.00  0.00     0.158 A 
BRANCH  15  18
ATOM     18  O   UNL     1     104.099 103.393  87.922  1.00  0.00    -0.504 OA
ATOM     19  H   UNL     1     104.469 103.696  87.030  1.00  0.00     0.293 HD
ENDBRANCH  15  18
BRANCH  17  20
ATOM     20  O   UNL     1     102.129 101.524  87.143  1.00  0.00    -0.504 OA
ATOM     21  H   UNL     1     102.104 100.595  87.546  1.00  0.00     0.293 HD
ENDBRANCH  17  20
ENDBRANCH   1  12
BRANCH   2  22
ATOM     22  O   UNL     1      98.615 106.466  88.519  1.00  0.00    -0.502 OA
ATOM     23  H   UNL     1      99.622 106.581  88.525  1.00  0.00     0.293 HD
ENDBRANCH   2  22
BRANCH   6  24
ATOM     24  O   UNL     1      93.875 105.593  90.786  1.00  0.00    -0.507 OA
ATOM     25  H   UNL     1      94.097 106.470  90.339  1.00  0.00     0.293 HD
ENDBRANCH   6  24
BRANCH   8  26
ATOM     26  O   UNL     1      94.247 100.930  91.799  1.00  0.00    -0.508 OA
ATOM     27  H   UNL     1      94.655 100.426  92.578  1.00  0.00     0.293 HD
ENDBRANCH   8  26
TORSDOF 6
ENDMDL
MODEL 3
REMARK VINA RESULT:    -3.491      1.944      6.827
REMARK INTER + INTRA:          -4.201
REMARK INTER:                  -4.040
REMARK INTRA:                  -0.161
REMARK UNBOUND:                 0.005
REMARK SMILES O=c1c(O)c(-c2ccc(O)c(O)c2)oc2cc(O)cc(O)c12
REMARK SMILES IDX 5 1 3 2 2 3 1 4 22 5 20 6 19 7 17 8 16 9 15 10 14 11 6 12
REMARK SMILES IDX 7 13 8 14 9 15 13 16 11 17 10 18 12 20 4 22 21 24 18 26
REMARK H PARENT 10 19 12 21 4 23 21 25 18 27
REMARK Flexibility Score: inf
ROOT
ATOM      1  C   UNL     1      98.715 103.834  89.531  1.00  0.00     0.180 A 
ATOM      2  C   UNL     1      98.198 102.883  90.429  1.00  0.00     0.208 A 
ATOM      3  C   UNL     1      96.847 102.963  90.802  1.00  0.00     0.238 A 
ATOM      4  O   UNL     1      96.404 102.143  91.649  1.00  0.00    -0.285 OA
ATOM      5  C   UNL     1      96.026 103.982  90.262  1.00  0.00     0.111 A 
ATOM      6  C   UNL     1      94.633 104.133  90.541  1.00  0.00     0.134 A 
ATOM      7  C   UNL     1      93.950 105.254  90.053  1.00  0.00     0.093 A 
ATOM      8  C   UNL     1      94.591 106.193  89.246  1.00  0.00     0.123 A 
ATOM      9  C   UNL     1      95.936 106.023  88.918  1.00  0.00     0.094 A 
ATOM     10  C   UNL     1      96.654 104.934  89.419  1.00  0.00     0.146 A 
ATOM     11  O   UNL     1      97.935 104.815  89.093  1.00  0.00    -0.452 OA
ENDROOT
BRANCH   1  12
ATOM     12  C   UNL     1     100.121 103.799  89.070  1.00  0.00     0.025 A 
ATOM     13  C   UNL     1     101.033 104.809  89.425  1.00  0.00     0.016 A 
ATOM     14  C   UNL     1     102.362 104.743  88.998  1.00  0.00     0.051 A 
ATOM     15  C   UNL     1     102.804 103.666  88.225  1.00  0.00     0.157 A 
ATOM     16  C   UNL     1     100.574 102.708  88.311  1.00  0.00     0.062 A 
ATOM     17  C   UNL     1     101.907 102.640  87.881  1.00  0.00     0.158 A 
BRANCH  15  18
ATOM     18  O   UNL     1     104.135 103.628  87.813  1.00  0.00    -0.504 OA
ATOM     19  H   UNL     1     104.899 103.516  88.468  1.00  0.00     0.293 HD
ENDBRANCH  15  18
BRANCH  17  20
ATOM     20  O   UNL     1     102.343 101.559  87.117  1.00  0.00    -0.504 OA
ATOM     21  H   UNL     1     101.689 100.937  86.656  1.00  0.00     0.293 HD
ENDBRANCH  17  20
ENDBRANCH   1  12
BRANCH   2  22
ATOM     22  O   UNL     1      99.031 101.898  90.967  1.00  0.00    -0.502 OA
ATOM     23  H   UNL     1      98.802 101.396  91.815  1.00  0.00     0.293 HD
ENDBRANCH   2  22
BRANCH   6  24
ATOM     24  O   UNL     1      93.875 103.205  91.260  1.00  0.00    -0.507 OA
ATOM     25  H   UNL     1      93.705 102.253  90.969  1.00  0.00     0.293 HD
ENDBRANCH   6  24
BRANCH   8  26
ATOM     26  O   UNL     1      93.875 107.288  88.765  1.00  0.00    -0.508 OA
ATOM     27  H   UNL     1      94.108 108.235  89.040  1.00  0.00     0.293 HD
ENDBRANCH   8  26
TORSDOF 6
ENDMDL
MODEL 4
REMARK VINA RESULT:    -2.897      1.377      3.077
REMARK INTER + INTRA:          -3.485
REMARK INTER:                  -3.798
REMARK INTRA:                   0.313
REMARK UNBOUND:                 0.005
REMARK SMILES O=c1c(O)c(-c2ccc(O)c(O)c2)oc2cc(O)cc(O)c12
REMARK SMILES IDX 5 1 3 2 2 3 1 4 22 5 20 6 19 7 17 8 16 9 15 10 14 11 6 12
REMARK SMILES IDX 7 13 8 14 9 15 13 16 11 17 10 18 12 20 4 22 21 24 18 26
REMARK H PARENT 10 19 12 21 4 23 21 25 18 27
REMARK Flexibility Score: inf
ROOT
ATOM      1  C   UNL     1      97.717 103.891  90.010  1.00  0.00     0.180 A 
ATOM      2  C   UNL     1      99.087 103.578  90.017  1.00  0.00     0.208 A 
ATOM      3  C   UNL     1      99.992 104.464  89.413  1.00  0.00     0.238 A 
ATOM      4  O   UNL     1     101.211 104.151  89.374  1.00  0.00    -0.285 OA
ATOM      5  C   UNL     1      99.519 105.660  88.822  1.00  0.00     0.111 A 
ATOM      6  C   UNL     1     100.352 106.650  88.217  1.00  0.00     0.134 A 
ATOM      7  C   UNL     1      99.763 107.732  87.550  1.00  0.00     0.093 A 
ATOM      8  C   UNL     1      98.379 107.894  87.521  1.00  0.00     0.123 A 
ATOM      9  C   UNL     1      97.558 106.965  88.160  1.00  0.00     0.094 A 
ATOM     10  C   UNL     1      98.114 105.856  88.804  1.00  0.00     0.146 A 
ATOM     11  O   UNL     1      97.298 104.989  89.391  1.00  0.00    -0.452 OA
ENDROOT
BRANCH   1  12
ATOM     12  C   UNL     1      96.705 103.019  90.649  1.00  0.00     0.025 A 
ATOM     13  C   UNL     1      95.399 102.917  90.138  1.00  0.00     0.016 A 
ATOM     14  C   UNL     1      94.469 102.069  90.745  1.00  0.00     0.051 A 
ATOM     15  C   UNL     1      94.828 101.303  91.857  1.00  0.00     0.157 A 
ATOM     16  C   UNL     1      97.069 102.233  91.754  1.00  0.00     0.062 A 
ATOM     17  C   UNL     1      96.136 101.382  92.364  1.00  0.00     0.158 A 
BRANCH  15  18
ATOM     18  O   UNL     1      93.877 100.468  92.442  1.00  0.00    -0.504 OA
ATOM     19  H   UNL     1      93.732 100.435  93.443  1.00  0.00     0.293 HD
ENDBRANCH  15  18
BRANCH  17  20
ATOM     20  O   UNL     1      96.505 100.614  93.468  1.00  0.00    -0.504 OA
ATOM     21  H   UNL     1      96.146  99.678  93.607  1.00  0.00     0.293 HD
ENDBRANCH  17  20
ENDBRANCH   1  12
BRANCH   2  22
ATOM     22  O   UNL     1      99.531 102.381  90.586  1.00  0.00    -0.502 OA
ATOM     23  H   UNL     1      99.296 101.474  90.200  1.00  0.00     0.293 HD
ENDBRANCH   2  22
BRANCH   6  24
ATOM     24  O   UNL     1     101.748 106.633  88.267  1.00  0.00    -0.507 OA
ATOM     25  H   UNL     1     102.291 106.472  89.103  1.00  0.00     0.293 HD
ENDBRANCH   6  24
BRANCH   8  26
ATOM     26  O   UNL     1      97.829 108.992  86.860  1.00  0.00    -0.508 OA
ATOM     27  H   UNL     1      97.751 109.017  85.850  1.00  0.00     0.293 HD
ENDBRANCH   8  26
TORSDOF 6
ENDMDL
MODEL 5
REMARK VINA RESULT:    -2.823      3.338      7.809
REMARK INTER + INTRA:          -3.396
REMARK INTER:                  -3.524
REMARK INTRA:                   0.128
REMARK UNBOUND:                 0.005
REMARK SMILES O=c1c(O)c(-c2ccc(O)c(O)c2)oc2cc(O)cc(O)c12
REMARK SMILES IDX 5 1 3 2 2 3 1 4 22 5 20 6 19 7 17 8 16 9 15 10 14 11 6 12
REMARK SMILES IDX 7 13 8 14 9 15 13 16 11 17 10 18 12 20 4 22 21 24 18 26
REMARK H PARENT 10 19 12 21 4 23 21 25 18 27
REMARK Flexibility Score: inf
ROOT
ATOM      1  C   UNL     1      98.592 107.183  87.783  1.00  0.00     0.180 A 
ATOM      2  C   UNL     1      99.771 106.541  88.200  1.00  0.00     0.208 A 
ATOM      3  C   UNL     1      99.676 105.419  89.038  1.00  0.00     0.238 A 
ATOM      4  O   UNL     1     100.737 104.883  89.453  1.00  0.00    -0.285 OA
ATOM      5  C   UNL     1      98.404 104.943  89.436  1.00  0.00     0.111 A 
ATOM      6  C   UNL     1      98.188 103.790  90.251  1.00  0.00     0.134 A 
ATOM      7  C   UNL     1      96.893 103.487  90.688  1.00  0.00     0.093 A 
ATOM      8  C   UNL     1      95.799 104.255  90.290  1.00  0.00     0.123 A 
ATOM      9  C   UNL     1      95.991 105.349  89.445  1.00  0.00     0.094 A 
ATOM     10  C   UNL     1      97.276 105.697  89.020  1.00  0.00     0.146 A 
ATOM     11  O   UNL     1      97.417 106.751  88.225  1.00  0.00    -0.452 OA
ENDROOT
BRANCH   1  12
ATOM     12  C   UNL     1      98.610 108.356  86.879  1.00  0.00     0.025 A 
ATOM     13  C   UNL     1      99.516 108.439  85.807  1.00  0.00     0.016 A 
ATOM     14  C   UNL     1      99.499 109.545  84.953  1.00  0.00     0.051 A 
ATOM     15  C   UNL     1      98.572 110.574  85.145  1.00  0.00     0.157 A 
ATOM     16  C   UNL     1      97.667 109.381  87.057  1.00  0.00     0.062 A 
ATOM     17  C   UNL     1      97.649 110.492  86.201  1.00  0.00     0.158 A 
BRANCH  15  18
ATOM     18  O   UNL     1      98.581 111.665  84.277  1.00  0.00    -0.504 OA
ATOM     19  H   UNL     1      97.861 111.803  83.579  1.00  0.00     0.293 HD
ENDBRANCH  15  18
BRANCH  17  20
ATOM     20  O   UNL     1      96.716 111.510  86.394  1.00  0.00    -0.504 OA
ATOM     21  H   UNL     1      96.643 112.002  87.276  1.00  0.00     0.293 HD
ENDBRANCH  17  20
ENDBRANCH   1  12
BRANCH   2  22
ATOM     22  O   UNL     1     101.018 107.041  87.813  1.00  0.00    -0.502 OA
ATOM     23  H   UNL     1     101.149 107.995  87.500  1.00  0.00     0.293 HD
ENDBRANCH   2  22
BRANCH   6  24
ATOM     24  O   UNL     1      99.198 102.903  90.631  1.00  0.00    -0.507 OA
ATOM     25  H   UNL     1     100.160 102.962  90.328  1.00  0.00     0.293 HD
ENDBRANCH   6  24
BRANCH   8  26
ATOM     26  O   UNL     1      94.522 103.915  90.732  1.00  0.00    -0.508 OA
ATOM     27  H   UNL     1      94.345 103.668  91.699  1.00  0.00     0.293 HD
ENDBRANCH   8  26
TORSDOF 6
ENDMDL
