MODEL 1
REMARK VINA RESULT:    -3.520      0.000      0.000
REMARK INTER + INTRA:          -6.908
REMARK INTER:                  -5.578
REMARK INTRA:                  -1.330
REMARK UNBOUND:                -1.330
REMARK SMILES CCCCCCCCCCCC(=O)[O-]
REMARK SMILES IDX 7 1 8 2 9 3 10 4 11 5 12 6 13 7 14 8 6 9 5 10 4 11 3 12 2 13
REMARK SMILES IDX 1 14
REMARK H PARENT
REMARK Flexibility Score: inf
ROOT
ATOM      1  C   UNL     1      -3.563  25.598   1.282  1.00  0.00     0.000 C 
ENDROOT
BRANCH   1   2
ATOM      2  C   UNL     1      -3.428  25.487   2.805  1.00  0.00     0.000 C 
BRANCH   2   3
ATOM      3  C   UNL     1      -3.833  26.801   3.490  1.00  0.00     0.000 C 
BRANCH   3   4
ATOM      4  C   UNL     1      -3.425  28.041   2.680  1.00  0.00     0.006 C 
BRANCH   4   5
ATOM      5  C   UNL     1      -2.369  28.893   3.396  1.00  0.00     0.053 C 
BRANCH   5   6
ATOM      6  C   UNL     1      -1.095  28.912   2.611  1.00  0.00     0.041 C 
ATOM      7  O   UNL     1      -0.204  29.763   2.869  1.00  0.00    -0.550 OA
ATOM      8  O   UNL     1      -0.872  27.957   1.628  1.00  0.00    -0.550 OA
ENDBRANCH   5   6
ENDBRANCH   4   5
ENDBRANCH   3   4
ENDBRANCH   2   3
ENDBRANCH   1   2
BRANCH   1   9
ATOM      9  C   UNL     1      -4.790  24.828   0.779  1.00  0.00     0.000 C 
BRANCH   9  10
ATOM     10  C   UNL     1      -5.336  23.888   1.864  1.00  0.00    -0.000 C 
BRANCH  10  11
ATOM     11  C   UNL     1      -6.787  24.233   2.260  1.00  0.00    -0.000 C 
BRANCH  11  12
ATOM     12  C   UNL     1      -7.264  25.594   1.726  1.00  0.00    -0.000 C 
BRANCH  12  13
ATOM     13  C   UNL     1      -7.524  26.615   2.842  1.00  0.00    -0.003 C 
ATOM     14  C   UNL     1      -7.405  25.967   4.219  1.00  0.00     0.004 C 
ENDBRANCH  12  13
ENDBRANCH  11  12
ENDBRANCH  10  11
ENDBRANCH   9  10
ENDBRANCH   1   9
TORSDOF 10
ENDMDL
MODEL 2
REMARK VINA RESULT:    -3.479      3.927      6.065
REMARK INTER + INTRA:          -6.843
REMARK INTER:                  -5.633
REMARK INTRA:                  -1.209
REMARK UNBOUND:                -1.330
REMARK SMILES CCCCCCCCCCCC(=O)[O-]
REMARK SMILES IDX 7 1 8 2 9 3 10 4 11 5 12 6 13 7 14 8 6 9 5 10 4 11 3 12 2 13
REMARK SMILES IDX 1 14
REMARK H PARENT
REMARK Flexibility Score: inf
ROOT
ATOM      1  C   UNL     1      -1.943  25.566   0.759  1.00  0.00     0.000 C 
ENDROOT
BRANCH   1   2
ATOM      2  C   UNL     1      -3.461  25.532   0.551  1.00  0.00     0.000 C 
BRANCH   2   3
ATOM      3  C   UNL     1      -4.183  25.095   1.834  1.00  0.00     0.000 C 
BRANCH   3   4
ATOM      4  C   UNL     1      -5.201  23.971   1.588  1.00  0.00     0.006 C 
BRANCH   4   5
ATOM      5  C   UNL     1      -6.510  24.180   2.361  1.00  0.00     0.053 C 
BRANCH   5   6
ATOM      6  C   UNL     1      -7.592  24.644   1.438  1.00  0.00     0.041 C 
ATOM      7  O   UNL     1      -7.892  25.865   1.377  1.00  0.00    -0.550 OA
ATOM      8  O   UNL     1      -8.236  23.734   0.610  1.00  0.00    -0.550 OA
ENDBRANCH   5   6
ENDBRANCH   4   5
ENDBRANCH   3   4
ENDBRANCH   2   3
ENDBRANCH   1   2
BRANCH   1   9
ATOM      9  C   UNL     1      -1.225  24.677  -0.264  1.00  0.00     0.000 C 
BRANCH   9  10
ATOM     10  C   UNL     1      -0.869  23.312   0.343  1.00  0.00    -0.000 C 
BRANCH  10  11
ATOM     11  C   UNL     1      -1.418  22.139  -0.496  1.00  0.00    -0.000 C 
BRANCH  11  12
ATOM     12  C   UNL     1      -2.875  21.774  -0.167  1.00  0.00    -0.000 C 
BRANCH  12  13
ATOM     13  C   UNL     1      -3.732  21.549  -1.420  1.00  0.00    -0.003 C 
ATOM     14  C   UNL     1      -4.419  22.840  -1.856  1.00  0.00     0.004 C 
ENDBRANCH  12  13
ENDBRANCH  11  12
ENDBRANCH  10  11
ENDBRANCH   9  10
ENDBRANCH   1   9
TORSDOF 10
ENDMDL
MODEL 3
REMARK VINA RESULT:    -3.435      3.515      5.912
REMARK INTER + INTRA:          -6.773
REMARK INTER:                  -5.590
REMARK INTRA:                  -1.182
REMARK UNBOUND:                -1.330
REMARK SMILES CCCCCCCCCCCC(=O)[O-]
REMARK SMILES IDX 7 1 8 2 9 3 10 4 11 5 12 6 13 7 14 8 6 9 5 10 4 11 3 12 2 13
REMARK SMILES IDX 1 14
REMARK H PARENT
REMARK Flexibility Score: inf
ROOT
ATOM      1  C   UNL     1      -4.104  25.992   1.047  1.00  0.00     0.000 C 
ENDROOT
BRANCH   1   2
ATOM      2  C   UNL     1      -4.233  24.772   1.966  1.00  0.00     0.000 C 
BRANCH   2   3
ATOM      3  C   UNL     1      -5.453  23.921   1.582  1.00  0.00     0.000 C 
BRANCH   3   4
ATOM      4  C   UNL     1      -6.507  24.717   0.796  1.00  0.00     0.006 C 
BRANCH   4   5
ATOM      5  C   UNL     1      -7.833  24.851   1.555  1.00  0.00     0.053 C 
BRANCH   5   6
ATOM      6  C   UNL     1      -7.737  25.930   2.588  1.00  0.00     0.041 C 
ATOM      7  O   UNL     1      -7.238  27.047   2.292  1.00  0.00    -0.550 OA
ATOM      8  O   UNL     1      -8.243  25.716   3.864  1.00  0.00    -0.550 OA
ENDBRANCH   5   6
ENDBRANCH   4   5
ENDBRANCH   3   4
ENDBRANCH   2   3
ENDBRANCH   1   2
BRANCH   1   9
ATOM      9  C   UNL     1      -3.006  25.779  -0.002  1.00  0.00     0.000 C 
BRANCH   9  10
ATOM     10  C   UNL     1      -1.626  25.649   0.660  1.00  0.00    -0.000 C 
BRANCH  10  11
ATOM     11  C   UNL     1      -0.894  24.359   0.234  1.00  0.00    -0.000 C 
BRANCH  11  12
ATOM     12  C   UNL     1      -1.765  23.400  -0.594  1.00  0.00    -0.000 C 
BRANCH  12  13
ATOM     13  C   UNL     1      -1.764  21.968  -0.044  1.00  0.00    -0.003 C 
ATOM     14  C   UNL     1      -3.147  21.332  -0.162  1.00  0.00     0.004 C 
ENDBRANCH  12  13
ENDBRANCH  11  12
ENDBRANCH  10  11
ENDBRANCH   9  10
ENDBRANCH   1   9
TORSDOF 10
ENDMDL
MODEL 4
REMARK VINA RESULT:    -3.418      1.523      2.376
REMARK INTER + INTRA:          -6.746
REMARK INTER:                  -6.092
REMARK INTRA:                  -0.654
REMARK UNBOUND:                -1.330
REMARK SMILES CCCCCCCCCCCC(=O)[O-]
REMARK SMILES IDX 7 1 8 2 9 3 10 4 11 5 12 6 13 7 14 8 6 9 5 10 4 11 3 12 2 13
REMARK SMILES IDX 1 14
REMARK H PARENT
REMARK Flexibility Score: inf
ROOT
ATOM      1  C   UNL     1      -5.915  26.329   1.067  1.00  0.00     0.000 C 
ENDROOT
BRANCH   1   2
ATOM      2  C   UNL     1      -4.492  26.469   0.516  1.00  0.00     0.000 C 
BRANCH   2   3
ATOM      3  C   UNL     1      -3.486  25.702   1.388  1.00  0.00     0.000 C 
BRANCH   3   4
ATOM      4  C   UNL     1      -2.517  26.633   2.132  1.00  0.00     0.006 C 
BRANCH   4   5
ATOM      5  C   UNL     1      -3.242  27.662   3.009  1.00  0.00     0.053 C 
BRANCH   5   6
ATOM      6  C   UNL     1      -2.267  28.649   3.570  1.00  0.00     0.041 C 
ATOM      7  O   UNL     1      -2.614  29.426   4.497  1.00  0.00    -0.550 OA
ATOM      8  O   UNL     1      -0.960  28.676   3.100  1.00  0.00    -0.550 OA
ENDBRANCH   5   6
ENDBRANCH   4   5
ENDBRANCH   3   4
ENDBRANCH   2   3
ENDBRANCH   1   2
BRANCH   1   9
ATOM      9  C   UNL     1      -6.093  24.997   1.806  1.00  0.00     0.000 C 
BRANCH   9  10
ATOM     10  C   UNL     1      -7.515  24.864   2.372  1.00  0.00    -0.000 C 
BRANCH  10  11
ATOM     11  C   UNL     1      -7.918  26.079   3.232  1.00  0.00    -0.000 C 
BRANCH  11  12
ATOM     12  C   UNL     1      -7.184  26.150   4.581  1.00  0.00    -0.000 C 
BRANCH  12  13
ATOM     13  C   UNL     1      -8.046  25.667   5.756  1.00  0.00    -0.003 C 
ATOM     14  C   UNL     1      -7.277  25.748   7.072  1.00  0.00     0.004 C 
ENDBRANCH  12  13
ENDBRANCH  11  12
ENDBRANCH  10  11
ENDBRANCH   9  10
ENDBRANCH   1   9
TORSDOF 10
ENDMDL
MODEL 5
REMARK VINA RESULT:    -3.373      2.664      5.449
REMARK INTER + INTRA:          -6.674
REMARK INTER:                  -5.514
REMARK INTRA:                  -1.161
REMARK UNBOUND:                -1.330
REMARK SMILES CCCCCCCCCCCC(=O)[O-]
REMARK SMILES IDX 7 1 8 2 9 3 10 4 11 5 12 6 13 7 14 8 6 9 5 10 4 11 3 12 2 13
REMARK SMILES IDX 1 14
REMARK H PARENT
REMARK Flexibility Score: inf
ROOT
ATOM      1  C   UNL     1      -3.571  25.428   1.363  1.00  0.00     0.000 C 
ENDROOT
BRANCH   1   2
ATOM      2  C   UNL     1      -4.242  24.097   1.006  1.00  0.00     0.000 C 
BRANCH   2   3
ATOM      3  C   UNL     1      -5.555  23.918   1.782  1.00  0.00     0.000 C 
BRANCH   3   4
ATOM      4  C   UNL     1      -6.756  24.563   1.073  1.00  0.00     0.006 C 
BRANCH   4   5
ATOM      5  C   UNL     1      -7.801  25.106   2.055  1.00  0.00     0.053 C 
BRANCH   5   6
ATOM      6  C   UNL     1      -7.283  26.330   2.744  1.00  0.00     0.041 C 
ATOM      7  O   UNL     1      -7.074  26.318   3.985  1.00  0.00    -0.550 OA
ATOM      8  O   UNL     1      -6.985  27.467   2.005  1.00  0.00    -0.550 OA
ENDBRANCH   5   6
ENDBRANCH   4   5
ENDBRANCH   3   4
ENDBRANCH   2   3
ENDBRANCH   1   2
BRANCH   1   9
ATOM      9  C   UNL     1      -3.405  25.574   2.880  1.00  0.00     0.000 C 
BRANCH   9  10
ATOM     10  C   UNL     1      -3.632  27.026   3.324  1.00  0.00    -0.000 C 
BRANCH  10  11
ATOM     11  C   UNL     1      -3.602  28.012   2.137  1.00  0.00    -0.000 C 
BRANCH  11  12
ATOM     12  C   UNL     1      -2.856  29.321   2.442  1.00  0.00    -0.000 C 
BRANCH  12  13
ATOM     13  C   UNL     1      -1.719  29.604   1.452  1.00  0.00    -0.003 C 
ATOM     14  C   UNL     1      -0.988  28.319   1.070  1.00  0.00     0.004 C 
ENDBRANCH  12  13
ENDBRANCH  11  12
ENDBRANCH  10  11
ENDBRANCH   9  10
ENDBRANCH   1   9
TORSDOF 10
ENDMDL
MODEL 6
REMARK VINA RESULT:    -3.363      4.372      6.556
REMARK INTER + INTRA:          -6.659
REMARK INTER:                  -5.583
REMARK INTRA:                  -1.076
REMARK UNBOUND:                -1.330
REMARK SMILES CCCCCCCCCCCC(=O)[O-]
REMARK SMILES IDX 7 1 8 2 9 3 10 4 11 5 12 6 13 7 14 8 6 9 5 10 4 11 3 12 2 13
REMARK SMILES IDX 1 14
REMARK H PARENT
REMARK Flexibility Score: inf
ROOT
ATOM      1  C   UNL     1      -4.125  22.842  -1.046  1.00  0.00     0.000 C 
ENDROOT
BRANCH   1   2
ATOM      2  C   UNL     1      -4.187  23.076   0.468  1.00  0.00     0.000 C 
BRANCH   2   3
ATOM      3  C   UNL     1      -4.160  24.577   0.794  1.00  0.00     0.000 C 
BRANCH   3   4
ATOM      4  C   UNL     1      -5.274  24.991   1.768  1.00  0.00     0.006 C 
BRANCH   4   5
ATOM      5  C   UNL     1      -6.454  25.671   1.061  1.00  0.00     0.053 C 
BRANCH   5   6
ATOM      6  C   UNL     1      -7.724  24.931   1.338  1.00  0.00     0.041 C 
ATOM      7  O   UNL     1      -7.944  23.822   0.785  1.00  0.00    -0.550 OA
ATOM      8  O   UNL     1      -8.643  25.444   2.244  1.00  0.00    -0.550 OA
ENDBRANCH   5   6
ENDBRANCH   4   5
ENDBRANCH   3   4
ENDBRANCH   2   3
ENDBRANCH   1   2
BRANCH   1   9
ATOM      9  C   UNL     1      -3.328  21.575  -1.377  1.00  0.00     0.000 C 
BRANCH   9  10
ATOM     10  C   UNL     1      -2.144  21.399  -0.414  1.00  0.00    -0.000 C 
BRANCH  10  11
ATOM     11  C   UNL     1      -0.785  21.465  -1.141  1.00  0.00    -0.000 C 
BRANCH  11  12
ATOM     12  C   UNL     1      -0.117  22.848  -1.074  1.00  0.00    -0.000 C 
BRANCH  12  13
ATOM     13  C   UNL     1      -0.538  23.656   0.161  1.00  0.00    -0.003 C 
ATOM     14  C   UNL     1      -0.729  25.130  -0.184  1.00  0.00     0.004 C 
ENDBRANCH  12  13
ENDBRANCH  11  12
ENDBRANCH  10  11
ENDBRANCH   9  10
ENDBRANCH   1   9
TORSDOF 10
ENDMDL
MODEL 7
REMARK VINA RESULT:    -3.311      3.526      5.522
REMARK INTER + INTRA:          -6.577
REMARK INTER:                  -5.161
REMARK INTRA:                  -1.416
REMARK UNBOUND:                -1.330
REMARK SMILES CCCCCCCCCCCC(=O)[O-]
REMARK SMILES IDX 7 1 8 2 9 3 10 4 11 5 12 6 13 7 14 8 6 9 5 10 4 11 3 12 2 13
REMARK SMILES IDX 1 14
REMARK H PARENT
REMARK Flexibility Score: inf
ROOT
ATOM      1  C   UNL     1      -2.414  25.834   1.372  1.00  0.00     0.000 C 
ENDROOT
BRANCH   1   2
ATOM      2  C   UNL     1      -2.788  26.520   2.691  1.00  0.00     0.000 C 
BRANCH   2   3
ATOM      3  C   UNL     1      -4.051  25.892   3.299  1.00  0.00     0.000 C 
BRANCH   3   4
ATOM      4  C   UNL     1      -5.018  25.356   2.233  1.00  0.00     0.006 C 
BRANCH   4   5
ATOM      5  C   UNL     1      -6.462  25.823   2.456  1.00  0.00     0.053 C 
BRANCH   5   6
ATOM      6  C   UNL     1      -7.422  24.883   1.798  1.00  0.00     0.041 C 
ATOM      7  O   UNL     1      -7.045  23.734   1.448  1.00  0.00    -0.550 OA
ATOM      8  O   UNL     1      -8.747  25.259   1.617  1.00  0.00    -0.550 OA
ENDBRANCH   5   6
ENDBRANCH   4   5
ENDBRANCH   3   4
ENDBRANCH   2   3
ENDBRANCH   1   2
BRANCH   1   9
ATOM      9  C   UNL     1      -1.377  26.655   0.597  1.00  0.00     0.000 C 
BRANCH   9  10
ATOM     10  C   UNL     1      -1.454  28.142   0.975  1.00  0.00    -0.000 C 
BRANCH  10  11
ATOM     11  C   UNL     1      -2.387  28.935   0.036  1.00  0.00    -0.000 C 
BRANCH  11  12
ATOM     12  C   UNL     1      -3.518  29.673   0.772  1.00  0.00    -0.000 C 
BRANCH  12  13
ATOM     13  C   UNL     1      -4.821  28.863   0.829  1.00  0.00    -0.003 C 
ATOM     14  C   UNL     1      -4.972  27.976  -0.404  1.00  0.00     0.004 C 
ENDBRANCH  12  13
ENDBRANCH  11  12
ENDBRANCH  10  11
ENDBRANCH   9  10
ENDBRANCH   1   9
TORSDOF 10
ENDMDL
MODEL 8
REMARK VINA RESULT:    -3.310      3.489      5.408
REMARK INTER + INTRA:          -6.575
REMARK INTER:                  -5.250
REMARK INTRA:                  -1.324
REMARK UNBOUND:                -1.330
REMARK SMILES CCCCCCCCCCCC(=O)[O-]
REMARK SMILES IDX 7 1 8 2 9 3 10 4 11 5 12 6 13 7 14 8 6 9 5 10 4 11 3 12 2 13
REMARK SMILES IDX 1 14
REMARK H PARENT
REMARK Flexibility Score: inf
ROOT
ATOM      1  C   UNL     1      -2.498  25.167   0.807  1.00  0.00     0.000 C 
ENDROOT
BRANCH   1   2
ATOM      2  C   UNL     1      -2.651  26.293   1.835  1.00  0.00     0.000 C 
BRANCH   2   3
ATOM      3  C   UNL     1      -3.517  25.842   3.021  1.00  0.00     0.000 C 
BRANCH   3   4
ATOM      4  C   UNL     1      -4.970  26.327   2.912  1.00  0.00     0.006 C 
BRANCH   4   5
ATOM      5  C   UNL     1      -5.948  25.194   2.574  1.00  0.00     0.053 C 
BRANCH   5   6
ATOM      6  C   UNL     1      -7.079  25.712   1.742  1.00  0.00     0.041 C 
ATOM      7  O   UNL     1      -8.259  25.661   2.175  1.00  0.00    -0.550 OA
ATOM      8  O   UNL     1      -6.822  26.295   0.508  1.00  0.00    -0.550 OA
ENDBRANCH   5   6
ENDBRANCH   4   5
ENDBRANCH   3   4
ENDBRANCH   2   3
ENDBRANCH   1   2
BRANCH   1   9
ATOM      9  C   UNL     1      -3.465  25.357  -0.368  1.00  0.00     0.000 C 
BRANCH   9  10
ATOM     10  C   UNL     1      -4.269  24.075  -0.635  1.00  0.00    -0.000 C 
BRANCH  10  11
ATOM     11  C   UNL     1      -3.959  22.967   0.392  1.00  0.00    -0.000 C 
BRANCH  11  12
ATOM     12  C   UNL     1      -3.431  21.669  -0.241  1.00  0.00    -0.000 C 
BRANCH  12  13
ATOM     13  C   UNL     1      -2.352  21.920  -1.304  1.00  0.00    -0.003 C 
ATOM     14  C   UNL     1      -0.985  22.137  -0.659  1.00  0.00     0.004 C 
ENDBRANCH  12  13
ENDBRANCH  11  12
ENDBRANCH  10  11
ENDBRANCH   9  10
ENDBRANCH   1   9
TORSDOF 10
ENDMDL
MODEL 9
REMARK VINA RESULT:    -3.275      3.084      5.172
REMARK INTER + INTRA:          -6.520
REMARK INTER:                  -5.182
REMARK INTRA:                  -1.337
REMARK UNBOUND:                -1.330
REMARK SMILES CCCCCCCCCCCC(=O)[O-]
REMARK SMILES IDX 7 1 8 2 9 3 10 4 11 5 12 6 13 7 14 8 6 9 5 10 4 11 3 12 2 13
REMARK SMILES IDX 1 14
REMARK H PARENT
REMARK Flexibility Score: inf
ROOT
ATOM      1  C   UNL     1      -3.869  22.408  -1.164  1.00  0.00     0.000 C 
ENDROOT
BRANCH   1   2
ATOM      2  C   UNL     1      -4.591  23.693  -0.742  1.00  0.00     0.000 C 
BRANCH   2   3
ATOM      3  C   UNL     1      -4.807  23.728   0.778  1.00  0.00     0.000 C 
BRANCH   3   4
ATOM      4  C   UNL     1      -4.632  25.135   1.370  1.00  0.00     0.006 C 
BRANCH   4   5
ATOM      5  C   UNL     1      -3.679  25.156   2.572  1.00  0.00     0.053 C 
BRANCH   5   6
ATOM      6  C   UNL     1      -3.868  26.411   3.365  1.00  0.00     0.041 C 
ATOM      7  O   UNL     1      -4.873  26.544   4.110  1.00  0.00    -0.550 OA
ATOM      8  O   UNL     1      -2.907  27.412   3.318  1.00  0.00    -0.550 OA
ENDBRANCH   5   6
ENDBRANCH   4   5
ENDBRANCH   3   4
ENDBRANCH   2   3
ENDBRANCH   1   2
BRANCH   1   9
ATOM      9  C   UNL     1      -3.178  21.744   0.032  1.00  0.00     0.000 C 
BRANCH   9  10
ATOM     10  C   UNL     1      -1.753  21.298  -0.329  1.00  0.00    -0.000 C 
BRANCH  10  11
ATOM     11  C   UNL     1      -0.871  22.478  -0.788  1.00  0.00    -0.000 C 
BRANCH  11  12
ATOM     12  C   UNL     1      -0.888  23.673   0.179  1.00  0.00    -0.000 C 
BRANCH  12  13
ATOM     13  C   UNL     1      -1.157  25.008  -0.528  1.00  0.00    -0.003 C 
ATOM     14  C   UNL     1      -1.081  26.175   0.454  1.00  0.00     0.004 C 
ENDBRANCH  12  13
ENDBRANCH  11  12
ENDBRANCH  10  11
ENDBRANCH   9  10
ENDBRANCH   1   9
TORSDOF 10
ENDMDL
