MODEL 1
REMARK VINA RESULT:    -6.416      0.000      0.000
REMARK INTER + INTRA:         -10.873
REMARK INTER:                  -9.416
REMARK INTRA:                  -1.457
REMARK UNBOUND:                -1.457
REMARK SMILES O=c1c(O[C@@H]2O[C@H](CO)[C@@H](O)[C@@H](O)[C@H]2O)c(-c2ccc(O)c(O)c2)oc2cc(O)cc(O)c12
REMARK SMILES IDX 4 1 3 2 16 3 25 4 2 5 26 6 1 7 33 8 27 9 31 10 28 11 30 12
REMARK SMILES IDX 17 13 20 14 19 15 22 16 18 17 24 18 21 19 23 21 32 23 29 25
REMARK SMILES IDX 5 27 14 28 6 29 12 30 7 31 10 32 15 33 13 35 8 37 9 38 11 40
REMARK H PARENT 21 20 23 22 32 24 29 26 15 34 13 36 9 39 11 41
REMARK Flexibility Score: inf
ROOT
ATOM      1  O   UNL     1      12.563   0.656   1.815  1.00  0.00    -0.454 OA
ENDROOT
BRANCH   1   2
ATOM      2  C   UNL     1      13.431   0.909   2.900  1.00  0.00     0.214 A 
ATOM      3  C   UNL     1      14.599   1.676   2.675  1.00  0.00     0.180 A 
ATOM      4  O   UNL     1      15.504   1.800   3.640  1.00  0.00    -0.452 OA
ATOM      5  C   UNL     1      13.218   0.397   4.199  1.00  0.00     0.239 A 
ATOM      6  C   UNL     1      15.411   1.189   4.815  1.00  0.00     0.146 A 
ATOM      7  O   UNL     1      12.103  -0.096   4.518  1.00  0.00    -0.285 OA
ATOM      8  C   UNL     1      14.267   0.426   5.138  1.00  0.00     0.111 A 
ATOM      9  C   UNL     1      16.490   1.259   5.701  1.00  0.00     0.094 A 
ATOM     10  C   UNL     1      14.262  -0.341   6.324  1.00  0.00     0.134 A 
ATOM     11  C   UNL     1      16.515   0.436   6.831  1.00  0.00     0.123 A 
ATOM     12  C   UNL     1      15.404  -0.355   7.147  1.00  0.00     0.093 A 
BRANCH   3  13
ATOM     13  C   UNL     1      14.891   2.325   1.375  1.00  0.00     0.025 A 
ATOM     14  C   UNL     1      15.213   3.544  -1.157  1.00  0.00     0.157 A 
ATOM     15  C   UNL     1      15.023   4.326  -0.008  1.00  0.00     0.051 A 
ATOM     16  C   UNL     1      15.246   2.130  -1.037  1.00  0.00     0.158 A 
ATOM     17  C   UNL     1      14.843   3.719   1.233  1.00  0.00     0.016 A 
ATOM     18  C   UNL     1      15.083   1.536   0.227  1.00  0.00     0.062 A 
BRANCH  14  19
ATOM     19  O   UNL     1      15.316   4.202  -2.390  1.00  0.00    -0.504 OA
ATOM     20  H   UNL     1      15.162   5.196  -2.519  1.00  0.00     0.293 HD
ENDBRANCH  14  19
BRANCH  16  21
ATOM     21  O   UNL     1      15.414   1.294  -2.144  1.00  0.00    -0.504 OA
ATOM     22  H   UNL     1      14.841   0.483  -2.325  1.00  0.00     0.293 HD
ENDBRANCH  16  21
ENDBRANCH   3  13
BRANCH  10  23
ATOM     23  O   UNL     1      13.159  -1.125   6.676  1.00  0.00    -0.507 OA
ATOM     24  H   UNL     1      13.197  -1.798   7.437  1.00  0.00     0.293 HD
ENDBRANCH  10  23
BRANCH  11  25
ATOM     25  O   UNL     1      17.643   0.395   7.642  1.00  0.00    -0.508 OA
ATOM     26  H   UNL     1      18.438   0.994   7.449  1.00  0.00     0.293 HD
ENDBRANCH  11  25
ENDBRANCH   1   2
BRANCH   1  27
ATOM     27  C   UNL     1      11.206   1.108   1.640  1.00  0.00     0.339 C 
ATOM     28  C   UNL     1      11.182   2.602   1.241  1.00  0.00     0.214 C 
ATOM     29  O   UNL     1      10.450   0.274   0.762  1.00  0.00    -0.332 OA
ATOM     30  C   UNL     1      11.600   2.755  -0.229  1.00  0.00     0.180 C 
ATOM     31  C   UNL     1      10.689   0.432  -0.636  1.00  0.00     0.179 C 
ATOM     32  C   UNL     1      10.681   1.910  -1.119  1.00  0.00     0.177 C 
BRANCH  28  33
ATOM     33  O   UNL     1       9.923   3.214   1.466  1.00  0.00    -0.384 OA
ATOM     34  H   UNL     1       9.181   2.598   1.207  1.00  0.00     0.211 HD
ENDBRANCH  28  33
BRANCH  30  35
ATOM     35  O   UNL     1      11.518   4.115  -0.596  1.00  0.00    -0.387 OA
ATOM     36  H   UNL     1      10.920   4.561   0.067  1.00  0.00     0.211 HD
ENDBRANCH  30  35
BRANCH  31  37
ATOM     37  C   UNL     1      11.911  -0.358  -1.129  1.00  0.00     0.191 C 
BRANCH  37  38
ATOM     38  O   UNL     1      12.569   0.355  -2.138  1.00  0.00    -0.394 OA
ATOM     39  H   UNL     1      13.442   0.642  -1.747  1.00  0.00     0.210 HD
ENDBRANCH  37  38
ENDBRANCH  31  37
BRANCH  32  40
ATOM     40  O   UNL     1       9.374   2.441  -1.101  1.00  0.00    -0.387 OA
ATOM     41  H   UNL     1       9.004   2.287  -0.193  1.00  0.00     0.211 HD
ENDBRANCH  32  40
ENDBRANCH   1  27
TORSDOF 12
ENDMDL
MODEL 2
REMARK VINA RESULT:    -6.254      1.762      4.449
REMARK INTER + INTRA:         -10.635
REMARK INTER:                  -9.385
REMARK INTRA:                  -1.250
REMARK UNBOUND:                -1.457
REMARK SMILES O=c1c(O[C@@H]2O[C@H](CO)[C@@H](O)[C@@H](O)[C@H]2O)c(-c2ccc(O)c(O)c2)oc2cc(O)cc(O)c12
REMARK SMILES IDX 4 1 3 2 16 3 25 4 2 5 26 6 1 7 33 8 27 9 31 10 28 11 30 12
REMARK SMILES IDX 17 13 20 14 19 15 22 16 18 17 24 18 21 19 23 21 32 23 29 25
REMARK SMILES IDX 5 27 14 28 6 29 12 30 7 31 10 32 15 33 13 35 8 37 9 38 11 40
REMARK H PARENT 21 20 23 22 32 24 29 26 15 34 13 36 9 39 11 41
REMARK Flexibility Score: inf
ROOT
ATOM      1  O   UNL     1      13.898   1.301   1.224  1.00  0.00    -0.454 OA
ENDROOT
BRANCH   1   2
ATOM      2  C   UNL     1      13.452   0.697   2.420  1.00  0.00     0.214 A 
ATOM      3  C   UNL     1      12.201   0.035   2.427  1.00  0.00     0.180 A 
ATOM      4  O   UNL     1      11.694  -0.408   3.573  1.00  0.00    -0.452 OA
ATOM      5  C   UNL     1      14.174   0.754   3.633  1.00  0.00     0.239 A 
ATOM      6  C   UNL     1      12.272  -0.217   4.752  1.00  0.00     0.146 A 
ATOM      7  O   UNL     1      15.379   1.125   3.644  1.00  0.00    -0.285 OA
ATOM      8  C   UNL     1      13.536   0.408   4.839  1.00  0.00     0.111 A 
ATOM      9  C   UNL     1      11.582  -0.585   5.911  1.00  0.00     0.094 A 
ATOM     10  C   UNL     1      14.054   0.741   6.110  1.00  0.00     0.134 A 
ATOM     11  C   UNL     1      12.058  -0.180   7.161  1.00  0.00     0.123 A 
ATOM     12  C   UNL     1      13.293   0.472   7.263  1.00  0.00     0.093 A 
BRANCH   3  13
ATOM     13  C   UNL     1      11.390  -0.151   1.201  1.00  0.00     0.025 A 
ATOM     14  C   UNL     1       9.959  -0.320  -1.234  1.00  0.00     0.157 A 
ATOM     15  C   UNL     1      11.112  -1.094  -1.029  1.00  0.00     0.051 A 
ATOM     16  C   UNL     1       9.514   0.549  -0.204  1.00  0.00     0.158 A 
ATOM     17  C   UNL     1      11.824  -0.989   0.165  1.00  0.00     0.016 A 
ATOM     18  C   UNL     1      10.235   0.626   1.001  1.00  0.00     0.062 A 
BRANCH  14  19
ATOM     19  O   UNL     1       9.322  -0.408  -2.479  1.00  0.00    -0.504 OA
ATOM     20  H   UNL     1       8.340  -0.630  -2.600  1.00  0.00     0.293 HD
ENDBRANCH  14  19
BRANCH  16  21
ATOM     21  O   UNL     1       8.385   1.358  -0.352  1.00  0.00    -0.504 OA
ATOM     22  H   UNL     1       8.066   2.009   0.352  1.00  0.00     0.293 HD
ENDBRANCH  16  21
ENDBRANCH   3  13
BRANCH  10  23
ATOM     23  O   UNL     1      15.294   1.375   6.244  1.00  0.00    -0.507 OA
ATOM     24  H   UNL     1      15.871   1.259   7.072  1.00  0.00     0.293 HD
ENDBRANCH  10  23
BRANCH  11  25
ATOM     25  O   UNL     1      11.308  -0.419   8.307  1.00  0.00    -0.508 OA
ATOM     26  H   UNL     1      10.296  -0.381   8.276  1.00  0.00     0.293 HD
ENDBRANCH  11  25
ENDBRANCH   1   2
BRANCH   1  27
ATOM     27  C   UNL     1      13.407   2.503   0.599  1.00  0.00     0.339 C 
ATOM     28  C   UNL     1      14.463   3.630   0.696  1.00  0.00     0.214 C 
ATOM     29  O   UNL     1      12.929   2.287  -0.728  1.00  0.00    -0.332 OA
ATOM     30  C   UNL     1      15.595   3.370  -0.308  1.00  0.00     0.180 C 
ATOM     31  C   UNL     1      13.914   2.150  -1.751  1.00  0.00     0.179 C 
ATOM     32  C   UNL     1      15.015   3.248  -1.722  1.00  0.00     0.177 C 
BRANCH  28  33
ATOM     33  O   UNL     1      13.912   4.921   0.500  1.00  0.00    -0.384 OA
ATOM     34  H   UNL     1      12.971   4.857   0.171  1.00  0.00     0.211 HD
ENDBRANCH  28  33
BRANCH  30  35
ATOM     35  O   UNL     1      16.520   4.434  -0.251  1.00  0.00    -0.387 OA
ATOM     36  H   UNL     1      16.240   5.102  -0.936  1.00  0.00     0.211 HD
ENDBRANCH  30  35
BRANCH  31  37
ATOM     37  C   UNL     1      14.484   0.726  -1.850  1.00  0.00     0.191 C 
BRANCH  37  38
ATOM     38  O   UNL     1      15.726   0.750  -2.495  1.00  0.00    -0.394 OA
ATOM     39  H   UNL     1      15.682   0.043  -3.198  1.00  0.00     0.210 HD
ENDBRANCH  37  38
ENDBRANCH  31  37
BRANCH  32  40
ATOM     40  O   UNL     1      14.498   4.493  -2.138  1.00  0.00    -0.387 OA
ATOM     41  H   UNL     1      14.623   5.131  -1.388  1.00  0.00     0.211 HD
ENDBRANCH  32  40
ENDBRANCH   1  27
TORSDOF 12
ENDMDL
MODEL 3
REMARK VINA RESULT:    -5.865      1.894      4.881
REMARK INTER + INTRA:         -10.065
REMARK INTER:                  -8.261
REMARK INTRA:                  -1.804
REMARK UNBOUND:                -1.457
REMARK SMILES O=c1c(O[C@@H]2O[C@H](CO)[C@@H](O)[C@@H](O)[C@H]2O)c(-c2ccc(O)c(O)c2)oc2cc(O)cc(O)c12
REMARK SMILES IDX 4 1 3 2 16 3 25 4 2 5 26 6 1 7 33 8 27 9 31 10 28 11 30 12
REMARK SMILES IDX 17 13 20 14 19 15 22 16 18 17 24 18 21 19 23 21 32 23 29 25
REMARK SMILES IDX 5 27 14 28 6 29 12 30 7 31 10 32 15 33 13 35 8 37 9 38 11 40
REMARK H PARENT 21 20 23 22 32 24 29 26 15 34 13 36 9 39 11 41
REMARK Flexibility Score: inf
ROOT
ATOM      1  O   UNL     1      13.213   1.720   1.311  1.00  0.00    -0.454 OA
ENDROOT
BRANCH   1   2
ATOM      2  C   UNL     1      12.916   0.941   2.450  1.00  0.00     0.214 A 
ATOM      3  C   UNL     1      11.784   0.092   2.422  1.00  0.00     0.180 A 
ATOM      4  O   UNL     1      11.399  -0.534   3.529  1.00  0.00    -0.452 OA
ATOM      5  C   UNL     1      13.671   0.994   3.643  1.00  0.00     0.239 A 
ATOM      6  C   UNL     1      11.990  -0.369   4.706  1.00  0.00     0.146 A 
ATOM      7  O   UNL     1      14.803   1.547   3.661  1.00  0.00    -0.285 OA
ATOM      8  C   UNL     1      13.144   0.435   4.823  1.00  0.00     0.111 A 
ATOM      9  C   UNL     1      11.413  -0.952   5.839  1.00  0.00     0.094 A 
ATOM     10  C   UNL     1      13.657   0.721   6.108  1.00  0.00     0.134 A 
ATOM     11  C   UNL     1      11.873  -0.600   7.111  1.00  0.00     0.123 A 
ATOM     12  C   UNL     1      12.995   0.226   7.247  1.00  0.00     0.093 A 
BRANCH   3  13
ATOM     13  C   UNL     1      10.961  -0.101   1.205  1.00  0.00     0.025 A 
ATOM     14  C   UNL     1       9.519  -0.294  -1.222  1.00  0.00     0.157 A 
ATOM     15  C   UNL     1      10.624  -1.124  -0.981  1.00  0.00     0.051 A 
ATOM     16  C   UNL     1       9.128   0.645  -0.232  1.00  0.00     0.158 A 
ATOM     17  C   UNL     1      11.343  -1.009   0.207  1.00  0.00     0.016 A 
ATOM     18  C   UNL     1       9.854   0.733   0.969  1.00  0.00     0.062 A 
BRANCH  14  19
ATOM     19  O   UNL     1       8.876  -0.399  -2.462  1.00  0.00    -0.504 OA
ATOM     20  H   UNL     1       9.198   0.055  -3.310  1.00  0.00     0.293 HD
ENDBRANCH  14  19
BRANCH  16  21
ATOM     21  O   UNL     1       8.048   1.513  -0.417  1.00  0.00    -0.504 OA
ATOM     22  H   UNL     1       7.679   1.762  -1.324  1.00  0.00     0.293 HD
ENDBRANCH  16  21
ENDBRANCH   3  13
BRANCH  10  23
ATOM     23  O   UNL     1      14.788   1.528   6.274  1.00  0.00    -0.507 OA
ATOM     24  H   UNL     1      15.715   1.221   5.992  1.00  0.00     0.293 HD
ENDBRANCH  10  23
BRANCH  11  25
ATOM     25  O   UNL     1      11.217  -1.064   8.246  1.00  0.00    -0.508 OA
ATOM     26  H   UNL     1      11.428  -1.982   8.622  1.00  0.00     0.293 HD
ENDBRANCH  11  25
ENDBRANCH   1   2
BRANCH   1  27
ATOM     27  C   UNL     1      14.192   1.458   0.286  1.00  0.00     0.339 C 
ATOM     28  C   UNL     1      13.539   1.530  -1.114  1.00  0.00     0.214 C 
ATOM     29  O   UNL     1      15.359   2.271   0.409  1.00  0.00    -0.332 OA
ATOM     30  C   UNL     1      13.285   2.995  -1.497  1.00  0.00     0.180 C 
ATOM     31  C   UNL     1      15.248   3.623  -0.033  1.00  0.00     0.179 C 
ATOM     32  C   UNL     1      14.600   3.781  -1.437  1.00  0.00     0.177 C 
BRANCH  28  33
ATOM     33  O   UNL     1      14.306   0.881  -2.115  1.00  0.00    -0.384 OA
ATOM     34  H   UNL     1      14.024  -0.072  -2.213  1.00  0.00     0.211 HD
ENDBRANCH  28  33
BRANCH  30  35
ATOM     35  O   UNL     1      12.744   3.048  -2.798  1.00  0.00    -0.387 OA
ATOM     36  H   UNL     1      13.372   3.586  -3.355  1.00  0.00     0.211 HD
ENDBRANCH  30  35
BRANCH  31  37
ATOM     37  C   UNL     1      14.632   4.553   1.025  1.00  0.00     0.191 C 
BRANCH  37  38
ATOM     38  O   UNL     1      14.935   4.086   2.309  1.00  0.00    -0.394 OA
ATOM     39  H   UNL     1      14.264   3.373   2.506  1.00  0.00     0.210 HD
ENDBRANCH  37  38
ENDBRANCH  31  37
BRANCH  32  40
ATOM     40  O   UNL     1      15.473   3.333  -2.451  1.00  0.00    -0.387 OA
ATOM     41  H   UNL     1      15.905   2.501  -2.123  1.00  0.00     0.211 HD
ENDBRANCH  32  40
ENDBRANCH   1  27
TORSDOF 12
ENDMDL
MODEL 4
REMARK VINA RESULT:    -4.776      2.229      6.021
REMARK INTER + INTRA:          -8.467
REMARK INTER:                  -7.821
REMARK INTRA:                  -0.646
REMARK UNBOUND:                -1.457
REMARK SMILES O=c1c(O[C@@H]2O[C@H](CO)[C@@H](O)[C@@H](O)[C@H]2O)c(-c2ccc(O)c(O)c2)oc2cc(O)cc(O)c12
REMARK SMILES IDX 4 1 3 2 16 3 25 4 2 5 26 6 1 7 33 8 27 9 31 10 28 11 30 12
REMARK SMILES IDX 17 13 20 14 19 15 22 16 18 17 24 18 21 19 23 21 32 23 29 25
REMARK SMILES IDX 5 27 14 28 6 29 12 30 7 31 10 32 15 33 13 35 8 37 9 38 11 40
REMARK H PARENT 21 20 23 22 32 24 29 26 15 34 13 36 9 39 11 41
REMARK Flexibility Score: inf
ROOT
ATOM      1  O   UNL     1      10.764   1.635   1.515  1.00  0.00    -0.454 OA
ENDROOT
BRANCH   1   2
ATOM      2  C   UNL     1      11.882   1.117   0.825  1.00  0.00     0.214 A 
ATOM      3  C   UNL     1      13.046   0.787   1.560  1.00  0.00     0.180 A 
ATOM      4  O   UNL     1      14.157   0.441   0.918  1.00  0.00    -0.452 OA
ATOM      5  C   UNL     1      11.918   0.949  -0.577  1.00  0.00     0.239 A 
ATOM      6  C   UNL     1      14.268   0.440  -0.405  1.00  0.00     0.146 A 
ATOM      7  O   UNL     1      10.858   1.009  -1.256  1.00  0.00    -0.285 OA
ATOM      8  C   UNL     1      13.150   0.727  -1.219  1.00  0.00     0.111 A 
ATOM      9  C   UNL     1      15.523   0.212  -0.978  1.00  0.00     0.094 A 
ATOM     10  C   UNL     1      13.333   0.875  -2.612  1.00  0.00     0.134 A 
ATOM     11  C   UNL     1      15.715   0.440  -2.343  1.00  0.00     0.123 A 
ATOM     12  C   UNL     1      14.625   0.761  -3.160  1.00  0.00     0.093 A 
BRANCH   3  13
ATOM     13  C   UNL     1      13.101   0.852   3.039  1.00  0.00     0.025 A 
ATOM     14  C   UNL     1      13.384   0.814   5.853  1.00  0.00     0.157 A 
ATOM     15  C   UNL     1      14.064   1.768   5.081  1.00  0.00     0.051 A 
ATOM     16  C   UNL     1      12.548  -0.134   5.207  1.00  0.00     0.158 A 
ATOM     17  C   UNL     1      13.937   1.767   3.693  1.00  0.00     0.016 A 
ATOM     18  C   UNL     1      12.417  -0.106   3.808  1.00  0.00     0.062 A 
BRANCH  14  19
ATOM     19  O   UNL     1      13.603   0.811   7.238  1.00  0.00    -0.504 OA
ATOM     20  H   UNL     1      14.499   0.613   7.671  1.00  0.00     0.293 HD
ENDBRANCH  14  19
BRANCH  16  21
ATOM     21  O   UNL     1      11.858  -1.121   5.917  1.00  0.00    -0.504 OA
ATOM     22  H   UNL     1      10.869  -1.079   6.116  1.00  0.00     0.293 HD
ENDBRANCH  16  21
ENDBRANCH   3  13
BRANCH  10  23
ATOM     23  O   UNL     1      12.259   1.177  -3.456  1.00  0.00    -0.507 OA
ATOM     24  H   UNL     1      11.358   1.477  -3.095  1.00  0.00     0.293 HD
ENDBRANCH  10  23
BRANCH  11  25
ATOM     25  O   UNL     1      16.988   0.352  -2.896  1.00  0.00    -0.508 OA
ATOM     26  H   UNL     1      17.109   0.104  -3.872  1.00  0.00     0.293 HD
ENDBRANCH  11  25
ENDBRANCH   1   2
BRANCH   1  27
ATOM     27  C   UNL     1      10.425   3.017   1.747  1.00  0.00     0.339 C 
ATOM     28  C   UNL     1      11.085   3.920   0.680  1.00  0.00     0.214 C 
ATOM     29  O   UNL     1       9.020   3.230   1.881  1.00  0.00    -0.332 OA
ATOM     30  C   UNL     1      10.334   3.786  -0.653  1.00  0.00     0.180 C 
ATOM     31  C   UNL     1       8.254   3.238   0.677  1.00  0.00     0.179 C 
ATOM     32  C   UNL     1       8.853   4.127  -0.450  1.00  0.00     0.177 C 
BRANCH  28  33
ATOM     33  O   UNL     1      11.155   5.280   1.075  1.00  0.00    -0.384 OA
ATOM     34  H   UNL     1      10.877   5.880   0.326  1.00  0.00     0.211 HD
ENDBRANCH  28  33
BRANCH  30  35
ATOM     35  O   UNL     1      10.910   4.659  -1.600  1.00  0.00    -0.387 OA
ATOM     36  H   UNL     1      11.848   4.354  -1.746  1.00  0.00     0.211 HD
ENDBRANCH  30  35
BRANCH  31  37
ATOM     37  C   UNL     1       7.875   1.829   0.197  1.00  0.00     0.191 C 
BRANCH  37  38
ATOM     38  O   UNL     1       7.981   0.916   1.253  1.00  0.00    -0.394 OA
ATOM     39  H   UNL     1       8.910   1.012   1.606  1.00  0.00     0.210 HD
ENDBRANCH  37  38
ENDBRANCH  31  37
BRANCH  32  40
ATOM     40  O   UNL     1       8.714   5.497  -0.141  1.00  0.00    -0.387 OA
ATOM     41  H   UNL     1       8.454   5.560   0.815  1.00  0.00     0.211 HD
ENDBRANCH  32  40
ENDBRANCH   1  27
TORSDOF 12
ENDMDL
MODEL 5
REMARK VINA RESULT:    -4.760      1.395      2.418
REMARK INTER + INTRA:          -8.443
REMARK INTER:                  -7.545
REMARK INTRA:                  -0.898
REMARK UNBOUND:                -1.457
REMARK SMILES O=c1c(O[C@@H]2O[C@H](CO)[C@@H](O)[C@@H](O)[C@H]2O)c(-c2ccc(O)c(O)c2)oc2cc(O)cc(O)c12
REMARK SMILES IDX 4 1 3 2 16 3 25 4 2 5 26 6 1 7 33 8 27 9 31 10 28 11 30 12
REMARK SMILES IDX 17 13 20 14 19 15 22 16 18 17 24 18 21 19 23 21 32 23 29 25
REMARK SMILES IDX 5 27 14 28 6 29 12 30 7 31 10 32 15 33 13 35 8 37 9 38 11 40
REMARK H PARENT 21 20 23 22 32 24 29 26 15 34 13 36 9 39 11 41
REMARK Flexibility Score: inf
ROOT
ATOM      1  O   UNL     1      11.917   0.557   1.872  1.00  0.00    -0.454 OA
ENDROOT
BRANCH   1   2
ATOM      2  C   UNL     1      12.847   0.667   2.930  1.00  0.00     0.214 A 
ATOM      3  C   UNL     1      14.140   1.171   2.652  1.00  0.00     0.180 A 
ATOM      4  O   UNL     1      15.076   1.143   3.595  1.00  0.00    -0.452 OA
ATOM      5  C   UNL     1      12.567   0.259   4.253  1.00  0.00     0.239 A 
ATOM      6  C   UNL     1      14.890   0.609   4.796  1.00  0.00     0.146 A 
ATOM      7  O   UNL     1      11.384   0.017   4.612  1.00  0.00    -0.285 OA
ATOM      8  C   UNL     1      13.624   0.109   5.171  1.00  0.00     0.111 A 
ATOM      9  C   UNL     1      15.983   0.490   5.660  1.00  0.00     0.094 A 
ATOM     10  C   UNL     1      13.494  -0.594   6.389  1.00  0.00     0.134 A 
ATOM     11  C   UNL     1      15.870  -0.277   6.822  1.00  0.00     0.123 A 
ATOM     12  C   UNL     1      14.630  -0.811   7.192  1.00  0.00     0.093 A 
BRANCH   3  13
ATOM     13  C   UNL     1      14.524   1.696   1.321  1.00  0.00     0.025 A 
ATOM     14  C   UNL     1      15.485   2.643  -1.166  1.00  0.00     0.157 A 
ATOM     15  C   UNL     1      15.007   1.330  -1.039  1.00  0.00     0.051 A 
ATOM     16  C   UNL     1      15.479   3.496  -0.032  1.00  0.00     0.158 A 
ATOM     17  C   UNL     1      14.556   0.863   0.194  1.00  0.00     0.016 A 
ATOM     18  C   UNL     1      15.001   3.014   1.199  1.00  0.00     0.062 A 
BRANCH  14  19
ATOM     19  O   UNL     1      15.995   3.039  -2.409  1.00  0.00    -0.504 OA
ATOM     20  H   UNL     1      16.713   2.532  -2.917  1.00  0.00     0.293 HD
ENDBRANCH  14  19
BRANCH  16  21
ATOM     21  O   UNL     1      15.957   4.808  -0.087  1.00  0.00    -0.504 OA
ATOM     22  H   UNL     1      16.044   5.337  -0.943  1.00  0.00     0.293 HD
ENDBRANCH  16  21
ENDBRANCH   3  13
BRANCH  10  23
ATOM     23  O   UNL     1      12.263  -1.122   6.793  1.00  0.00    -0.507 OA
ATOM     24  H   UNL     1      12.154  -2.100   7.049  1.00  0.00     0.293 HD
ENDBRANCH  10  23
BRANCH  11  25
ATOM     25  O   UNL     1      16.987  -0.517   7.615  1.00  0.00    -0.508 OA
ATOM     26  H   UNL     1      17.174   0.059   8.428  1.00  0.00     0.293 HD
ENDBRANCH  11  25
ENDBRANCH   1   2
BRANCH   1  27
ATOM     27  C   UNL     1      11.303   1.618   1.114  1.00  0.00     0.339 C 
ATOM     28  C   UNL     1      11.202   1.225  -0.378  1.00  0.00     0.214 C 
ATOM     29  O   UNL     1      10.064   2.055   1.672  1.00  0.00    -0.332 OA
ATOM     30  C   UNL     1      10.070   0.205  -0.573  1.00  0.00     0.180 C 
ATOM     31  C   UNL     1       8.928   1.224   1.440  1.00  0.00     0.179 C 
ATOM     32  C   UNL     1       8.754   0.785  -0.042  1.00  0.00     0.177 C 
BRANCH  28  33
ATOM     33  O   UNL     1      11.015   2.343  -1.231  1.00  0.00    -0.384 OA
ATOM     34  H   UNL     1      11.647   2.305  -2.004  1.00  0.00     0.211 HD
ENDBRANCH  28  33
BRANCH  30  35
ATOM     35  O   UNL     1       9.951  -0.099  -1.945  1.00  0.00    -0.387 OA
ATOM     36  H   UNL     1      10.809  -0.522  -2.227  1.00  0.00     0.211 HD
ENDBRANCH  30  35
BRANCH  31  37
ATOM     37  C   UNL     1       8.826   0.055   2.432  1.00  0.00     0.191 C 
BRANCH  37  38
ATOM     38  O   UNL     1       8.515   0.535   3.709  1.00  0.00    -0.394 OA
ATOM     39  H   UNL     1       8.421  -0.272   4.290  1.00  0.00     0.210 HD
ENDBRANCH  37  38
ENDBRANCH  31  37
BRANCH  32  40
ATOM     40  O   UNL     1       8.348   1.870  -0.847  1.00  0.00    -0.387 OA
ATOM     41  H   UNL     1       7.406   1.703  -1.115  1.00  0.00     0.211 HD
ENDBRANCH  32  40
ENDBRANCH   1  27
TORSDOF 12
ENDMDL
MODEL 6
REMARK VINA RESULT:    -4.421     17.290     20.283
REMARK INTER + INTRA:          -7.946
REMARK INTER:                  -7.506
REMARK INTRA:                  -0.440
REMARK UNBOUND:                -1.457
REMARK SMILES O=c1c(O[C@@H]2O[C@H](CO)[C@@H](O)[C@@H](O)[C@H]2O)c(-c2ccc(O)c(O)c2)oc2cc(O)cc(O)c12
REMARK SMILES IDX 4 1 3 2 16 3 25 4 2 5 26 6 1 7 33 8 27 9 31 10 28 11 30 12
REMARK SMILES IDX 17 13 20 14 19 15 22 16 18 17 24 18 21 19 23 21 32 23 29 25
REMARK SMILES IDX 5 27 14 28 6 29 12 30 7 31 10 32 15 33 13 35 8 37 9 38 11 40
REMARK H PARENT 21 20 23 22 32 24 29 26 15 34 13 36 9 39 11 41
REMARK Flexibility Score: inf
ROOT
ATOM      1  O   UNL     1      27.371  14.921   8.262  1.00  0.00    -0.454 OA
ENDROOT
BRANCH   1   2
ATOM      2  C   UNL     1      27.013  15.078   9.619  1.00  0.00     0.214 A 
ATOM      3  C   UNL     1      26.751  13.923  10.395  1.00  0.00     0.180 A 
ATOM      4  O   UNL     1      26.268  14.050  11.627  1.00  0.00    -0.452 OA
ATOM      5  C   UNL     1      26.858  16.338  10.239  1.00  0.00     0.239 A 
ATOM      6  C   UNL     1      25.954  15.218  12.173  1.00  0.00     0.146 A 
ATOM      7  O   UNL     1      27.287  17.383   9.680  1.00  0.00    -0.285 OA
ATOM      8  C   UNL     1      26.207  16.425  11.484  1.00  0.00     0.111 A 
ATOM      9  C   UNL     1      25.308  15.232  13.413  1.00  0.00     0.094 A 
ATOM     10  C   UNL     1      25.719  17.638  12.017  1.00  0.00     0.134 A 
ATOM     11  C   UNL     1      24.755  16.422  13.895  1.00  0.00     0.123 A 
ATOM     12  C   UNL     1      24.966  17.623  13.206  1.00  0.00     0.093 A 
BRANCH   3  13
ATOM     13  C   UNL     1      26.950  12.550   9.875  1.00  0.00     0.025 A 
ATOM     14  C   UNL     1      27.183   9.987   8.701  1.00  0.00     0.157 A 
ATOM     15  C   UNL     1      28.125  10.988   8.421  1.00  0.00     0.051 A 
ATOM     16  C   UNL     1      26.110  10.272   9.585  1.00  0.00     0.158 A 
ATOM     17  C   UNL     1      27.992  12.256   8.985  1.00  0.00     0.016 A 
ATOM     18  C   UNL     1      26.003  11.550  10.161  1.00  0.00     0.062 A 
BRANCH  14  19
ATOM     19  O   UNL     1      27.321   8.754   8.050  1.00  0.00    -0.504 OA
ATOM     20  H   UNL     1      28.213   8.340   7.799  1.00  0.00     0.293 HD
ENDBRANCH  14  19
BRANCH  16  21
ATOM     21  O   UNL     1      25.128   9.325   9.891  1.00  0.00    -0.504 OA
ATOM     22  H   UNL     1      25.105   8.396   9.496  1.00  0.00     0.293 HD
ENDBRANCH  16  21
ENDBRANCH   3  13
BRANCH  10  23
ATOM     23  O   UNL     1      25.931  18.856  11.361  1.00  0.00    -0.507 OA
ATOM     24  H   UNL     1      26.750  19.430  11.544  1.00  0.00     0.293 HD
ENDBRANCH  10  23
BRANCH  11  25
ATOM     25  O   UNL     1      23.991  16.420  15.057  1.00  0.00    -0.508 OA
ATOM     26  H   UNL     1      24.309  15.921  15.880  1.00  0.00     0.293 HD
ENDBRANCH  11  25
ENDBRANCH   1   2
BRANCH   1  27
ATOM     27  C   UNL     1      26.554  14.437   7.178  1.00  0.00     0.339 C 
ATOM     28  C   UNL     1      25.109  14.971   7.312  1.00  0.00     0.214 C 
ATOM     29  O   UNL     1      27.131  14.679   5.895  1.00  0.00    -0.332 OA
ATOM     30  C   UNL     1      25.061  16.452   6.910  1.00  0.00     0.180 C 
ATOM     31  C   UNL     1      27.030  16.009   5.387  1.00  0.00     0.179 C 
ATOM     32  C   UNL     1      25.603  16.619   5.486  1.00  0.00     0.177 C 
BRANCH  28  33
ATOM     33  O   UNL     1      24.171  14.221   6.559  1.00  0.00    -0.384 OA
ATOM     34  H   UNL     1      24.210  13.254   6.808  1.00  0.00     0.211 HD
ENDBRANCH  28  33
BRANCH  30  35
ATOM     35  O   UNL     1      23.728  16.909   6.981  1.00  0.00    -0.387 OA
ATOM     36  H   UNL     1      23.526  17.358   6.113  1.00  0.00     0.211 HD
ENDBRANCH  30  35
BRANCH  31  37
ATOM     37  C   UNL     1      28.125  16.943   5.925  1.00  0.00     0.191 C 
BRANCH  37  38
ATOM     38  O   UNL     1      27.589  17.808   6.886  1.00  0.00    -0.394 OA
ATOM     39  H   UNL     1      27.579  18.713   6.465  1.00  0.00     0.210 HD
ENDBRANCH  37  38
ENDBRANCH  31  37
BRANCH  32  40
ATOM     40  O   UNL     1      24.727  16.009   4.563  1.00  0.00    -0.387 OA
ATOM     41  H   UNL     1      23.834  15.955   4.994  1.00  0.00     0.211 HD
ENDBRANCH  32  40
ENDBRANCH   1  27
TORSDOF 12
ENDMDL
MODEL 7
REMARK VINA RESULT:    -4.328      2.301      6.872
REMARK INTER + INTRA:          -7.809
REMARK INTER:                  -6.431
REMARK INTRA:                  -1.378
REMARK UNBOUND:                -1.457
REMARK SMILES O=c1c(O[C@@H]2O[C@H](CO)[C@@H](O)[C@@H](O)[C@H]2O)c(-c2ccc(O)c(O)c2)oc2cc(O)cc(O)c12
REMARK SMILES IDX 4 1 3 2 16 3 25 4 2 5 26 6 1 7 33 8 27 9 31 10 28 11 30 12
REMARK SMILES IDX 17 13 20 14 19 15 22 16 18 17 24 18 21 19 23 21 32 23 29 25
REMARK SMILES IDX 5 27 14 28 6 29 12 30 7 31 10 32 15 33 13 35 8 37 9 38 11 40
REMARK H PARENT 21 20 23 22 32 24 29 26 15 34 13 36 9 39 11 41
REMARK Flexibility Score: inf
ROOT
ATOM      1  O   UNL     1      12.853   1.781  -0.763  1.00  0.00    -0.454 OA
ENDROOT
BRANCH   1   2
ATOM      2  C   UNL     1      12.199   2.917  -0.238  1.00  0.00     0.214 A 
ATOM      3  C   UNL     1      12.262   3.159   1.155  1.00  0.00     0.180 A 
ATOM      4  O   UNL     1      11.533   4.133   1.691  1.00  0.00    -0.452 OA
ATOM      5  C   UNL     1      11.443   3.810  -1.029  1.00  0.00     0.239 A 
ATOM      6  C   UNL     1      10.684   4.878   0.995  1.00  0.00     0.146 A 
ATOM      7  O   UNL     1      11.530   3.783  -2.286  1.00  0.00    -0.285 OA
ATOM      8  C   UNL     1      10.576   4.727  -0.405  1.00  0.00     0.111 A 
ATOM      9  C   UNL     1       9.851   5.770   1.678  1.00  0.00     0.094 A 
ATOM     10  C   UNL     1       9.555   5.417  -1.096  1.00  0.00     0.134 A 
ATOM     11  C   UNL     1       8.792   6.386   1.005  1.00  0.00     0.123 A 
ATOM     12  C   UNL     1       8.648   6.218  -0.377  1.00  0.00     0.093 A 
BRANCH   3  13
ATOM     13  C   UNL     1      13.083   2.334   2.072  1.00  0.00     0.025 A 
ATOM     14  C   UNL     1      14.727   0.638   3.630  1.00  0.00     0.157 A 
ATOM     15  C   UNL     1      15.201   1.883   3.189  1.00  0.00     0.051 A 
ATOM     16  C   UNL     1      13.409   0.237   3.288  1.00  0.00     0.158 A 
ATOM     17  C   UNL     1      14.394   2.704   2.404  1.00  0.00     0.016 A 
ATOM     18  C   UNL     1      12.602   1.087   2.512  1.00  0.00     0.062 A 
BRANCH  14  19
ATOM     19  O   UNL     1      15.604  -0.180   4.355  1.00  0.00    -0.504 OA
ATOM     20  H   UNL     1      15.581  -0.285   5.363  1.00  0.00     0.293 HD
ENDBRANCH  14  19
BRANCH  16  21
ATOM     21  O   UNL     1      12.883  -0.997   3.681  1.00  0.00    -0.504 OA
ATOM     22  H   UNL     1      12.808  -1.794   3.065  1.00  0.00     0.293 HD
ENDBRANCH  16  21
ENDBRANCH   3  13
BRANCH  10  23
ATOM     23  O   UNL     1       9.399   5.285  -2.480  1.00  0.00    -0.507 OA
ATOM     24  H   UNL     1       9.694   4.449  -2.978  1.00  0.00     0.293 HD
ENDBRANCH  10  23
BRANCH  11  25
ATOM     25  O   UNL     1       7.875   7.163   1.704  1.00  0.00    -0.508 OA
ATOM     26  H   UNL     1       7.522   6.857   2.604  1.00  0.00     0.293 HD
ENDBRANCH  11  25
ENDBRANCH   1   2
BRANCH   1  27
ATOM     27  C   UNL     1      13.731   1.708  -1.904  1.00  0.00     0.339 C 
ATOM     28  C   UNL     1      14.967   2.614  -1.690  1.00  0.00     0.214 C 
ATOM     29  O   UNL     1      14.065   0.369  -2.266  1.00  0.00    -0.332 OA
ATOM     30  C   UNL     1      15.932   1.953  -0.696  1.00  0.00     0.180 C 
ATOM     31  C   UNL     1      15.045  -0.288  -1.463  1.00  0.00     0.179 C 
ATOM     32  C   UNL     1      16.323   0.559  -1.202  1.00  0.00     0.177 C 
BRANCH  28  33
ATOM     33  O   UNL     1      15.638   2.926  -2.900  1.00  0.00    -0.384 OA
ATOM     34  H   UNL     1      16.623   2.988  -2.751  1.00  0.00     0.211 HD
ENDBRANCH  28  33
BRANCH  30  35
ATOM     35  O   UNL     1      17.080   2.760  -0.556  1.00  0.00    -0.387 OA
ATOM     36  H   UNL     1      17.851   2.236  -0.910  1.00  0.00     0.211 HD
ENDBRANCH  30  35
BRANCH  31  37
ATOM     37  C   UNL     1      14.458  -0.905  -0.184  1.00  0.00     0.191 C 
BRANCH  37  38
ATOM     38  O   UNL     1      13.078  -1.093  -0.330  1.00  0.00    -0.394 OA
ATOM     39  H   UNL     1      12.833  -0.660  -1.196  1.00  0.00     0.210 HD
ENDBRANCH  37  38
ENDBRANCH  31  37
BRANCH  32  40
ATOM     40  O   UNL     1      17.101   0.674  -2.373  1.00  0.00    -0.387 OA
ATOM     41  H   UNL     1      16.649   1.331  -2.966  1.00  0.00     0.211 HD
ENDBRANCH  32  40
ENDBRANCH   1  27
TORSDOF 12
ENDMDL
MODEL 8
REMARK VINA RESULT:    -3.547      2.308      6.787
REMARK INTER + INTRA:          -6.662
REMARK INTER:                  -6.461
REMARK INTRA:                  -0.201
REMARK UNBOUND:                -1.457
REMARK SMILES O=c1c(O[C@@H]2O[C@H](CO)[C@@H](O)[C@@H](O)[C@H]2O)c(-c2ccc(O)c(O)c2)oc2cc(O)cc(O)c12
REMARK SMILES IDX 4 1 3 2 16 3 25 4 2 5 26 6 1 7 33 8 27 9 31 10 28 11 30 12
REMARK SMILES IDX 17 13 20 14 19 15 22 16 18 17 24 18 21 19 23 21 32 23 29 25
REMARK SMILES IDX 5 27 14 28 6 29 12 30 7 31 10 32 15 33 13 35 8 37 9 38 11 40
REMARK H PARENT 21 20 23 22 32 24 29 26 15 34 13 36 9 39 11 41
REMARK Flexibility Score: inf
ROOT
ATOM      1  O   UNL     1      12.145   1.827   1.363  1.00  0.00    -0.454 OA
ENDROOT
BRANCH   1   2
ATOM      2  C   UNL     1      11.407   2.600   0.440  1.00  0.00     0.214 A 
ATOM      3  C   UNL     1      11.973   2.872  -0.829  1.00  0.00     0.180 A 
ATOM      4  O   UNL     1      11.366   3.719  -1.655  1.00  0.00    -0.452 OA
ATOM      5  C   UNL     1      10.142   3.157   0.731  1.00  0.00     0.239 A 
ATOM      6  C   UNL     1      10.264   4.387  -1.339  1.00  0.00     0.146 A 
ATOM      7  O   UNL     1       9.491   2.773   1.740  1.00  0.00    -0.285 OA
ATOM      8  C   UNL     1       9.614   4.157  -0.106  1.00  0.00     0.111 A 
ATOM      9  C   UNL     1       9.793   5.368  -2.217  1.00  0.00     0.094 A 
ATOM     10  C   UNL     1       8.539   4.992   0.272  1.00  0.00     0.134 A 
ATOM     11  C   UNL     1       8.784   6.243  -1.804  1.00  0.00     0.123 A 
ATOM     12  C   UNL     1       8.153   6.053  -0.569  1.00  0.00     0.093 A 
BRANCH   3  13
ATOM     13  C   UNL     1      13.258   2.284  -1.273  1.00  0.00     0.025 A 
ATOM     14  C   UNL     1      15.733   1.067  -1.901  1.00  0.00     0.157 A 
ATOM     15  C   UNL     1      14.525   0.416  -2.190  1.00  0.00     0.051 A 
ATOM     16  C   UNL     1      15.703   2.348  -1.291  1.00  0.00     0.158 A 
ATOM     17  C   UNL     1      13.309   1.012  -1.858  1.00  0.00     0.016 A 
ATOM     18  C   UNL     1      14.466   2.942  -0.982  1.00  0.00     0.062 A 
BRANCH  14  19
ATOM     19  O   UNL     1      16.928   0.393  -2.188  1.00  0.00    -0.504 OA
ATOM     20  H   UNL     1      16.974  -0.522  -2.623  1.00  0.00     0.293 HD
ENDBRANCH  14  19
BRANCH  16  21
ATOM     21  O   UNL     1      16.870   3.041  -0.961  1.00  0.00    -0.504 OA
ATOM     22  H   UNL     1      16.974   3.596  -0.123  1.00  0.00     0.293 HD
ENDBRANCH  16  21
ENDBRANCH   3  13
BRANCH  10  23
ATOM     23  O   UNL     1       7.876   4.813   1.491  1.00  0.00    -0.507 OA
ATOM     24  H   UNL     1       7.578   5.599   2.063  1.00  0.00     0.293 HD
ENDBRANCH  10  23
BRANCH  11  25
ATOM     25  O   UNL     1       8.406   7.308  -2.614  1.00  0.00    -0.508 OA
ATOM     26  H   UNL     1       7.464   7.679  -2.569  1.00  0.00     0.293 HD
ENDBRANCH  11  25
ENDBRANCH   1   2
BRANCH   1  27
ATOM     27  C   UNL     1      13.568   1.835   1.591  1.00  0.00     0.339 C 
ATOM     28  C   UNL     1      13.893   2.495   2.952  1.00  0.00     0.214 C 
ATOM     29  O   UNL     1      14.165   0.549   1.427  1.00  0.00    -0.332 OA
ATOM     30  C   UNL     1      13.546   1.529   4.095  1.00  0.00     0.180 C 
ATOM     31  C   UNL     1      13.993  -0.379   2.497  1.00  0.00     0.179 C 
ATOM     32  C   UNL     1      14.301   0.209   3.904  1.00  0.00     0.177 C 
BRANCH  28  33
ATOM     33  O   UNL     1      15.242   2.919   3.052  1.00  0.00    -0.384 OA
ATOM     34  H   UNL     1      15.511   3.435   2.240  1.00  0.00     0.211 HD
ENDBRANCH  28  33
BRANCH  30  35
ATOM     35  O   UNL     1      13.901   2.120   5.325  1.00  0.00    -0.387 OA
ATOM     36  H   UNL     1      13.067   2.501   5.718  1.00  0.00     0.211 HD
ENDBRANCH  30  35
BRANCH  31  37
ATOM     37  C   UNL     1      12.651  -1.125   2.435  1.00  0.00     0.191 C 
BRANCH  37  38
ATOM     38  O   UNL     1      12.140  -1.087   1.133  1.00  0.00    -0.394 OA
ATOM     39  H   UNL     1      12.729  -0.461   0.626  1.00  0.00     0.210 HD
ENDBRANCH  37  38
ENDBRANCH  31  37
BRANCH  32  40
ATOM     40  O   UNL     1      15.686   0.419   4.072  1.00  0.00    -0.387 OA
ATOM     41  H   UNL     1      15.903   0.219   5.020  1.00  0.00     0.211 HD
ENDBRANCH  32  40
ENDBRANCH   1  27
TORSDOF 12
ENDMDL
