MODEL 1
REMARK VINA RESULT:    -6.951      0.000      0.000
REMARK INTER + INTRA:          -8.466
REMARK INTER:                  -8.170
REMARK INTRA:                  -0.296
REMARK UNBOUND:                -0.296
REMARK SMILES O=c1cc(-c2ccc(O)c(O)c2)oc2cc(O)cc(O)c12
REMARK SMILES IDX 4 1 3 2 2 3 1 4 21 5 19 6 18 7 16 8 15 9 14 10 13 11 5 12
REMARK SMILES IDX 6 13 7 14 8 15 12 16 10 17 9 18 11 20 20 22 17 24
REMARK H PARENT 9 19 11 21 20 23 17 25
REMARK Flexibility Score: inf
ROOT
ATOM      1  C   UNL     1     -27.479 -22.791 -13.522  1.00  0.00     0.138 A 
ATOM      2  C   UNL     1     -28.260 -23.929 -13.766  1.00  0.00     0.100 A 
ATOM      3  C   UNL     1     -28.457 -24.862 -12.748  1.00  0.00     0.197 A 
ATOM      4  O   UNL     1     -29.110 -25.905 -13.015  1.00  0.00    -0.289 OA
ATOM      5  C   UNL     1     -27.893 -24.638 -11.469  1.00  0.00     0.107 A 
ATOM      6  C   UNL     1     -28.060 -25.501 -10.344  1.00  0.00     0.134 A 
ATOM      7  C   UNL     1     -27.360 -25.236  -9.161  1.00  0.00     0.093 A 
ATOM      8  C   UNL     1     -26.546 -24.110  -9.042  1.00  0.00     0.123 A 
ATOM      9  C   UNL     1     -26.417 -23.230 -10.118  1.00  0.00     0.094 A 
ATOM     10  C   UNL     1     -27.076 -23.485 -11.323  1.00  0.00     0.146 A 
ATOM     11  O   UNL     1     -26.916 -22.631 -12.329  1.00  0.00    -0.456 OA
ENDROOT
BRANCH   1  12
ATOM     12  C   UNL     1     -27.239 -21.765 -14.569  1.00  0.00     0.021 A 
ATOM     13  C   UNL     1     -26.291 -20.754 -14.341  1.00  0.00     0.016 A 
ATOM     14  C   UNL     1     -26.052 -19.773 -15.306  1.00  0.00     0.051 A 
ATOM     15  C   UNL     1     -26.760 -19.779 -16.510  1.00  0.00     0.157 A 
ATOM     16  C   UNL     1     -27.960 -21.759 -15.779  1.00  0.00     0.062 A 
ATOM     17  C   UNL     1     -27.722 -20.774 -16.748  1.00  0.00     0.158 A 
BRANCH  15  18
ATOM     18  O   UNL     1     -26.498 -18.788 -17.456  1.00  0.00    -0.504 OA
ATOM     19  H   UNL     1     -25.612 -18.297 -17.490  1.00  0.00     0.293 HD
ENDBRANCH  15  18
BRANCH  17  20
ATOM     20  O   UNL     1     -28.440 -20.779 -17.943  1.00  0.00    -0.504 OA
ATOM     21  H   UNL     1     -28.379 -20.012 -18.602  1.00  0.00     0.293 HD
ENDBRANCH  17  20
ENDBRANCH   1  12
BRANCH   6  22
ATOM     22  O   UNL     1     -28.916 -26.606 -10.329  1.00  0.00    -0.507 OA
ATOM     23  H   UNL     1     -29.850 -26.618 -10.707  1.00  0.00     0.293 HD
ENDBRANCH   6  22
BRANCH   8  24
ATOM     24  O   UNL     1     -25.875 -23.870  -7.845  1.00  0.00    -0.508 OA
ATOM     25  H   UNL     1     -25.524 -24.629  -7.273  1.00  0.00     0.293 HD
ENDBRANCH   8  24
TORSDOF 5
ENDMDL
MODEL 2
REMARK VINA RESULT:    -6.448     12.771     15.049
REMARK INTER + INTRA:          -7.874
REMARK INTER:                  -7.610
REMARK INTRA:                  -0.264
REMARK UNBOUND:                -0.296
REMARK SMILES O=c1cc(-c2ccc(O)c(O)c2)oc2cc(O)cc(O)c12
REMARK SMILES IDX 4 1 3 2 2 3 1 4 21 5 19 6 18 7 16 8 15 9 14 10 13 11 5 12
REMARK SMILES IDX 6 13 7 14 8 15 12 16 10 17 9 18 11 20 20 22 17 24
REMARK H PARENT 9 19 11 21 20 23 17 25
REMARK Flexibility Score: inf
ROOT
ATOM      1  C   UNL     1     -37.629 -33.587 -15.721  1.00  0.00     0.138 A 
ATOM      2  C   UNL     1     -37.871 -34.948 -15.489  1.00  0.00     0.100 A 
ATOM      3  C   UNL     1     -36.861 -35.745 -14.948  1.00  0.00     0.197 A 
ATOM      4  O   UNL     1     -37.086 -36.976 -14.809  1.00  0.00    -0.289 OA
ATOM      5  C   UNL     1     -35.613 -35.169 -14.611  1.00  0.00     0.107 A 
ATOM      6  C   UNL     1     -34.524 -35.876 -14.018  1.00  0.00     0.134 A 
ATOM      7  C   UNL     1     -33.297 -35.226 -13.836  1.00  0.00     0.093 A 
ATOM      8  C   UNL     1     -33.136 -33.882 -14.169  1.00  0.00     0.123 A 
ATOM      9  C   UNL     1     -34.210 -33.166 -14.700  1.00  0.00     0.094 A 
ATOM     10  C   UNL     1     -35.437 -33.795 -14.925  1.00  0.00     0.146 A 
ATOM     11  O   UNL     1     -36.430 -33.081 -15.447  1.00  0.00    -0.456 OA
ENDROOT
BRANCH   1  12
ATOM     12  C   UNL     1     -38.668 -32.693 -16.293  1.00  0.00     0.021 A 
ATOM     13  C   UNL     1     -38.472 -32.131 -17.565  1.00  0.00     0.016 A 
ATOM     14  C   UNL     1     -39.430 -31.280 -18.121  1.00  0.00     0.051 A 
ATOM     15  C   UNL     1     -40.594 -30.968 -17.414  1.00  0.00     0.157 A 
ATOM     16  C   UNL     1     -39.836 -32.364 -15.578  1.00  0.00     0.062 A 
ATOM     17  C   UNL     1     -40.798 -31.509 -16.134  1.00  0.00     0.158 A 
BRANCH  15  18
ATOM     18  O   UNL     1     -41.534 -30.117 -17.997  1.00  0.00    -0.504 OA
ATOM     19  H   UNL     1     -41.296 -29.496 -18.761  1.00  0.00     0.293 HD
ENDBRANCH  15  18
BRANCH  17  20
ATOM     20  O   UNL     1     -41.952 -31.192 -15.419  1.00  0.00    -0.504 OA
ATOM     21  H   UNL     1     -42.063 -31.453 -14.446  1.00  0.00     0.293 HD
ENDBRANCH  17  20
ENDBRANCH   1  12
BRANCH   6  22
ATOM     22  O   UNL     1     -34.604 -37.198 -13.570  1.00  0.00    -0.507 OA
ATOM     23  H   UNL     1     -34.500 -38.012 -14.155  1.00  0.00     0.293 HD
ENDBRANCH   6  22
BRANCH   8  24
ATOM     24  O   UNL     1     -31.905 -33.265 -13.960  1.00  0.00    -0.508 OA
ATOM     25  H   UNL     1     -31.098 -33.485 -14.531  1.00  0.00     0.293 HD
ENDBRANCH   8  24
TORSDOF 5
ENDMDL
MODEL 3
REMARK VINA RESULT:    -6.291     13.382     15.219
REMARK INTER + INTRA:          -7.690
REMARK INTER:                  -7.393
REMARK INTRA:                  -0.297
REMARK UNBOUND:                -0.296
REMARK SMILES O=c1cc(-c2ccc(O)c(O)c2)oc2cc(O)cc(O)c12
REMARK SMILES IDX 4 1 3 2 2 3 1 4 21 5 19 6 18 7 16 8 15 9 14 10 13 11 5 12
REMARK SMILES IDX 6 13 7 14 8 15 12 16 10 17 9 18 11 20 20 22 17 24
REMARK H PARENT 9 19 11 21 20 23 17 25
REMARK Flexibility Score: inf
ROOT
ATOM      1  C   UNL     1     -37.002 -33.329 -15.818  1.00  0.00     0.138 A 
ATOM      2  C   UNL     1     -35.712 -32.855 -16.093  1.00  0.00     0.100 A 
ATOM      3  C   UNL     1     -34.604 -33.555 -15.613  1.00  0.00     0.197 A 
ATOM      4  O   UNL     1     -33.460 -33.072 -15.823  1.00  0.00    -0.289 OA
ATOM      5  C   UNL     1     -34.790 -34.751 -14.880  1.00  0.00     0.107 A 
ATOM      6  C   UNL     1     -33.733 -35.568 -14.376  1.00  0.00     0.134 A 
ATOM      7  C   UNL     1     -34.039 -36.668 -13.565  1.00  0.00     0.093 A 
ATOM      8  C   UNL     1     -35.361 -37.015 -13.288  1.00  0.00     0.123 A 
ATOM      9  C   UNL     1     -36.403 -36.254 -13.820  1.00  0.00     0.094 A 
ATOM     10  C   UNL     1     -36.130 -35.131 -14.605  1.00  0.00     0.146 A 
ATOM     11  O   UNL     1     -37.151 -34.425 -15.080  1.00  0.00    -0.456 OA
ENDROOT
BRANCH   1  12
ATOM     12  C   UNL     1     -38.216 -32.625 -16.304  1.00  0.00     0.021 A 
ATOM     13  C   UNL     1     -38.225 -32.077 -17.598  1.00  0.00     0.016 A 
ATOM     14  C   UNL     1     -39.352 -31.403 -18.076  1.00  0.00     0.051 A 
ATOM     15  C   UNL     1     -40.484 -31.257 -17.269  1.00  0.00     0.157 A 
ATOM     16  C   UNL     1     -39.354 -32.464 -15.490  1.00  0.00     0.062 A 
ATOM     17  C   UNL     1     -40.485 -31.786 -15.968  1.00  0.00     0.158 A 
BRANCH  15  18
ATOM     18  O   UNL     1     -41.594 -30.582 -17.776  1.00  0.00    -0.504 OA
ATOM     19  H   UNL     1     -41.768 -30.502 -18.770  1.00  0.00     0.293 HD
ENDBRANCH  15  18
BRANCH  17  20
ATOM     20  O   UNL     1     -41.607 -31.635 -15.156  1.00  0.00    -0.504 OA
ATOM     21  H   UNL     1     -41.538 -31.249 -14.221  1.00  0.00     0.293 HD
ENDBRANCH  17  20
ENDBRANCH   1  12
BRANCH   6  22
ATOM     22  O   UNL     1     -32.381 -35.360 -14.662  1.00  0.00    -0.507 OA
ATOM     23  H   UNL     1     -32.009 -34.551 -15.134  1.00  0.00     0.293 HD
ENDBRANCH   6  22
BRANCH   8  24
ATOM     24  O   UNL     1     -35.627 -38.125 -12.489  1.00  0.00    -0.508 OA
ATOM     25  H   UNL     1     -34.921 -38.522 -11.882  1.00  0.00     0.293 HD
ENDBRANCH   8  24
TORSDOF 5
ENDMDL
MODEL 4
REMARK VINA RESULT:    -6.235      1.686      7.207
REMARK INTER + INTRA:          -7.624
REMARK INTER:                  -7.317
REMARK INTRA:                  -0.308
REMARK UNBOUND:                -0.296
REMARK SMILES O=c1cc(-c2ccc(O)c(O)c2)oc2cc(O)cc(O)c12
REMARK SMILES IDX 4 1 3 2 2 3 1 4 21 5 19 6 18 7 16 8 15 9 14 10 13 11 5 12
REMARK SMILES IDX 6 13 7 14 8 15 12 16 10 17 9 18 11 20 20 22 17 24
REMARK H PARENT 9 19 11 21 20 23 17 25
REMARK Flexibility Score: inf
ROOT
ATOM      1  C   UNL     1     -27.705 -22.724 -13.245  1.00  0.00     0.138 A 
ATOM      2  C   UNL     1     -26.654 -22.039 -13.870  1.00  0.00     0.100 A 
ATOM      3  C   UNL     1     -26.856 -21.465 -15.125  1.00  0.00     0.197 A 
ATOM      4  O   UNL     1     -25.876 -20.910 -15.689  1.00  0.00    -0.289 OA
ATOM      5  C   UNL     1     -28.126 -21.551 -15.744  1.00  0.00     0.107 A 
ATOM      6  C   UNL     1     -28.458 -20.970 -17.005  1.00  0.00     0.134 A 
ATOM      7  C   UNL     1     -29.714 -21.220 -17.570  1.00  0.00     0.093 A 
ATOM      8  C   UNL     1     -30.670 -21.979 -16.897  1.00  0.00     0.123 A 
ATOM      9  C   UNL     1     -30.375 -22.509 -15.640  1.00  0.00     0.094 A 
ATOM     10  C   UNL     1     -29.119 -22.305 -15.063  1.00  0.00     0.146 A 
ATOM     11  O   UNL     1     -28.872 -22.839 -13.871  1.00  0.00    -0.456 OA
ENDROOT
BRANCH   1  12
ATOM     12  C   UNL     1     -27.547 -23.353 -11.909  1.00  0.00     0.021 A 
ATOM     13  C   UNL     1     -26.601 -22.835 -11.009  1.00  0.00     0.016 A 
ATOM     14  C   UNL     1     -26.427 -23.414  -9.749  1.00  0.00     0.051 A 
ATOM     15  C   UNL     1     -27.187 -24.523  -9.370  1.00  0.00     0.157 A 
ATOM     16  C   UNL     1     -28.301 -24.480 -11.527  1.00  0.00     0.062 A 
ATOM     17  C   UNL     1     -28.126 -25.063 -10.264  1.00  0.00     0.158 A 
BRANCH  15  18
ATOM     18  O   UNL     1     -26.992 -25.078  -8.105  1.00  0.00    -0.504 OA
ATOM     19  H   UNL     1     -26.076 -25.132  -7.677  1.00  0.00     0.293 HD
ENDBRANCH  15  18
BRANCH  17  20
ATOM     20  O   UNL     1     -28.879 -26.176  -9.896  1.00  0.00    -0.504 OA
ATOM     21  H   UNL     1     -28.488 -26.918  -9.327  1.00  0.00     0.293 HD
ENDBRANCH  17  20
ENDBRANCH   1  12
BRANCH   6  22
ATOM     22  O   UNL     1     -27.607 -20.125 -17.722  1.00  0.00    -0.507 OA
ATOM     23  H   UNL     1     -27.728 -19.129 -17.818  1.00  0.00     0.293 HD
ENDBRANCH   6  22
BRANCH   8  24
ATOM     24  O   UNL     1     -31.915 -22.196 -17.484  1.00  0.00    -0.508 OA
ATOM     25  H   UNL     1     -32.678 -22.615 -16.968  1.00  0.00     0.293 HD
ENDBRANCH   8  24
TORSDOF 5
ENDMDL
MODEL 5
REMARK VINA RESULT:    -6.197      1.502      6.967
REMARK INTER + INTRA:          -7.580
REMARK INTER:                  -7.296
REMARK INTRA:                  -0.284
REMARK UNBOUND:                -0.296
REMARK SMILES O=c1cc(-c2ccc(O)c(O)c2)oc2cc(O)cc(O)c12
REMARK SMILES IDX 4 1 3 2 2 3 1 4 21 5 19 6 18 7 16 8 15 9 14 10 13 11 5 12
REMARK SMILES IDX 6 13 7 14 8 15 12 16 10 17 9 18 11 20 20 22 17 24
REMARK H PARENT 9 19 11 21 20 23 17 25
REMARK Flexibility Score: inf
ROOT
ATOM      1  C   UNL     1     -28.214 -23.263 -12.921  1.00  0.00     0.138 A 
ATOM      2  C   UNL     1     -29.534 -23.354 -13.385  1.00  0.00     0.100 A 
ATOM      3  C   UNL     1     -29.891 -22.724 -14.578  1.00  0.00     0.197 A 
ATOM      4  O   UNL     1     -31.096 -22.771 -14.936  1.00  0.00    -0.289 OA
ATOM      5  C   UNL     1     -28.913 -22.024 -15.324  1.00  0.00     0.107 A 
ATOM      6  C   UNL     1     -29.153 -21.377 -16.574  1.00  0.00     0.134 A 
ATOM      7  C   UNL     1     -28.135 -20.617 -17.164  1.00  0.00     0.093 A 
ATOM      8  C   UNL     1     -26.872 -20.529 -16.582  1.00  0.00     0.123 A 
ATOM      9  C   UNL     1     -26.609 -21.201 -15.387  1.00  0.00     0.094 A 
ATOM     10  C   UNL     1     -27.613 -21.940 -14.757  1.00  0.00     0.146 A 
ATOM     11  O   UNL     1     -27.328 -22.554 -13.612  1.00  0.00    -0.456 OA
ENDROOT
BRANCH   1  12
ATOM     12  C   UNL     1     -27.780 -23.915 -11.660  1.00  0.00     0.021 A 
ATOM     13  C   UNL     1     -28.018 -25.287 -11.473  1.00  0.00     0.016 A 
ATOM     14  C   UNL     1     -27.626 -25.922 -10.292  1.00  0.00     0.051 A 
ATOM     15  C   UNL     1     -26.999 -25.198  -9.274  1.00  0.00     0.157 A 
ATOM     16  C   UNL     1     -27.160 -23.187 -10.625  1.00  0.00     0.062 A 
ATOM     17  C   UNL     1     -26.767 -23.823  -9.439  1.00  0.00     0.158 A 
BRANCH  15  18
ATOM     18  O   UNL     1     -26.617 -25.861  -8.108  1.00  0.00    -0.504 OA
ATOM     19  H   UNL     1     -26.096 -25.398  -7.373  1.00  0.00     0.293 HD
ENDBRANCH  15  18
BRANCH  17  20
ATOM     20  O   UNL     1     -26.152 -23.093  -8.423  1.00  0.00    -0.504 OA
ATOM     21  H   UNL     1     -25.862 -23.530  -7.556  1.00  0.00     0.293 HD
ENDBRANCH  17  20
ENDBRANCH   1  12
BRANCH   6  22
ATOM     22  O   UNL     1     -30.354 -21.470 -17.283  1.00  0.00    -0.507 OA
ATOM     23  H   UNL     1     -31.011 -22.231 -17.207  1.00  0.00     0.293 HD
ENDBRANCH   6  22
BRANCH   8  24
ATOM     24  O   UNL     1     -25.879 -19.775 -17.205  1.00  0.00    -0.508 OA
ATOM     25  H   UNL     1     -25.035 -20.204 -17.563  1.00  0.00     0.293 HD
ENDBRANCH   8  24
TORSDOF 5
ENDMDL
MODEL 6
REMARK VINA RESULT:    -5.821      2.605      7.416
REMARK INTER + INTRA:          -7.138
REMARK INTER:                  -6.850
REMARK INTRA:                  -0.288
REMARK UNBOUND:                -0.296
REMARK SMILES O=c1cc(-c2ccc(O)c(O)c2)oc2cc(O)cc(O)c12
REMARK SMILES IDX 4 1 3 2 2 3 1 4 21 5 19 6 18 7 16 8 15 9 14 10 13 11 5 12
REMARK SMILES IDX 6 13 7 14 8 15 12 16 10 17 9 18 11 20 20 22 17 24
REMARK H PARENT 9 19 11 21 20 23 17 25
REMARK Flexibility Score: inf
ROOT
ATOM      1  C   UNL     1     -28.816 -23.603 -13.683  1.00  0.00     0.138 A 
ATOM      2  C   UNL     1     -28.191 -22.502 -14.284  1.00  0.00     0.100 A 
ATOM      3  C   UNL     1     -28.701 -21.987 -15.477  1.00  0.00     0.197 A 
ATOM      4  O   UNL     1     -28.083 -21.038 -16.026  1.00  0.00    -0.289 OA
ATOM      5  C   UNL     1     -29.861 -22.559 -16.052  1.00  0.00     0.107 A 
ATOM      6  C   UNL     1     -30.492 -22.092 -17.244  1.00  0.00     0.134 A 
ATOM      7  C   UNL     1     -31.568 -22.810 -17.782  1.00  0.00     0.093 A 
ATOM      8  C   UNL     1     -32.072 -23.941 -17.142  1.00  0.00     0.123 A 
ATOM      9  C   UNL     1     -31.495 -24.377 -15.947  1.00  0.00     0.094 A 
ATOM     10  C   UNL     1     -30.400 -23.702 -15.403  1.00  0.00     0.146 A 
ATOM     11  O   UNL     1     -29.871 -24.157 -14.272  1.00  0.00    -0.456 OA
ENDROOT
BRANCH   1  12
ATOM     12  C   UNL     1     -28.317 -24.191 -12.413  1.00  0.00     0.021 A 
ATOM     13  C   UNL     1     -28.493 -25.563 -12.171  1.00  0.00     0.016 A 
ATOM     14  C   UNL     1     -28.040 -26.138 -10.981  1.00  0.00     0.051 A 
ATOM     15  C   UNL     1     -27.412 -25.354 -10.010  1.00  0.00     0.157 A 
ATOM     16  C   UNL     1     -27.695 -23.401 -11.426  1.00  0.00     0.062 A 
ATOM     17  C   UNL     1     -27.241 -23.977 -10.231  1.00  0.00     0.158 A 
BRANCH  15  18
ATOM     18  O   UNL     1     -26.968 -25.957  -8.834  1.00  0.00    -0.504 OA
ATOM     19  H   UNL     1     -26.477 -25.439  -8.115  1.00  0.00     0.293 HD
ENDBRANCH  15  18
BRANCH  17  20
ATOM     20  O   UNL     1     -26.626 -23.187  -9.262  1.00  0.00    -0.504 OA
ATOM     21  H   UNL     1     -25.621 -23.053  -9.245  1.00  0.00     0.293 HD
ENDBRANCH  17  20
ENDBRANCH   1  12
BRANCH   6  22
ATOM     22  O   UNL     1     -30.122 -20.924 -17.917  1.00  0.00    -0.507 OA
ATOM     23  H   UNL     1     -29.500 -20.220 -17.552  1.00  0.00     0.293 HD
ENDBRANCH   6  22
BRANCH   8  24
ATOM     24  O   UNL     1     -33.152 -24.622 -17.699  1.00  0.00    -0.508 OA
ATOM     25  H   UNL     1     -33.167 -24.881 -18.678  1.00  0.00     0.293 HD
ENDBRANCH   8  24
TORSDOF 5
ENDMDL
MODEL 7
REMARK VINA RESULT:    -5.688     13.519     15.221
REMARK INTER + INTRA:          -6.982
REMARK INTER:                  -6.715
REMARK INTRA:                  -0.267
REMARK UNBOUND:                -0.296
REMARK SMILES O=c1cc(-c2ccc(O)c(O)c2)oc2cc(O)cc(O)c12
REMARK SMILES IDX 4 1 3 2 2 3 1 4 21 5 19 6 18 7 16 8 15 9 14 10 13 11 5 12
REMARK SMILES IDX 6 13 7 14 8 15 12 16 10 17 9 18 11 20 20 22 17 24
REMARK H PARENT 9 19 11 21 20 23 17 25
REMARK Flexibility Score: inf
ROOT
ATOM      1  C   UNL     1     -36.910 -34.569 -15.175  1.00  0.00     0.138 A 
ATOM      2  C   UNL     1     -37.353 -35.788 -14.644  1.00  0.00     0.100 A 
ATOM      3  C   UNL     1     -36.451 -36.617 -13.975  1.00  0.00     0.197 A 
ATOM      4  O   UNL     1     -36.863 -37.733 -13.564  1.00  0.00    -0.289 OA
ATOM      5  C   UNL     1     -35.106 -36.206 -13.811  1.00  0.00     0.107 A 
ATOM      6  C   UNL     1     -34.109 -36.951 -13.113  1.00  0.00     0.134 A 
ATOM      7  C   UNL     1     -32.783 -36.500 -13.115  1.00  0.00     0.093 A 
ATOM      8  C   UNL     1     -32.430 -35.304 -13.738  1.00  0.00     0.123 A 
ATOM      9  C   UNL     1     -33.407 -34.540 -14.379  1.00  0.00     0.094 A 
ATOM     10  C   UNL     1     -34.732 -34.980 -14.423  1.00  0.00     0.146 A 
ATOM     11  O   UNL     1     -35.630 -34.232 -15.056  1.00  0.00    -0.456 OA
ENDROOT
BRANCH   1  12
ATOM     12  C   UNL     1     -37.826 -33.648 -15.895  1.00  0.00     0.021 A 
ATOM     13  C   UNL     1     -37.577 -33.338 -17.242  1.00  0.00     0.016 A 
ATOM     14  C   UNL     1     -38.420 -32.469 -17.939  1.00  0.00     0.051 A 
ATOM     15  C   UNL     1     -39.518 -31.886 -17.302  1.00  0.00     0.157 A 
ATOM     16  C   UNL     1     -38.927 -33.048 -15.253  1.00  0.00     0.062 A 
ATOM     17  C   UNL     1     -39.773 -32.173 -15.950  1.00  0.00     0.158 A 
BRANCH  15  18
ATOM     18  O   UNL     1     -40.343 -31.024 -18.024  1.00  0.00    -0.504 OA
ATOM     19  H   UNL     1     -40.430 -30.042 -17.791  1.00  0.00     0.293 HD
ENDBRANCH  15  18
BRANCH  17  20
ATOM     20  O   UNL     1     -40.861 -31.587 -15.306  1.00  0.00    -0.504 OA
ATOM     21  H   UNL     1     -40.759 -30.747 -14.750  1.00  0.00     0.293 HD
ENDBRANCH  17  20
ENDBRANCH   1  12
BRANCH   6  22
ATOM     22  O   UNL     1     -34.371 -38.116 -12.386  1.00  0.00    -0.507 OA
ATOM     23  H   UNL     1     -35.222 -38.652 -12.442  1.00  0.00     0.293 HD
ENDBRANCH   6  22
BRANCH   8  24
ATOM     24  O   UNL     1     -31.103 -34.878 -13.707  1.00  0.00    -0.508 OA
ATOM     25  H   UNL     1     -30.366 -35.470 -13.343  1.00  0.00     0.293 HD
ENDBRANCH   8  24
TORSDOF 5
ENDMDL
MODEL 8
REMARK VINA RESULT:    -5.508      1.844      2.725
REMARK INTER + INTRA:          -6.770
REMARK INTER:                  -6.476
REMARK INTRA:                  -0.294
REMARK UNBOUND:                -0.296
REMARK SMILES O=c1cc(-c2ccc(O)c(O)c2)oc2cc(O)cc(O)c12
REMARK SMILES IDX 4 1 3 2 2 3 1 4 21 5 19 6 18 7 16 8 15 9 14 10 13 11 5 12
REMARK SMILES IDX 6 13 7 14 8 15 12 16 10 17 9 18 11 20 20 22 17 24
REMARK H PARENT 9 19 11 21 20 23 17 25
REMARK Flexibility Score: inf
ROOT
ATOM      1  C   UNL     1     -29.003 -24.095 -13.595  1.00  0.00     0.138 A 
ATOM      2  C   UNL     1     -29.038 -25.495 -13.551  1.00  0.00     0.100 A 
ATOM      3  C   UNL     1     -28.493 -26.164 -12.454  1.00  0.00     0.197 A 
ATOM      4  O   UNL     1     -28.483 -27.423 -12.471  1.00  0.00    -0.289 OA
ATOM      5  C   UNL     1     -27.938 -25.424 -11.383  1.00  0.00     0.107 A 
ATOM      6  C   UNL     1     -27.390 -25.998 -10.196  1.00  0.00     0.134 A 
ATOM      7  C   UNL     1     -26.763 -25.171  -9.256  1.00  0.00     0.093 A 
ATOM      8  C   UNL     1     -26.717 -23.788  -9.429  1.00  0.00     0.123 A 
ATOM      9  C   UNL     1     -27.297 -23.211 -10.560  1.00  0.00     0.094 A 
ATOM     10  C   UNL     1     -27.899 -24.012 -11.532  1.00  0.00     0.146 A 
ATOM     11  O   UNL     1     -28.427 -23.425 -12.602  1.00  0.00    -0.456 OA
ENDROOT
BRANCH   1  12
ATOM     12  C   UNL     1     -29.569 -23.332 -14.737  1.00  0.00     0.021 A 
ATOM     13  C   UNL     1     -30.813 -23.708 -15.271  1.00  0.00     0.016 A 
ATOM     14  C   UNL     1     -31.363 -23.012 -16.350  1.00  0.00     0.051 A 
ATOM     15  C   UNL     1     -30.679 -21.936 -16.920  1.00  0.00     0.157 A 
ATOM     16  C   UNL     1     -28.876 -22.255 -15.324  1.00  0.00     0.062 A 
ATOM     17  C   UNL     1     -29.427 -21.556 -16.408  1.00  0.00     0.158 A 
BRANCH  15  18
ATOM     18  O   UNL     1     -31.255 -21.259 -17.995  1.00  0.00    -0.504 OA
ATOM     19  H   UNL     1     -31.051 -20.286 -18.189  1.00  0.00     0.293 HD
ENDBRANCH  15  18
BRANCH  17  20
ATOM     20  O   UNL     1     -28.735 -20.490 -16.979  1.00  0.00    -0.504 OA
ATOM     21  H   UNL     1     -28.129 -19.893 -16.428  1.00  0.00     0.293 HD
ENDBRANCH  17  20
ENDBRANCH   1  12
BRANCH   6  22
ATOM     22  O   UNL     1     -27.457 -27.359  -9.884  1.00  0.00    -0.507 OA
ATOM     23  H   UNL     1     -28.294 -27.845  -9.604  1.00  0.00     0.293 HD
ENDBRANCH   6  22
BRANCH   8  24
ATOM     24  O   UNL     1     -26.098 -22.995  -8.465  1.00  0.00    -0.508 OA
ATOM     25  H   UNL     1     -25.796 -22.050  -8.671  1.00  0.00     0.293 HD
ENDBRANCH   8  24
TORSDOF 5
ENDMDL
MODEL 9
REMARK VINA RESULT:    -5.056     11.238     14.332
REMARK INTER + INTRA:          -6.238
REMARK INTER:                  -5.969
REMARK INTRA:                  -0.269
REMARK UNBOUND:                -0.296
REMARK SMILES O=c1cc(-c2ccc(O)c(O)c2)oc2cc(O)cc(O)c12
REMARK SMILES IDX 4 1 3 2 2 3 1 4 21 5 19 6 18 7 16 8 15 9 14 10 13 11 5 12
REMARK SMILES IDX 6 13 7 14 8 15 12 16 10 17 9 18 11 20 20 22 17 24
REMARK H PARENT 9 19 11 21 20 23 17 25
REMARK Flexibility Score: inf
ROOT
ATOM      1  C   UNL     1     -33.322 -34.676 -13.988  1.00  0.00     0.138 A 
ATOM      2  C   UNL     1     -33.771 -36.003 -14.041  1.00  0.00     0.100 A 
ATOM      3  C   UNL     1     -35.084 -36.272 -14.430  1.00  0.00     0.197 A 
ATOM      4  O   UNL     1     -35.476 -37.468 -14.408  1.00  0.00    -0.289 OA
ATOM      5  C   UNL     1     -35.941 -35.207 -14.798  1.00  0.00     0.107 A 
ATOM      6  C   UNL     1     -37.286 -35.366 -15.249  1.00  0.00     0.134 A 
ATOM      7  C   UNL     1     -38.076 -34.232 -15.475  1.00  0.00     0.093 A 
ATOM      8  C   UNL     1     -37.555 -32.948 -15.323  1.00  0.00     0.123 A 
ATOM      9  C   UNL     1     -36.225 -32.781 -14.933  1.00  0.00     0.094 A 
ATOM     10  C   UNL     1     -35.421 -33.892 -14.668  1.00  0.00     0.146 A 
ATOM     11  O   UNL     1     -34.164 -33.691 -14.285  1.00  0.00    -0.456 OA
ENDROOT
BRANCH   1  12
ATOM     12  C   UNL     1     -31.936 -34.332 -13.582  1.00  0.00     0.021 A 
ATOM     13  C   UNL     1     -31.127 -33.580 -14.450  1.00  0.00     0.016 A 
ATOM     14  C   UNL     1     -29.817 -33.251 -14.094  1.00  0.00     0.051 A 
ATOM     15  C   UNL     1     -29.288 -33.675 -12.873  1.00  0.00     0.157 A 
ATOM     16  C   UNL     1     -31.394 -34.769 -12.357  1.00  0.00     0.062 A 
ATOM     17  C   UNL     1     -30.078 -34.441 -12.000  1.00  0.00     0.158 A 
BRANCH  15  18
ATOM     18  O   UNL     1     -27.977 -33.328 -12.545  1.00  0.00    -0.504 OA
ATOM     19  H   UNL     1     -27.266 -33.184 -13.252  1.00  0.00     0.293 HD
ENDBRANCH  15  18
BRANCH  17  20
ATOM     20  O   UNL     1     -29.553 -34.875 -10.784  1.00  0.00    -0.504 OA
ATOM     21  H   UNL     1     -30.035 -35.556 -10.210  1.00  0.00     0.293 HD
ENDBRANCH  17  20
ENDBRANCH   1  12
BRANCH   6  22
ATOM     22  O   UNL     1     -37.880 -36.603 -15.515  1.00  0.00    -0.507 OA
ATOM     23  H   UNL     1     -37.376 -37.455 -15.705  1.00  0.00     0.293 HD
ENDBRANCH   6  22
BRANCH   8  24
ATOM     24  O   UNL     1     -38.366 -31.842 -15.570  1.00  0.00    -0.508 OA
ATOM     25  H   UNL     1     -39.134 -31.886 -16.229  1.00  0.00     0.293 HD
ENDBRANCH   8  24
TORSDOF 5
ENDMDL
