MODEL 1
REMARK VINA RESULT:    -4.159      0.000      0.000
REMARK INTER + INTRA:          -5.344
REMARK INTER:                  -5.009
REMARK INTRA:                  -0.335
REMARK UNBOUND:                -0.335
REMARK SMILES O=c1c(O)c(-c2ccc(O)c(O)c2)oc2cc(O)cc(O)c12
REMARK SMILES IDX 5 1 3 2 2 3 1 4 22 5 20 6 19 7 17 8 16 9 15 10 14 11 6 12
REMARK SMILES IDX 7 13 8 14 9 15 13 16 11 17 10 18 12 20 4 22 21 24 18 26
REMARK H PARENT 10 19 12 21 4 23 21 25 18 27
REMARK Flexibility Score: inf
ROOT
ATOM      1  C   UNL     1      -6.223 -17.902  -7.203  1.00  0.00     0.180 A 
ATOM      2  C   UNL     1      -4.906 -18.289  -6.896  1.00  0.00     0.208 A 
ATOM      3  C   UNL     1      -4.281 -17.739  -5.765  1.00  0.00     0.238 A 
ATOM      4  O   UNL     1      -3.084 -18.047  -5.527  1.00  0.00    -0.285 OA
ATOM      5  C   UNL     1      -4.985 -16.823  -4.947  1.00  0.00     0.111 A 
ATOM      6  C   UNL     1      -4.463 -16.235  -3.755  1.00  0.00     0.134 A 
ATOM      7  C   UNL     1      -5.198 -15.242  -3.096  1.00  0.00     0.093 A 
ATOM      8  C   UNL     1      -6.466 -14.864  -3.549  1.00  0.00     0.123 A 
ATOM      9  C   UNL     1      -7.008 -15.474  -4.677  1.00  0.00     0.094 A 
ATOM     10  C   UNL     1      -6.282 -16.442  -5.377  1.00  0.00     0.146 A 
ATOM     11  O   UNL     1      -6.832 -16.992  -6.453  1.00  0.00    -0.452 OA
ENDROOT
BRANCH   1  12
ATOM     12  C   UNL     1      -6.957 -18.458  -8.363  1.00  0.00     0.025 A 
ATOM     13  C   UNL     1      -7.715 -19.634  -8.254  1.00  0.00     0.016 A 
ATOM     14  C   UNL     1      -8.416 -20.125  -9.356  1.00  0.00     0.051 A 
ATOM     15  C   UNL     1      -8.388 -19.449 -10.581  1.00  0.00     0.157 A 
ATOM     16  C   UNL     1      -6.943 -17.766  -9.585  1.00  0.00     0.062 A 
ATOM     17  C   UNL     1      -7.645 -18.251 -10.695  1.00  0.00     0.158 A 
BRANCH  15  18
ATOM     18  O   UNL     1      -9.109 -19.996 -11.645  1.00  0.00    -0.504 OA
ATOM     19  H   UNL     1      -8.708 -20.606 -12.343  1.00  0.00     0.293 HD
ENDBRANCH  15  18
BRANCH  17  20
ATOM     20  O   UNL     1      -7.576 -17.516 -11.881  1.00  0.00    -0.504 OA
ATOM     21  H   UNL     1      -7.334 -17.914 -12.777  1.00  0.00     0.293 HD
ENDBRANCH  17  20
ENDBRANCH   1  12
BRANCH   2  22
ATOM     22  O   UNL     1      -4.222 -19.178  -7.730  1.00  0.00    -0.502 OA
ATOM     23  H   UNL     1      -3.938 -18.933  -8.670  1.00  0.00     0.293 HD
ENDBRANCH   2  22
BRANCH   6  24
ATOM     24  O   UNL     1      -3.251 -16.607  -3.167  1.00  0.00    -0.507 OA
ATOM     25  H   UNL     1      -2.587 -15.966  -2.762  1.00  0.00     0.293 HD
ENDBRANCH   6  24
BRANCH   8  26
ATOM     26  O   UNL     1      -7.197 -13.886  -2.879  1.00  0.00    -0.508 OA
ATOM     27  H   UNL     1      -6.799 -13.363  -2.107  1.00  0.00     0.293 HD
ENDBRANCH   8  26
TORSDOF 6
ENDMDL
MODEL 2
REMARK VINA RESULT:    -4.129      2.164      3.679
REMARK INTER + INTRA:          -5.309
REMARK INTER:                  -5.047
REMARK INTRA:                  -0.261
REMARK UNBOUND:                -0.335
REMARK SMILES O=c1c(O)c(-c2ccc(O)c(O)c2)oc2cc(O)cc(O)c12
REMARK SMILES IDX 5 1 3 2 2 3 1 4 22 5 20 6 19 7 17 8 16 9 15 10 14 11 6 12
REMARK SMILES IDX 7 13 8 14 9 15 13 16 11 17 10 18 12 20 4 22 21 24 18 26
REMARK H PARENT 10 19 12 21 4 23 21 25 18 27
REMARK Flexibility Score: inf
ROOT
ATOM      1  C   UNL     1      -4.969 -18.121  -6.183  1.00  0.00     0.180 A 
ATOM      2  C   UNL     1      -5.056 -16.797  -5.717  1.00  0.00     0.208 A 
ATOM      3  C   UNL     1      -4.128 -16.348  -4.764  1.00  0.00     0.238 A 
ATOM      4  O   UNL     1      -4.246 -15.180  -4.310  1.00  0.00    -0.285 OA
ATOM      5  C   UNL     1      -3.114 -17.221  -4.303  1.00  0.00     0.111 A 
ATOM      6  C   UNL     1      -2.095 -16.859  -3.370  1.00  0.00     0.134 A 
ATOM      7  C   UNL     1      -1.222 -17.841  -2.885  1.00  0.00     0.093 A 
ATOM      8  C   UNL     1      -1.289 -19.157  -3.351  1.00  0.00     0.123 A 
ATOM      9  C   UNL     1      -2.240 -19.506  -4.305  1.00  0.00     0.094 A 
ATOM     10  C   UNL     1      -3.149 -18.556  -4.781  1.00  0.00     0.146 A 
ATOM     11  O   UNL     1      -4.047 -18.934  -5.683  1.00  0.00    -0.452 OA
ENDROOT
BRANCH   1  12
ATOM     12  C   UNL     1      -5.895 -18.659  -7.206  1.00  0.00     0.025 A 
ATOM     13  C   UNL     1      -7.222 -18.989  -6.889  1.00  0.00     0.016 A 
ATOM     14  C   UNL     1      -8.083 -19.473  -7.876  1.00  0.00     0.051 A 
ATOM     15  C   UNL     1      -7.644 -19.623  -9.196  1.00  0.00     0.157 A 
ATOM     16  C   UNL     1      -5.459 -18.788  -8.534  1.00  0.00     0.062 A 
ATOM     17  C   UNL     1      -6.316 -19.272  -9.530  1.00  0.00     0.158 A 
BRANCH  15  18
ATOM     18  O   UNL     1      -8.555 -20.116 -10.134  1.00  0.00    -0.504 OA
ATOM     19  H   UNL     1      -9.476 -19.730 -10.282  1.00  0.00     0.293 HD
ENDBRANCH  15  18
BRANCH  17  20
ATOM     20  O   UNL     1      -5.809 -19.385 -10.827  1.00  0.00    -0.504 OA
ATOM     21  H   UNL     1      -6.108 -18.811 -11.601  1.00  0.00     0.293 HD
ENDBRANCH  17  20
ENDBRANCH   1  12
BRANCH   2  22
ATOM     22  O   UNL     1      -6.080 -15.959  -6.169  1.00  0.00    -0.502 OA
ATOM     23  H   UNL     1      -6.653 -16.185  -6.972  1.00  0.00     0.293 HD
ENDBRANCH   2  22
BRANCH   6  24
ATOM     24  O   UNL     1      -1.884 -15.555  -2.912  1.00  0.00    -0.507 OA
ATOM     25  H   UNL     1      -2.371 -15.132  -2.137  1.00  0.00     0.293 HD
ENDBRANCH   6  24
BRANCH   8  26
ATOM     26  O   UNL     1      -0.406 -20.124  -2.875  1.00  0.00    -0.508 OA
ATOM     27  H   UNL     1       0.366 -20.461  -3.440  1.00  0.00     0.293 HD
ENDBRANCH   8  26
TORSDOF 6
ENDMDL
MODEL 3
REMARK VINA RESULT:    -4.073      1.231      2.888
REMARK INTER + INTRA:          -5.242
REMARK INTER:                  -4.932
REMARK INTRA:                  -0.309
REMARK UNBOUND:                -0.335
REMARK SMILES O=c1c(O)c(-c2ccc(O)c(O)c2)oc2cc(O)cc(O)c12
REMARK SMILES IDX 5 1 3 2 2 3 1 4 22 5 20 6 19 7 17 8 16 9 15 10 14 11 6 12
REMARK SMILES IDX 7 13 8 14 9 15 13 16 11 17 10 18 12 20 4 22 21 24 18 26
REMARK H PARENT 10 19 12 21 4 23 21 25 18 27
REMARK Flexibility Score: inf
ROOT
ATOM      1  C   UNL     1      -6.641 -17.625  -6.933  1.00  0.00     0.180 A 
ATOM      2  C   UNL     1      -7.281 -16.594  -6.223  1.00  0.00     0.208 A 
ATOM      3  C   UNL     1      -6.614 -15.996  -5.142  1.00  0.00     0.238 A 
ATOM      4  O   UNL     1      -7.214 -15.113  -4.476  1.00  0.00    -0.285 OA
ATOM      5  C   UNL     1      -5.310 -16.424  -4.795  1.00  0.00     0.111 A 
ATOM      6  C   UNL     1      -4.525 -15.860  -3.744  1.00  0.00     0.134 A 
ATOM      7  C   UNL     1      -3.301 -16.449  -3.404  1.00  0.00     0.093 A 
ATOM      8  C   UNL     1      -2.802 -17.540  -4.123  1.00  0.00     0.123 A 
ATOM      9  C   UNL     1      -3.533 -18.059  -5.188  1.00  0.00     0.094 A 
ATOM     10  C   UNL     1      -4.776 -17.515  -5.526  1.00  0.00     0.146 A 
ATOM     11  O   UNL     1      -5.444 -18.048  -6.543  1.00  0.00    -0.452 OA
ENDROOT
BRANCH   1  12
ATOM     12  C   UNL     1      -7.269 -18.286  -8.100  1.00  0.00     0.025 A 
ATOM     13  C   UNL     1      -7.981 -19.487  -7.965  1.00  0.00     0.016 A 
ATOM     14  C   UNL     1      -8.585 -20.078  -9.076  1.00  0.00     0.051 A 
ATOM     15  C   UNL     1      -8.502 -19.479 -10.337  1.00  0.00     0.157 A 
ATOM     16  C   UNL     1      -7.203 -17.671  -9.361  1.00  0.00     0.062 A 
ATOM     17  C   UNL     1      -7.805 -18.257 -10.481  1.00  0.00     0.158 A 
BRANCH  15  18
ATOM     18  O   UNL     1      -9.124 -20.125 -11.408  1.00  0.00    -0.504 OA
ATOM     19  H   UNL     1      -9.560 -21.034 -11.344  1.00  0.00     0.293 HD
ENDBRANCH  15  18
BRANCH  17  20
ATOM     20  O   UNL     1      -7.688 -17.595 -11.705  1.00  0.00    -0.504 OA
ATOM     21  H   UNL     1      -7.581 -16.595 -11.798  1.00  0.00     0.293 HD
ENDBRANCH  17  20
ENDBRANCH   1  12
BRANCH   2  22
ATOM     22  O   UNL     1      -8.578 -16.202  -6.569  1.00  0.00    -0.502 OA
ATOM     23  H   UNL     1      -8.785 -15.290  -6.955  1.00  0.00     0.293 HD
ENDBRANCH   2  22
BRANCH   6  24
ATOM     24  O   UNL     1      -4.888 -14.716  -3.026  1.00  0.00    -0.507 OA
ATOM     25  H   UNL     1      -4.257 -14.166  -2.464  1.00  0.00     0.293 HD
ENDBRANCH   6  24
BRANCH   8  26
ATOM     26  O   UNL     1      -1.576 -18.109  -3.789  1.00  0.00    -0.508 OA
ATOM     27  H   UNL     1      -1.214 -18.072  -2.842  1.00  0.00     0.293 HD
ENDBRANCH   8  26
TORSDOF 6
ENDMDL
MODEL 4
REMARK VINA RESULT:    -3.990      2.002      2.329
REMARK INTER + INTRA:          -5.141
REMARK INTER:                  -5.200
REMARK INTRA:                   0.058
REMARK UNBOUND:                -0.335
REMARK SMILES O=c1c(O)c(-c2ccc(O)c(O)c2)oc2cc(O)cc(O)c12
REMARK SMILES IDX 5 1 3 2 2 3 1 4 22 5 20 6 19 7 17 8 16 9 15 10 14 11 6 12
REMARK SMILES IDX 7 13 8 14 9 15 13 16 11 17 10 18 12 20 4 22 21 24 18 26
REMARK H PARENT 10 19 12 21 4 23 21 25 18 27
REMARK Flexibility Score: inf
ROOT
ATOM      1  C   UNL     1      -5.033 -17.852  -6.506  1.00  0.00     0.180 A 
ATOM      2  C   UNL     1      -4.172 -18.919  -6.195  1.00  0.00     0.208 A 
ATOM      3  C   UNL     1      -3.197 -18.739  -5.200  1.00  0.00     0.238 A 
ATOM      4  O   UNL     1      -2.394 -19.679  -4.965  1.00  0.00    -0.285 OA
ATOM      5  C   UNL     1      -3.107 -17.502  -4.518  1.00  0.00     0.111 A 
ATOM      6  C   UNL     1      -2.184 -17.223  -3.465  1.00  0.00     0.134 A 
ATOM      7  C   UNL     1      -2.095 -15.923  -2.951  1.00  0.00     0.093 A 
ATOM      8  C   UNL     1      -2.942 -14.909  -3.407  1.00  0.00     0.123 A 
ATOM      9  C   UNL     1      -3.886 -15.187  -4.392  1.00  0.00     0.094 A 
ATOM     10  C   UNL     1      -3.973 -16.465  -4.950  1.00  0.00     0.146 A 
ATOM     11  O   UNL     1      -4.881 -16.684  -5.894  1.00  0.00    -0.452 OA
ENDROOT
BRANCH   1  12
ATOM     12  C   UNL     1      -6.102 -17.974  -7.524  1.00  0.00     0.025 A 
ATOM     13  C   UNL     1      -7.411 -17.538  -7.267  1.00  0.00     0.016 A 
ATOM     14  C   UNL     1      -8.395 -17.642  -8.250  1.00  0.00     0.051 A 
ATOM     15  C   UNL     1      -8.093 -18.169  -9.511  1.00  0.00     0.157 A 
ATOM     16  C   UNL     1      -5.791 -18.484  -8.794  1.00  0.00     0.062 A 
ATOM     17  C   UNL     1      -6.772 -18.592  -9.788  1.00  0.00     0.158 A 
BRANCH  15  18
ATOM     18  O   UNL     1      -9.125 -18.250 -10.449  1.00  0.00    -0.504 OA
ATOM     19  H   UNL     1     -10.058 -17.896 -10.294  1.00  0.00     0.293 HD
ENDBRANCH  15  18
BRANCH  17  20
ATOM     20  O   UNL     1      -6.392 -19.119 -11.024  1.00  0.00    -0.504 OA
ATOM     21  H   UNL     1      -7.039 -19.326 -11.772  1.00  0.00     0.293 HD
ENDBRANCH  17  20
ENDBRANCH   1  12
BRANCH   2  22
ATOM     22  O   UNL     1      -4.264 -20.125  -6.896  1.00  0.00    -0.502 OA
ATOM     23  H   UNL     1      -4.828 -20.226  -7.730  1.00  0.00     0.293 HD
ENDBRANCH   2  22
BRANCH   6  24
ATOM     24  O   UNL     1      -1.359 -18.185  -2.875  1.00  0.00    -0.507 OA
ATOM     25  H   UNL     1      -0.357 -18.111  -2.793  1.00  0.00     0.293 HD
ENDBRANCH   6  24
BRANCH   8  26
ATOM     26  O   UNL     1      -2.858 -13.623  -2.879  1.00  0.00    -0.508 OA
ATOM     27  H   UNL     1      -2.782 -12.808  -3.478  1.00  0.00     0.293 HD
ENDBRANCH   8  26
TORSDOF 6
ENDMDL
MODEL 5
REMARK VINA RESULT:    -3.495      2.001      7.194
REMARK INTER + INTRA:          -4.545
REMARK INTER:                  -4.371
REMARK INTRA:                  -0.175
REMARK UNBOUND:                -0.335
REMARK SMILES O=c1c(O)c(-c2ccc(O)c(O)c2)oc2cc(O)cc(O)c12
REMARK SMILES IDX 5 1 3 2 2 3 1 4 22 5 20 6 19 7 17 8 16 9 15 10 14 11 6 12
REMARK SMILES IDX 7 13 8 14 9 15 13 16 11 17 10 18 12 20 4 22 21 24 18 26
REMARK H PARENT 10 19 12 21 4 23 21 25 18 27
REMARK Flexibility Score: inf
ROOT
ATOM      1  C   UNL     1      -5.271 -17.967  -6.544  1.00  0.00     0.180 A 
ATOM      2  C   UNL     1      -6.644 -18.051  -6.254  1.00  0.00     0.208 A 
ATOM      3  C   UNL     1      -7.509 -18.604  -7.212  1.00  0.00     0.238 A 
ATOM      4  O   UNL     1      -8.744 -18.627  -6.969  1.00  0.00    -0.285 OA
ATOM      5  C   UNL     1      -6.989 -19.081  -8.439  1.00  0.00     0.111 A 
ATOM      6  C   UNL     1      -7.768 -19.698  -9.464  1.00  0.00     0.134 A 
ATOM      7  C   UNL     1      -7.171 -20.012 -10.691  1.00  0.00     0.093 A 
ATOM      8  C   UNL     1      -5.806 -19.794 -10.904  1.00  0.00     0.123 A 
ATOM      9  C   UNL     1      -5.026 -19.248  -9.889  1.00  0.00     0.094 A 
ATOM     10  C   UNL     1      -5.602 -18.890  -8.667  1.00  0.00     0.146 A 
ATOM     11  O   UNL     1      -4.823 -18.363  -7.729  1.00  0.00    -0.452 OA
ENDROOT
BRANCH   1  12
ATOM     12  C   UNL     1      -4.293 -17.420  -5.574  1.00  0.00     0.025 A 
ATOM     13  C   UNL     1      -3.296 -18.228  -5.007  1.00  0.00     0.016 A 
ATOM     14  C   UNL     1      -2.372 -17.684  -4.114  1.00  0.00     0.051 A 
ATOM     15  C   UNL     1      -2.415 -16.326  -3.779  1.00  0.00     0.157 A 
ATOM     16  C   UNL     1      -4.326 -16.053  -5.257  1.00  0.00     0.062 A 
ATOM     17  C   UNL     1      -3.403 -15.498  -4.362  1.00  0.00     0.158 A 
BRANCH  15  18
ATOM     18  O   UNL     1      -1.464 -15.846  -2.876  1.00  0.00    -0.504 OA
ATOM     19  H   UNL     1      -0.971 -16.427  -2.213  1.00  0.00     0.293 HD
ENDBRANCH  15  18
BRANCH  17  20
ATOM     20  O   UNL     1      -3.504 -14.133  -4.084  1.00  0.00    -0.504 OA
ATOM     21  H   UNL     1      -3.981 -13.471  -4.678  1.00  0.00     0.293 HD
ENDBRANCH  17  20
ENDBRANCH   1  12
BRANCH   2  22
ATOM     22  O   UNL     1      -7.140 -17.554  -5.045  1.00  0.00    -0.502 OA
ATOM     23  H   UNL     1      -6.549 -17.405  -4.236  1.00  0.00     0.293 HD
ENDBRANCH   2  22
BRANCH   6  24
ATOM     24  O   UNL     1      -9.115 -20.043  -9.320  1.00  0.00    -0.507 OA
ATOM     25  H   UNL     1      -9.712 -19.730  -8.569  1.00  0.00     0.293 HD
ENDBRANCH   6  24
BRANCH   8  26
ATOM     26  O   UNL     1      -5.216 -20.125 -12.122  1.00  0.00    -0.508 OA
ATOM     27  H   UNL     1      -4.258 -19.870 -12.333  1.00  0.00     0.293 HD
ENDBRANCH   8  26
TORSDOF 6
ENDMDL
MODEL 6
REMARK VINA RESULT:    -2.489      1.920      2.235
REMARK INTER + INTRA:          -3.332
REMARK INTER:                  -3.005
REMARK INTRA:                  -0.328
REMARK UNBOUND:                -0.335
REMARK SMILES O=c1c(O)c(-c2ccc(O)c(O)c2)oc2cc(O)cc(O)c12
REMARK SMILES IDX 5 1 3 2 2 3 1 4 22 5 20 6 19 7 17 8 16 9 15 10 14 11 6 12
REMARK SMILES IDX 7 13 8 14 9 15 13 16 11 17 10 18 12 20 4 22 21 24 18 26
REMARK H PARENT 10 19 12 21 4 23 21 25 18 27
REMARK Flexibility Score: inf
ROOT
ATOM      1  C   UNL     1      -6.201 -18.088  -7.612  1.00  0.00     0.180 A 
ATOM      2  C   UNL     1      -6.234 -18.871  -6.445  1.00  0.00     0.208 A 
ATOM      3  C   UNL     1      -5.604 -18.392  -5.285  1.00  0.00     0.238 A 
ATOM      4  O   UNL     1      -5.591 -19.122  -4.260  1.00  0.00    -0.285 OA
ATOM      5  C   UNL     1      -4.964 -17.130  -5.302  1.00  0.00     0.111 A 
ATOM      6  C   UNL     1      -4.331 -16.527  -4.173  1.00  0.00     0.134 A 
ATOM      7  C   UNL     1      -3.615 -15.335  -4.337  1.00  0.00     0.093 A 
ATOM      8  C   UNL     1      -3.568 -14.688  -5.576  1.00  0.00     0.123 A 
ATOM      9  C   UNL     1      -4.233 -15.237  -6.668  1.00  0.00     0.094 A 
ATOM     10  C   UNL     1      -4.924 -16.445  -6.544  1.00  0.00     0.146 A 
ATOM     11  O   UNL     1      -5.536 -16.939  -7.614  1.00  0.00    -0.452 OA
ENDROOT
BRANCH   1  12
ATOM     12  C   UNL     1      -6.863 -18.515  -8.866  1.00  0.00     0.025 A 
ATOM     13  C   UNL     1      -8.227 -18.275  -9.091  1.00  0.00     0.016 A 
ATOM     14  C   UNL     1      -8.824 -18.665 -10.291  1.00  0.00     0.051 A 
ATOM     15  C   UNL     1      -8.073 -19.289 -11.293  1.00  0.00     0.157 A 
ATOM     16  C   UNL     1      -6.103 -19.121  -9.878  1.00  0.00     0.062 A 
ATOM     17  C   UNL     1      -6.692 -19.516 -11.085  1.00  0.00     0.158 A 
BRANCH  15  18
ATOM     18  O   UNL     1      -8.731 -19.659 -12.467  1.00  0.00    -0.504 OA
ATOM     19  H   UNL     1      -9.460 -19.112 -12.902  1.00  0.00     0.293 HD
ENDBRANCH  15  18
BRANCH  17  20
ATOM     20  O   UNL     1      -5.876 -20.125 -12.041  1.00  0.00    -0.504 OA
ATOM     21  H   UNL     1      -5.925 -21.104 -12.284  1.00  0.00     0.293 HD
ENDBRANCH  17  20
ENDBRANCH   1  12
BRANCH   2  22
ATOM     22  O   UNL     1      -6.853 -20.125  -6.457  1.00  0.00    -0.502 OA
ATOM     23  H   UNL     1      -7.797 -20.268  -6.120  1.00  0.00     0.293 HD
ENDBRANCH   2  22
BRANCH   6  24
ATOM     24  O   UNL     1      -4.395 -17.043  -2.875  1.00  0.00    -0.507 OA
ATOM     25  H   UNL     1      -5.037 -16.729  -2.163  1.00  0.00     0.293 HD
ENDBRANCH   6  24
BRANCH   8  26
ATOM     26  O   UNL     1      -2.867 -13.493  -5.727  1.00  0.00    -0.508 OA
ATOM     27  H   UNL     1      -2.702 -12.873  -4.942  1.00  0.00     0.293 HD
ENDBRANCH   8  26
TORSDOF 6
ENDMDL
MODEL 7
REMARK VINA RESULT:    -1.804      4.417      7.066
REMARK INTER + INTRA:          -2.508
REMARK INTER:                  -2.970
REMARK INTRA:                   0.461
REMARK UNBOUND:                -0.335
REMARK SMILES O=c1c(O)c(-c2ccc(O)c(O)c2)oc2cc(O)cc(O)c12
REMARK SMILES IDX 5 1 3 2 2 3 1 4 22 5 20 6 19 7 17 8 16 9 15 10 14 11 6 12
REMARK SMILES IDX 7 13 8 14 9 15 13 16 11 17 10 18 12 20 4 22 21 24 18 26
REMARK H PARENT 10 19 12 21 4 23 21 25 18 27
REMARK Flexibility Score: inf
ROOT
ATOM      1  C   UNL     1      -4.160 -16.445  -3.325  1.00  0.00     0.180 A 
ATOM      2  C   UNL     1      -4.724 -17.701  -3.610  1.00  0.00     0.208 A 
ATOM      3  C   UNL     1      -6.117 -17.805  -3.751  1.00  0.00     0.238 A 
ATOM      4  O   UNL     1      -6.620 -18.941  -3.951  1.00  0.00    -0.285 OA
ATOM      5  C   UNL     1      -6.926 -16.651  -3.623  1.00  0.00     0.111 A 
ATOM      6  C   UNL     1      -8.344 -16.634  -3.787  1.00  0.00     0.134 A 
ATOM      7  C   UNL     1      -9.058 -15.461  -3.508  1.00  0.00     0.093 A 
ATOM      8  C   UNL     1      -8.396 -14.287  -3.137  1.00  0.00     0.123 A 
ATOM      9  C   UNL     1      -7.008 -14.279  -3.032  1.00  0.00     0.094 A 
ATOM     10  C   UNL     1      -6.272 -15.443  -3.268  1.00  0.00     0.146 A 
ATOM     11  O   UNL     1      -4.951 -15.394  -3.147  1.00  0.00    -0.452 OA
ENDROOT
BRANCH   1  12
ATOM     12  C   UNL     1      -2.697 -16.250  -3.188  1.00  0.00     0.025 A 
ATOM     13  C   UNL     1      -1.810 -17.337  -3.211  1.00  0.00     0.016 A 
ATOM     14  C   UNL     1      -0.435 -17.126  -3.102  1.00  0.00     0.051 A 
ATOM     15  C   UNL     1       0.083 -15.832  -2.984  1.00  0.00     0.157 A 
ATOM     16  C   UNL     1      -2.180 -14.949  -3.090  1.00  0.00     0.062 A 
ATOM     17  C   UNL     1      -0.801 -14.728  -2.982  1.00  0.00     0.158 A 
BRANCH  15  18
ATOM     18  O   UNL     1       1.469 -15.691  -2.875  1.00  0.00    -0.504 OA
ATOM     19  H   UNL     1       2.058 -16.307  -2.333  1.00  0.00     0.293 HD
ENDBRANCH  15  18
BRANCH  17  20
ATOM     20  O   UNL     1      -0.359 -13.408  -2.876  1.00  0.00    -0.504 OA
ATOM     21  H   UNL     1      -0.689 -12.654  -3.461  1.00  0.00     0.293 HD
ENDBRANCH  17  20
ENDBRANCH   1  12
BRANCH   2  22
ATOM     22  O   UNL     1      -3.908 -18.831  -3.711  1.00  0.00    -0.502 OA
ATOM     23  H   UNL     1      -3.353 -19.172  -2.935  1.00  0.00     0.293 HD
ENDBRANCH   2  22
BRANCH   6  24
ATOM     24  O   UNL     1      -9.090 -17.724  -4.243  1.00  0.00    -0.507 OA
ATOM     25  H   UNL     1      -8.905 -18.232  -5.094  1.00  0.00     0.293 HD
ENDBRANCH   6  24
BRANCH   8  26
ATOM     26  O   UNL     1      -9.112 -13.121  -2.877  1.00  0.00    -0.508 OA
ATOM     27  H   UNL     1      -8.897 -12.250  -3.350  1.00  0.00     0.293 HD
ENDBRANCH   8  26
TORSDOF 6
ENDMDL
MODEL 8
REMARK VINA RESULT:    -1.574      1.910      3.290
REMARK INTER + INTRA:          -2.230
REMARK INTER:                  -2.498
REMARK INTRA:                   0.267
REMARK UNBOUND:                -0.335
REMARK SMILES O=c1c(O)c(-c2ccc(O)c(O)c2)oc2cc(O)cc(O)c12
REMARK SMILES IDX 5 1 3 2 2 3 1 4 22 5 20 6 19 7 17 8 16 9 15 10 14 11 6 12
REMARK SMILES IDX 7 13 8 14 9 15 13 16 11 17 10 18 12 20 4 22 21 24 18 26
REMARK H PARENT 10 19 12 21 4 23 21 25 18 27
REMARK Flexibility Score: inf
ROOT
ATOM      1  C   UNL     1      -5.702 -17.554  -7.151  1.00  0.00     0.180 A 
ATOM      2  C   UNL     1      -6.979 -17.395  -6.586  1.00  0.00     0.208 A 
ATOM      3  C   UNL     1      -7.103 -16.713  -5.365  1.00  0.00     0.238 A 
ATOM      4  O   UNL     1      -8.242 -16.622  -4.837  1.00  0.00    -0.285 OA
ATOM      5  C   UNL     1      -5.953 -16.184  -4.733  1.00  0.00     0.111 A 
ATOM      6  C   UNL     1      -5.967 -15.439  -3.515  1.00  0.00     0.134 A 
ATOM      7  C   UNL     1      -4.755 -15.077  -2.912  1.00  0.00     0.093 A 
ATOM      8  C   UNL     1      -3.532 -15.374  -3.520  1.00  0.00     0.123 A 
ATOM      9  C   UNL     1      -3.510 -16.048  -4.739  1.00  0.00     0.094 A 
ATOM     10  C   UNL     1      -4.702 -16.454  -5.345  1.00  0.00     0.146 A 
ATOM     11  O   UNL     1      -4.635 -17.103  -6.502  1.00  0.00    -0.452 OA
ENDROOT
BRANCH   1  12
ATOM     12  C   UNL     1      -5.494 -18.238  -8.448  1.00  0.00     0.025 A 
ATOM     13  C   UNL     1      -6.492 -18.255  -9.434  1.00  0.00     0.016 A 
ATOM     14  C   UNL     1      -6.263 -18.887 -10.657  1.00  0.00     0.051 A 
ATOM     15  C   UNL     1      -5.035 -19.501 -10.926  1.00  0.00     0.157 A 
ATOM     16  C   UNL     1      -4.253 -18.835  -8.723  1.00  0.00     0.062 A 
ATOM     17  C   UNL     1      -4.014 -19.471  -9.947  1.00  0.00     0.158 A 
BRANCH  15  18
ATOM     18  O   UNL     1      -4.872 -20.120 -12.168  1.00  0.00    -0.504 OA
ATOM     19  H   UNL     1      -4.317 -20.950 -12.317  1.00  0.00     0.293 HD
ENDBRANCH  15  18
BRANCH  17  20
ATOM     20  O   UNL     1      -2.761 -20.053 -10.146  1.00  0.00    -0.504 OA
ATOM     21  H   UNL     1      -2.301 -20.109 -11.043  1.00  0.00     0.293 HD
ENDBRANCH  17  20
ENDBRANCH   1  12
BRANCH   2  22
ATOM     22  O   UNL     1      -8.100 -17.944  -7.215  1.00  0.00    -0.502 OA
ATOM     23  H   UNL     1      -8.043 -18.763  -7.809  1.00  0.00     0.293 HD
ENDBRANCH   2  22
BRANCH   6  24
ATOM     24  O   UNL     1      -7.134 -15.012  -2.875  1.00  0.00    -0.507 OA
ATOM     25  H   UNL     1      -7.443 -15.331  -1.970  1.00  0.00     0.293 HD
ENDBRANCH   6  24
BRANCH   8  26
ATOM     26  O   UNL     1      -2.332 -14.996  -2.923  1.00  0.00    -0.508 OA
ATOM     27  H   UNL     1      -1.751 -14.264  -3.316  1.00  0.00     0.293 HD
ENDBRANCH   8  26
TORSDOF 6
ENDMDL
