MODEL 1
REMARK VINA RESULT:    -4.556      0.000      0.000
REMARK INTER + INTRA:          -9.762
REMARK INTER:                  -7.752
REMARK INTRA:                  -2.011
REMARK UNBOUND:                -2.011
REMARK SMILES CCCCCCCCCCCCCC(=O)[O-]
REMARK SMILES IDX 8 1 9 2 10 3 11 4 12 5 13 6 14 7 15 8 16 9 7 10 6 11 5 12
REMARK SMILES IDX 4 13 3 14 2 15 1 16
REMARK H PARENT
REMARK Flexibility Score: inf
ROOT
ATOM      1  C   UNL     1      61.717  29.355  13.775  1.00  0.00     0.000 C 
ENDROOT
BRANCH   1   2
ATOM      2  C   UNL     1      63.175  28.991  13.440  1.00  0.00     0.000 C 
BRANCH   2   3
ATOM      3  C   UNL     1      64.153  30.181  13.413  1.00  0.00     0.000 C 
BRANCH   3   4
ATOM      4  C   UNL     1      63.584  31.439  14.091  1.00  0.00     0.000 C 
BRANCH   4   5
ATOM      5  C   UNL     1      63.318  32.578  13.094  1.00  0.00     0.006 C 
BRANCH   5   6
ATOM      6  C   UNL     1      61.823  32.881  12.933  1.00  0.00     0.053 C 
BRANCH   6   7
ATOM      7  C   UNL     1      61.201  33.164  14.264  1.00  0.00     0.041 C 
ATOM      8  O   UNL     1      60.272  32.432  14.697  1.00  0.00    -0.550 OA
ATOM      9  O   UNL     1      61.681  34.205  15.049  1.00  0.00    -0.550 OA
ENDBRANCH   6   7
ENDBRANCH   5   6
ENDBRANCH   4   5
ENDBRANCH   3   4
ENDBRANCH   2   3
ENDBRANCH   1   2
BRANCH   1  10
ATOM     10  C   UNL     1      60.737  29.003  12.642  1.00  0.00     0.000 C 
BRANCH  10  11
ATOM     11  C   UNL     1      61.432  28.888  11.276  1.00  0.00    -0.000 C 
BRANCH  11  12
ATOM     12  C   UNL     1      61.353  30.186  10.457  1.00  0.00    -0.000 C 
BRANCH  12  13
ATOM     13  C   UNL     1      62.508  30.268   9.448  1.00  0.00    -0.000 C 
BRANCH  13  14
ATOM     14  C   UNL     1      63.681  29.334   9.800  1.00  0.00    -0.000 C 
BRANCH  14  15
ATOM     15  C   UNL     1      65.061  29.823   9.326  1.00  0.00    -0.003 C 
ATOM     16  C   UNL     1      65.535  31.078  10.058  1.00  0.00     0.004 C 
ENDBRANCH  14  15
ENDBRANCH  13  14
ENDBRANCH  12  13
ENDBRANCH  11  12
ENDBRANCH  10  11
ENDBRANCH   1  10
TORSDOF 12
ENDMDL
MODEL 2
REMARK VINA RESULT:    -4.468      1.174      1.985
REMARK INTER + INTRA:          -9.614
REMARK INTER:                  -7.708
REMARK INTRA:                  -1.905
REMARK UNBOUND:                -2.011
REMARK SMILES CCCCCCCCCCCCCC(=O)[O-]
REMARK SMILES IDX 8 1 9 2 10 3 11 4 12 5 13 6 14 7 15 8 16 9 7 10 6 11 5 12
REMARK SMILES IDX 4 13 3 14 2 15 1 16
REMARK H PARENT
REMARK Flexibility Score: inf
ROOT
ATOM      1  C   UNL     1      63.179  29.149  13.213  1.00  0.00     0.000 C 
ENDROOT
BRANCH   1   2
ATOM      2  C   UNL     1      64.139  30.352  13.254  1.00  0.00     0.000 C 
BRANCH   2   3
ATOM      3  C   UNL     1      63.685  31.577  12.438  1.00  0.00     0.000 C 
BRANCH   3   4
ATOM      4  C   UNL     1      63.502  32.836  13.302  1.00  0.00     0.000 C 
BRANCH   4   5
ATOM      5  C   UNL     1      62.022  33.172  13.551  1.00  0.00     0.006 C 
BRANCH   5   6
ATOM      6  C   UNL     1      61.584  32.868  14.989  1.00  0.00     0.053 C 
BRANCH   6   7
ATOM      7  C   UNL     1      62.040  33.952  15.914  1.00  0.00     0.041 C 
ATOM      8  O   UNL     1      61.361  35.005  16.038  1.00  0.00    -0.550 OA
ATOM      9  O   UNL     1      63.189  33.779  16.675  1.00  0.00    -0.550 OA
ENDBRANCH   6   7
ENDBRANCH   5   6
ENDBRANCH   4   5
ENDBRANCH   3   4
ENDBRANCH   2   3
ENDBRANCH   1   2
BRANCH   1  10
ATOM     10  C   UNL     1      61.819  29.446  13.867  1.00  0.00     0.000 C 
BRANCH  10  11
ATOM     11  C   UNL     1      60.647  29.303  12.882  1.00  0.00    -0.000 C 
BRANCH  11  12
ATOM     12  C   UNL     1      61.105  28.943  11.460  1.00  0.00    -0.000 C 
BRANCH  12  13
ATOM     13  C   UNL     1      60.875  30.116  10.497  1.00  0.00    -0.000 C 
BRANCH  13  14
ATOM     14  C   UNL     1      61.971  30.233   9.421  1.00  0.00    -0.000 C 
BRANCH  14  15
ATOM     15  C   UNL     1      62.880  28.998   9.288  1.00  0.00    -0.003 C 
ATOM     16  C   UNL     1      64.345  29.298   9.602  1.00  0.00     0.004 C 
ENDBRANCH  14  15
ENDBRANCH  13  14
ENDBRANCH  12  13
ENDBRANCH  11  12
ENDBRANCH  10  11
ENDBRANCH   1  10
TORSDOF 12
ENDMDL
MODEL 3
REMARK VINA RESULT:    -4.393      1.320      3.244
REMARK INTER + INTRA:          -9.486
REMARK INTER:                  -7.811
REMARK INTRA:                  -1.676
REMARK UNBOUND:                -2.011
REMARK SMILES CCCCCCCCCCCCCC(=O)[O-]
REMARK SMILES IDX 8 1 9 2 10 3 11 4 12 5 13 6 14 7 15 8 16 9 7 10 6 11 5 12
REMARK SMILES IDX 4 13 3 14 2 15 1 16
REMARK H PARENT
REMARK Flexibility Score: inf
ROOT
ATOM      1  C   UNL     1      64.438  29.765  11.223  1.00  0.00     0.000 C 
ENDROOT
BRANCH   1   2
ATOM      2  C   UNL     1      64.197  31.264  11.477  1.00  0.00     0.000 C 
BRANCH   2   3
ATOM      3  C   UNL     1      64.103  31.667  12.961  1.00  0.00     0.000 C 
BRANCH   3   4
ATOM      4  C   UNL     1      63.445  33.042  13.167  1.00  0.00     0.000 C 
BRANCH   4   5
ATOM      5  C   UNL     1      61.919  32.949  13.325  1.00  0.00     0.006 C 
BRANCH   5   6
ATOM      6  C   UNL     1      61.421  33.605  14.619  1.00  0.00     0.053 C 
BRANCH   6   7
ATOM      7  C   UNL     1      61.950  32.874  15.812  1.00  0.00     0.041 C 
ATOM      8  O   UNL     1      62.445  33.513  16.778  1.00  0.00    -0.550 OA
ATOM      9  O   UNL     1      61.851  31.490  15.880  1.00  0.00    -0.550 OA
ENDBRANCH   6   7
ENDBRANCH   5   6
ENDBRANCH   4   5
ENDBRANCH   3   4
ENDBRANCH   2   3
ENDBRANCH   1   2
BRANCH   1  10
ATOM     10  C   UNL     1      64.148  29.350   9.771  1.00  0.00     0.000 C 
BRANCH  10  11
ATOM     11  C   UNL     1      62.778  29.843   9.278  1.00  0.00    -0.000 C 
BRANCH  11  12
ATOM     12  C   UNL     1      61.703  28.745   9.314  1.00  0.00    -0.000 C 
BRANCH  12  13
ATOM     13  C   UNL     1      60.410  29.267   9.957  1.00  0.00    -0.000 C 
BRANCH  13  14
ATOM     14  C   UNL     1      60.648  29.951  11.315  1.00  0.00    -0.000 C 
BRANCH  14  15
ATOM     15  C   UNL     1      60.421  29.050  12.542  1.00  0.00    -0.003 C 
ATOM     16  C   UNL     1      61.648  28.951  13.447  1.00  0.00     0.004 C 
ENDBRANCH  14  15
ENDBRANCH  13  14
ENDBRANCH  12  13
ENDBRANCH  11  12
ENDBRANCH  10  11
ENDBRANCH   1  10
TORSDOF 12
ENDMDL
MODEL 4
REMARK VINA RESULT:    -4.382      2.090      5.093
REMARK INTER + INTRA:          -9.466
REMARK INTER:                  -8.008
REMARK INTRA:                  -1.458
REMARK UNBOUND:                -2.011
REMARK SMILES CCCCCCCCCCCCCC(=O)[O-]
REMARK SMILES IDX 8 1 9 2 10 3 11 4 12 5 13 6 14 7 15 8 16 9 7 10 6 11 5 12
REMARK SMILES IDX 4 13 3 14 2 15 1 16
REMARK H PARENT
REMARK Flexibility Score: inf
ROOT
ATOM      1  C   UNL     1      64.358  29.740  11.146  1.00  0.00     0.000 C 
ENDROOT
BRANCH   1   2
ATOM      2  C   UNL     1      64.268  29.385   9.650  1.00  0.00     0.000 C 
BRANCH   2   3
ATOM      3  C   UNL     1      62.838  29.211   9.107  1.00  0.00     0.000 C 
BRANCH   3   4
ATOM      4  C   UNL     1      61.873  28.613  10.145  1.00  0.00     0.000 C 
BRANCH   4   5
ATOM      5  C   UNL     1      60.617  29.476  10.349  1.00  0.00     0.006 C 
BRANCH   5   6
ATOM      6  C   UNL     1      60.595  30.169  11.717  1.00  0.00     0.053 C 
BRANCH   6   7
ATOM      7  C   UNL     1      60.514  29.156  12.814  1.00  0.00     0.041 C 
ATOM      8  O   UNL     1      59.486  28.440  12.940  1.00  0.00    -0.550 OA
ATOM      9  O   UNL     1      61.594  28.968  13.668  1.00  0.00    -0.550 OA
ENDBRANCH   6   7
ENDBRANCH   5   6
ENDBRANCH   4   5
ENDBRANCH   3   4
ENDBRANCH   2   3
ENDBRANCH   1   2
BRANCH   1  10
ATOM     10  C   UNL     1      64.447  31.255  11.398  1.00  0.00     0.000 C 
BRANCH  10  11
ATOM     11  C   UNL     1      63.667  31.692  12.648  1.00  0.00    -0.000 C 
BRANCH  11  12
ATOM     12  C   UNL     1      64.090  33.078  13.159  1.00  0.00    -0.000 C 
BRANCH  12  13
ATOM     13  C   UNL     1      63.105  33.596  14.217  1.00  0.00    -0.000 C 
BRANCH  13  14
ATOM     14  C   UNL     1      61.634  33.483  13.776  1.00  0.00    -0.000 C 
BRANCH  14  15
ATOM     15  C   UNL     1      60.754  32.603  14.681  1.00  0.00    -0.003 C 
ATOM     16  C   UNL     1      61.521  31.998  15.856  1.00  0.00     0.004 C 
ENDBRANCH  14  15
ENDBRANCH  13  14
ENDBRANCH  12  13
ENDBRANCH  11  12
ENDBRANCH  10  11
ENDBRANCH   1  10
TORSDOF 12
ENDMDL
MODEL 5
REMARK VINA RESULT:    -4.295      2.632      4.772
REMARK INTER + INTRA:          -9.318
REMARK INTER:                  -7.647
REMARK INTRA:                  -1.671
REMARK UNBOUND:                -2.011
REMARK SMILES CCCCCCCCCCCCCC(=O)[O-]
REMARK SMILES IDX 8 1 9 2 10 3 11 4 12 5 13 6 14 7 15 8 16 9 7 10 6 11 5 12
REMARK SMILES IDX 4 13 3 14 2 15 1 16
REMARK H PARENT
REMARK Flexibility Score: inf
ROOT
ATOM      1  C   UNL     1      61.478  29.858  13.141  1.00  0.00     0.000 C 
ENDROOT
BRANCH   1   2
ATOM      2  C   UNL     1      62.879  29.908  13.778  1.00  0.00     0.000 C 
BRANCH   2   3
ATOM      3  C   UNL     1      64.018  29.374  12.890  1.00  0.00     0.000 C 
BRANCH   3   4
ATOM      4  C   UNL     1      64.290  30.266  11.666  1.00  0.00     0.000 C 
BRANCH   4   5
ATOM      5  C   UNL     1      64.087  29.522  10.336  1.00  0.00     0.006 C 
BRANCH   5   6
ATOM      6  C   UNL     1      63.053  30.204   9.432  1.00  0.00     0.053 C 
BRANCH   6   7
ATOM      7  C   UNL     1      61.766  29.440   9.441  1.00  0.00     0.041 C 
ATOM      8  O   UNL     1      61.765  28.205   9.686  1.00  0.00    -0.550 OA
ATOM      9  O   UNL     1      60.564  30.101   9.228  1.00  0.00    -0.550 OA
ENDBRANCH   6   7
ENDBRANCH   5   6
ENDBRANCH   4   5
ENDBRANCH   3   4
ENDBRANCH   2   3
ENDBRANCH   1   2
BRANCH   1  10
ATOM     10  C   UNL     1      60.998  31.231  12.643  1.00  0.00     0.000 C 
BRANCH  10  11
ATOM     11  C   UNL     1      60.680  32.199  13.795  1.00  0.00    -0.000 C 
BRANCH  11  12
ATOM     12  C   UNL     1      61.474  33.512  13.704  1.00  0.00    -0.000 C 
BRANCH  12  13
ATOM     13  C   UNL     1      62.200  33.806  15.025  1.00  0.00    -0.000 C 
BRANCH  13  14
ATOM     14  C   UNL     1      63.728  33.651  14.918  1.00  0.00    -0.000 C 
BRANCH  14  15
ATOM     15  C   UNL     1      64.249  33.353  13.501  1.00  0.00    -0.003 C 
ATOM     16  C   UNL     1      65.751  33.595  13.352  1.00  0.00     0.004 C 
ENDBRANCH  14  15
ENDBRANCH  13  14
ENDBRANCH  12  13
ENDBRANCH  11  12
ENDBRANCH  10  11
ENDBRANCH   1  10
TORSDOF 12
ENDMDL
MODEL 6
REMARK VINA RESULT:    -4.281      1.807      3.757
REMARK INTER + INTRA:          -9.295
REMARK INTER:                  -7.881
REMARK INTRA:                  -1.413
REMARK UNBOUND:                -2.011
REMARK SMILES CCCCCCCCCCCCCC(=O)[O-]
REMARK SMILES IDX 8 1 9 2 10 3 11 4 12 5 13 6 14 7 15 8 16 9 7 10 6 11 5 12
REMARK SMILES IDX 4 13 3 14 2 15 1 16
REMARK H PARENT
REMARK Flexibility Score: inf
ROOT
ATOM      1  C   UNL     1      64.383  31.878  11.843  1.00  0.00     0.000 C 
ENDROOT
BRANCH   1   2
ATOM      2  C   UNL     1      63.608  32.441  13.048  1.00  0.00     0.000 C 
BRANCH   2   3
ATOM      3  C   UNL     1      62.087  32.574  12.841  1.00  0.00     0.000 C 
BRANCH   3   4
ATOM      4  C   UNL     1      61.422  33.503  13.871  1.00  0.00     0.000 C 
BRANCH   4   5
ATOM      5  C   UNL     1      61.885  33.217  15.309  1.00  0.00     0.006 C 
BRANCH   5   6
ATOM      6  C   UNL     1      61.763  34.444  16.221  1.00  0.00     0.053 C 
BRANCH   6   7
ATOM      7  C   UNL     1      62.946  34.538  17.131  1.00  0.00     0.041 C 
ATOM      8  O   UNL     1      64.024  33.960  16.830  1.00  0.00    -0.550 OA
ATOM      9  O   UNL     1      62.875  35.304  18.288  1.00  0.00    -0.550 OA
ENDBRANCH   6   7
ENDBRANCH   5   6
ENDBRANCH   4   5
ENDBRANCH   3   4
ENDBRANCH   2   3
ENDBRANCH   1   2
BRANCH   1  10
ATOM     10  C   UNL     1      64.380  30.341  11.794  1.00  0.00     0.000 C 
BRANCH  10  11
ATOM     11  C   UNL     1      64.216  29.796  10.366  1.00  0.00    -0.000 C 
BRANCH  11  12
ATOM     12  C   UNL     1      62.765  29.867   9.865  1.00  0.00    -0.000 C 
BRANCH  12  13
ATOM     13  C   UNL     1      61.873  28.876  10.627  1.00  0.00    -0.000 C 
BRANCH  13  14
ATOM     14  C   UNL     1      60.608  29.532  11.209  1.00  0.00    -0.000 C 
BRANCH  14  15
ATOM     15  C   UNL     1      60.309  29.171  12.675  1.00  0.00    -0.003 C 
ATOM     16  C   UNL     1      61.572  28.938  13.504  1.00  0.00     0.004 C 
ENDBRANCH  14  15
ENDBRANCH  13  14
ENDBRANCH  12  13
ENDBRANCH  11  12
ENDBRANCH  10  11
ENDBRANCH   1  10
TORSDOF 12
ENDMDL
MODEL 7
REMARK VINA RESULT:    -4.253     12.438     14.654
REMARK INTER + INTRA:          -9.248
REMARK INTER:                  -7.252
REMARK INTRA:                  -1.996
REMARK UNBOUND:                -2.011
REMARK SMILES CCCCCCCCCCCCCC(=O)[O-]
REMARK SMILES IDX 8 1 9 2 10 3 11 4 12 5 13 6 14 7 15 8 16 9 7 10 6 11 5 12
REMARK SMILES IDX 4 13 3 14 2 15 1 16
REMARK H PARENT
REMARK Flexibility Score: inf
ROOT
ATOM      1  C   UNL     1      64.064  30.168  25.489  1.00  0.00     0.000 C 
ENDROOT
BRANCH   1   2
ATOM      2  C   UNL     1      65.166  29.237  24.950  1.00  0.00     0.000 C 
BRANCH   2   3
ATOM      3  C   UNL     1      65.924  28.435  26.024  1.00  0.00     0.000 C 
BRANCH   3   4
ATOM      4  C   UNL     1      65.884  26.917  25.776  1.00  0.00     0.000 C 
BRANCH   4   5
ATOM      5  C   UNL     1      65.427  26.563  24.352  1.00  0.00     0.006 C 
BRANCH   5   6
ATOM      6  C   UNL     1      66.573  26.031  23.482  1.00  0.00     0.053 C 
BRANCH   6   7
ATOM      7  C   UNL     1      66.998  27.065  22.488  1.00  0.00     0.041 C 
ATOM      8  O   UNL     1      67.707  28.039  22.852  1.00  0.00    -0.550 OA
ATOM      9  O   UNL     1      66.651  26.926  21.150  1.00  0.00    -0.550 OA
ENDBRANCH   6   7
ENDBRANCH   5   6
ENDBRANCH   4   5
ENDBRANCH   3   4
ENDBRANCH   2   3
ENDBRANCH   1   2
BRANCH   1  10
ATOM     10  C   UNL     1      62.658  29.774  25.007  1.00  0.00     0.000 C 
BRANCH  10  11
ATOM     11  C   UNL     1      62.294  28.325  25.370  1.00  0.00    -0.000 C 
BRANCH  11  12
ATOM     12  C   UNL     1      61.663  28.203  26.766  1.00  0.00    -0.000 C 
BRANCH  12  13
ATOM     13  C   UNL     1      62.630  27.525  27.747  1.00  0.00    -0.000 C 
BRANCH  13  14
ATOM     14  C   UNL     1      63.285  28.516  28.726  1.00  0.00    -0.000 C 
BRANCH  14  15
ATOM     15  C   UNL     1      62.485  29.808  28.971  1.00  0.00    -0.003 C 
ATOM     16  C   UNL     1      63.365  31.055  29.036  1.00  0.00     0.004 C 
ENDBRANCH  14  15
ENDBRANCH  13  14
ENDBRANCH  12  13
ENDBRANCH  11  12
ENDBRANCH  10  11
ENDBRANCH   1  10
TORSDOF 12
ENDMDL
MODEL 8
REMARK VINA RESULT:    -4.240     12.785     15.016
REMARK INTER + INTRA:          -9.225
REMARK INTER:                  -7.392
REMARK INTRA:                  -1.833
REMARK UNBOUND:                -2.011
REMARK SMILES CCCCCCCCCCCCCC(=O)[O-]
REMARK SMILES IDX 8 1 9 2 10 3 11 4 12 5 13 6 14 7 15 8 16 9 7 10 6 11 5 12
REMARK SMILES IDX 4 13 3 14 2 15 1 16
REMARK H PARENT
REMARK Flexibility Score: inf
ROOT
ATOM      1  C   UNL     1      64.029  30.851  26.455  1.00  0.00     0.000 C 
ENDROOT
BRANCH   1   2
ATOM      2  C   UNL     1      64.870  29.949  25.533  1.00  0.00     0.000 C 
BRANCH   2   3
ATOM      3  C   UNL     1      66.042  29.226  26.221  1.00  0.00     0.000 C 
BRANCH   3   4
ATOM      4  C   UNL     1      66.582  28.044  25.398  1.00  0.00     0.000 C 
BRANCH   4   5
ATOM      5  C   UNL     1      65.861  26.724  25.717  1.00  0.00     0.006 C 
BRANCH   5   6
ATOM      6  C   UNL     1      64.822  26.350  24.652  1.00  0.00     0.053 C 
BRANCH   6   7
ATOM      7  C   UNL     1      65.371  26.586  23.281  1.00  0.00     0.041 C 
ATOM      8  O   UNL     1      64.793  27.383  22.495  1.00  0.00    -0.550 OA
ATOM      9  O   UNL     1      66.549  25.965  22.887  1.00  0.00    -0.550 OA
ENDBRANCH   6   7
ENDBRANCH   5   6
ENDBRANCH   4   5
ENDBRANCH   3   4
ENDBRANCH   2   3
ENDBRANCH   1   2
BRANCH   1  10
ATOM     10  C   UNL     1      64.438  30.743  27.933  1.00  0.00     0.000 C 
BRANCH  10  11
ATOM     11  C   UNL     1      63.238  30.856  28.888  1.00  0.00    -0.000 C 
BRANCH  11  12
ATOM     12  C   UNL     1      62.251  29.688  28.743  1.00  0.00    -0.000 C 
BRANCH  12  13
ATOM     13  C   UNL     1      62.986  28.340  28.789  1.00  0.00    -0.000 C 
BRANCH  13  14
ATOM     14  C   UNL     1      62.728  27.472  27.544  1.00  0.00    -0.000 C 
BRANCH  14  15
ATOM     15  C   UNL     1      61.409  27.771  26.811  1.00  0.00    -0.003 C 
ATOM     16  C   UNL     1      61.616  28.224  25.366  1.00  0.00     0.004 C 
ENDBRANCH  14  15
ENDBRANCH  13  14
ENDBRANCH  12  13
ENDBRANCH  11  12
ENDBRANCH  10  11
ENDBRANCH   1  10
TORSDOF 12
ENDMDL
MODEL 9
REMARK VINA RESULT:    -4.231      1.129      2.706
REMARK INTER + INTRA:          -9.210
REMARK INTER:                  -7.615
REMARK INTRA:                  -1.596
REMARK UNBOUND:                -2.011
REMARK SMILES CCCCCCCCCCCCCC(=O)[O-]
REMARK SMILES IDX 8 1 9 2 10 3 11 4 12 5 13 6 14 7 15 8 16 9 7 10 6 11 5 12
REMARK SMILES IDX 4 13 3 14 2 15 1 16
REMARK H PARENT
REMARK Flexibility Score: inf
ROOT
ATOM      1  C   UNL     1      60.947  29.980  10.282  1.00  0.00     0.000 C 
ENDROOT
BRANCH   1   2
ATOM      2  C   UNL     1      61.205  30.525  11.699  1.00  0.00     0.000 C 
BRANCH   2   3
ATOM      3  C   UNL     1      61.230  29.461  12.812  1.00  0.00     0.000 C 
BRANCH   3   4
ATOM      4  C   UNL     1      62.421  29.627  13.771  1.00  0.00     0.000 C 
BRANCH   4   5
ATOM      5  C   UNL     1      62.070  30.474  15.006  1.00  0.00     0.006 C 
BRANCH   5   6
ATOM      6  C   UNL     1      62.509  31.936  14.860  1.00  0.00     0.053 C 
BRANCH   6   7
ATOM      7  C   UNL     1      61.335  32.804  14.535  1.00  0.00     0.041 C 
ATOM      8  O   UNL     1      61.507  33.918  13.974  1.00  0.00    -0.550 OA
ATOM      9  O   UNL     1      60.047  32.361  14.806  1.00  0.00    -0.550 OA
ENDBRANCH   6   7
ENDBRANCH   5   6
ENDBRANCH   4   5
ENDBRANCH   3   4
ENDBRANCH   2   3
ENDBRANCH   1   2
BRANCH   1  10
ATOM     10  C   UNL     1      61.735  28.694   9.983  1.00  0.00     0.000 C 
BRANCH  10  11
ATOM     11  C   UNL     1      62.968  28.948   9.100  1.00  0.00    -0.000 C 
BRANCH  11  12
ATOM     12  C   UNL     1      64.221  29.303   9.915  1.00  0.00    -0.000 C 
BRANCH  12  13
ATOM     13  C   UNL     1      65.053  30.377   9.199  1.00  0.00    -0.000 C 
BRANCH  13  14
ATOM     14  C   UNL     1      65.232  31.656  10.038  1.00  0.00    -0.000 C 
BRANCH  14  15
ATOM     15  C   UNL     1      64.658  31.579  11.464  1.00  0.00    -0.003 C 
ATOM     16  C   UNL     1      64.927  32.839  12.286  1.00  0.00     0.004 C 
ENDBRANCH  14  15
ENDBRANCH  13  14
ENDBRANCH  12  13
ENDBRANCH  11  12
ENDBRANCH  10  11
ENDBRANCH   1  10
TORSDOF 12
ENDMDL
