MODEL 1
REMARK VINA RESULT:    -3.730      0.000      0.000
REMARK INTER + INTRA:         -12.063
REMARK INTER:                  -9.400
REMARK INTRA:                  -2.663
REMARK UNBOUND:                -2.663
REMARK SMILES CCCCCCCCCCCCCCCCCCCCCCCCCCCC(=O)[O-]
REMARK SMILES IDX 15 1 16 2 17 3 18 4 19 5 20 6 21 7 22 8 23 9 24 10 25 11
REMARK SMILES IDX 26 12 27 13 28 14 29 15 30 16 14 17 13 18 12 19 11 20 10 21
REMARK SMILES IDX 9 22 8 23 7 24 6 25 5 26 4 27 3 28 2 29 1 30
REMARK H PARENT
REMARK Flexibility Score: inf
ROOT
ATOM      1  C   UNL     1       1.877  21.151  14.825  1.00  0.00     0.000 C 
ENDROOT
BRANCH   1   2
ATOM      2  C   UNL     1       2.527  20.043  15.672  1.00  0.00     0.000 C 
BRANCH   2   3
ATOM      3  C   UNL     1       3.172  18.946  14.810  1.00  0.00     0.000 C 
BRANCH   3   4
ATOM      4  C   UNL     1       4.679  18.789  15.074  1.00  0.00     0.000 C 
BRANCH   4   5
ATOM      5  C   UNL     1       5.318  17.693  14.207  1.00  0.00     0.000 C 
BRANCH   5   6
ATOM      6  C   UNL     1       5.092  16.283  14.781  1.00  0.00     0.000 C 
BRANCH   6   7
ATOM      7  C   UNL     1       5.495  15.173  13.801  1.00  0.00     0.000 C 
BRANCH   7   8
ATOM      8  C   UNL     1       4.321  14.243  13.445  1.00  0.00     0.000 C 
BRANCH   8   9
ATOM      9  C   UNL     1       3.804  14.469  12.015  1.00  0.00     0.000 C 
BRANCH   9  10
ATOM     10  C   UNL     1       2.694  15.533  11.951  1.00  0.00     0.000 C 
BRANCH  10  11
ATOM     11  C   UNL     1       2.803  16.422  10.702  1.00  0.00     0.000 C 
BRANCH  11  12
ATOM     12  C   UNL     1       3.182  15.623   9.441  1.00  0.00     0.006 C 
BRANCH  12  13
ATOM     13  C   UNL     1       3.534  16.538   8.261  1.00  0.00     0.053 C 
BRANCH  13  14
ATOM     14  C   UNL     1       5.016  16.675   8.085  1.00  0.00     0.041 C 
ATOM     15  O   UNL     1       5.593  16.117   7.115  1.00  0.00    -0.550 OA
ATOM     16  O   UNL     1       5.757  17.435   8.982  1.00  0.00    -0.550 OA
ENDBRANCH  13  14
ENDBRANCH  12  13
ENDBRANCH  11  12
ENDBRANCH  10  11
ENDBRANCH   9  10
ENDBRANCH   8   9
ENDBRANCH   7   8
ENDBRANCH   6   7
ENDBRANCH   5   6
ENDBRANCH   4   5
ENDBRANCH   3   4
ENDBRANCH   2   3
ENDBRANCH   1   2
BRANCH   1  17
ATOM     17  C   UNL     1       2.173  22.560  15.365  1.00  0.00     0.000 C 
BRANCH  17  18
ATOM     18  C   UNL     1       1.881  23.657  14.326  1.00  0.00     0.000 C 
BRANCH  18  19
ATOM     19  C   UNL     1       2.200  25.072  14.842  1.00  0.00     0.000 C 
BRANCH  19  20
ATOM     20  C   UNL     1       2.459  25.179  16.360  1.00  0.00     0.000 C 
BRANCH  20  21
ATOM     21  C   UNL     1       2.427  26.608  16.937  1.00  0.00     0.000 C 
BRANCH  21  22
ATOM     22  C   UNL     1       3.830  27.209  17.123  1.00  0.00    -0.000 C 
BRANCH  22  23
ATOM     23  C   UNL     1       4.947  26.155  17.020  1.00  0.00    -0.000 C 
BRANCH  23  24
ATOM     24  C   UNL     1       6.267  26.655  16.400  1.00  0.00    -0.000 C 
BRANCH  24  25
ATOM     25  C   UNL     1       6.669  25.972  15.078  1.00  0.00    -0.000 C 
BRANCH  25  26
ATOM     26  C   UNL     1       5.556  25.906  14.016  1.00  0.00    -0.000 C 
BRANCH  26  27
ATOM     27  C   UNL     1       5.306  27.256  13.329  1.00  0.00    -0.000 C 
BRANCH  27  28
ATOM     28  C   UNL     1       4.275  27.117  12.203  1.00  0.00    -0.000 C 
BRANCH  28  29
ATOM     29  C   UNL     1       3.019  27.941  12.503  1.00  0.00    -0.003 C 
ATOM     30  C   UNL     1       3.056  28.510  13.919  1.00  0.00     0.004 C 
ENDBRANCH  28  29
ENDBRANCH  27  28
ENDBRANCH  26  27
ENDBRANCH  25  26
ENDBRANCH  24  25
ENDBRANCH  23  24
ENDBRANCH  22  23
ENDBRANCH  21  22
ENDBRANCH  20  21
ENDBRANCH  19  20
ENDBRANCH  18  19
ENDBRANCH  17  18
ENDBRANCH   1  17
TORSDOF 26
ENDMDL
MODEL 2
REMARK VINA RESULT:    -3.522      1.197      2.093
REMARK INTER + INTRA:         -11.538
REMARK INTER:                  -8.309
REMARK INTRA:                  -3.229
REMARK UNBOUND:                -2.663
REMARK SMILES CCCCCCCCCCCCCCCCCCCCCCCCCCCC(=O)[O-]
REMARK SMILES IDX 15 1 16 2 17 3 18 4 19 5 20 6 21 7 22 8 23 9 24 10 25 11
REMARK SMILES IDX 26 12 27 13 28 14 29 15 30 16 14 17 13 18 12 19 11 20 10 21
REMARK SMILES IDX 9 22 8 23 7 24 6 25 5 26 4 27 3 28 2 29 1 30
REMARK H PARENT
REMARK Flexibility Score: inf
ROOT
ATOM      1  C   UNL     1       1.875  21.490  15.366  1.00  0.00     0.000 C 
ENDROOT
BRANCH   1   2
ATOM      2  C   UNL     1       3.038  20.718  14.717  1.00  0.00     0.000 C 
BRANCH   2   3
ATOM      3  C   UNL     1       3.615  19.636  15.644  1.00  0.00     0.000 C 
BRANCH   3   4
ATOM      4  C   UNL     1       3.250  18.211  15.195  1.00  0.00     0.000 C 
BRANCH   4   5
ATOM      5  C   UNL     1       3.934  17.816  13.876  1.00  0.00     0.000 C 
BRANCH   5   6
ATOM      6  C   UNL     1       5.393  17.372  14.081  1.00  0.00     0.000 C 
BRANCH   6   7
ATOM      7  C   UNL     1       5.637  15.921  13.643  1.00  0.00     0.000 C 
BRANCH   7   8
ATOM      8  C   UNL     1       4.376  15.047  13.762  1.00  0.00     0.000 C 
BRANCH   8   9
ATOM      9  C   UNL     1       4.072  14.272  12.470  1.00  0.00     0.000 C 
BRANCH   9  10
ATOM     10  C   UNL     1       2.876  14.858  11.698  1.00  0.00     0.000 C 
BRANCH  10  11
ATOM     11  C   UNL     1       3.266  16.079  10.850  1.00  0.00     0.000 C 
BRANCH  11  12
ATOM     12  C   UNL     1       4.058  15.691   9.588  1.00  0.00     0.006 C 
BRANCH  12  13
ATOM     13  C   UNL     1       4.913  16.851   9.062  1.00  0.00     0.053 C 
BRANCH  13  14
ATOM     14  C   UNL     1       4.164  17.694   8.075  1.00  0.00     0.041 C 
ATOM     15  O   UNL     1       4.217  17.426   6.846  1.00  0.00    -0.550 OA
ATOM     16  O   UNL     1       3.393  18.763   8.514  1.00  0.00    -0.550 OA
ENDBRANCH  13  14
ENDBRANCH  12  13
ENDBRANCH  11  12
ENDBRANCH  10  11
ENDBRANCH   9  10
ENDBRANCH   8   9
ENDBRANCH   7   8
ENDBRANCH   6   7
ENDBRANCH   5   6
ENDBRANCH   4   5
ENDBRANCH   3   4
ENDBRANCH   2   3
ENDBRANCH   1   2
BRANCH   1  17
ATOM     17  C   UNL     1       1.979  23.009  15.151  1.00  0.00     0.000 C 
BRANCH  17  18
ATOM     18  C   UNL     1       3.423  23.462  14.870  1.00  0.00     0.000 C 
BRANCH  18  19
ATOM     19  C   UNL     1       3.518  24.486  13.725  1.00  0.00     0.000 C 
BRANCH  19  20
ATOM     20  C   UNL     1       4.774  25.381  13.741  1.00  0.00     0.000 C 
BRANCH  20  21
ATOM     21  C   UNL     1       5.815  25.041  14.826  1.00  0.00     0.000 C 
BRANCH  21  22
ATOM     22  C   UNL     1       6.429  26.291  15.478  1.00  0.00    -0.000 C 
BRANCH  22  23
ATOM     23  C   UNL     1       5.831  26.592  16.865  1.00  0.00    -0.000 C 
BRANCH  23  24
ATOM     24  C   UNL     1       4.623  27.549  16.864  1.00  0.00    -0.000 C 
BRANCH  24  25
ATOM     25  C   UNL     1       3.252  26.872  16.671  1.00  0.00    -0.000 C 
BRANCH  25  26
ATOM     26  C   UNL     1       2.280  27.625  15.745  1.00  0.00    -0.000 C 
BRANCH  26  27
ATOM     27  C   UNL     1       3.001  28.477  14.690  1.00  0.00    -0.000 C 
BRANCH  27  28
ATOM     28  C   UNL     1       2.634  28.022  13.272  1.00  0.00    -0.000 C 
BRANCH  28  29
ATOM     29  C   UNL     1       3.573  28.644  12.234  1.00  0.00    -0.003 C 
ATOM     30  C   UNL     1       4.955  28.906  12.826  1.00  0.00     0.004 C 
ENDBRANCH  28  29
ENDBRANCH  27  28
ENDBRANCH  26  27
ENDBRANCH  25  26
ENDBRANCH  24  25
ENDBRANCH  23  24
ENDBRANCH  22  23
ENDBRANCH  21  22
ENDBRANCH  20  21
ENDBRANCH  19  20
ENDBRANCH  18  19
ENDBRANCH  17  18
ENDBRANCH   1  17
TORSDOF 26
ENDMDL
MODEL 3
REMARK VINA RESULT:    -3.459      1.545      3.104
REMARK INTER + INTRA:         -11.380
REMARK INTER:                  -9.130
REMARK INTRA:                  -2.250
REMARK UNBOUND:                -2.663
REMARK SMILES CCCCCCCCCCCCCCCCCCCCCCCCCCCC(=O)[O-]
REMARK SMILES IDX 15 1 16 2 17 3 18 4 19 5 20 6 21 7 22 8 23 9 24 10 25 11
REMARK SMILES IDX 26 12 27 13 28 14 29 15 30 16 14 17 13 18 12 19 11 20 10 21
REMARK SMILES IDX 9 22 8 23 7 24 6 25 5 26 4 27 3 28 2 29 1 30
REMARK H PARENT
REMARK Flexibility Score: inf
ROOT
ATOM      1  C   UNL     1       3.468  18.382  14.441  1.00  0.00     0.000 C 
ENDROOT
BRANCH   1   2
ATOM      2  C   UNL     1       4.984  18.395  14.706  1.00  0.00     0.000 C 
BRANCH   2   3
ATOM      3  C   UNL     1       5.648  17.047  14.383  1.00  0.00     0.000 C 
BRANCH   3   4
ATOM      4  C   UNL     1       4.981  16.323  13.200  1.00  0.00     0.000 C 
BRANCH   4   5
ATOM      5  C   UNL     1       5.029  14.794  13.345  1.00  0.00     0.000 C 
BRANCH   5   6
ATOM      6  C   UNL     1       3.776  14.229  14.038  1.00  0.00     0.000 C 
BRANCH   6   7
ATOM      7  C   UNL     1       2.477  14.857  13.516  1.00  0.00     0.000 C 
BRANCH   7   8
ATOM      8  C   UNL     1       2.102  14.357  12.110  1.00  0.00     0.000 C 
BRANCH   8   9
ATOM      9  C   UNL     1       2.004  15.499  11.085  1.00  0.00     0.000 C 
BRANCH   9  10
ATOM     10  C   UNL     1       2.686  15.154   9.750  1.00  0.00     0.000 C 
BRANCH  10  11
ATOM     11  C   UNL     1       3.494  16.331   9.181  1.00  0.00     0.000 C 
BRANCH  11  12
ATOM     12  C   UNL     1       3.600  16.286   7.646  1.00  0.00     0.006 C 
BRANCH  12  13
ATOM     13  C   UNL     1       3.837  17.676   7.041  1.00  0.00     0.053 C 
BRANCH  13  14
ATOM     14  C   UNL     1       3.604  17.687   5.561  1.00  0.00     0.041 C 
ATOM     15  O   UNL     1       2.717  18.432   5.065  1.00  0.00    -0.550 OA
ATOM     16  O   UNL     1       4.378  16.890   4.727  1.00  0.00    -0.550 OA
ENDBRANCH  13  14
ENDBRANCH  12  13
ENDBRANCH  11  12
ENDBRANCH  10  11
ENDBRANCH   9  10
ENDBRANCH   8   9
ENDBRANCH   7   8
ENDBRANCH   6   7
ENDBRANCH   5   6
ENDBRANCH   4   5
ENDBRANCH   3   4
ENDBRANCH   2   3
ENDBRANCH   1   2
BRANCH   1  17
ATOM     17  C   UNL     1       2.682  19.237  15.449  1.00  0.00     0.000 C 
BRANCH  17  18
ATOM     18  C   UNL     1       1.880  20.357  14.764  1.00  0.00     0.000 C 
BRANCH  18  19
ATOM     19  C   UNL     1       1.920  21.685  15.541  1.00  0.00     0.000 C 
BRANCH  19  20
ATOM     20  C   UNL     1       2.116  22.950  14.680  1.00  0.00     0.000 C 
BRANCH  20  21
ATOM     21  C   UNL     1       2.366  24.253  15.463  1.00  0.00     0.000 C 
BRANCH  21  22
ATOM     22  C   UNL     1       2.193  25.514  14.600  1.00  0.00    -0.000 C 
BRANCH  22  23
ATOM     23  C   UNL     1       3.273  25.639  13.509  1.00  0.00    -0.000 C 
BRANCH  23  24
ATOM     24  C   UNL     1       4.635  25.008  13.859  1.00  0.00    -0.000 C 
BRANCH  24  25
ATOM     25  C   UNL     1       5.808  26.003  13.967  1.00  0.00    -0.000 C 
BRANCH  25  26
ATOM     26  C   UNL     1       6.665  25.861  15.237  1.00  0.00    -0.000 C 
BRANCH  26  27
ATOM     27  C   UNL     1       5.970  26.413  16.490  1.00  0.00    -0.000 C 
BRANCH  27  28
ATOM     28  C   UNL     1       5.069  27.603  16.140  1.00  0.00    -0.000 C 
BRANCH  28  29
ATOM     29  C   UNL     1       3.835  27.645  17.047  1.00  0.00    -0.003 C 
ATOM     30  C   UNL     1       2.900  28.785  16.655  1.00  0.00     0.004 C 
ENDBRANCH  28  29
ENDBRANCH  27  28
ENDBRANCH  26  27
ENDBRANCH  25  26
ENDBRANCH  24  25
ENDBRANCH  23  24
ENDBRANCH  22  23
ENDBRANCH  21  22
ENDBRANCH  20  21
ENDBRANCH  19  20
ENDBRANCH  18  19
ENDBRANCH  17  18
ENDBRANCH   1  17
TORSDOF 26
ENDMDL
MODEL 4
REMARK VINA RESULT:    -3.355      1.271      2.497
REMARK INTER + INTRA:         -11.118
REMARK INTER:                  -8.706
REMARK INTRA:                  -2.412
REMARK UNBOUND:                -2.663
REMARK SMILES CCCCCCCCCCCCCCCCCCCCCCCCCCCC(=O)[O-]
REMARK SMILES IDX 15 1 16 2 17 3 18 4 19 5 20 6 21 7 22 8 23 9 24 10 25 11
REMARK SMILES IDX 26 12 27 13 28 14 29 15 30 16 14 17 13 18 12 19 11 20 10 21
REMARK SMILES IDX 9 22 8 23 7 24 6 25 5 26 4 27 3 28 2 29 1 30
REMARK H PARENT
REMARK Flexibility Score: inf
ROOT
ATOM      1  C   UNL     1       4.265  19.348  14.839  1.00  0.00     0.000 C 
ENDROOT
BRANCH   1   2
ATOM      2  C   UNL     1       5.177  18.156  15.181  1.00  0.00     0.000 C 
BRANCH   2   3
ATOM      3  C   UNL     1       5.854  17.558  13.937  1.00  0.00     0.000 C 
BRANCH   3   4
ATOM      4  C   UNL     1       5.590  16.050  13.782  1.00  0.00     0.000 C 
BRANCH   4   5
ATOM      5  C   UNL     1       4.656  15.501  14.871  1.00  0.00     0.000 C 
BRANCH   5   6
ATOM      6  C   UNL     1       3.756  14.363  14.356  1.00  0.00     0.000 C 
BRANCH   6   7
ATOM      7  C   UNL     1       2.289  14.788  14.211  1.00  0.00     0.000 C 
BRANCH   7   8
ATOM      8  C   UNL     1       1.919  15.152  12.763  1.00  0.00     0.000 C 
BRANCH   8   9
ATOM      9  C   UNL     1       3.052  14.842  11.771  1.00  0.00     0.000 C 
BRANCH   9  10
ATOM     10  C   UNL     1       2.863  15.554  10.419  1.00  0.00     0.000 C 
BRANCH  10  11
ATOM     11  C   UNL     1       3.736  16.813  10.292  1.00  0.00     0.000 C 
BRANCH  11  12
ATOM     12  C   UNL     1       4.672  16.761   9.071  1.00  0.00     0.006 C 
BRANCH  12  13
ATOM     13  C   UNL     1       4.377  15.557   8.167  1.00  0.00     0.053 C 
BRANCH  13  14
ATOM     14  C   UNL     1       3.929  15.982   6.801  1.00  0.00     0.041 C 
ATOM     15  O   UNL     1       3.368  17.097   6.638  1.00  0.00    -0.550 OA
ATOM     16  O   UNL     1       4.149  15.154   5.706  1.00  0.00    -0.550 OA
ENDBRANCH  13  14
ENDBRANCH  12  13
ENDBRANCH  11  12
ENDBRANCH  10  11
ENDBRANCH   9  10
ENDBRANCH   8   9
ENDBRANCH   7   8
ENDBRANCH   6   7
ENDBRANCH   5   6
ENDBRANCH   4   5
ENDBRANCH   3   4
ENDBRANCH   2   3
ENDBRANCH   1   2
BRANCH   1  17
ATOM     17  C   UNL     1       2.919  19.296  15.580  1.00  0.00     0.000 C 
BRANCH  17  18
ATOM     18  C   UNL     1       1.875  20.242  14.961  1.00  0.00     0.000 C 
BRANCH  18  19
ATOM     19  C   UNL     1       1.875  21.640  15.606  1.00  0.00     0.000 C 
BRANCH  19  20
ATOM     20  C   UNL     1       1.951  22.823  14.619  1.00  0.00     0.000 C 
BRANCH  20  21
ATOM     21  C   UNL     1       3.102  23.817  14.864  1.00  0.00     0.000 C 
BRANCH  21  22
ATOM     22  C   UNL     1       2.695  24.994  15.768  1.00  0.00    -0.000 C 
BRANCH  22  23
ATOM     23  C   UNL     1       3.784  26.078  15.857  1.00  0.00    -0.000 C 
BRANCH  23  24
ATOM     24  C   UNL     1       5.173  25.658  15.335  1.00  0.00    -0.000 C 
BRANCH  24  25
ATOM     25  C   UNL     1       5.459  26.028  13.866  1.00  0.00    -0.000 C 
BRANCH  25  26
ATOM     26  C   UNL     1       5.674  27.529  13.604  1.00  0.00    -0.000 C 
BRANCH  26  27
ATOM     27  C   UNL     1       4.654  28.114  12.616  1.00  0.00    -0.000 C 
BRANCH  27  28
ATOM     28  C   UNL     1       3.664  27.041  12.149  1.00  0.00    -0.000 C 
BRANCH  28  29
ATOM     29  C   UNL     1       2.227  27.415  12.529  1.00  0.00    -0.003 C 
ATOM     30  C   UNL     1       2.199  28.321  13.757  1.00  0.00     0.004 C 
ENDBRANCH  28  29
ENDBRANCH  27  28
ENDBRANCH  26  27
ENDBRANCH  25  26
ENDBRANCH  24  25
ENDBRANCH  23  24
ENDBRANCH  22  23
ENDBRANCH  21  22
ENDBRANCH  20  21
ENDBRANCH  19  20
ENDBRANCH  18  19
ENDBRANCH  17  18
ENDBRANCH   1  17
TORSDOF 26
ENDMDL
MODEL 5
REMARK VINA RESULT:    -3.344      1.637      4.316
REMARK INTER + INTRA:         -11.090
REMARK INTER:                  -9.184
REMARK INTRA:                  -1.906
REMARK UNBOUND:                -2.663
REMARK SMILES CCCCCCCCCCCCCCCCCCCCCCCCCCCC(=O)[O-]
REMARK SMILES IDX 15 1 16 2 17 3 18 4 19 5 20 6 21 7 22 8 23 9 24 10 25 11
REMARK SMILES IDX 26 12 27 13 28 14 29 15 30 16 14 17 13 18 12 19 11 20 10 21
REMARK SMILES IDX 9 22 8 23 7 24 6 25 5 26 4 27 3 28 2 29 1 30
REMARK H PARENT
REMARK Flexibility Score: inf
ROOT
ATOM      1  C   UNL     1       4.903  17.836  14.027  1.00  0.00     0.000 C 
ENDROOT
BRANCH   1   2
ATOM      2  C   UNL     1       6.309  17.209  14.034  1.00  0.00     0.000 C 
BRANCH   2   3
ATOM      3  C   UNL     1       6.288  15.726  14.437  1.00  0.00     0.000 C 
BRANCH   3   4
ATOM      4  C   UNL     1       5.187  14.928  13.717  1.00  0.00     0.000 C 
BRANCH   4   5
ATOM      5  C   UNL     1       3.984  14.632  14.626  1.00  0.00     0.000 C 
BRANCH   5   6
ATOM      6  C   UNL     1       2.639  14.871  13.917  1.00  0.00     0.000 C 
BRANCH   6   7
ATOM      7  C   UNL     1       2.724  14.659  12.399  1.00  0.00     0.000 C 
BRANCH   7   8
ATOM      8  C   UNL     1       2.123  15.831  11.604  1.00  0.00     0.000 C 
BRANCH   8   9
ATOM      9  C   UNL     1       3.200  16.770  11.036  1.00  0.00     0.000 C 
BRANCH   9  10
ATOM     10  C   UNL     1       3.823  16.234   9.735  1.00  0.00     0.000 C 
BRANCH  10  11
ATOM     11  C   UNL     1       2.785  15.568   8.817  1.00  0.00     0.000 C 
BRANCH  11  12
ATOM     12  C   UNL     1       3.381  15.144   7.463  1.00  0.00     0.006 C 
BRANCH  12  13
ATOM     13  C   UNL     1       4.163  16.281   6.793  1.00  0.00     0.053 C 
BRANCH  13  14
ATOM     14  C   UNL     1       5.277  15.762   5.935  1.00  0.00     0.041 C 
ATOM     15  O   UNL     1       6.356  15.382   6.461  1.00  0.00    -0.550 OA
ATOM     16  O   UNL     1       5.116  15.680   4.557  1.00  0.00    -0.550 OA
ENDBRANCH  13  14
ENDBRANCH  12  13
ENDBRANCH  11  12
ENDBRANCH  10  11
ENDBRANCH   9  10
ENDBRANCH   8   9
ENDBRANCH   7   8
ENDBRANCH   6   7
ENDBRANCH   5   6
ENDBRANCH   4   5
ENDBRANCH   3   4
ENDBRANCH   2   3
ENDBRANCH   1   2
BRANCH   1  17
ATOM     17  C   UNL     1       4.749  18.958  15.067  1.00  0.00     0.000 C 
BRANCH  17  18
ATOM     18  C   UNL     1       4.470  18.412  16.478  1.00  0.00     0.000 C 
BRANCH  18  19
ATOM     19  C   UNL     1       3.107  17.705  16.590  1.00  0.00     0.000 C 
BRANCH  19  20
ATOM     20  C   UNL     1       1.876  18.601  16.340  1.00  0.00     0.000 C 
BRANCH  20  21
ATOM     21  C   UNL     1       2.016  19.612  15.185  1.00  0.00     0.000 C 
BRANCH  21  22
ATOM     22  C   UNL     1       1.880  21.072  15.647  1.00  0.00    -0.000 C 
BRANCH  22  23
ATOM     23  C   UNL     1       2.581  22.063  14.700  1.00  0.00    -0.000 C 
BRANCH  23  24
ATOM     24  C   UNL     1       2.839  23.463  15.290  1.00  0.00    -0.000 C 
BRANCH  24  25
ATOM     25  C   UNL     1       3.032  24.585  14.251  1.00  0.00    -0.000 C 
BRANCH  25  26
ATOM     26  C   UNL     1       4.473  24.755  13.737  1.00  0.00    -0.000 C 
BRANCH  26  27
ATOM     27  C   UNL     1       4.765  26.179  13.240  1.00  0.00    -0.000 C 
BRANCH  27  28
ATOM     28  C   UNL     1       5.618  26.950  14.254  1.00  0.00    -0.000 C 
BRANCH  28  29
ATOM     29  C   UNL     1       6.694  26.048  14.867  1.00  0.00    -0.003 C 
ATOM     30  C   UNL     1       6.731  26.187  16.387  1.00  0.00     0.004 C 
ENDBRANCH  28  29
ENDBRANCH  27  28
ENDBRANCH  26  27
ENDBRANCH  25  26
ENDBRANCH  24  25
ENDBRANCH  23  24
ENDBRANCH  22  23
ENDBRANCH  21  22
ENDBRANCH  20  21
ENDBRANCH  19  20
ENDBRANCH  18  19
ENDBRANCH  17  18
ENDBRANCH   1  17
TORSDOF 26
ENDMDL
MODEL 6
REMARK VINA RESULT:    -3.254      1.346      3.295
REMARK INTER + INTRA:         -10.863
REMARK INTER:                  -8.559
REMARK INTRA:                  -2.304
REMARK UNBOUND:                -2.663
REMARK SMILES CCCCCCCCCCCCCCCCCCCCCCCCCCCC(=O)[O-]
REMARK SMILES IDX 15 1 16 2 17 3 18 4 19 5 20 6 21 7 22 8 23 9 24 10 25 11
REMARK SMILES IDX 26 12 27 13 28 14 29 15 30 16 14 17 13 18 12 19 11 20 10 21
REMARK SMILES IDX 9 22 8 23 7 24 6 25 5 26 4 27 3 28 2 29 1 30
REMARK H PARENT
REMARK Flexibility Score: inf
ROOT
ATOM      1  C   UNL     1       3.826  18.237  14.183  1.00  0.00     0.000 C 
ENDROOT
BRANCH   1   2
ATOM      2  C   UNL     1       5.288  17.762  14.254  1.00  0.00     0.000 C 
BRANCH   2   3
ATOM      3  C   UNL     1       5.591  16.986  15.545  1.00  0.00     0.000 C 
BRANCH   3   4
ATOM      4  C   UNL     1       4.905  15.609  15.588  1.00  0.00     0.000 C 
BRANCH   4   5
ATOM      5  C   UNL     1       3.851  15.511  16.702  1.00  0.00     0.000 C 
BRANCH   5   6
ATOM      6  C   UNL     1       2.661  14.617  16.308  1.00  0.00     0.000 C 
BRANCH   6   7
ATOM      7  C   UNL     1       1.944  15.109  15.044  1.00  0.00     0.000 C 
BRANCH   7   8
ATOM      8  C   UNL     1       1.875  14.032  13.947  1.00  0.00     0.000 C 
BRANCH   8   9
ATOM      9  C   UNL     1       2.294  14.568  12.568  1.00  0.00     0.000 C 
BRANCH   9  10
ATOM     10  C   UNL     1       3.821  14.690  12.422  1.00  0.00     0.000 C 
BRANCH  10  11
ATOM     11  C   UNL     1       4.241  15.175  11.025  1.00  0.00     0.000 C 
BRANCH  11  12
ATOM     12  C   UNL     1       3.097  15.079  10.000  1.00  0.00     0.006 C 
BRANCH  12  13
ATOM     13  C   UNL     1       3.015  16.324   9.107  1.00  0.00     0.053 C 
BRANCH  13  14
ATOM     14  C   UNL     1       4.317  16.606   8.421  1.00  0.00     0.041 C 
ATOM     15  O   UNL     1       4.993  15.661   7.935  1.00  0.00    -0.550 OA
ATOM     16  O   UNL     1       4.775  17.913   8.303  1.00  0.00    -0.550 OA
ENDBRANCH  13  14
ENDBRANCH  12  13
ENDBRANCH  11  12
ENDBRANCH  10  11
ENDBRANCH   9  10
ENDBRANCH   8   9
ENDBRANCH   7   8
ENDBRANCH   6   7
ENDBRANCH   5   6
ENDBRANCH   4   5
ENDBRANCH   3   4
ENDBRANCH   2   3
ENDBRANCH   1   2
BRANCH   1  17
ATOM     17  C   UNL     1       3.307  18.762  15.532  1.00  0.00     0.000 C 
BRANCH  17  18
ATOM     18  C   UNL     1       1.901  19.377  15.418  1.00  0.00     0.000 C 
BRANCH  18  19
ATOM     19  C   UNL     1       1.877  20.667  14.578  1.00  0.00     0.000 C 
BRANCH  19  20
ATOM     20  C   UNL     1       1.876  21.981  15.386  1.00  0.00     0.000 C 
BRANCH  20  21
ATOM     21  C   UNL     1       2.137  23.261  14.568  1.00  0.00     0.000 C 
BRANCH  21  22
ATOM     22  C   UNL     1       2.438  24.484  15.450  1.00  0.00    -0.000 C 
BRANCH  22  23
ATOM     23  C   UNL     1       2.672  25.765  14.629  1.00  0.00    -0.000 C 
BRANCH  23  24
ATOM     24  C   UNL     1       2.994  25.539  13.139  1.00  0.00    -0.000 C 
BRANCH  24  25
ATOM     25  C   UNL     1       4.029  26.511  12.539  1.00  0.00    -0.000 C 
BRANCH  25  26
ATOM     26  C   UNL     1       5.141  26.955  13.506  1.00  0.00    -0.000 C 
BRANCH  26  27
ATOM     27  C   UNL     1       5.861  25.772  14.169  1.00  0.00    -0.000 C 
BRANCH  27  28
ATOM     28  C   UNL     1       7.179  26.221  14.811  1.00  0.00    -0.000 C 
BRANCH  28  29
ATOM     29  C   UNL     1       7.072  26.229  16.339  1.00  0.00    -0.003 C 
ATOM     30  C   UNL     1       5.647  25.931  16.795  1.00  0.00     0.004 C 
ENDBRANCH  28  29
ENDBRANCH  27  28
ENDBRANCH  26  27
ENDBRANCH  25  26
ENDBRANCH  24  25
ENDBRANCH  23  24
ENDBRANCH  22  23
ENDBRANCH  21  22
ENDBRANCH  20  21
ENDBRANCH  19  20
ENDBRANCH  18  19
ENDBRANCH  17  18
ENDBRANCH   1  17
TORSDOF 26
ENDMDL
MODEL 7
REMARK VINA RESULT:    -3.166      5.599     11.482
REMARK INTER + INTRA:         -10.642
REMARK INTER:                  -7.771
REMARK INTRA:                  -2.871
REMARK UNBOUND:                -2.663
REMARK SMILES CCCCCCCCCCCCCCCCCCCCCCCCCCCC(=O)[O-]
REMARK SMILES IDX 15 1 16 2 17 3 18 4 19 5 20 6 21 7 22 8 23 9 24 10 25 11
REMARK SMILES IDX 26 12 27 13 28 14 29 15 30 16 14 17 13 18 12 19 11 20 10 21
REMARK SMILES IDX 9 22 8 23 7 24 6 25 5 26 4 27 3 28 2 29 1 30
REMARK H PARENT
REMARK Flexibility Score: inf
ROOT
ATOM      1  C   UNL     1       3.129  19.072   6.466  1.00  0.00     0.000 C 
ENDROOT
BRANCH   1   2
ATOM      2  C   UNL     1       2.655  18.175   7.624  1.00  0.00     0.000 C 
BRANCH   2   3
ATOM      3  C   UNL     1       2.627  18.918   8.969  1.00  0.00     0.000 C 
BRANCH   3   4
ATOM      4  C   UNL     1       2.471  17.970  10.170  1.00  0.00     0.000 C 
BRANCH   4   5
ATOM      5  C   UNL     1       3.283  16.676  10.008  1.00  0.00     0.000 C 
BRANCH   5   6
ATOM      6  C   UNL     1       2.729  15.523  10.864  1.00  0.00     0.000 C 
BRANCH   6   7
ATOM      7  C   UNL     1       3.010  15.709  12.362  1.00  0.00     0.000 C 
BRANCH   7   8
ATOM      8  C   UNL     1       4.455  15.344  12.742  1.00  0.00     0.000 C 
BRANCH   8   9
ATOM      9  C   UNL     1       4.521  14.265  13.836  1.00  0.00     0.000 C 
BRANCH   9  10
ATOM     10  C   UNL     1       3.823  14.700  15.136  1.00  0.00     0.000 C 
BRANCH  10  11
ATOM     11  C   UNL     1       4.421  15.988  15.722  1.00  0.00     0.000 C 
BRANCH  11  12
ATOM     12  C   UNL     1       3.349  16.918  16.319  1.00  0.00     0.006 C 
BRANCH  12  13
ATOM     13  C   UNL     1       2.657  17.768  15.246  1.00  0.00     0.053 C 
BRANCH  13  14
ATOM     14  C   UNL     1       3.152  19.182  15.250  1.00  0.00     0.041 C 
ATOM     15  O   UNL     1       2.333  20.139  15.284  1.00  0.00    -0.550 OA
ATOM     16  O   UNL     1       4.516  19.444  15.234  1.00  0.00    -0.550 OA
ENDBRANCH  13  14
ENDBRANCH  12  13
ENDBRANCH  11  12
ENDBRANCH  10  11
ENDBRANCH   9  10
ENDBRANCH   8   9
ENDBRANCH   7   8
ENDBRANCH   6   7
ENDBRANCH   5   6
ENDBRANCH   4   5
ENDBRANCH   3   4
ENDBRANCH   2   3
ENDBRANCH   1   2
BRANCH   1  17
ATOM     17  C   UNL     1       3.246  18.310   5.136  1.00  0.00     0.000 C 
BRANCH  17  18
ATOM     18  C   UNL     1       1.914  18.272   4.366  1.00  0.00     0.000 C 
BRANCH  18  19
ATOM     19  C   UNL     1       2.093  18.462   2.849  1.00  0.00     0.000 C 
BRANCH  19  20
ATOM     20  C   UNL     1       2.638  17.235   2.089  1.00  0.00     0.000 C 
BRANCH  20  21
ATOM     21  C   UNL     1       1.875  15.917   2.325  1.00  0.00     0.000 C 
BRANCH  21  22
ATOM     22  C   UNL     1       2.603  14.969   3.293  1.00  0.00    -0.000 C 
BRANCH  22  23
ATOM     23  C   UNL     1       3.662  14.101   2.591  1.00  0.00    -0.000 C 
BRANCH  23  24
ATOM     24  C   UNL     1       5.006  14.804   2.311  1.00  0.00    -0.000 C 
BRANCH  24  25
ATOM     25  C   UNL     1       5.789  15.241   3.565  1.00  0.00    -0.000 C 
BRANCH  25  26
ATOM     26  C   UNL     1       5.345  14.566   4.876  1.00  0.00    -0.000 C 
BRANCH  26  27
ATOM     27  C   UNL     1       5.591  15.445   6.111  1.00  0.00    -0.000 C 
BRANCH  27  28
ATOM     28  C   UNL     1       4.430  15.331   7.106  1.00  0.00    -0.000 C 
BRANCH  28  29
ATOM     29  C   UNL     1       3.393  14.310   6.627  1.00  0.00    -0.003 C 
ATOM     30  C   UNL     1       1.972  14.791   6.912  1.00  0.00     0.004 C 
ENDBRANCH  28  29
ENDBRANCH  27  28
ENDBRANCH  26  27
ENDBRANCH  25  26
ENDBRANCH  24  25
ENDBRANCH  23  24
ENDBRANCH  22  23
ENDBRANCH  21  22
ENDBRANCH  20  21
ENDBRANCH  19  20
ENDBRANCH  18  19
ENDBRANCH  17  18
ENDBRANCH   1  17
TORSDOF 26
ENDMDL
MODEL 8
REMARK VINA RESULT:    -3.115      3.194     10.944
REMARK INTER + INTRA:         -10.513
REMARK INTER:                  -8.673
REMARK INTRA:                  -1.840
REMARK UNBOUND:                -2.663
REMARK SMILES CCCCCCCCCCCCCCCCCCCCCCCCCCCC(=O)[O-]
REMARK SMILES IDX 15 1 16 2 17 3 18 4 19 5 20 6 21 7 22 8 23 9 24 10 25 11
REMARK SMILES IDX 26 12 27 13 28 14 29 15 30 16 14 17 13 18 12 19 11 20 10 21
REMARK SMILES IDX 9 22 8 23 7 24 6 25 5 26 4 27 3 28 2 29 1 30
REMARK H PARENT
REMARK Flexibility Score: inf
ROOT
ATOM      1  C   UNL     1       4.566  18.383  14.820  1.00  0.00     0.000 C 
ENDROOT
BRANCH   1   2
ATOM      2  C   UNL     1       3.574  18.283  15.992  1.00  0.00     0.000 C 
BRANCH   2   3
ATOM      3  C   UNL     1       2.172  18.792  15.620  1.00  0.00     0.000 C 
BRANCH   3   4
ATOM      4  C   UNL     1       1.940  20.255  16.035  1.00  0.00     0.000 C 
BRANCH   4   5
ATOM      5  C   UNL     1       1.875  21.205  14.829  1.00  0.00     0.000 C 
BRANCH   5   6
ATOM      6  C   UNL     1       2.013  22.683  15.237  1.00  0.00     0.000 C 
BRANCH   6   7
ATOM      7  C   UNL     1       1.996  23.634  14.032  1.00  0.00     0.000 C 
BRANCH   7   8
ATOM      8  C   UNL     1       3.331  24.376  13.846  1.00  0.00     0.000 C 
BRANCH   8   9
ATOM      9  C   UNL     1       3.976  24.772  15.184  1.00  0.00     0.000 C 
BRANCH   9  10
ATOM     10  C   UNL     1       3.348  26.040  15.789  1.00  0.00     0.000 C 
BRANCH  10  11
ATOM     11  C   UNL     1       4.254  27.272  15.641  1.00  0.00     0.000 C 
BRANCH  11  12
ATOM     12  C   UNL     1       3.577  28.412  14.859  1.00  0.00     0.006 C 
BRANCH  12  13
ATOM     13  C   UNL     1       4.297  28.717  13.539  1.00  0.00     0.053 C 
BRANCH  13  14
ATOM     14  C   UNL     1       3.708  27.951  12.393  1.00  0.00     0.041 C 
ATOM     15  O   UNL     1       4.138  26.802  12.112  1.00  0.00    -0.550 OA
ATOM     16  O   UNL     1       2.671  28.499  11.648  1.00  0.00    -0.550 OA
ENDBRANCH  13  14
ENDBRANCH  12  13
ENDBRANCH  11  12
ENDBRANCH  10  11
ENDBRANCH   9  10
ENDBRANCH   8   9
ENDBRANCH   7   8
ENDBRANCH   6   7
ENDBRANCH   5   6
ENDBRANCH   4   5
ENDBRANCH   3   4
ENDBRANCH   2   3
ENDBRANCH   1   2
BRANCH   1  17
ATOM     17  C   UNL     1       4.312  17.323  13.736  1.00  0.00     0.000 C 
BRANCH  17  18
ATOM     18  C   UNL     1       5.590  16.551  13.362  1.00  0.00     0.000 C 
BRANCH  18  19
ATOM     19  C   UNL     1       5.540  15.071  13.780  1.00  0.00     0.000 C 
BRANCH  19  20
ATOM     20  C   UNL     1       4.125  14.480  13.953  1.00  0.00     0.000 C 
BRANCH  20  21
ATOM     21  C   UNL     1       3.463  13.959  12.663  1.00  0.00     0.000 C 
BRANCH  21  22
ATOM     22  C   UNL     1       2.186  14.731  12.291  1.00  0.00    -0.000 C 
BRANCH  22  23
ATOM     23  C   UNL     1       2.342  15.545  10.993  1.00  0.00    -0.000 C 
BRANCH  23  24
ATOM     24  C   UNL     1       3.271  14.920   9.934  1.00  0.00    -0.000 C 
BRANCH  24  25
ATOM     25  C   UNL     1       3.469  15.763   8.659  1.00  0.00    -0.000 C 
BRANCH  25  26
ATOM     26  C   UNL     1       4.933  15.932   8.213  1.00  0.00    -0.000 C 
BRANCH  26  27
ATOM     27  C   UNL     1       5.064  16.354   6.743  1.00  0.00    -0.000 C 
BRANCH  27  28
ATOM     28  C   UNL     1       4.657  15.212   5.805  1.00  0.00    -0.000 C 
BRANCH  28  29
ATOM     29  C   UNL     1       4.535  15.703   4.359  1.00  0.00    -0.003 C 
ATOM     30  C   UNL     1       4.070  17.156   4.307  1.00  0.00     0.004 C 
ENDBRANCH  28  29
ENDBRANCH  27  28
ENDBRANCH  26  27
ENDBRANCH  25  26
ENDBRANCH  24  25
ENDBRANCH  23  24
ENDBRANCH  22  23
ENDBRANCH  21  22
ENDBRANCH  20  21
ENDBRANCH  19  20
ENDBRANCH  18  19
ENDBRANCH  17  18
ENDBRANCH   1  17
TORSDOF 26
ENDMDL
