MODEL 1
REMARK VINA RESULT:    -6.139      0.000      0.000
REMARK INTER + INTRA:          -9.896
REMARK INTER:                  -9.010
REMARK INTRA:                  -0.886
REMARK UNBOUND:                -0.886
REMARK SMILES O=c1c(O[C@H]2O[C@H](CO)[C@@H](O)[C@@H](O)[C@@H]2O)c(-c2ccc(O)c(O)c2)oc2cc(O)cc(O)c12
REMARK SMILES IDX 4 1 3 2 16 3 25 4 2 5 26 6 1 7 33 8 27 9 31 10 28 11 30 12
REMARK SMILES IDX 17 13 18 14 19 15 20 16 24 17 22 18 21 19 23 21 32 23 29 25
REMARK SMILES IDX 5 27 14 28 6 29 12 30 7 31 10 32 15 33 13 35 8 37 9 38 11 40
REMARK H PARENT 21 20 23 22 32 24 29 26 15 34 13 36 9 39 11 41
REMARK Flexibility Score: inf
ROOT
ATOM      1  O   UNL     1     -12.021   8.197   6.182  1.00  0.00    -0.454 OA
ENDROOT
BRANCH   1   2
ATOM      2  C   UNL     1     -10.634   8.435   6.123  1.00  0.00     0.214 A 
ATOM      3  C   UNL     1      -9.768   7.416   6.557  1.00  0.00     0.180 A 
ATOM      4  O   UNL     1      -8.460   7.634   6.634  1.00  0.00    -0.452 OA
ATOM      5  C   UNL     1     -10.065   9.655   5.691  1.00  0.00     0.239 A 
ATOM      6  C   UNL     1      -7.891   8.777   6.283  1.00  0.00     0.146 A 
ATOM      7  O   UNL     1     -10.797  10.570   5.227  1.00  0.00    -0.285 OA
ATOM      8  C   UNL     1      -8.668   9.843   5.779  1.00  0.00     0.111 A 
ATOM      9  C   UNL     1      -6.506   8.917   6.415  1.00  0.00     0.094 A 
ATOM     10  C   UNL     1      -8.024  11.048   5.408  1.00  0.00     0.134 A 
ATOM     11  C   UNL     1      -5.877  10.112   6.057  1.00  0.00     0.123 A 
ATOM     12  C   UNL     1      -6.634  11.169   5.554  1.00  0.00     0.093 A 
BRANCH   3  13
ATOM     13  C   UNL     1     -10.276   6.090   6.963  1.00  0.00     0.025 A 
ATOM     14  C   UNL     1     -10.228   5.675   8.300  1.00  0.00     0.016 A 
ATOM     15  C   UNL     1     -10.748   4.436   8.673  1.00  0.00     0.051 A 
ATOM     16  C   UNL     1     -11.341   3.596   7.726  1.00  0.00     0.157 A 
ATOM     17  C   UNL     1     -10.881   5.258   6.012  1.00  0.00     0.062 A 
ATOM     18  C   UNL     1     -11.407   4.012   6.375  1.00  0.00     0.158 A 
BRANCH  16  19
ATOM     19  O   UNL     1     -11.857   2.373   8.165  1.00  0.00    -0.504 OA
ATOM     20  H   UNL     1     -11.345   1.717   8.732  1.00  0.00     0.293 HD
ENDBRANCH  16  19
BRANCH  18  21
ATOM     21  O   UNL     1     -11.984   3.228   5.372  1.00  0.00    -0.504 OA
ATOM     22  H   UNL     1     -12.535   3.599   4.613  1.00  0.00     0.293 HD
ENDBRANCH  18  21
ENDBRANCH   3  13
BRANCH  10  23
ATOM     23  O   UNL     1      -8.750  12.124   4.901  1.00  0.00    -0.507 OA
ATOM     24  H   UNL     1      -9.599  11.995   4.353  1.00  0.00     0.293 HD
ENDBRANCH  10  23
BRANCH  11  25
ATOM     25  O   UNL     1      -4.498  10.258   6.197  1.00  0.00    -0.508 OA
ATOM     26  H   UNL     1      -4.080  11.152   6.425  1.00  0.00     0.293 HD
ENDBRANCH  11  25
ENDBRANCH   1   2
BRANCH   1  27
ATOM     27  C   UNL     1     -12.826   8.109   7.364  1.00  0.00     0.339 C 
ATOM     28  C   UNL     1     -14.296   7.832   6.993  1.00  0.00     0.214 C 
ATOM     29  O   UNL     1     -12.706   9.275   8.165  1.00  0.00    -0.332 OA
ATOM     30  C   UNL     1     -14.933   9.058   6.322  1.00  0.00     0.180 C 
ATOM     31  C   UNL     1     -13.151  10.434   7.478  1.00  0.00     0.179 C 
ATOM     32  C   UNL     1     -14.661  10.323   7.151  1.00  0.00     0.177 C 
BRANCH  28  33
ATOM     33  O   UNL     1     -15.025   7.511   8.148  1.00  0.00    -0.384 OA
ATOM     34  H   UNL     1     -15.063   6.519   8.199  1.00  0.00     0.211 HD
ENDBRANCH  28  33
BRANCH  30  35
ATOM     35  O   UNL     1     -14.422   9.227   5.026  1.00  0.00    -0.387 OA
ATOM     36  H   UNL     1     -13.585   8.695   4.975  1.00  0.00     0.211 HD
ENDBRANCH  30  35
BRANCH  31  37
ATOM     37  C   UNL     1     -12.861  11.645   8.375  1.00  0.00     0.191 C 
BRANCH  37  38
ATOM     38  O   UNL     1     -11.494  11.723   8.679  1.00  0.00    -0.394 OA
ATOM     39  H   UNL     1     -11.151  12.568   8.288  1.00  0.00     0.210 HD
ENDBRANCH  37  38
ENDBRANCH  31  37
BRANCH  32  40
ATOM     40  O   UNL     1     -15.085  11.450   6.432  1.00  0.00    -0.387 OA
ATOM     41  H   UNL     1     -16.005  11.660   6.749  1.00  0.00     0.211 HD
ENDBRANCH  32  40
ENDBRANCH   1  27
TORSDOF 12
ENDMDL
MODEL 2
REMARK VINA RESULT:    -5.626      1.250      1.553
REMARK INTER + INTRA:          -9.143
REMARK INTER:                  -8.352
REMARK INTRA:                  -0.791
REMARK UNBOUND:                -0.886
REMARK SMILES O=c1c(O[C@H]2O[C@H](CO)[C@@H](O)[C@@H](O)[C@@H]2O)c(-c2ccc(O)c(O)c2)oc2cc(O)cc(O)c12
REMARK SMILES IDX 4 1 3 2 16 3 25 4 2 5 26 6 1 7 33 8 27 9 31 10 28 11 30 12
REMARK SMILES IDX 17 13 18 14 19 15 20 16 24 17 22 18 21 19 23 21 32 23 29 25
REMARK SMILES IDX 5 27 14 28 6 29 12 30 7 31 10 32 15 33 13 35 8 37 9 38 11 40
REMARK H PARENT 21 20 23 22 32 24 29 26 15 34 13 36 9 39 11 41
REMARK Flexibility Score: inf
ROOT
ATOM      1  O   UNL     1     -11.664   8.149   5.879  1.00  0.00    -0.454 OA
ENDROOT
BRANCH   1   2
ATOM      2  C   UNL     1     -10.284   8.415   5.977  1.00  0.00     0.214 A 
ATOM      3  C   UNL     1      -9.458   7.428   6.544  1.00  0.00     0.180 A 
ATOM      4  O   UNL     1      -8.173   7.678   6.769  1.00  0.00    -0.452 OA
ATOM      5  C   UNL     1      -9.690   9.634   5.577  1.00  0.00     0.239 A 
ATOM      6  C   UNL     1      -7.586   8.822   6.451  1.00  0.00     0.146 A 
ATOM      7  O   UNL     1     -10.378  10.519   5.000  1.00  0.00    -0.285 OA
ATOM      8  C   UNL     1      -8.317   9.855   5.825  1.00  0.00     0.111 A 
ATOM      9  C   UNL     1      -6.230   8.996   6.743  1.00  0.00     0.094 A 
ATOM     10  C   UNL     1      -7.656  11.062   5.494  1.00  0.00     0.134 A 
ATOM     11  C   UNL     1      -5.584  10.193   6.424  1.00  0.00     0.123 A 
ATOM     12  C   UNL     1      -6.296  11.217   5.801  1.00  0.00     0.093 A 
BRANCH   3  13
ATOM     13  C   UNL     1      -9.987   6.104   6.929  1.00  0.00     0.025 A 
ATOM     14  C   UNL     1     -10.096   5.733   8.275  1.00  0.00     0.016 A 
ATOM     15  C   UNL     1     -10.634   4.494   8.623  1.00  0.00     0.051 A 
ATOM     16  C   UNL     1     -11.091   3.612   7.639  1.00  0.00     0.157 A 
ATOM     17  C   UNL     1     -10.455   5.230   5.939  1.00  0.00     0.062 A 
ATOM     18  C   UNL     1     -10.998   3.984   6.278  1.00  0.00     0.158 A 
BRANCH  16  19
ATOM     19  O   UNL     1     -11.633   2.392   8.053  1.00  0.00    -0.504 OA
ATOM     20  H   UNL     1     -11.339   1.895   8.878  1.00  0.00     0.293 HD
ENDBRANCH  16  19
BRANCH  18  21
ATOM     21  O   UNL     1     -11.433   3.157   5.238  1.00  0.00    -0.504 OA
ATOM     22  H   UNL     1     -12.320   3.259   4.769  1.00  0.00     0.293 HD
ENDBRANCH  18  21
ENDBRANCH   3  13
BRANCH  10  23
ATOM     23  O   UNL     1      -8.335  12.107   4.870  1.00  0.00    -0.507 OA
ATOM     24  H   UNL     1      -9.351  12.133   4.812  1.00  0.00     0.293 HD
ENDBRANCH  10  23
BRANCH  11  25
ATOM     25  O   UNL     1      -4.236  10.373   6.723  1.00  0.00    -0.508 OA
ATOM     26  H   UNL     1      -3.538  10.466   5.995  1.00  0.00     0.293 HD
ENDBRANCH  11  25
ENDBRANCH   1   2
BRANCH   1  27
ATOM     27  C   UNL     1     -12.699   8.665   6.724  1.00  0.00     0.339 C 
ATOM     28  C   UNL     1     -13.991   7.842   6.554  1.00  0.00     0.214 C 
ATOM     29  O   UNL     1     -12.930  10.046   6.483  1.00  0.00    -0.332 OA
ATOM     30  C   UNL     1     -14.621   8.087   5.174  1.00  0.00     0.180 C 
ATOM     31  C   UNL     1     -13.361  10.283   5.153  1.00  0.00     0.179 C 
ATOM     32  C   UNL     1     -14.725   9.595   4.895  1.00  0.00     0.177 C 
BRANCH  28  33
ATOM     33  O   UNL     1     -14.915   8.198   7.549  1.00  0.00    -0.384 OA
ATOM     34  H   UNL     1     -15.773   8.395   7.087  1.00  0.00     0.211 HD
ENDBRANCH  28  33
BRANCH  30  35
ATOM     35  O   UNL     1     -13.854   7.475   4.171  1.00  0.00    -0.387 OA
ATOM     36  H   UNL     1     -13.140   8.119   3.922  1.00  0.00     0.211 HD
ENDBRANCH  30  35
BRANCH  31  37
ATOM     37  C   UNL     1     -13.457  11.803   4.960  1.00  0.00     0.191 C 
BRANCH  37  38
ATOM     38  O   UNL     1     -13.580  12.124   3.600  1.00  0.00    -0.394 OA
ATOM     39  H   UNL     1     -12.799  11.730   3.131  1.00  0.00     0.210 HD
ENDBRANCH  37  38
ENDBRANCH  31  37
BRANCH  32  40
ATOM     40  O   UNL     1     -15.125   9.795   3.565  1.00  0.00    -0.387 OA
ATOM     41  H   UNL     1     -14.295   9.785   3.015  1.00  0.00     0.211 HD
ENDBRANCH  32  40
ENDBRANCH   1  27
TORSDOF 12
ENDMDL
MODEL 3
REMARK VINA RESULT:    -5.172      1.327      2.843
REMARK INTER + INTRA:          -8.476
REMARK INTER:                  -7.754
REMARK INTRA:                  -0.722
REMARK UNBOUND:                -0.886
REMARK SMILES O=c1c(O[C@H]2O[C@H](CO)[C@@H](O)[C@@H](O)[C@@H]2O)c(-c2ccc(O)c(O)c2)oc2cc(O)cc(O)c12
REMARK SMILES IDX 4 1 3 2 16 3 25 4 2 5 26 6 1 7 33 8 27 9 31 10 28 11 30 12
REMARK SMILES IDX 17 13 18 14 19 15 20 16 24 17 22 18 21 19 23 21 32 23 29 25
REMARK SMILES IDX 5 27 14 28 6 29 12 30 7 31 10 32 15 33 13 35 8 37 9 38 11 40
REMARK H PARENT 21 20 23 22 32 24 29 26 15 34 13 36 9 39 11 41
REMARK Flexibility Score: inf
ROOT
ATOM      1  O   UNL     1     -11.805   8.223   6.600  1.00  0.00    -0.454 OA
ENDROOT
BRANCH   1   2
ATOM      2  C   UNL     1     -10.431   8.471   6.410  1.00  0.00     0.214 A 
ATOM      3  C   UNL     1      -9.517   7.477   6.806  1.00  0.00     0.180 A 
ATOM      4  O   UNL     1      -8.211   7.711   6.759  1.00  0.00    -0.452 OA
ATOM      5  C   UNL     1      -9.918   9.677   5.882  1.00  0.00     0.239 A 
ATOM      6  C   UNL     1      -7.689   8.844   6.314  1.00  0.00     0.146 A 
ATOM      7  O   UNL     1     -10.699  10.566   5.449  1.00  0.00    -0.285 OA
ATOM      8  C   UNL     1      -8.521   9.882   5.840  1.00  0.00     0.111 A 
ATOM      9  C   UNL     1      -6.300   9.002   6.319  1.00  0.00     0.094 A 
ATOM     10  C   UNL     1      -7.927  11.076   5.366  1.00  0.00     0.134 A 
ATOM     11  C   UNL     1      -5.719  10.187   5.860  1.00  0.00     0.123 A 
ATOM     12  C   UNL     1      -6.531  11.215   5.385  1.00  0.00     0.093 A 
BRANCH   3  13
ATOM     13  C   UNL     1      -9.972   6.164   7.306  1.00  0.00     0.025 A 
ATOM     14  C   UNL     1     -10.212   5.954   8.670  1.00  0.00     0.016 A 
ATOM     15  C   UNL     1     -10.678   4.720   9.122  1.00  0.00     0.051 A 
ATOM     16  C   UNL     1     -10.931   3.679   8.223  1.00  0.00     0.157 A 
ATOM     17  C   UNL     1     -10.236   5.129   6.400  1.00  0.00     0.062 A 
ATOM     18  C   UNL     1     -10.705   3.887   6.842  1.00  0.00     0.158 A 
BRANCH  16  19
ATOM     19  O   UNL     1     -11.411   2.471   8.737  1.00  0.00    -0.504 OA
ATOM     20  H   UNL     1     -10.833   1.780   9.186  1.00  0.00     0.293 HD
ENDBRANCH  16  19
BRANCH  18  21
ATOM     21  O   UNL     1     -10.935   2.895   5.883  1.00  0.00    -0.504 OA
ATOM     22  H   UNL     1     -11.534   2.098   6.030  1.00  0.00     0.293 HD
ENDBRANCH  18  21
ENDBRANCH   3  13
BRANCH  10  23
ATOM     23  O   UNL     1      -8.708  12.125   4.883  1.00  0.00    -0.507 OA
ATOM     24  H   UNL     1      -8.356  12.791   4.198  1.00  0.00     0.293 HD
ENDBRANCH  10  23
BRANCH  11  25
ATOM     25  O   UNL     1      -4.336  10.351   5.873  1.00  0.00    -0.508 OA
ATOM     26  H   UNL     1      -3.707   9.558   5.871  1.00  0.00     0.293 HD
ENDBRANCH  11  25
ENDBRANCH   1   2
BRANCH   1  27
ATOM     27  C   UNL     1     -12.837   8.316   5.611  1.00  0.00     0.339 C 
ATOM     28  C   UNL     1     -14.160   8.770   6.258  1.00  0.00     0.214 C 
ATOM     29  O   UNL     1     -12.999   7.093   4.908  1.00  0.00    -0.332 OA
ATOM     30  C   UNL     1     -14.742   7.666   7.153  1.00  0.00     0.180 C 
ATOM     31  C   UNL     1     -13.384   6.035   5.772  1.00  0.00     0.179 C 
ATOM     32  C   UNL     1     -14.770   6.327   6.399  1.00  0.00     0.177 C 
BRANCH  28  33
ATOM     33  O   UNL     1     -15.093   9.088   5.259  1.00  0.00    -0.384 OA
ATOM     34  H   UNL     1     -14.738   9.882   4.776  1.00  0.00     0.211 HD
ENDBRANCH  28  33
BRANCH  30  35
ATOM     35  O   UNL     1     -13.977   7.530   8.322  1.00  0.00    -0.387 OA
ATOM     36  H   UNL     1     -14.611   7.567   9.086  1.00  0.00     0.211 HD
ENDBRANCH  30  35
BRANCH  31  37
ATOM     37  C   UNL     1     -13.405   4.743   4.944  1.00  0.00     0.191 C 
BRANCH  37  38
ATOM     38  O   UNL     1     -13.946   4.978   3.672  1.00  0.00    -0.394 OA
ATOM     39  H   UNL     1     -13.340   5.612   3.204  1.00  0.00     0.210 HD
ENDBRANCH  37  38
ENDBRANCH  31  37
BRANCH  32  40
ATOM     40  O   UNL     1     -15.125   5.301   7.287  1.00  0.00    -0.387 OA
ATOM     41  H   UNL     1     -16.054   5.495   7.589  1.00  0.00     0.211 HD
ENDBRANCH  32  40
ENDBRANCH   1  27
TORSDOF 12
ENDMDL
