MODEL 1
REMARK VINA RESULT:     5.508      0.000      0.000
REMARK INTER + INTRA:          12.334
REMARK INTER:                  14.524
REMARK INTRA:                  -2.190
REMARK UNBOUND:                -2.190
REMARK SMILES CCCCCCCCCCCCCCCCCCCCCCCCCCCCCC(=O)[O-]
REMARK SMILES IDX 16 1 17 2 18 3 19 4 20 5 21 6 22 7 23 8 24 9 25 10 26 11
REMARK SMILES IDX 27 12 28 13 29 14 30 15 31 16 32 17 15 18 14 19 13 20 12 21
REMARK SMILES IDX 11 22 10 23 9 24 8 25 7 26 6 27 5 28 4 29 3 30 2 31 1 32
REMARK H PARENT
REMARK Flexibility Score: inf
ROOT
ATOM      1  C   UNL     1      41.063  43.232  21.642  1.00  0.00     0.000 C 
ENDROOT
BRANCH   1   2
ATOM      2  C   UNL     1      40.368  43.846  22.871  1.00  0.00     0.000 C 
BRANCH   2   3
ATOM      3  C   UNL     1      41.125  45.052  23.443  1.00  0.00     0.000 C 
BRANCH   3   4
ATOM      4  C   UNL     1      40.335  45.700  24.590  1.00  0.00     0.000 C 
BRANCH   4   5
ATOM      5  C   UNL     1      38.902  45.152  24.709  1.00  0.00     0.000 C 
BRANCH   5   6
ATOM      6  C   UNL     1      37.783  46.195  24.507  1.00  0.00     0.000 C 
BRANCH   6   7
ATOM      7  C   UNL     1      37.215  46.284  23.079  1.00  0.00     0.000 C 
BRANCH   7   8
ATOM      8  C   UNL     1      36.363  47.545  22.854  1.00  0.00     0.000 C 
BRANCH   8   9
ATOM      9  C   UNL     1      35.049  47.257  22.106  1.00  0.00     0.000 C 
BRANCH   9  10
ATOM     10  C   UNL     1      33.838  46.942  23.003  1.00  0.00     0.000 C 
BRANCH  10  11
ATOM     11  C   UNL     1      33.807  45.482  23.482  1.00  0.00     0.000 C 
BRANCH  11  12
ATOM     12  C   UNL     1      33.321  45.389  24.937  1.00  0.00     0.000 C 
BRANCH  12  13
ATOM     13  C   UNL     1      34.247  46.126  25.920  1.00  0.00     0.006 C 
BRANCH  13  14
ATOM     14  C   UNL     1      33.476  46.842  27.037  1.00  0.00     0.053 C 
BRANCH  14  15
ATOM     15  C   UNL     1      32.917  48.138  26.543  1.00  0.00     0.041 C 
ATOM     16  O   UNL     1      33.605  49.192  26.613  1.00  0.00    -0.550 OA
ATOM     17  O   UNL     1      31.647  48.180  25.981  1.00  0.00    -0.550 OA
ENDBRANCH  14  15
ENDBRANCH  13  14
ENDBRANCH  12  13
ENDBRANCH  11  12
ENDBRANCH  10  11
ENDBRANCH   9  10
ENDBRANCH   8   9
ENDBRANCH   7   8
ENDBRANCH   6   7
ENDBRANCH   5   6
ENDBRANCH   4   5
ENDBRANCH   3   4
ENDBRANCH   2   3
ENDBRANCH   1   2
BRANCH   1  18
ATOM     18  C   UNL     1      41.072  44.129  20.386  1.00  0.00     0.000 C 
BRANCH  18  19
ATOM     19  C   UNL     1      41.123  43.374  19.043  1.00  0.00     0.000 C 
BRANCH  19  20
ATOM     20  C   UNL     1      40.868  41.857  19.143  1.00  0.00     0.000 C 
BRANCH  20  21
ATOM     21  C   UNL     1      41.058  41.077  17.826  1.00  0.00     0.000 C 
BRANCH  21  22
ATOM     22  C   UNL     1      40.788  39.564  17.921  1.00  0.00     0.000 C 
BRANCH  22  23
ATOM     23  C   UNL     1      40.619  38.901  16.546  1.00  0.00     0.000 C 
BRANCH  23  24
ATOM     24  C   UNL     1      40.703  37.372  16.658  1.00  0.00    -0.000 C 
BRANCH  24  25
ATOM     25  C   UNL     1      39.674  36.786  17.642  1.00  0.00    -0.000 C 
BRANCH  25  26
ATOM     26  C   UNL     1      40.278  36.118  18.894  1.00  0.00    -0.000 C 
BRANCH  26  27
ATOM     27  C   UNL     1      39.323  35.182  19.662  1.00  0.00    -0.000 C 
BRANCH  27  28
ATOM     28  C   UNL     1      38.182  35.888  20.416  1.00  0.00    -0.000 C 
BRANCH  28  29
ATOM     29  C   UNL     1      38.361  37.415  20.473  1.00  0.00    -0.000 C 
BRANCH  29  30
ATOM     30  C   UNL     1      37.274  38.164  19.687  1.00  0.00    -0.000 C 
BRANCH  30  31
ATOM     31  C   UNL     1      37.789  39.469  19.062  1.00  0.00    -0.003 C 
ATOM     32  C   UNL     1      37.316  40.682  19.858  1.00  0.00     0.004 C 
ENDBRANCH  30  31
ENDBRANCH  29  30
ENDBRANCH  28  29
ENDBRANCH  27  28
ENDBRANCH  26  27
ENDBRANCH  25  26
ENDBRANCH  24  25
ENDBRANCH  23  24
ENDBRANCH  22  23
ENDBRANCH  21  22
ENDBRANCH  20  21
ENDBRANCH  19  20
ENDBRANCH  18  19
ENDBRANCH   1  18
TORSDOF 28
ENDMDL
MODEL 2
REMARK VINA RESULT:     6.325      1.284      2.177
REMARK INTER + INTRA:          14.489
REMARK INTER:                  13.647
REMARK INTRA:                   0.842
REMARK UNBOUND:                -2.190
REMARK SMILES CCCCCCCCCCCCCCCCCCCCCCCCCCCCCC(=O)[O-]
REMARK SMILES IDX 16 1 17 2 18 3 19 4 20 5 21 6 22 7 23 8 24 9 25 10 26 11
REMARK SMILES IDX 27 12 28 13 29 14 30 15 31 16 32 17 15 18 14 19 13 20 12 21
REMARK SMILES IDX 11 22 10 23 9 24 8 25 7 26 6 27 5 28 4 29 3 30 2 31 1 32
REMARK H PARENT
REMARK Flexibility Score: inf
ROOT
ATOM      1  C   UNL     1      41.105  43.672  20.443  1.00  0.00     0.000 C 
ENDROOT
BRANCH   1   2
ATOM      2  C   UNL     1      41.018  45.208  20.504  1.00  0.00     0.000 C 
BRANCH   2   3
ATOM      3  C   UNL     1      40.314  45.715  21.771  1.00  0.00     0.000 C 
BRANCH   3   4
ATOM      4  C   UNL     1      41.010  45.183  23.033  1.00  0.00     0.000 C 
BRANCH   4   5
ATOM      5  C   UNL     1      40.016  44.815  24.149  1.00  0.00     0.000 C 
BRANCH   5   6
ATOM      6  C   UNL     1      40.206  45.583  25.474  1.00  0.00     0.000 C 
BRANCH   6   7
ATOM      7  C   UNL     1      39.051  45.450  26.484  1.00  0.00     0.000 C 
BRANCH   7   8
ATOM      8  C   UNL     1      38.142  46.691  26.517  1.00  0.00     0.000 C 
BRANCH   8   9
ATOM      9  C   UNL     1      36.821  46.488  25.754  1.00  0.00     0.000 C 
BRANCH   9  10
ATOM     10  C   UNL     1      36.970  46.197  24.249  1.00  0.00     0.000 C 
BRANCH  10  11
ATOM     11  C   UNL     1      36.028  47.041  23.376  1.00  0.00     0.000 C 
BRANCH  11  12
ATOM     12  C   UNL     1      34.575  46.557  23.505  1.00  0.00     0.000 C 
BRANCH  12  13
ATOM     13  C   UNL     1      34.335  45.732  24.781  1.00  0.00     0.006 C 
BRANCH  13  14
ATOM     14  C   UNL     1      32.903  45.870  25.315  1.00  0.00     0.053 C 
BRANCH  14  15
ATOM     15  C   UNL     1      32.674  47.245  25.858  1.00  0.00     0.041 C 
ATOM     16  O   UNL     1      33.575  47.820  26.524  1.00  0.00    -0.550 OA
ATOM     17  O   UNL     1      31.476  47.902  25.607  1.00  0.00    -0.550 OA
ENDBRANCH  14  15
ENDBRANCH  13  14
ENDBRANCH  12  13
ENDBRANCH  11  12
ENDBRANCH  10  11
ENDBRANCH   9  10
ENDBRANCH   8   9
ENDBRANCH   7   8
ENDBRANCH   6   7
ENDBRANCH   5   6
ENDBRANCH   4   5
ENDBRANCH   3   4
ENDBRANCH   2   3
ENDBRANCH   1   2
BRANCH   1  18
ATOM     18  C   UNL     1      40.323  43.022  19.283  1.00  0.00     0.000 C 
BRANCH  18  19
ATOM     19  C   UNL     1      41.124  42.013  18.437  1.00  0.00     0.000 C 
BRANCH  19  20
ATOM     20  C   UNL     1      41.038  42.231  16.914  1.00  0.00     0.000 C 
BRANCH  20  21
ATOM     21  C   UNL     1      41.108  40.944  16.067  1.00  0.00     0.000 C 
BRANCH  21  22
ATOM     22  C   UNL     1      41.122  39.633  16.873  1.00  0.00     0.000 C 
BRANCH  22  23
ATOM     23  C   UNL     1      40.114  38.599  16.348  1.00  0.00     0.000 C 
BRANCH  23  24
ATOM     24  C   UNL     1      40.334  37.231  17.010  1.00  0.00    -0.000 C 
BRANCH  24  25
ATOM     25  C   UNL     1      39.607  36.089  16.276  1.00  0.00    -0.000 C 
BRANCH  25  26
ATOM     26  C   UNL     1      38.713  35.206  17.171  1.00  0.00    -0.000 C 
BRANCH  26  27
ATOM     27  C   UNL     1      38.069  35.929  18.371  1.00  0.00    -0.000 C 
BRANCH  27  28
ATOM     28  C   UNL     1      38.706  37.281  18.736  1.00  0.00    -0.000 C 
BRANCH  28  29
ATOM     29  C   UNL     1      38.373  37.729  20.171  1.00  0.00    -0.000 C 
BRANCH  29  30
ATOM     30  C   UNL     1      38.320  39.258  20.312  1.00  0.00    -0.000 C 
BRANCH  30  31
ATOM     31  C   UNL     1      36.982  39.753  20.880  1.00  0.00    -0.003 C 
ATOM     32  C   UNL     1      35.873  39.653  19.837  1.00  0.00     0.004 C 
ENDBRANCH  30  31
ENDBRANCH  29  30
ENDBRANCH  28  29
ENDBRANCH  27  28
ENDBRANCH  26  27
ENDBRANCH  25  26
ENDBRANCH  24  25
ENDBRANCH  23  24
ENDBRANCH  22  23
ENDBRANCH  21  22
ENDBRANCH  20  21
ENDBRANCH  19  20
ENDBRANCH  18  19
ENDBRANCH   1  18
TORSDOF 28
ENDMDL
MODEL 3
REMARK VINA RESULT:     7.456      8.166     13.500
REMARK INTER + INTRA:          17.470
REMARK INTER:                  17.473
REMARK INTRA:                  -0.003
REMARK UNBOUND:                -2.190
REMARK SMILES CCCCCCCCCCCCCCCCCCCCCCCCCCCCCC(=O)[O-]
REMARK SMILES IDX 16 1 17 2 18 3 19 4 20 5 21 6 22 7 23 8 24 9 25 10 26 11
REMARK SMILES IDX 27 12 28 13 29 14 30 15 31 16 32 17 15 18 14 19 13 20 12 21
REMARK SMILES IDX 11 22 10 23 9 24 8 25 7 26 6 27 5 28 4 29 3 30 2 31 1 32
REMARK H PARENT
REMARK Flexibility Score: inf
ROOT
ATOM      1  C   UNL     1      29.217  49.278  25.594  1.00  0.00     0.000 C 
ENDROOT
BRANCH   1   2
ATOM      2  C   UNL     1      28.118  49.807  26.533  1.00  0.00     0.000 C 
BRANCH   2   3
ATOM      3  C   UNL     1      26.749  49.915  25.846  1.00  0.00     0.000 C 
BRANCH   3   4
ATOM      4  C   UNL     1      26.441  51.370  25.466  1.00  0.00     0.000 C 
BRANCH   4   5
ATOM      5  C   UNL     1      24.939  51.622  25.244  1.00  0.00     0.000 C 
BRANCH   5   6
ATOM      6  C   UNL     1      24.248  52.467  26.334  1.00  0.00     0.000 C 
BRANCH   6   7
ATOM      7  C   UNL     1      23.798  51.688  27.584  1.00  0.00     0.000 C 
BRANCH   7   8
ATOM      8  C   UNL     1      22.730  52.437  28.400  1.00  0.00     0.000 C 
BRANCH   8   9
ATOM      9  C   UNL     1      22.795  53.963  28.217  1.00  0.00     0.000 C 
BRANCH   9  10
ATOM     10  C   UNL     1      22.524  54.789  29.488  1.00  0.00     0.000 C 
BRANCH  10  11
ATOM     11  C   UNL     1      22.389  53.923  30.751  1.00  0.00     0.000 C 
BRANCH  11  12
ATOM     12  C   UNL     1      22.525  54.776  32.022  1.00  0.00     0.000 C 
BRANCH  12  13
ATOM     13  C   UNL     1      23.983  54.915  32.490  1.00  0.00     0.006 C 
BRANCH  13  14
ATOM     14  C   UNL     1      24.117  54.925  34.019  1.00  0.00     0.053 C 
BRANCH  14  15
ATOM     15  C   UNL     1      22.948  54.241  34.653  1.00  0.00     0.041 C 
ATOM     16  O   UNL     1      23.076  53.675  35.771  1.00  0.00    -0.550 OA
ATOM     17  O   UNL     1      21.709  54.251  34.023  1.00  0.00    -0.550 OA
ENDBRANCH  14  15
ENDBRANCH  13  14
ENDBRANCH  12  13
ENDBRANCH  11  12
ENDBRANCH  10  11
ENDBRANCH   9  10
ENDBRANCH   8   9
ENDBRANCH   7   8
ENDBRANCH   6   7
ENDBRANCH   5   6
ENDBRANCH   4   5
ENDBRANCH   3   4
ENDBRANCH   2   3
ENDBRANCH   1   2
BRANCH   1  18
ATOM     18  C   UNL     1      30.295  48.412  26.278  1.00  0.00     0.000 C 
BRANCH  18  19
ATOM     19  C   UNL     1      31.633  49.126  26.551  1.00  0.00     0.000 C 
BRANCH  19  20
ATOM     20  C   UNL     1      32.874  48.421  25.969  1.00  0.00     0.000 C 
BRANCH  20  21
ATOM     21  C   UNL     1      33.393  47.227  26.798  1.00  0.00     0.000 C 
BRANCH  21  22
ATOM     22  C   UNL     1      34.304  46.251  26.032  1.00  0.00     0.000 C 
BRANCH  22  23
ATOM     23  C   UNL     1      33.534  45.381  25.028  1.00  0.00     0.000 C 
BRANCH  23  24
ATOM     24  C   UNL     1      33.840  45.805  23.583  1.00  0.00    -0.000 C 
BRANCH  24  25
ATOM     25  C   UNL     1      34.637  47.120  23.502  1.00  0.00    -0.000 C 
BRANCH  25  26
ATOM     26  C   UNL     1      35.691  47.174  22.377  1.00  0.00    -0.000 C 
BRANCH  26  27
ATOM     27  C   UNL     1      37.156  47.068  22.846  1.00  0.00    -0.000 C 
BRANCH  27  28
ATOM     28  C   UNL     1      37.355  46.418  24.226  1.00  0.00    -0.000 C 
BRANCH  28  29
ATOM     29  C   UNL     1      38.222  45.148  24.168  1.00  0.00    -0.000 C 
BRANCH  29  30
ATOM     30  C   UNL     1      39.639  45.378  24.716  1.00  0.00    -0.000 C 
BRANCH  30  31
ATOM     31  C   UNL     1      40.732  44.891  23.752  1.00  0.00    -0.003 C 
ATOM     32  C   UNL     1      40.775  45.753  22.493  1.00  0.00     0.004 C 
ENDBRANCH  30  31
ENDBRANCH  29  30
ENDBRANCH  28  29
ENDBRANCH  27  28
ENDBRANCH  26  27
ENDBRANCH  25  26
ENDBRANCH  24  25
ENDBRANCH  23  24
ENDBRANCH  22  23
ENDBRANCH  21  22
ENDBRANCH  20  21
ENDBRANCH  19  20
ENDBRANCH  18  19
ENDBRANCH   1  18
TORSDOF 28
ENDMDL
MODEL 4
REMARK VINA RESULT:     7.909      5.795      8.976
REMARK INTER + INTRA:          18.666
REMARK INTER:                  19.814
REMARK INTRA:                  -1.148
REMARK UNBOUND:                -2.190
REMARK SMILES CCCCCCCCCCCCCCCCCCCCCCCCCCCCCC(=O)[O-]
REMARK SMILES IDX 16 1 17 2 18 3 19 4 20 5 21 6 22 7 23 8 24 9 25 10 26 11
REMARK SMILES IDX 27 12 28 13 29 14 30 15 31 16 32 17 15 18 14 19 13 20 12 21
REMARK SMILES IDX 11 22 10 23 9 24 8 25 7 26 6 27 5 28 4 29 3 30 2 31 1 32
REMARK H PARENT
REMARK Flexibility Score: inf
ROOT
ATOM      1  C   UNL     1      33.738  45.749  24.308  1.00  0.00     0.000 C 
ENDROOT
BRANCH   1   2
ATOM      2  C   UNL     1      33.888  46.291  25.740  1.00  0.00     0.000 C 
BRANCH   2   3
ATOM      3  C   UNL     1      33.324  47.710  25.902  1.00  0.00     0.000 C 
BRANCH   3   4
ATOM      4  C   UNL     1      31.896  47.671  26.463  1.00  0.00     0.000 C 
BRANCH   4   5
ATOM      5  C   UNL     1      30.993  48.769  25.871  1.00  0.00     0.000 C 
BRANCH   5   6
ATOM      6  C   UNL     1      29.564  48.824  26.449  1.00  0.00     0.000 C 
BRANCH   6   7
ATOM      7  C   UNL     1      28.728  50.045  26.024  1.00  0.00     0.000 C 
BRANCH   7   8
ATOM      8  C   UNL     1      27.214  49.802  26.142  1.00  0.00     0.000 C 
BRANCH   8   9
ATOM      9  C   UNL     1      26.381  50.767  25.279  1.00  0.00     0.000 C 
BRANCH   9  10
ATOM     10  C   UNL     1      25.051  51.226  25.905  1.00  0.00     0.000 C 
BRANCH  10  11
ATOM     11  C   UNL     1      24.670  52.664  25.522  1.00  0.00     0.000 C 
BRANCH  11  12
ATOM     12  C   UNL     1      23.924  53.362  26.670  1.00  0.00     0.000 C 
BRANCH  12  13
ATOM     13  C   UNL     1      23.792  52.474  27.918  1.00  0.00     0.006 C 
BRANCH  13  14
ATOM     14  C   UNL     1      22.508  52.755  28.712  1.00  0.00     0.053 C 
BRANCH  14  15
ATOM     15  C   UNL     1      22.696  53.931  29.616  1.00  0.00     0.041 C 
ATOM     16  O   UNL     1      23.758  54.053  30.283  1.00  0.00    -0.550 OA
ATOM     17  O   UNL     1      21.711  54.907  29.704  1.00  0.00    -0.550 OA
ENDBRANCH  14  15
ENDBRANCH  13  14
ENDBRANCH  12  13
ENDBRANCH  11  12
ENDBRANCH  10  11
ENDBRANCH   9  10
ENDBRANCH   8   9
ENDBRANCH   7   8
ENDBRANCH   6   7
ENDBRANCH   5   6
ENDBRANCH   4   5
ENDBRANCH   3   4
ENDBRANCH   2   3
ENDBRANCH   1   2
BRANCH   1  18
ATOM     18  C   UNL     1      34.960  45.981  23.394  1.00  0.00     0.000 C 
BRANCH  18  19
ATOM     19  C   UNL     1      36.057  46.887  23.986  1.00  0.00     0.000 C 
BRANCH  19  20
ATOM     20  C   UNL     1      37.497  46.502  23.593  1.00  0.00     0.000 C 
BRANCH  20  21
ATOM     21  C   UNL     1      38.299  45.773  24.691  1.00  0.00     0.000 C 
BRANCH  21  22
ATOM     22  C   UNL     1      39.655  45.204  24.236  1.00  0.00     0.000 C 
BRANCH  22  23
ATOM     23  C   UNL     1      39.971  45.518  22.766  1.00  0.00     0.000 C 
BRANCH  23  24
ATOM     24  C   UNL     1      40.830  44.410  22.139  1.00  0.00    -0.000 C 
BRANCH  24  25
ATOM     25  C   UNL     1      40.694  44.343  20.607  1.00  0.00    -0.000 C 
BRANCH  25  26
ATOM     26  C   UNL     1      41.117  43.002  19.973  1.00  0.00    -0.000 C 
BRANCH  26  27
ATOM     27  C   UNL     1      40.264  42.546  18.772  1.00  0.00    -0.000 C 
BRANCH  27  28
ATOM     28  C   UNL     1      40.231  41.026  18.535  1.00  0.00    -0.000 C 
BRANCH  28  29
ATOM     29  C   UNL     1      39.137  40.318  19.354  1.00  0.00    -0.000 C 
BRANCH  29  30
ATOM     30  C   UNL     1      39.469  38.843  19.626  1.00  0.00    -0.000 C 
BRANCH  30  31
ATOM     31  C   UNL     1      38.224  38.012  19.974  1.00  0.00    -0.003 C 
ATOM     32  C   UNL     1      36.945  38.778  19.646  1.00  0.00     0.004 C 
ENDBRANCH  30  31
ENDBRANCH  29  30
ENDBRANCH  28  29
ENDBRANCH  27  28
ENDBRANCH  26  27
ENDBRANCH  25  26
ENDBRANCH  24  25
ENDBRANCH  23  24
ENDBRANCH  22  23
ENDBRANCH  21  22
ENDBRANCH  20  21
ENDBRANCH  19  20
ENDBRANCH  18  19
ENDBRANCH   1  18
TORSDOF 28
ENDMDL
MODEL 5
REMARK VINA RESULT:     8.093      9.790     19.658
REMARK INTER + INTRA:          19.149
REMARK INTER:                  20.246
REMARK INTRA:                  -1.097
REMARK UNBOUND:                -2.190
REMARK SMILES CCCCCCCCCCCCCCCCCCCCCCCCCCCCCC(=O)[O-]
REMARK SMILES IDX 16 1 17 2 18 3 19 4 20 5 21 6 22 7 23 8 24 9 25 10 26 11
REMARK SMILES IDX 27 12 28 13 29 14 30 15 31 16 32 17 15 18 14 19 13 20 12 21
REMARK SMILES IDX 11 22 10 23 9 24 8 25 7 26 6 27 5 28 4 29 3 30 2 31 1 32
REMARK H PARENT
REMARK Flexibility Score: inf
ROOT
ATOM      1  C   UNL     1      24.682  51.095  27.440  1.00  0.00     0.000 C 
ENDROOT
BRANCH   1   2
ATOM      2  C   UNL     1      24.545  51.929  26.154  1.00  0.00     0.000 C 
BRANCH   2   3
ATOM      3  C   UNL     1      24.962  51.155  24.895  1.00  0.00     0.000 C 
BRANCH   3   4
ATOM      4  C   UNL     1      26.492  51.084  24.778  1.00  0.00     0.000 C 
BRANCH   4   5
ATOM      5  C   UNL     1      27.084  49.837  25.459  1.00  0.00     0.000 C 
BRANCH   5   6
ATOM      6  C   UNL     1      28.621  49.828  25.587  1.00  0.00     0.000 C 
BRANCH   6   7
ATOM      7  C   UNL     1      29.224  48.548  26.194  1.00  0.00     0.000 C 
BRANCH   7   8
ATOM      8  C   UNL     1      30.674  48.300  25.741  1.00  0.00     0.000 C 
BRANCH   8   9
ATOM      9  C   UNL     1      31.714  48.775  26.773  1.00  0.00     0.000 C 
BRANCH   9  10
ATOM     10  C   UNL     1      33.124  48.180  26.603  1.00  0.00     0.000 C 
BRANCH  10  11
ATOM     11  C   UNL     1      33.125  46.832  25.866  1.00  0.00     0.000 C 
BRANCH  11  12
ATOM     12  C   UNL     1      34.493  46.555  25.224  1.00  0.00     0.000 C 
BRANCH  12  13
ATOM     13  C   UNL     1      34.933  47.667  24.257  1.00  0.00     0.006 C 
BRANCH  13  14
ATOM     14  C   UNL     1      35.713  47.129  23.050  1.00  0.00     0.053 C 
BRANCH  14  15
ATOM     15  C   UNL     1      36.041  48.237  22.100  1.00  0.00     0.041 C 
ATOM     16  O   UNL     1      35.180  48.635  21.271  1.00  0.00    -0.550 OA
ATOM     17  O   UNL     1      37.288  48.849  22.147  1.00  0.00    -0.550 OA
ENDBRANCH  14  15
ENDBRANCH  13  14
ENDBRANCH  12  13
ENDBRANCH  11  12
ENDBRANCH  10  11
ENDBRANCH   9  10
ENDBRANCH   8   9
ENDBRANCH   7   8
ENDBRANCH   6   7
ENDBRANCH   5   6
ENDBRANCH   4   5
ENDBRANCH   3   4
ENDBRANCH   2   3
ENDBRANCH   1   2
BRANCH   1  18
ATOM     18  C   UNL     1      23.914  51.649  28.658  1.00  0.00     0.000 C 
BRANCH  18  19
ATOM     19  C   UNL     1      22.764  52.618  28.320  1.00  0.00     0.000 C 
BRANCH  19  20
ATOM     20  C   UNL     1      22.984  54.071  28.785  1.00  0.00     0.000 C 
BRANCH  20  21
ATOM     21  C   UNL     1      21.796  54.700  29.542  1.00  0.00     0.000 C 
BRANCH  21  22
ATOM     22  C   UNL     1      22.081  55.067  31.010  1.00  0.00     0.000 C 
BRANCH  22  23
ATOM     23  C   UNL     1      20.876  54.821  31.930  1.00  0.00     0.000 C 
BRANCH  23  24
ATOM     24  C   UNL     1      21.216  53.793  33.020  1.00  0.00    -0.000 C 
BRANCH  24  25
ATOM     25  C   UNL     1      20.942  54.317  34.441  1.00  0.00    -0.000 C 
BRANCH  25  26
ATOM     26  C   UNL     1      21.904  53.791  35.526  1.00  0.00    -0.000 C 
BRANCH  26  27
ATOM     27  C   UNL     1      22.862  54.845  36.118  1.00  0.00    -0.000 C 
BRANCH  27  28
ATOM     28  C   UNL     1      24.171  55.050  35.335  1.00  0.00    -0.000 C 
BRANCH  28  29
ATOM     29  C   UNL     1      24.213  54.248  34.022  1.00  0.00    -0.000 C 
BRANCH  29  30
ATOM     30  C   UNL     1      24.886  55.025  32.880  1.00  0.00    -0.000 C 
BRANCH  30  31
ATOM     31  C   UNL     1      24.945  54.220  31.573  1.00  0.00    -0.003 C 
ATOM     32  C   UNL     1      26.181  54.590  30.758  1.00  0.00     0.004 C 
ENDBRANCH  30  31
ENDBRANCH  29  30
ENDBRANCH  28  29
ENDBRANCH  27  28
ENDBRANCH  26  27
ENDBRANCH  25  26
ENDBRANCH  24  25
ENDBRANCH  23  24
ENDBRANCH  22  23
ENDBRANCH  21  22
ENDBRANCH  20  21
ENDBRANCH  19  20
ENDBRANCH  18  19
ENDBRANCH   1  18
TORSDOF 28
ENDMDL
