MODEL 1
REMARK VINA RESULT:    -7.027      0.000      0.000
REMARK INTER + INTRA:          -8.618
REMARK INTER:                  -8.464
REMARK INTRA:                  -0.154
REMARK UNBOUND:                -0.154
REMARK SMILES O=c1c(O)c(-c2ccc(O)c(O)c2)oc2cc(O)cc(O)c12
REMARK SMILES IDX 5 1 3 2 2 3 1 4 22 5 20 6 19 7 17 8 16 9 15 10 14 11 6 12
REMARK SMILES IDX 7 13 8 14 9 15 13 16 11 17 10 18 12 20 4 22 21 24 18 26
REMARK H PARENT 10 19 12 21 4 23 21 25 18 27
REMARK Flexibility Score: inf
ROOT
ATOM      1  C   UNL     1     -15.956  14.736  -8.410  1.00  0.00     0.180 A 
ATOM      2  C   UNL     1     -14.686  15.267  -8.699  1.00  0.00     0.208 A 
ATOM      3  C   UNL     1     -14.017  16.005  -7.710  1.00  0.00     0.238 A 
ATOM      4  O   UNL     1     -12.904  16.523  -7.992  1.00  0.00    -0.285 OA
ATOM      5  C   UNL     1     -14.615  16.191  -6.441  1.00  0.00     0.111 A 
ATOM      6  C   UNL     1     -14.010  16.887  -5.353  1.00  0.00     0.134 A 
ATOM      7  C   UNL     1     -14.749  17.122  -4.187  1.00  0.00     0.093 A 
ATOM      8  C   UNL     1     -16.048  16.629  -4.045  1.00  0.00     0.123 A 
ATOM      9  C   UNL     1     -16.626  15.897  -5.079  1.00  0.00     0.094 A 
ATOM     10  C   UNL     1     -15.928  15.678  -6.269  1.00  0.00     0.146 A 
ATOM     11  O   UNL     1     -16.519  14.983  -7.234  1.00  0.00    -0.452 OA
ENDROOT
BRANCH   1  12
ATOM     12  C   UNL     1     -16.713  13.927  -9.391  1.00  0.00     0.025 A 
ATOM     13  C   UNL     1     -17.922  14.388  -9.943  1.00  0.00     0.016 A 
ATOM     14  C   UNL     1     -18.607  13.618 -10.886  1.00  0.00     0.051 A 
ATOM     15  C   UNL     1     -18.089  12.384 -11.303  1.00  0.00     0.157 A 
ATOM     16  C   UNL     1     -16.188  12.700  -9.828  1.00  0.00     0.062 A 
ATOM     17  C   UNL     1     -16.872  11.925 -10.772  1.00  0.00     0.158 A 
BRANCH  15  18
ATOM     18  O   UNL     1     -18.776  11.618 -12.242  1.00  0.00    -0.504 OA
ATOM     19  H   UNL     1     -18.617  10.620 -12.332  1.00  0.00     0.293 HD
ENDBRANCH  15  18
BRANCH  17  20
ATOM     20  O   UNL     1     -16.326  10.706 -11.171  1.00  0.00    -0.504 OA
ATOM     21  H   UNL     1     -16.280  10.430 -12.144  1.00  0.00     0.293 HD
ENDBRANCH  17  20
ENDBRANCH   1  12
BRANCH   2  22
ATOM     22  O   UNL     1     -14.121  15.091  -9.965  1.00  0.00    -0.502 OA
ATOM     23  H   UNL     1     -13.241  14.610 -10.106  1.00  0.00     0.293 HD
ENDBRANCH   2  22
BRANCH   6  24
ATOM     24  O   UNL     1     -12.687  17.341  -5.355  1.00  0.00    -0.507 OA
ATOM     25  H   UNL     1     -11.935  16.920  -4.830  1.00  0.00     0.293 HD
ENDBRANCH   6  24
BRANCH   8  26
ATOM     26  O   UNL     1     -16.771  16.854  -2.875  1.00  0.00    -0.508 OA
ATOM     27  H   UNL     1     -16.933  17.790  -2.525  1.00  0.00     0.293 HD
ENDBRANCH   8  26
TORSDOF 6
ENDMDL
MODEL 2
REMARK VINA RESULT:    -6.862      2.308      3.845
REMARK INTER + INTRA:          -8.420
REMARK INTER:                  -8.205
REMARK INTRA:                  -0.214
REMARK UNBOUND:                -0.154
REMARK SMILES O=c1c(O)c(-c2ccc(O)c(O)c2)oc2cc(O)cc(O)c12
REMARK SMILES IDX 5 1 3 2 2 3 1 4 22 5 20 6 19 7 17 8 16 9 15 10 14 11 6 12
REMARK SMILES IDX 7 13 8 14 9 15 13 16 11 17 10 18 12 20 4 22 21 24 18 26
REMARK H PARENT 10 19 12 21 4 23 21 25 18 27
REMARK Flexibility Score: inf
ROOT
ATOM      1  C   UNL     1     -17.475  13.653  -8.052  1.00  0.00     0.180 A 
ATOM      2  C   UNL     1     -17.576  14.171  -6.748  1.00  0.00     0.208 A 
ATOM      3  C   UNL     1     -16.640  15.126  -6.322  1.00  0.00     0.238 A 
ATOM      4  O   UNL     1     -16.702  15.546  -5.136  1.00  0.00    -0.285 OA
ATOM      5  C   UNL     1     -15.626  15.565  -7.206  1.00  0.00     0.111 A 
ATOM      6  C   UNL     1     -14.650  16.558  -6.892  1.00  0.00     0.134 A 
ATOM      7  C   UNL     1     -13.614  16.819  -7.798  1.00  0.00     0.093 A 
ATOM      8  C   UNL     1     -13.557  16.169  -9.034  1.00  0.00     0.123 A 
ATOM      9  C   UNL     1     -14.539  15.242  -9.373  1.00  0.00     0.094 A 
ATOM     10  C   UNL     1     -15.564  14.933  -8.476  1.00  0.00     0.146 A 
ATOM     11  O   UNL     1     -16.474  14.035  -8.835  1.00  0.00    -0.452 OA
ENDROOT
BRANCH   1  12
ATOM     12  C   UNL     1     -18.437  12.661  -8.582  1.00  0.00     0.025 A 
ATOM     13  C   UNL     1     -19.346  12.996  -9.603  1.00  0.00     0.016 A 
ATOM     14  C   UNL     1     -20.228  12.037 -10.105  1.00  0.00     0.051 A 
ATOM     15  C   UNL     1     -20.209  10.727  -9.606  1.00  0.00     0.157 A 
ATOM     16  C   UNL     1     -18.408  11.343  -8.101  1.00  0.00     0.062 A 
ATOM     17  C   UNL     1     -19.291  10.379  -8.601  1.00  0.00     0.158 A 
BRANCH  15  18
ATOM     18  O   UNL     1     -21.092   9.773 -10.108  1.00  0.00    -0.504 OA
ATOM     19  H   UNL     1     -21.497   9.860 -11.034  1.00  0.00     0.293 HD
ENDBRANCH  15  18
BRANCH  17  20
ATOM     20  O   UNL     1     -19.242   9.083  -8.089  1.00  0.00    -0.504 OA
ATOM     21  H   UNL     1     -20.051   8.637  -7.675  1.00  0.00     0.293 HD
ENDBRANCH  17  20
ENDBRANCH   1  12
BRANCH   2  22
ATOM     22  O   UNL     1     -18.571  13.709  -5.883  1.00  0.00    -0.502 OA
ATOM     23  H   UNL     1     -18.662  12.732  -5.630  1.00  0.00     0.293 HD
ENDBRANCH   2  22
BRANCH   6  24
ATOM     24  O   UNL     1     -14.669  17.331  -5.727  1.00  0.00    -0.507 OA
ATOM     25  H   UNL     1     -15.324  17.212  -4.970  1.00  0.00     0.293 HD
ENDBRANCH   6  24
BRANCH   8  26
ATOM     26  O   UNL     1     -12.532  16.446  -9.936  1.00  0.00    -0.508 OA
ATOM     27  H   UNL     1     -12.362  15.855 -10.742  1.00  0.00     0.293 HD
ENDBRANCH   8  26
TORSDOF 6
ENDMDL
MODEL 3
REMARK VINA RESULT:    -6.616      1.182      1.189
REMARK INTER + INTRA:          -8.124
REMARK INTER:                  -7.861
REMARK INTRA:                  -0.263
REMARK UNBOUND:                -0.154
REMARK SMILES O=c1c(O)c(-c2ccc(O)c(O)c2)oc2cc(O)cc(O)c12
REMARK SMILES IDX 5 1 3 2 2 3 1 4 22 5 20 6 19 7 17 8 16 9 15 10 14 11 6 12
REMARK SMILES IDX 7 13 8 14 9 15 13 16 11 17 10 18 12 20 4 22 21 24 18 26
REMARK H PARENT 10 19 12 21 4 23 21 25 18 27
REMARK Flexibility Score: inf
ROOT
ATOM      1  C   UNL     1     -16.616  14.426  -8.305  1.00  0.00     0.180 A 
ATOM      2  C   UNL     1     -15.289  14.710  -8.674  1.00  0.00     0.208 A 
ATOM      3  C   UNL     1     -14.507  15.515  -7.831  1.00  0.00     0.238 A 
ATOM      4  O   UNL     1     -13.337  15.811  -8.192  1.00  0.00    -0.285 OA
ATOM      5  C   UNL     1     -15.053  16.014  -6.624  1.00  0.00     0.111 A 
ATOM      6  C   UNL     1     -14.339  16.806  -5.677  1.00  0.00     0.134 A 
ATOM      7  C   UNL     1     -15.019  17.353  -4.582  1.00  0.00     0.093 A 
ATOM      8  C   UNL     1     -16.372  17.082  -4.365  1.00  0.00     0.123 A 
ATOM      9  C   UNL     1     -17.063  16.262  -5.253  1.00  0.00     0.094 A 
ATOM     10  C   UNL     1     -16.422  15.732  -6.375  1.00  0.00     0.146 A 
ATOM     11  O   UNL     1     -17.121  14.962  -7.201  1.00  0.00    -0.452 OA
ENDROOT
BRANCH   1  12
ATOM     12  C   UNL     1     -17.495  13.566  -9.129  1.00  0.00     0.025 A 
ATOM     13  C   UNL     1     -18.064  14.034 -10.327  1.00  0.00     0.016 A 
ATOM     14  C   UNL     1     -18.871  13.196 -11.100  1.00  0.00     0.051 A 
ATOM     15  C   UNL     1     -19.110  11.875 -10.698  1.00  0.00     0.157 A 
ATOM     16  C   UNL     1     -17.721  12.235  -8.741  1.00  0.00     0.062 A 
ATOM     17  C   UNL     1     -18.529  11.392  -9.513  1.00  0.00     0.158 A 
BRANCH  15  18
ATOM     18  O   UNL     1     -19.916  11.042 -11.471  1.00  0.00    -0.504 OA
ATOM     19  H   UNL     1     -19.639  10.093 -11.694  1.00  0.00     0.293 HD
ENDBRANCH  15  18
BRANCH  17  20
ATOM     20  O   UNL     1     -18.742  10.082  -9.089  1.00  0.00    -0.504 OA
ATOM     21  H   UNL     1     -19.500   9.516  -9.449  1.00  0.00     0.293 HD
ENDBRANCH  17  20
ENDBRANCH   1  12
BRANCH   2  22
ATOM     22  O   UNL     1     -14.775  14.226  -9.880  1.00  0.00    -0.502 OA
ATOM     23  H   UNL     1     -14.304  14.823 -10.549  1.00  0.00     0.293 HD
ENDBRANCH   2  22
BRANCH   6  24
ATOM     24  O   UNL     1     -12.966  17.060  -5.749  1.00  0.00    -0.507 OA
ATOM     25  H   UNL     1     -12.556  17.899  -6.129  1.00  0.00     0.293 HD
ENDBRANCH   6  24
BRANCH   8  26
ATOM     26  O   UNL     1     -17.037  17.618  -3.264  1.00  0.00    -0.508 OA
ATOM     27  H   UNL     1     -16.838  18.553  -2.928  1.00  0.00     0.293 HD
ENDBRANCH   8  26
TORSDOF 6
ENDMDL
MODEL 4
REMARK VINA RESULT:    -6.598      1.939      7.319
REMARK INTER + INTRA:          -8.102
REMARK INTER:                  -7.811
REMARK INTRA:                  -0.291
REMARK UNBOUND:                -0.154
REMARK SMILES O=c1c(O)c(-c2ccc(O)c(O)c2)oc2cc(O)cc(O)c12
REMARK SMILES IDX 5 1 3 2 2 3 1 4 22 5 20 6 19 7 17 8 16 9 15 10 14 11 6 12
REMARK SMILES IDX 7 13 8 14 9 15 13 16 11 17 10 18 12 20 4 22 21 24 18 26
REMARK H PARENT 10 19 12 21 4 23 21 25 18 27
REMARK Flexibility Score: inf
ROOT
ATOM      1  C   UNL     1     -16.683  14.821  -7.170  1.00  0.00     0.180 A 
ATOM      2  C   UNL     1     -18.007  14.347  -7.154  1.00  0.00     0.208 A 
ATOM      3  C   UNL     1     -18.410  13.419  -8.127  1.00  0.00     0.238 A 
ATOM      4  O   UNL     1     -19.610  13.039  -8.141  1.00  0.00    -0.285 OA
ATOM      5  C   UNL     1     -17.482  12.963  -9.095  1.00  0.00     0.111 A 
ATOM      6  C   UNL     1     -17.771  11.995 -10.102  1.00  0.00     0.134 A 
ATOM      7  C   UNL     1     -16.815  11.717 -11.086  1.00  0.00     0.093 A 
ATOM      8  C   UNL     1     -15.557  12.324 -11.061  1.00  0.00     0.123 A 
ATOM      9  C   UNL     1     -15.245  13.226 -10.047  1.00  0.00     0.094 A 
ATOM     10  C   UNL     1     -16.191  13.552  -9.072  1.00  0.00     0.146 A 
ATOM     11  O   UNL     1     -15.856  14.425  -8.129  1.00  0.00    -0.452 OA
ENDROOT
BRANCH   1  12
ATOM     12  C   UNL     1     -16.178  15.781  -6.163  1.00  0.00     0.025 A 
ATOM     13  C   UNL     1     -15.379  15.358  -5.085  1.00  0.00     0.016 A 
ATOM     14  C   UNL     1     -14.893  16.285  -4.161  1.00  0.00     0.051 A 
ATOM     15  C   UNL     1     -15.185  17.648  -4.305  1.00  0.00     0.157 A 
ATOM     16  C   UNL     1     -16.450  17.150  -6.315  1.00  0.00     0.062 A 
ATOM     17  C   UNL     1     -15.965  18.082  -5.390  1.00  0.00     0.158 A 
BRANCH  15  18
ATOM     18  O   UNL     1     -14.700  18.571  -3.380  1.00  0.00    -0.504 OA
ATOM     19  H   UNL     1     -14.589  19.551  -3.615  1.00  0.00     0.293 HD
ENDBRANCH  15  18
BRANCH  17  20
ATOM     20  O   UNL     1     -16.267  19.432  -5.566  1.00  0.00    -0.504 OA
ATOM     21  H   UNL     1     -15.721  20.166  -5.134  1.00  0.00     0.293 HD
ENDBRANCH  17  20
ENDBRANCH   1  12
BRANCH   2  22
ATOM     22  O   UNL     1     -18.914  14.825  -6.204  1.00  0.00    -0.502 OA
ATOM     23  H   UNL     1     -18.961  15.802  -5.941  1.00  0.00     0.293 HD
ENDBRANCH   2  22
BRANCH   6  24
ATOM     24  O   UNL     1     -18.960  11.263 -10.163  1.00  0.00    -0.507 OA
ATOM     25  H   UNL     1     -19.726  11.462 -10.790  1.00  0.00     0.293 HD
ENDBRANCH   6  24
BRANCH   8  26
ATOM     26  O   UNL     1     -14.605  12.030 -12.036  1.00  0.00    -0.508 OA
ATOM     27  H   UNL     1     -14.138  12.762 -12.557  1.00  0.00     0.293 HD
ENDBRANCH   8  26
TORSDOF 6
ENDMDL
MODEL 5
REMARK VINA RESULT:    -6.278      2.129      6.789
REMARK INTER + INTRA:          -7.717
REMARK INTER:                  -7.431
REMARK INTRA:                  -0.285
REMARK UNBOUND:                -0.154
REMARK SMILES O=c1c(O)c(-c2ccc(O)c(O)c2)oc2cc(O)cc(O)c12
REMARK SMILES IDX 5 1 3 2 2 3 1 4 22 5 20 6 19 7 17 8 16 9 15 10 14 11 6 12
REMARK SMILES IDX 7 13 8 14 9 15 13 16 11 17 10 18 12 20 4 22 21 24 18 26
REMARK H PARENT 10 19 12 21 4 23 21 25 18 27
REMARK Flexibility Score: inf
ROOT
ATOM      1  C   UNL     1     -16.467  14.760  -7.325  1.00  0.00     0.180 A 
ATOM      2  C   UNL     1     -15.610  14.490  -8.407  1.00  0.00     0.208 A 
ATOM      3  C   UNL     1     -15.975  13.501  -9.334  1.00  0.00     0.238 A 
ATOM      4  O   UNL     1     -15.179  13.226 -10.269  1.00  0.00    -0.285 OA
ATOM      5  C   UNL     1     -17.198  12.805  -9.179  1.00  0.00     0.111 A 
ATOM      6  C   UNL     1     -17.685  11.812 -10.080  1.00  0.00     0.134 A 
ATOM      7  C   UNL     1     -18.845  11.097  -9.757  1.00  0.00     0.093 A 
ATOM      8  C   UNL     1     -19.570  11.384  -8.597  1.00  0.00     0.123 A 
ATOM      9  C   UNL     1     -19.133  12.393  -7.742  1.00  0.00     0.094 A 
ATOM     10  C   UNL     1     -17.960  13.099  -8.018  1.00  0.00     0.146 A 
ATOM     11  O   UNL     1     -17.574  14.045  -7.171  1.00  0.00    -0.452 OA
ENDROOT
BRANCH   1  12
ATOM     12  C   UNL     1     -16.163  15.804  -6.321  1.00  0.00     0.025 A 
ATOM     13  C   UNL     1     -15.621  15.477  -5.065  1.00  0.00     0.016 A 
ATOM     14  C   UNL     1     -15.320  16.481  -4.142  1.00  0.00     0.051 A 
ATOM     15  C   UNL     1     -15.541  17.827  -4.463  1.00  0.00     0.157 A 
ATOM     16  C   UNL     1     -16.363  17.156  -6.646  1.00  0.00     0.062 A 
ATOM     17  C   UNL     1     -16.063  18.165  -5.724  1.00  0.00     0.158 A 
BRANCH  15  18
ATOM     18  O   UNL     1     -15.240  18.826  -3.540  1.00  0.00    -0.504 OA
ATOM     19  H   UNL     1     -15.264  18.651  -2.542  1.00  0.00     0.293 HD
ENDBRANCH  15  18
BRANCH  17  20
ATOM     20  O   UNL     1     -16.288  19.495  -6.077  1.00  0.00    -0.504 OA
ATOM     21  H   UNL     1     -16.783  20.136  -5.470  1.00  0.00     0.293 HD
ENDBRANCH  17  20
ENDBRANCH   1  12
BRANCH   2  22
ATOM     22  O   UNL     1     -14.397  15.173  -8.530  1.00  0.00    -0.502 OA
ATOM     23  H   UNL     1     -13.631  15.043  -7.881  1.00  0.00     0.293 HD
ENDBRANCH   2  22
BRANCH   6  24
ATOM     24  O   UNL     1     -17.089  11.512 -11.309  1.00  0.00    -0.507 OA
ATOM     25  H   UNL     1     -17.261  10.672 -11.840  1.00  0.00     0.293 HD
ENDBRANCH   6  24
BRANCH   8  26
ATOM     26  O   UNL     1     -20.731  10.678  -8.291  1.00  0.00    -0.508 OA
ATOM     27  H   UNL     1     -20.925   9.773  -8.705  1.00  0.00     0.293 HD
ENDBRANCH   8  26
TORSDOF 6
ENDMDL
MODEL 6
REMARK VINA RESULT:    -6.171      1.368      3.121
REMARK INTER + INTRA:          -7.587
REMARK INTER:                  -7.390
REMARK INTRA:                  -0.197
REMARK UNBOUND:                -0.154
REMARK SMILES O=c1c(O)c(-c2ccc(O)c(O)c2)oc2cc(O)cc(O)c12
REMARK SMILES IDX 5 1 3 2 2 3 1 4 22 5 20 6 19 7 17 8 16 9 15 10 14 11 6 12
REMARK SMILES IDX 7 13 8 14 9 15 13 16 11 17 10 18 12 20 4 22 21 24 18 26
REMARK H PARENT 10 19 12 21 4 23 21 25 18 27
REMARK Flexibility Score: inf
ROOT
ATOM      1  C   UNL     1     -17.445  14.279  -7.520  1.00  0.00     0.180 A 
ATOM      2  C   UNL     1     -18.209  14.214  -6.341  1.00  0.00     0.208 A 
ATOM      3  C   UNL     1     -17.710  14.815  -5.174  1.00  0.00     0.238 A 
ATOM      4  O   UNL     1     -18.372  14.707  -4.109  1.00  0.00    -0.285 OA
ATOM      5  C   UNL     1     -16.465  15.487  -5.203  1.00  0.00     0.111 A 
ATOM      6  C   UNL     1     -15.883  16.164  -4.090  1.00  0.00     0.134 A 
ATOM      7  C   UNL     1     -14.586  16.682  -4.197  1.00  0.00     0.093 A 
ATOM      8  C   UNL     1     -13.876  16.603  -5.398  1.00  0.00     0.123 A 
ATOM      9  C   UNL     1     -14.460  15.996  -6.507  1.00  0.00     0.094 A 
ATOM     10  C   UNL     1     -15.737  15.438  -6.421  1.00  0.00     0.146 A 
ATOM     11  O   UNL     1     -16.252  14.859  -7.499  1.00  0.00    -0.452 OA
ENDROOT
BRANCH   1  12
ATOM     12  C   UNL     1     -17.914  13.692  -8.795  1.00  0.00     0.025 A 
ATOM     13  C   UNL     1     -19.054  14.187  -9.455  1.00  0.00     0.016 A 
ATOM     14  C   UNL     1     -19.464  13.633 -10.669  1.00  0.00     0.051 A 
ATOM     15  C   UNL     1     -18.736  12.587 -11.251  1.00  0.00     0.157 A 
ATOM     16  C   UNL     1     -17.177  12.657  -9.394  1.00  0.00     0.062 A 
ATOM     17  C   UNL     1     -17.585  12.099 -10.610  1.00  0.00     0.158 A 
BRANCH  15  18
ATOM     18  O   UNL     1     -19.149  12.035 -12.463  1.00  0.00    -0.504 OA
ATOM     19  H   UNL     1     -18.609  12.156 -13.312  1.00  0.00     0.293 HD
ENDBRANCH  15  18
BRANCH  17  20
ATOM     20  O   UNL     1     -16.834  11.064 -11.167  1.00  0.00    -0.504 OA
ATOM     21  H   UNL     1     -17.012  10.713 -12.100  1.00  0.00     0.293 HD
ENDBRANCH  17  20
ENDBRANCH   1  12
BRANCH   2  22
ATOM     22  O   UNL     1     -19.426  13.528  -6.328  1.00  0.00    -0.502 OA
ATOM     23  H   UNL     1     -19.842  13.142  -7.167  1.00  0.00     0.293 HD
ENDBRANCH   2  22
BRANCH   6  24
ATOM     24  O   UNL     1     -16.542  16.379  -2.875  1.00  0.00    -0.507 OA
ATOM     25  H   UNL     1     -17.544  16.423  -2.765  1.00  0.00     0.293 HD
ENDBRANCH   6  24
BRANCH   8  26
ATOM     26  O   UNL     1     -12.592  17.135  -5.501  1.00  0.00    -0.508 OA
ATOM     27  H   UNL     1     -12.136  17.245  -6.399  1.00  0.00     0.293 HD
ENDBRANCH   8  26
TORSDOF 6
ENDMDL
MODEL 7
REMARK VINA RESULT:    -6.123      2.091      7.294
REMARK INTER + INTRA:          -7.529
REMARK INTER:                  -7.377
REMARK INTRA:                  -0.152
REMARK UNBOUND:                -0.154
REMARK SMILES O=c1c(O)c(-c2ccc(O)c(O)c2)oc2cc(O)cc(O)c12
REMARK SMILES IDX 5 1 3 2 2 3 1 4 22 5 20 6 19 7 17 8 16 9 15 10 14 11 6 12
REMARK SMILES IDX 7 13 8 14 9 15 13 16 11 17 10 18 12 20 4 22 21 24 18 26
REMARK H PARENT 10 19 12 21 4 23 21 25 18 27
REMARK Flexibility Score: inf
ROOT
ATOM      1  C   UNL     1     -16.809  14.519  -7.156  1.00  0.00     0.180 A 
ATOM      2  C   UNL     1     -17.817  13.933  -6.370  1.00  0.00     0.208 A 
ATOM      3  C   UNL     1     -18.875  13.265  -7.008  1.00  0.00     0.238 A 
ATOM      4  O   UNL     1     -19.802  12.789  -6.302  1.00  0.00    -0.285 OA
ATOM      5  C   UNL     1     -18.905  13.177  -8.420  1.00  0.00     0.111 A 
ATOM      6  C   UNL     1     -19.908  12.491  -9.168  1.00  0.00     0.134 A 
ATOM      7  C   UNL     1     -19.909  12.581 -10.566  1.00  0.00     0.093 A 
ATOM      8  C   UNL     1     -18.905  13.278 -11.244  1.00  0.00     0.123 A 
ATOM      9  C   UNL     1     -17.889  13.901 -10.524  1.00  0.00     0.094 A 
ATOM     10  C   UNL     1     -17.882  13.861  -9.128  1.00  0.00     0.146 A 
ATOM     11  O   UNL     1     -16.900  14.477  -8.480  1.00  0.00    -0.452 OA
ENDROOT
BRANCH   1  12
ATOM     12  C   UNL     1     -15.650  15.218  -6.557  1.00  0.00     0.025 A 
ATOM     13  C   UNL     1     -14.337  14.747  -6.739  1.00  0.00     0.016 A 
ATOM     14  C   UNL     1     -13.256  15.436  -6.185  1.00  0.00     0.051 A 
ATOM     15  C   UNL     1     -13.467  16.613  -5.453  1.00  0.00     0.157 A 
ATOM     16  C   UNL     1     -15.854  16.408  -5.842  1.00  0.00     0.062 A 
ATOM     17  C   UNL     1     -14.774  17.102  -5.284  1.00  0.00     0.158 A 
BRANCH  15  18
ATOM     18  O   UNL     1     -12.387  17.297  -4.900  1.00  0.00    -0.504 OA
ATOM     19  H   UNL     1     -11.804  16.879  -4.184  1.00  0.00     0.293 HD
ENDBRANCH  15  18
BRANCH  17  20
ATOM     20  O   UNL     1     -15.017  18.273  -4.568  1.00  0.00    -0.504 OA
ATOM     21  H   UNL     1     -14.561  18.468  -3.685  1.00  0.00     0.293 HD
ENDBRANCH  17  20
ENDBRANCH   1  12
BRANCH   2  22
ATOM     22  O   UNL     1     -17.780  14.049  -4.978  1.00  0.00    -0.502 OA
ATOM     23  H   UNL     1     -18.491  14.545  -4.455  1.00  0.00     0.293 HD
ENDBRANCH   2  22
BRANCH   6  24
ATOM     24  O   UNL     1     -20.900  11.691  -8.594  1.00  0.00    -0.507 OA
ATOM     25  H   UNL     1     -21.470  11.031  -9.101  1.00  0.00     0.293 HD
ENDBRANCH   6  24
BRANCH   8  26
ATOM     26  O   UNL     1     -18.905  13.349 -12.636  1.00  0.00    -0.508 OA
ATOM     27  H   UNL     1     -18.194  13.867 -13.139  1.00  0.00     0.293 HD
ENDBRANCH   8  26
TORSDOF 6
ENDMDL
MODEL 8
REMARK VINA RESULT:    -5.914     15.183     17.437
REMARK INTER + INTRA:          -7.278
REMARK INTER:                  -7.260
REMARK INTRA:                  -0.018
REMARK UNBOUND:                -0.154
REMARK SMILES O=c1c(O)c(-c2ccc(O)c(O)c2)oc2cc(O)cc(O)c12
REMARK SMILES IDX 5 1 3 2 2 3 1 4 22 5 20 6 19 7 17 8 16 9 15 10 14 11 6 12
REMARK SMILES IDX 7 13 8 14 9 15 13 16 11 17 10 18 12 20 4 22 21 24 18 26
REMARK H PARENT 10 19 12 21 4 23 21 25 18 27
REMARK Flexibility Score: inf
ROOT
ATOM      1  C   UNL     1      -5.079   5.258 -18.083  1.00  0.00     0.180 A 
ATOM      2  C   UNL     1      -3.712   4.929 -18.056  1.00  0.00     0.208 A 
ATOM      3  C   UNL     1      -3.060   4.831 -16.817  1.00  0.00     0.238 A 
ATOM      4  O   UNL     1      -1.824   4.589 -16.801  1.00  0.00    -0.285 OA
ATOM      5  C   UNL     1      -3.784   5.047 -15.619  1.00  0.00     0.111 A 
ATOM      6  C   UNL     1      -3.233   4.934 -14.308  1.00  0.00     0.134 A 
ATOM      7  C   UNL     1      -4.009   5.298 -13.200  1.00  0.00     0.093 A 
ATOM      8  C   UNL     1      -5.336   5.708 -13.353  1.00  0.00     0.123 A 
ATOM      9  C   UNL     1      -5.900   5.764 -14.625  1.00  0.00     0.094 A 
ATOM     10  C   UNL     1      -5.140   5.443 -15.752  1.00  0.00     0.146 A 
ATOM     11  O   UNL     1      -5.714   5.519 -16.948  1.00  0.00    -0.452 OA
ENDROOT
BRANCH   1  12
ATOM     12  C   UNL     1      -5.840   5.356 -19.349  1.00  0.00     0.025 A 
ATOM     13  C   UNL     1      -5.392   6.160 -20.412  1.00  0.00     0.016 A 
ATOM     14  C   UNL     1      -6.115   6.218 -21.606  1.00  0.00     0.051 A 
ATOM     15  C   UNL     1      -7.286   5.465 -21.762  1.00  0.00     0.157 A 
ATOM     16  C   UNL     1      -7.003   4.587 -19.518  1.00  0.00     0.062 A 
ATOM     17  C   UNL     1      -7.730   4.643 -20.712  1.00  0.00     0.158 A 
BRANCH  15  18
ATOM     18  O   UNL     1      -8.005   5.526 -22.954  1.00  0.00    -0.504 OA
ATOM     19  H   UNL     1      -7.541   5.637 -23.849  1.00  0.00     0.293 HD
ENDBRANCH  15  18
BRANCH  17  20
ATOM     20  O   UNL     1      -8.887   3.876 -20.839  1.00  0.00    -0.504 OA
ATOM     21  H   UNL     1      -9.053   3.282 -21.642  1.00  0.00     0.293 HD
ENDBRANCH  17  20
ENDBRANCH   1  12
BRANCH   2  22
ATOM     22  O   UNL     1      -3.010   4.741 -19.250  1.00  0.00    -0.502 OA
ATOM     23  H   UNL     1      -3.050   3.875 -19.774  1.00  0.00     0.293 HD
ENDBRANCH   2  22
BRANCH   6  24
ATOM     24  O   UNL     1      -1.951   4.447 -14.038  1.00  0.00    -0.507 OA
ATOM     25  H   UNL     1      -1.197   4.414 -14.707  1.00  0.00     0.293 HD
ENDBRANCH   6  24
BRANCH   8  26
ATOM     26  O   UNL     1      -6.106   6.053 -12.244  1.00  0.00    -0.508 OA
ATOM     27  H   UNL     1      -5.904   6.881 -11.696  1.00  0.00     0.293 HD
ENDBRANCH   8  26
TORSDOF 6
ENDMDL
MODEL 9
REMARK VINA RESULT:    -5.802     15.287     18.526
REMARK INTER + INTRA:          -7.143
REMARK INTER:                  -6.969
REMARK INTRA:                  -0.173
REMARK UNBOUND:                -0.154
REMARK SMILES O=c1c(O)c(-c2ccc(O)c(O)c2)oc2cc(O)cc(O)c12
REMARK SMILES IDX 5 1 3 2 2 3 1 4 22 5 20 6 19 7 17 8 16 9 15 10 14 11 6 12
REMARK SMILES IDX 7 13 8 14 9 15 13 16 11 17 10 18 12 20 4 22 21 24 18 26
REMARK H PARENT 10 19 12 21 4 23 21 25 18 27
REMARK Flexibility Score: inf
ROOT
ATOM      1  C   UNL     1      -4.714   5.280 -17.347  1.00  0.00     0.180 A 
ATOM      2  C   UNL     1      -3.637   5.775 -18.103  1.00  0.00     0.208 A 
ATOM      3  C   UNL     1      -3.805   5.965 -19.484  1.00  0.00     0.238 A 
ATOM      4  O   UNL     1      -2.821   6.357 -20.165  1.00  0.00    -0.285 OA
ATOM      5  C   UNL     1      -5.051   5.673 -20.090  1.00  0.00     0.111 A 
ATOM      6  C   UNL     1      -5.345   5.865 -21.472  1.00  0.00     0.134 A 
ATOM      7  C   UNL     1      -6.569   5.419 -21.987  1.00  0.00     0.093 A 
ATOM      8  C   UNL     1      -7.534   4.848 -21.154  1.00  0.00     0.123 A 
ATOM      9  C   UNL     1      -7.279   4.711 -19.792  1.00  0.00     0.094 A 
ATOM     10  C   UNL     1      -6.054   5.112 -19.256  1.00  0.00     0.146 A 
ATOM     11  O   UNL     1      -5.848   4.954 -17.954  1.00  0.00    -0.452 OA
ENDROOT
BRANCH   1  12
ATOM     12  C   UNL     1      -4.621   5.077 -15.884  1.00  0.00     0.025 A 
ATOM     13  C   UNL     1      -3.754   4.117 -15.331  1.00  0.00     0.016 A 
ATOM     14  C   UNL     1      -3.665   3.960 -13.946  1.00  0.00     0.051 A 
ATOM     15  C   UNL     1      -4.428   4.767 -13.092  1.00  0.00     0.157 A 
ATOM     16  C   UNL     1      -5.368   5.897 -15.022  1.00  0.00     0.062 A 
ATOM     17  C   UNL     1      -5.282   5.742 -13.634  1.00  0.00     0.158 A 
BRANCH  15  18
ATOM     18  O   UNL     1      -4.338   4.606 -11.710  1.00  0.00    -0.504 OA
ATOM     19  H   UNL     1      -5.126   4.280 -11.161  1.00  0.00     0.293 HD
ENDBRANCH  15  18
BRANCH  17  20
ATOM     20  O   UNL     1      -6.050   6.565 -12.811  1.00  0.00    -0.504 OA
ATOM     21  H   UNL     1      -6.344   6.277 -11.886  1.00  0.00     0.293 HD
ENDBRANCH  17  20
ENDBRANCH   1  12
BRANCH   2  22
ATOM     22  O   UNL     1      -2.408   6.037 -17.490  1.00  0.00    -0.502 OA
ATOM     23  H   UNL     1      -2.042   6.975 -17.384  1.00  0.00     0.293 HD
ENDBRANCH   2  22
BRANCH   6  24
ATOM     24  O   UNL     1      -4.488   6.508 -22.371  1.00  0.00    -0.507 OA
ATOM     25  H   UNL     1      -3.607   6.931 -22.122  1.00  0.00     0.293 HD
ENDBRANCH   6  24
BRANCH   8  26
ATOM     26  O   UNL     1      -8.756   4.421 -21.671  1.00  0.00    -0.508 OA
ATOM     27  H   UNL     1      -9.185   4.882 -22.465  1.00  0.00     0.293 HD
ENDBRANCH   8  26
TORSDOF 6
ENDMDL
