MODEL 1
REMARK VINA RESULT:    -7.623      0.000      0.000
REMARK INTER + INTRA:          -9.463
REMARK INTER:                  -9.182
REMARK INTRA:                  -0.281
REMARK UNBOUND:                -0.281
REMARK SMILES O=c1c(O)c(-c2ccc(O)c(O)c2)oc2cc(O)cc(O)c12
REMARK SMILES IDX 5 1 3 2 2 3 1 4 22 5 20 6 19 7 17 8 16 9 15 10 14 11 6 12
REMARK SMILES IDX 7 13 8 14 9 15 13 16 11 17 10 18 12 20 4 22 21 24 18 26
REMARK H PARENT 10 19 12 21 4 23 21 25 18 27
REMARK Flexibility Score: inf
ROOT
ATOM      1  C   UNL     1     -60.432  20.309 -29.874  1.00  0.00     0.180 A 
ATOM      2  C   UNL     1     -59.430  20.994 -29.167  1.00  0.00     0.208 A 
ATOM      3  C   UNL     1     -59.391  22.397 -29.226  1.00  0.00     0.238 A 
ATOM      4  O   UNL     1     -58.525  23.007 -28.547  1.00  0.00    -0.285 OA
ATOM      5  C   UNL     1     -60.346  23.096 -30.003  1.00  0.00     0.111 A 
ATOM      6  C   UNL     1     -60.377  24.513 -30.166  1.00  0.00     0.134 A 
ATOM      7  C   UNL     1     -61.446  25.105 -30.852  1.00  0.00     0.093 A 
ATOM      8  C   UNL     1     -62.446  24.330 -31.435  1.00  0.00     0.123 A 
ATOM      9  C   UNL     1     -62.393  22.939 -31.333  1.00  0.00     0.094 A 
ATOM     10  C   UNL     1     -61.360  22.321 -30.625  1.00  0.00     0.146 A 
ATOM     11  O   UNL     1     -61.353  20.996 -30.541  1.00  0.00    -0.452 OA
ENDROOT
BRANCH   1  12
ATOM     12  C   UNL     1     -60.522  18.832 -29.881  1.00  0.00     0.025 A 
ATOM     13  C   UNL     1     -61.100  18.169 -28.788  1.00  0.00     0.016 A 
ATOM     14  C   UNL     1     -61.214  16.776 -28.782  1.00  0.00     0.051 A 
ATOM     15  C   UNL     1     -60.765  16.028 -29.877  1.00  0.00     0.157 A 
ATOM     16  C   UNL     1     -60.091  18.076 -30.988  1.00  0.00     0.062 A 
ATOM     17  C   UNL     1     -60.207  16.678 -30.984  1.00  0.00     0.158 A 
BRANCH  15  18
ATOM     18  O   UNL     1     -60.875  14.638 -29.875  1.00  0.00    -0.504 OA
ATOM     19  H   UNL     1     -60.070  14.043 -30.034  1.00  0.00     0.293 HD
ENDBRANCH  15  18
BRANCH  17  20
ATOM     20  O   UNL     1     -59.774  15.933 -32.079  1.00  0.00    -0.504 OA
ATOM     21  H   UNL     1     -60.310  15.890 -32.938  1.00  0.00     0.293 HD
ENDBRANCH  17  20
ENDBRANCH   1  12
BRANCH   2  22
ATOM     22  O   UNL     1     -58.510  20.286 -28.388  1.00  0.00    -0.502 OA
ATOM     23  H   UNL     1     -57.524  20.239 -28.619  1.00  0.00     0.293 HD
ENDBRANCH   2  22
BRANCH   6  24
ATOM     24  O   UNL     1     -59.379  25.375 -29.702  1.00  0.00    -0.507 OA
ATOM     25  H   UNL     1     -59.414  26.381 -29.767  1.00  0.00     0.293 HD
ENDBRANCH   6  24
BRANCH   8  26
ATOM     26  O   UNL     1     -63.485  24.952 -32.124  1.00  0.00    -0.508 OA
ATOM     27  H   UNL     1     -64.263  25.381 -31.636  1.00  0.00     0.293 HD
ENDBRANCH   8  26
TORSDOF 6
ENDMDL
MODEL 2
REMARK VINA RESULT:    -7.499      1.564      3.315
REMARK INTER + INTRA:          -9.314
REMARK INTER:                  -9.194
REMARK INTRA:                  -0.120
REMARK UNBOUND:                -0.281
REMARK SMILES O=c1c(O)c(-c2ccc(O)c(O)c2)oc2cc(O)cc(O)c12
REMARK SMILES IDX 5 1 3 2 2 3 1 4 22 5 20 6 19 7 17 8 16 9 15 10 14 11 6 12
REMARK SMILES IDX 7 13 8 14 9 15 13 16 11 17 10 18 12 20 4 22 21 24 18 26
REMARK H PARENT 10 19 12 21 4 23 21 25 18 27
REMARK Flexibility Score: inf
ROOT
ATOM      1  C   UNL     1     -60.044  20.603 -29.467  1.00  0.00     0.180 A 
ATOM      2  C   UNL     1     -60.713  21.537 -30.277  1.00  0.00     0.208 A 
ATOM      3  C   UNL     1     -60.489  22.907 -30.066  1.00  0.00     0.238 A 
ATOM      4  O   UNL     1     -61.048  23.736 -30.829  1.00  0.00    -0.285 OA
ATOM      5  C   UNL     1     -59.611  23.326 -29.037  1.00  0.00     0.111 A 
ATOM      6  C   UNL     1     -59.340  24.688 -28.709  1.00  0.00     0.134 A 
ATOM      7  C   UNL     1     -58.355  24.986 -27.759  1.00  0.00     0.093 A 
ATOM      8  C   UNL     1     -57.679  23.974 -27.080  1.00  0.00     0.123 A 
ATOM      9  C   UNL     1     -57.978  22.638 -27.351  1.00  0.00     0.094 A 
ATOM     10  C   UNL     1     -58.930  22.309 -28.319  1.00  0.00     0.146 A 
ATOM     11  O   UNL     1     -59.177  21.026 -28.554  1.00  0.00    -0.452 OA
ENDROOT
BRANCH   1  12
ATOM     12  C   UNL     1     -60.249  19.144 -29.613  1.00  0.00     0.025 A 
ATOM     13  C   UNL     1     -60.819  18.417 -28.556  1.00  0.00     0.016 A 
ATOM     14  C   UNL     1     -61.040  17.043 -28.679  1.00  0.00     0.051 A 
ATOM     15  C   UNL     1     -60.710  16.379 -29.868  1.00  0.00     0.157 A 
ATOM     16  C   UNL     1     -59.937  18.477 -30.812  1.00  0.00     0.062 A 
ATOM     17  C   UNL     1     -60.162  17.097 -30.937  1.00  0.00     0.158 A 
BRANCH  15  18
ATOM     18  O   UNL     1     -60.927  15.008 -29.994  1.00  0.00    -0.504 OA
ATOM     19  H   UNL     1     -60.950  14.557 -30.902  1.00  0.00     0.293 HD
ENDBRANCH  15  18
BRANCH  17  20
ATOM     20  O   UNL     1     -59.847  16.438 -32.124  1.00  0.00    -0.504 OA
ATOM     21  H   UNL     1     -59.094  16.753 -32.723  1.00  0.00     0.293 HD
ENDBRANCH  17  20
ENDBRANCH   1  12
BRANCH   2  22
ATOM     22  O   UNL     1     -61.559  21.101 -31.301  1.00  0.00    -0.502 OA
ATOM     23  H   UNL     1     -61.413  21.352 -32.271  1.00  0.00     0.293 HD
ENDBRANCH   2  22
BRANCH   6  24
ATOM     24  O   UNL     1     -60.023  25.776 -29.261  1.00  0.00    -0.507 OA
ATOM     25  H   UNL     1     -60.917  25.717 -29.725  1.00  0.00     0.293 HD
ENDBRANCH   6  24
BRANCH   8  26
ATOM     26  O   UNL     1     -56.716  24.307 -26.130  1.00  0.00    -0.508 OA
ATOM     27  H   UNL     1     -56.626  25.252 -25.774  1.00  0.00     0.293 HD
ENDBRANCH   8  26
TORSDOF 6
ENDMDL
MODEL 3
REMARK VINA RESULT:    -7.415      8.943     11.243
REMARK INTER + INTRA:          -9.213
REMARK INTER:                  -9.507
REMARK INTRA:                   0.294
REMARK UNBOUND:                -0.281
REMARK SMILES O=c1c(O)c(-c2ccc(O)c(O)c2)oc2cc(O)cc(O)c12
REMARK SMILES IDX 5 1 3 2 2 3 1 4 22 5 20 6 19 7 17 8 16 9 15 10 14 11 6 12
REMARK SMILES IDX 7 13 8 14 9 15 13 16 11 17 10 18 12 20 4 22 21 24 18 26
REMARK H PARENT 10 19 12 21 4 23 21 25 18 27
REMARK Flexibility Score: inf
ROOT
ATOM      1  C   UNL     1     -57.846  27.068 -22.682  1.00  0.00     0.180 A 
ATOM      2  C   UNL     1     -58.940  27.856 -22.285  1.00  0.00     0.208 A 
ATOM      3  C   UNL     1     -58.716  28.961 -21.448  1.00  0.00     0.238 A 
ATOM      4  O   UNL     1     -59.691  29.694 -21.141  1.00  0.00    -0.285 OA
ATOM      5  C   UNL     1     -57.403  29.256 -21.008  1.00  0.00     0.111 A 
ATOM      6  C   UNL     1     -57.066  30.327 -20.127  1.00  0.00     0.134 A 
ATOM      7  C   UNL     1     -55.718  30.605 -19.862  1.00  0.00     0.093 A 
ATOM      8  C   UNL     1     -54.702  29.811 -20.391  1.00  0.00     0.123 A 
ATOM      9  C   UNL     1     -55.024  28.725 -21.206  1.00  0.00     0.094 A 
ATOM     10  C   UNL     1     -56.356  28.445 -21.518  1.00  0.00     0.146 A 
ATOM     11  O   UNL     1     -56.618  27.409 -22.305  1.00  0.00    -0.452 OA
ENDROOT
BRANCH   1  12
ATOM     12  C   UNL     1     -58.006  25.873 -23.541  1.00  0.00     0.025 A 
ATOM     13  C   UNL     1     -59.194  25.128 -23.476  1.00  0.00     0.016 A 
ATOM     14  C   UNL     1     -59.375  24.009 -24.292  1.00  0.00     0.051 A 
ATOM     15  C   UNL     1     -58.377  23.628 -25.197  1.00  0.00     0.157 A 
ATOM     16  C   UNL     1     -57.014  25.497 -24.467  1.00  0.00     0.062 A 
ATOM     17  C   UNL     1     -57.197  24.375 -25.288  1.00  0.00     0.158 A 
BRANCH  15  18
ATOM     18  O   UNL     1     -58.553  22.510 -26.012  1.00  0.00    -0.504 OA
ATOM     19  H   UNL     1     -58.049  21.648 -25.844  1.00  0.00     0.293 HD
ENDBRANCH  15  18
BRANCH  17  20
ATOM     20  O   UNL     1     -56.211  24.002 -26.200  1.00  0.00    -0.504 OA
ATOM     21  H   UNL     1     -56.366  24.051 -27.200  1.00  0.00     0.293 HD
ENDBRANCH  17  20
ENDBRANCH   1  12
BRANCH   2  22
ATOM     22  O   UNL     1     -60.225  27.560 -22.750  1.00  0.00    -0.502 OA
ATOM     23  H   UNL     1     -61.048  28.048 -22.419  1.00  0.00     0.293 HD
ENDBRANCH   2  22
BRANCH   6  24
ATOM     24  O   UNL     1     -58.008  31.125 -19.471  1.00  0.00    -0.507 OA
ATOM     25  H   UNL     1     -57.783  31.847 -18.803  1.00  0.00     0.293 HD
ENDBRANCH   6  24
BRANCH   8  26
ATOM     26  O   UNL     1     -53.373  30.107 -20.094  1.00  0.00    -0.508 OA
ATOM     27  H   UNL     1     -52.635  29.978 -20.776  1.00  0.00     0.293 HD
ENDBRANCH   8  26
TORSDOF 6
ENDMDL
MODEL 4
REMARK VINA RESULT:    -7.414      1.199      1.887
REMARK INTER + INTRA:          -9.212
REMARK INTER:                  -9.188
REMARK INTRA:                  -0.024
REMARK UNBOUND:                -0.281
REMARK SMILES O=c1c(O)c(-c2ccc(O)c(O)c2)oc2cc(O)cc(O)c12
REMARK SMILES IDX 5 1 3 2 2 3 1 4 22 5 20 6 19 7 17 8 16 9 15 10 14 11 6 12
REMARK SMILES IDX 7 13 8 14 9 15 13 16 11 17 10 18 12 20 4 22 21 24 18 26
REMARK H PARENT 10 19 12 21 4 23 21 25 18 27
REMARK Flexibility Score: inf
ROOT
ATOM      1  C   UNL     1     -59.948  20.249 -29.692  1.00  0.00     0.180 A 
ATOM      2  C   UNL     1     -59.153  20.507 -28.563  1.00  0.00     0.208 A 
ATOM      3  C   UNL     1     -59.007  21.832 -28.119  1.00  0.00     0.238 A 
ATOM      4  O   UNL     1     -58.338  22.050 -27.076  1.00  0.00    -0.285 OA
ATOM      5  C   UNL     1     -59.647  22.883 -28.820  1.00  0.00     0.111 A 
ATOM      6  C   UNL     1     -59.536  24.265 -28.484  1.00  0.00     0.134 A 
ATOM      7  C   UNL     1     -60.317  25.206 -29.167  1.00  0.00     0.093 A 
ATOM      8  C   UNL     1     -61.152  24.824 -30.215  1.00  0.00     0.123 A 
ATOM      9  C   UNL     1     -61.222  23.482 -30.592  1.00  0.00     0.094 A 
ATOM     10  C   UNL     1     -60.483  22.516 -29.906  1.00  0.00     0.146 A 
ATOM     11  O   UNL     1     -60.587  21.249 -30.289  1.00  0.00    -0.452 OA
ENDROOT
BRANCH   1  12
ATOM     12  C   UNL     1     -60.128  18.883 -30.233  1.00  0.00     0.025 A 
ATOM     13  C   UNL     1     -59.807  18.623 -31.575  1.00  0.00     0.016 A 
ATOM     14  C   UNL     1     -59.949  17.336 -32.101  1.00  0.00     0.051 A 
ATOM     15  C   UNL     1     -60.400  16.288 -31.289  1.00  0.00     0.157 A 
ATOM     16  C   UNL     1     -60.562  17.822 -29.416  1.00  0.00     0.062 A 
ATOM     17  C   UNL     1     -60.703  16.530 -29.944  1.00  0.00     0.158 A 
BRANCH  15  18
ATOM     18  O   UNL     1     -60.546  15.004 -31.811  1.00  0.00    -0.504 OA
ATOM     19  H   UNL     1     -60.185  14.191 -31.325  1.00  0.00     0.293 HD
ENDBRANCH  15  18
BRANCH  17  20
ATOM     20  O   UNL     1     -61.137  15.482 -29.134  1.00  0.00    -0.504 OA
ATOM     21  H   UNL     1     -61.333  14.563 -29.514  1.00  0.00     0.293 HD
ENDBRANCH  17  20
ENDBRANCH   1  12
BRANCH   2  22
ATOM     22  O   UNL     1     -58.548  19.452 -27.872  1.00  0.00    -0.502 OA
ATOM     23  H   UNL     1     -58.511  18.510 -28.243  1.00  0.00     0.293 HD
ENDBRANCH   2  22
BRANCH   6  24
ATOM     24  O   UNL     1     -58.662  24.766 -27.514  1.00  0.00    -0.507 OA
ATOM     25  H   UNL     1     -57.710  24.459 -27.386  1.00  0.00     0.293 HD
ENDBRANCH   6  24
BRANCH   8  26
ATOM     26  O   UNL     1     -61.902  25.789 -30.884  1.00  0.00    -0.508 OA
ATOM     27  H   UNL     1     -62.282  26.594 -30.400  1.00  0.00     0.293 HD
ENDBRANCH   8  26
TORSDOF 6
ENDMDL
MODEL 5
REMARK VINA RESULT:    -7.305      2.909      7.078
REMARK INTER + INTRA:          -9.080
REMARK INTER:                  -9.244
REMARK INTRA:                   0.163
REMARK UNBOUND:                -0.281
REMARK SMILES O=c1c(O)c(-c2ccc(O)c(O)c2)oc2cc(O)cc(O)c12
REMARK SMILES IDX 5 1 3 2 2 3 1 4 22 5 20 6 19 7 17 8 16 9 15 10 14 11 6 12
REMARK SMILES IDX 7 13 8 14 9 15 13 16 11 17 10 18 12 20 4 22 21 24 18 26
REMARK H PARENT 10 19 12 21 4 23 21 25 18 27
REMARK Flexibility Score: inf
ROOT
ATOM      1  C   UNL     1     -58.623  21.673 -28.055  1.00  0.00     0.180 A 
ATOM      2  C   UNL     1     -58.310  21.874 -29.410  1.00  0.00     0.208 A 
ATOM      3  C   UNL     1     -58.693  20.902 -30.349  1.00  0.00     0.238 A 
ATOM      4  O   UNL     1     -58.458  21.113 -31.567  1.00  0.00    -0.285 OA
ATOM      5  C   UNL     1     -59.369  19.735 -29.919  1.00  0.00     0.111 A 
ATOM      6  C   UNL     1     -59.768  18.667 -30.777  1.00  0.00     0.134 A 
ATOM      7  C   UNL     1     -60.547  17.623 -30.263  1.00  0.00     0.093 A 
ATOM      8  C   UNL     1     -60.884  17.573 -28.911  1.00  0.00     0.123 A 
ATOM      9  C   UNL     1     -60.448  18.582 -28.051  1.00  0.00     0.094 A 
ATOM     10  C   UNL     1     -59.701  19.655 -28.541  1.00  0.00     0.146 A 
ATOM     11  O   UNL     1     -59.315  20.599 -27.691  1.00  0.00    -0.452 OA
ENDROOT
BRANCH   1  12
ATOM     12  C   UNL     1     -58.230  22.639 -27.004  1.00  0.00     0.025 A 
ATOM     13  C   UNL     1     -56.972  23.258 -27.069  1.00  0.00     0.016 A 
ATOM     14  C   UNL     1     -56.588  24.189 -26.099  1.00  0.00     0.051 A 
ATOM     15  C   UNL     1     -57.465  24.526 -25.061  1.00  0.00     0.157 A 
ATOM     16  C   UNL     1     -59.114  22.997 -25.969  1.00  0.00     0.062 A 
ATOM     17  C   UNL     1     -58.731  23.933 -24.997  1.00  0.00     0.158 A 
BRANCH  15  18
ATOM     18  O   UNL     1     -57.086  25.452 -24.090  1.00  0.00    -0.504 OA
ATOM     19  H   UNL     1     -57.351  26.428 -24.157  1.00  0.00     0.293 HD
ENDBRANCH  15  18
BRANCH  17  20
ATOM     20  O   UNL     1     -59.607  24.281 -23.970  1.00  0.00    -0.504 OA
ATOM     21  H   UNL     1     -60.040  25.196 -23.928  1.00  0.00     0.293 HD
ENDBRANCH  17  20
ENDBRANCH   1  12
BRANCH   2  22
ATOM     22  O   UNL     1     -57.661  23.043 -29.816  1.00  0.00    -0.502 OA
ATOM     23  H   UNL     1     -56.777  23.031 -30.311  1.00  0.00     0.293 HD
ENDBRANCH   2  22
BRANCH   6  24
ATOM     24  O   UNL     1     -59.408  18.572 -32.124  1.00  0.00    -0.507 OA
ATOM     25  H   UNL     1     -58.528  18.885 -32.507  1.00  0.00     0.293 HD
ENDBRANCH   6  24
BRANCH   8  26
ATOM     26  O   UNL     1     -61.646  16.510 -28.431  1.00  0.00    -0.508 OA
ATOM     27  H   UNL     1     -61.551  15.575 -28.810  1.00  0.00     0.293 HD
ENDBRANCH   8  26
TORSDOF 6
ENDMDL
MODEL 6
REMARK VINA RESULT:    -6.994      4.414      8.186
REMARK INTER + INTRA:          -8.706
REMARK INTER:                  -8.416
REMARK INTRA:                  -0.291
REMARK UNBOUND:                -0.281
REMARK SMILES O=c1c(O)c(-c2ccc(O)c(O)c2)oc2cc(O)cc(O)c12
REMARK SMILES IDX 5 1 3 2 2 3 1 4 22 5 20 6 19 7 17 8 16 9 15 10 14 11 6 12
REMARK SMILES IDX 7 13 8 14 9 15 13 16 11 17 10 18 12 20 4 22 21 24 18 26
REMARK H PARENT 10 19 12 21 4 23 21 25 18 27
REMARK Flexibility Score: inf
ROOT
ATOM      1  C   UNL     1     -58.745  24.372 -26.400  1.00  0.00     0.180 A 
ATOM      2  C   UNL     1     -58.396  24.986 -27.614  1.00  0.00     0.208 A 
ATOM      3  C   UNL     1     -58.263  24.193 -28.766  1.00  0.00     0.238 A 
ATOM      4  O   UNL     1     -58.003  24.756 -29.861  1.00  0.00    -0.285 OA
ATOM      5  C   UNL     1     -58.466  22.794 -28.684  1.00  0.00     0.111 A 
ATOM      6  C   UNL     1     -58.319  21.890 -29.778  1.00  0.00     0.134 A 
ATOM      7  C   UNL     1     -58.672  20.544 -29.613  1.00  0.00     0.093 A 
ATOM      8  C   UNL     1     -59.103  20.059 -28.380  1.00  0.00     0.123 A 
ATOM      9  C   UNL     1     -59.194  20.923 -27.287  1.00  0.00     0.094 A 
ATOM     10  C   UNL     1     -58.883  22.277 -27.430  1.00  0.00     0.146 A 
ATOM     11  O   UNL     1     -58.993  23.068 -26.369  1.00  0.00    -0.452 OA
ENDROOT
BRANCH   1  12
ATOM     12  C   UNL     1     -58.879  25.138 -25.140  1.00  0.00     0.025 A 
ATOM     13  C   UNL     1     -57.812  25.160 -24.227  1.00  0.00     0.016 A 
ATOM     14  C   UNL     1     -57.909  25.893 -23.041  1.00  0.00     0.051 A 
ATOM     15  C   UNL     1     -59.067  26.627 -22.759  1.00  0.00     0.157 A 
ATOM     16  C   UNL     1     -60.032  25.894 -24.860  1.00  0.00     0.062 A 
ATOM     17  C   UNL     1     -60.129  26.632 -23.671  1.00  0.00     0.158 A 
BRANCH  15  18
ATOM     18  O   UNL     1     -59.168  27.358 -21.576  1.00  0.00    -0.504 OA
ATOM     19  H   UNL     1     -60.037  27.800 -21.299  1.00  0.00     0.293 HD
ENDBRANCH  15  18
BRANCH  17  20
ATOM     20  O   UNL     1     -61.275  27.375 -23.394  1.00  0.00    -0.504 OA
ATOM     21  H   UNL     1     -62.175  27.132 -23.791  1.00  0.00     0.293 HD
ENDBRANCH  17  20
ENDBRANCH   1  12
BRANCH   2  22
ATOM     22  O   UNL     1     -58.221  26.372 -27.677  1.00  0.00    -0.502 OA
ATOM     23  H   UNL     1     -58.251  26.885 -28.550  1.00  0.00     0.293 HD
ENDBRANCH   2  22
BRANCH   6  24
ATOM     24  O   UNL     1     -57.809  22.252 -31.028  1.00  0.00    -0.507 OA
ATOM     25  H   UNL     1     -57.373  21.614 -31.677  1.00  0.00     0.293 HD
ENDBRANCH   6  24
BRANCH   8  26
ATOM     26  O   UNL     1     -59.431  18.711 -28.247  1.00  0.00    -0.508 OA
ATOM     27  H   UNL     1     -60.299  18.416 -27.815  1.00  0.00     0.293 HD
ENDBRANCH   8  26
TORSDOF 6
ENDMDL
MODEL 7
REMARK VINA RESULT:    -6.982      7.701      9.977
REMARK INTER + INTRA:          -8.691
REMARK INTER:                  -8.441
REMARK INTRA:                  -0.251
REMARK UNBOUND:                -0.281
REMARK SMILES O=c1c(O)c(-c2ccc(O)c(O)c2)oc2cc(O)cc(O)c12
REMARK SMILES IDX 5 1 3 2 2 3 1 4 22 5 20 6 19 7 17 8 16 9 15 10 14 11 6 12
REMARK SMILES IDX 7 13 8 14 9 15 13 16 11 17 10 18 12 20 4 22 21 24 18 26
REMARK H PARENT 10 19 12 21 4 23 21 25 18 27
REMARK Flexibility Score: inf
ROOT
ATOM      1  C   UNL     1     -58.364  26.319 -23.740  1.00  0.00     0.180 A 
ATOM      2  C   UNL     1     -59.439  27.199 -23.524  1.00  0.00     0.208 A 
ATOM      3  C   UNL     1     -59.257  28.299 -22.671  1.00  0.00     0.238 A 
ATOM      4  O   UNL     1     -60.206  29.114 -22.524  1.00  0.00    -0.285 OA
ATOM      5  C   UNL     1     -58.009  28.498 -22.032  1.00  0.00     0.111 A 
ATOM      6  C   UNL     1     -57.727  29.555 -21.117  1.00  0.00     0.134 A 
ATOM      7  C   UNL     1     -56.419  29.730 -20.647  1.00  0.00     0.093 A 
ATOM      8  C   UNL     1     -55.401  28.848 -21.005  1.00  0.00     0.123 A 
ATOM      9  C   UNL     1     -55.680  27.774 -21.852  1.00  0.00     0.094 A 
ATOM     10  C   UNL     1     -56.966  27.595 -22.366  1.00  0.00     0.146 A 
ATOM     11  O   UNL     1     -57.187  26.568 -23.178  1.00  0.00    -0.452 OA
ENDROOT
BRANCH   1  12
ATOM     12  C   UNL     1     -58.486  25.124 -24.605  1.00  0.00     0.025 A 
ATOM     13  C   UNL     1     -59.223  24.017 -24.155  1.00  0.00     0.016 A 
ATOM     14  C   UNL     1     -59.369  22.886 -24.963  1.00  0.00     0.051 A 
ATOM     15  C   UNL     1     -58.793  22.853 -26.239  1.00  0.00     0.157 A 
ATOM     16  C   UNL     1     -57.927  25.093 -25.896  1.00  0.00     0.062 A 
ATOM     17  C   UNL     1     -58.075  23.959 -26.708  1.00  0.00     0.158 A 
BRANCH  15  18
ATOM     18  O   UNL     1     -58.934  21.726 -27.048  1.00  0.00    -0.504 OA
ATOM     19  H   UNL     1     -59.753  21.132 -26.990  1.00  0.00     0.293 HD
ENDBRANCH  15  18
BRANCH  17  20
ATOM     20  O   UNL     1     -57.514  23.929 -27.984  1.00  0.00    -0.504 OA
ATOM     21  H   UNL     1     -56.512  23.978 -28.126  1.00  0.00     0.293 HD
ENDBRANCH  17  20
ENDBRANCH   1  12
BRANCH   2  22
ATOM     22  O   UNL     1     -60.656  26.997 -24.182  1.00  0.00    -0.502 OA
ATOM     23  H   UNL     1     -61.287  27.758 -24.403  1.00  0.00     0.293 HD
ENDBRANCH   2  22
BRANCH   6  24
ATOM     24  O   UNL     1     -58.691  30.438 -20.622  1.00  0.00    -0.507 OA
ATOM     25  H   UNL     1     -59.387  30.902 -21.185  1.00  0.00     0.293 HD
ENDBRANCH   6  24
BRANCH   8  26
ATOM     26  O   UNL     1     -54.115  29.042 -20.505  1.00  0.00    -0.508 OA
ATOM     27  H   UNL     1     -53.492  28.263 -20.325  1.00  0.00     0.293 HD
ENDBRANCH   8  26
TORSDOF 6
ENDMDL
MODEL 8
REMARK VINA RESULT:    -6.800      6.252      8.665
REMARK INTER + INTRA:          -8.472
REMARK INTER:                  -8.229
REMARK INTRA:                  -0.243
REMARK UNBOUND:                -0.281
REMARK SMILES O=c1c(O)c(-c2ccc(O)c(O)c2)oc2cc(O)cc(O)c12
REMARK SMILES IDX 5 1 3 2 2 3 1 4 22 5 20 6 19 7 17 8 16 9 15 10 14 11 6 12
REMARK SMILES IDX 7 13 8 14 9 15 13 16 11 17 10 18 12 20 4 22 21 24 18 26
REMARK H PARENT 10 19 12 21 4 23 21 25 18 27
REMARK Flexibility Score: inf
ROOT
ATOM      1  C   UNL     1     -58.561  25.499 -25.365  1.00  0.00     0.180 A 
ATOM      2  C   UNL     1     -59.813  26.095 -25.140  1.00  0.00     0.208 A 
ATOM      3  C   UNL     1     -59.973  26.947 -24.035  1.00  0.00     0.238 A 
ATOM      4  O   UNL     1     -61.081  27.521 -23.869  1.00  0.00    -0.285 OA
ATOM      5  C   UNL     1     -58.883  27.180 -23.161  1.00  0.00     0.111 A 
ATOM      6  C   UNL     1     -58.944  27.992 -21.990  1.00  0.00     0.134 A 
ATOM      7  C   UNL     1     -57.770  28.256 -21.272  1.00  0.00     0.093 A 
ATOM      8  C   UNL     1     -56.554  27.685 -21.644  1.00  0.00     0.123 A 
ATOM      9  C   UNL     1     -56.496  26.841 -22.754  1.00  0.00     0.094 A 
ATOM     10  C   UNL     1     -57.642  26.587 -23.510  1.00  0.00     0.146 A 
ATOM     11  O   UNL     1     -57.541  25.787 -24.565  1.00  0.00    -0.452 OA
ENDROOT
BRANCH   1  12
ATOM     12  C   UNL     1     -58.323  24.570 -26.493  1.00  0.00     0.025 A 
ATOM     13  C   UNL     1     -58.239  23.190 -26.247  1.00  0.00     0.016 A 
ATOM     14  C   UNL     1     -58.035  22.293 -27.299  1.00  0.00     0.051 A 
ATOM     15  C   UNL     1     -57.928  22.762 -28.614  1.00  0.00     0.157 A 
ATOM     16  C   UNL     1     -58.235  25.033 -27.819  1.00  0.00     0.062 A 
ATOM     17  C   UNL     1     -58.033  24.133 -28.875  1.00  0.00     0.158 A 
BRANCH  15  18
ATOM     18  O   UNL     1     -57.723  21.871 -29.666  1.00  0.00    -0.504 OA
ATOM     19  H   UNL     1     -57.115  22.101 -30.444  1.00  0.00     0.293 HD
ENDBRANCH  15  18
BRANCH  17  20
ATOM     20  O   UNL     1     -57.940  24.596 -30.187  1.00  0.00    -0.504 OA
ATOM     21  H   UNL     1     -58.167  24.003 -30.977  1.00  0.00     0.293 HD
ENDBRANCH  17  20
ENDBRANCH   1  12
BRANCH   2  22
ATOM     22  O   UNL     1     -60.870  25.870 -26.027  1.00  0.00    -0.502 OA
ATOM     23  H   UNL     1     -60.729  25.482 -26.953  1.00  0.00     0.293 HD
ENDBRANCH   2  22
BRANCH   6  24
ATOM     24  O   UNL     1     -60.124  28.538 -21.477  1.00  0.00    -0.507 OA
ATOM     25  H   UNL     1     -60.910  28.834 -22.036  1.00  0.00     0.293 HD
ENDBRANCH   6  24
BRANCH   8  26
ATOM     26  O   UNL     1     -55.410  27.957 -20.897  1.00  0.00    -0.508 OA
ATOM     27  H   UNL     1     -55.327  27.669 -19.930  1.00  0.00     0.293 HD
ENDBRANCH   8  26
TORSDOF 6
ENDMDL
