MODEL 1
REMARK VINA RESULT:    -5.085      0.000      0.000
REMARK INTER + INTRA:          -6.272
REMARK INTER:                  -5.976
REMARK INTRA:                  -0.296
REMARK UNBOUND:                -0.296
REMARK SMILES O=c1cc(-c2ccc(O)c(O)c2)oc2cc(O)cc(O)c12
REMARK SMILES IDX 4 1 3 2 2 3 1 4 21 5 19 6 18 7 16 8 15 9 14 10 13 11 5 12
REMARK SMILES IDX 6 13 7 14 8 15 12 16 10 17 9 18 11 20 20 22 17 24
REMARK H PARENT 9 19 11 21 20 23 17 25
REMARK Flexibility Score: inf
ROOT
ATOM      1  C   UNL     1      54.125  39.078 123.135  1.00  0.00     0.138 A 
ATOM      2  C   UNL     1      55.063  38.044 123.014  1.00  0.00     0.100 A 
ATOM      3  C   UNL     1      56.426  38.336 123.088  1.00  0.00     0.197 A 
ATOM      4  O   UNL     1      57.241  37.380 123.034  1.00  0.00    -0.289 OA
ATOM      5  C   UNL     1      56.851  39.677 123.248  1.00  0.00     0.107 A 
ATOM      6  C   UNL     1      58.214  40.099 123.302  1.00  0.00     0.134 A 
ATOM      7  C   UNL     1      58.510  41.443 123.561  1.00  0.00     0.093 A 
ATOM      8  C   UNL     1      57.494  42.390 123.711  1.00  0.00     0.123 A 
ATOM      9  C   UNL     1      56.162  41.998 123.609  1.00  0.00     0.094 A 
ATOM     10  C   UNL     1      55.833  40.659 123.387  1.00  0.00     0.146 A 
ATOM     11  O   UNL     1      54.548  40.325 123.315  1.00  0.00    -0.456 OA
ENDROOT
BRANCH   1  12
ATOM     12  C   UNL     1      52.664  38.825 123.060  1.00  0.00     0.021 A 
ATOM     13  C   UNL     1      51.778  39.913 122.969  1.00  0.00     0.016 A 
ATOM     14  C   UNL     1      50.399  39.702 122.905  1.00  0.00     0.051 A 
ATOM     15  C   UNL     1      49.879  38.402 122.940  1.00  0.00     0.157 A 
ATOM     16  C   UNL     1      52.133  37.520 123.109  1.00  0.00     0.062 A 
ATOM     17  C   UNL     1      50.748  37.309 123.046  1.00  0.00     0.158 A 
BRANCH  15  18
ATOM     18  O   UNL     1      48.504  38.189 122.875  1.00  0.00    -0.504 OA
ATOM     19  H   UNL     1      48.018  37.644 123.578  1.00  0.00     0.293 HD
ENDBRANCH  15  18
BRANCH  17  20
ATOM     20  O   UNL     1      50.228  36.017 123.093  1.00  0.00    -0.504 OA
ATOM     21  H   UNL     1      49.252  35.846 123.307  1.00  0.00     0.293 HD
ENDBRANCH  17  20
ENDBRANCH   1  12
BRANCH   6  22
ATOM     22  O   UNL     1      59.305  39.252 123.087  1.00  0.00    -0.507 OA
ATOM     23  H   UNL     1      60.206  39.344 123.530  1.00  0.00     0.293 HD
ENDBRANCH   6  22
BRANCH   8  24
ATOM     24  O   UNL     1      57.800  43.727 123.953  1.00  0.00    -0.508 OA
ATOM     25  H   UNL     1      58.236  44.024 124.817  1.00  0.00     0.293 HD
ENDBRANCH   8  24
TORSDOF 5
ENDMDL
MODEL 2
REMARK VINA RESULT:    -4.990      2.584      7.845
REMARK INTER + INTRA:          -6.161
REMARK INTER:                  -5.883
REMARK INTRA:                  -0.278
REMARK UNBOUND:                -0.296
REMARK SMILES O=c1cc(-c2ccc(O)c(O)c2)oc2cc(O)cc(O)c12
REMARK SMILES IDX 4 1 3 2 2 3 1 4 21 5 19 6 18 7 16 8 15 9 14 10 13 11 5 12
REMARK SMILES IDX 6 13 7 14 8 15 12 16 10 17 9 18 11 20 20 22 17 24
REMARK H PARENT 9 19 11 21 20 23 17 25
REMARK Flexibility Score: inf
ROOT
ATOM      1  C   UNL     1      58.368  42.531 123.703  1.00  0.00     0.138 A 
ATOM      2  C   UNL     1      59.261  41.467 123.520  1.00  0.00     0.100 A 
ATOM      3  C   UNL     1      58.767  40.184 123.282  1.00  0.00     0.197 A 
ATOM      4  O   UNL     1      59.593  39.260 123.065  1.00  0.00    -0.289 OA
ATOM      5  C   UNL     1      57.369  39.960 123.263  1.00  0.00     0.107 A 
ATOM      6  C   UNL     1      56.750  38.689 123.063  1.00  0.00     0.134 A 
ATOM      7  C   UNL     1      55.355  38.609 122.966  1.00  0.00     0.093 A 
ATOM      8  C   UNL     1      54.554  39.744 123.120  1.00  0.00     0.123 A 
ATOM      9  C   UNL     1      55.146  40.980 123.365  1.00  0.00     0.094 A 
ATOM     10  C   UNL     1      56.537  41.099 123.432  1.00  0.00     0.146 A 
ATOM     11  O   UNL     1      57.060  42.301 123.650  1.00  0.00    -0.456 OA
ENDROOT
BRANCH   1  12
ATOM     12  C   UNL     1      58.839  43.915 123.964  1.00  0.00     0.021 A 
ATOM     13  C   UNL     1      59.685  44.543 123.033  1.00  0.00     0.016 A 
ATOM     14  C   UNL     1      60.148  45.842 123.258  1.00  0.00     0.051 A 
ATOM     15  C   UNL     1      59.783  46.532 124.420  1.00  0.00     0.157 A 
ATOM     16  C   UNL     1      58.486  44.610 125.138  1.00  0.00     0.062 A 
ATOM     17  C   UNL     1      58.953  45.913 125.364  1.00  0.00     0.158 A 
BRANCH  15  18
ATOM     18  O   UNL     1      60.242  47.828 124.646  1.00  0.00    -0.504 OA
ATOM     19  H   UNL     1      61.230  48.050 124.630  1.00  0.00     0.293 HD
ENDBRANCH  15  18
BRANCH  17  20
ATOM     20  O   UNL     1      58.600  46.598 126.525  1.00  0.00    -0.504 OA
ATOM     21  H   UNL     1      58.452  46.113 127.403  1.00  0.00     0.293 HD
ENDBRANCH  17  20
ENDBRANCH   1  12
BRANCH   6  22
ATOM     22  O   UNL     1      57.449  37.482 122.976  1.00  0.00    -0.507 OA
ATOM     23  H   UNL     1      58.432  37.395 122.768  1.00  0.00     0.293 HD
ENDBRANCH   6  22
BRANCH   8  24
ATOM     24  O   UNL     1      53.167  39.651 123.037  1.00  0.00    -0.508 OA
ATOM     25  H   UNL     1      52.563  40.150 123.678  1.00  0.00     0.293 HD
ENDBRANCH   8  24
TORSDOF 5
ENDMDL
MODEL 3
REMARK VINA RESULT:    -4.791      2.105      7.158
REMARK INTER + INTRA:          -5.926
REMARK INTER:                  -5.609
REMARK INTRA:                  -0.317
REMARK UNBOUND:                -0.296
REMARK SMILES O=c1cc(-c2ccc(O)c(O)c2)oc2cc(O)cc(O)c12
REMARK SMILES IDX 4 1 3 2 2 3 1 4 21 5 19 6 18 7 16 8 15 9 14 10 13 11 5 12
REMARK SMILES IDX 6 13 7 14 8 15 12 16 10 17 9 18 11 20 20 22 17 24
REMARK H PARENT 9 19 11 21 20 23 17 25
REMARK Flexibility Score: inf
ROOT
ATOM      1  C   UNL     1      54.172  41.182 123.310  1.00  0.00     0.138 A 
ATOM      2  C   UNL     1      53.879  42.549 123.404  1.00  0.00     0.100 A 
ATOM      3  C   UNL     1      52.551  42.975 123.358  1.00  0.00     0.197 A 
ATOM      4  O   UNL     1      52.317  44.203 123.502  1.00  0.00    -0.289 OA
ATOM      5  C   UNL     1      51.514  42.028 123.181  1.00  0.00     0.107 A 
ATOM      6  C   UNL     1      50.126  42.349 123.086  1.00  0.00     0.134 A 
ATOM      7  C   UNL     1      49.183  41.317 123.010  1.00  0.00     0.093 A 
ATOM      8  C   UNL     1      49.580  39.978 122.967  1.00  0.00     0.123 A 
ATOM      9  C   UNL     1      50.934  39.657 123.009  1.00  0.00     0.094 A 
ATOM     10  C   UNL     1      51.898  40.662 123.121  1.00  0.00     0.146 A 
ATOM     11  O   UNL     1      53.178  40.310 123.176  1.00  0.00    -0.456 OA
ENDROOT
BRANCH   1  12
ATOM     12  C   UNL     1      55.567  40.673 123.350  1.00  0.00     0.021 A 
ATOM     13  C   UNL     1      56.623  41.571 123.584  1.00  0.00     0.016 A 
ATOM     14  C   UNL     1      57.944  41.119 123.619  1.00  0.00     0.051 A 
ATOM     15  C   UNL     1      58.235  39.766 123.410  1.00  0.00     0.157 A 
ATOM     16  C   UNL     1      55.867  39.314 123.127  1.00  0.00     0.062 A 
ATOM     17  C   UNL     1      57.195  38.862 123.159  1.00  0.00     0.158 A 
BRANCH  15  18
ATOM     18  O   UNL     1      59.552  39.312 123.445  1.00  0.00    -0.504 OA
ATOM     19  H   UNL     1      60.334  39.945 123.330  1.00  0.00     0.293 HD
ENDBRANCH  15  18
BRANCH  17  20
ATOM     20  O   UNL     1      57.488  37.518 122.940  1.00  0.00    -0.504 OA
ATOM     21  H   UNL     1      57.970  37.209 122.104  1.00  0.00     0.293 HD
ENDBRANCH  17  20
ENDBRANCH   1  12
BRANCH   6  22
ATOM     22  O   UNL     1      49.625  43.654 123.039  1.00  0.00    -0.507 OA
ATOM     23  H   UNL     1      50.171  44.490 123.172  1.00  0.00     0.293 HD
ENDBRANCH   6  22
BRANCH   8  24
ATOM     24  O   UNL     1      48.635  38.959 122.876  1.00  0.00    -0.508 OA
ATOM     25  H   UNL     1      48.555  38.243 123.587  1.00  0.00     0.293 HD
ENDBRANCH   8  24
TORSDOF 5
ENDMDL
MODEL 4
REMARK VINA RESULT:    -4.605      2.309      3.284
REMARK INTER + INTRA:          -5.709
REMARK INTER:                  -5.391
REMARK INTRA:                  -0.318
REMARK UNBOUND:                -0.296
REMARK SMILES O=c1cc(-c2ccc(O)c(O)c2)oc2cc(O)cc(O)c12
REMARK SMILES IDX 4 1 3 2 2 3 1 4 21 5 19 6 18 7 16 8 15 9 14 10 13 11 5 12
REMARK SMILES IDX 6 13 7 14 8 15 12 16 10 17 9 18 11 20 20 22 17 24
REMARK H PARENT 9 19 11 21 20 23 17 25
REMARK Flexibility Score: inf
ROOT
ATOM      1  C   UNL     1      53.206  40.464 123.228  1.00  0.00     0.138 A 
ATOM      2  C   UNL     1      53.299  39.071 123.110  1.00  0.00     0.100 A 
ATOM      3  C   UNL     1      54.553  38.458 123.131  1.00  0.00     0.197 A 
ATOM      4  O   UNL     1      54.600  37.202 123.081  1.00  0.00    -0.289 OA
ATOM      5  C   UNL     1      55.722  39.250 123.236  1.00  0.00     0.107 A 
ATOM      6  C   UNL     1      57.055  38.739 123.234  1.00  0.00     0.134 A 
ATOM      7  C   UNL     1      58.129  39.613 123.442  1.00  0.00     0.093 A 
ATOM      8  C   UNL     1      57.923  40.986 123.594  1.00  0.00     0.123 A 
ATOM      9  C   UNL     1      56.630  41.501 123.547  1.00  0.00     0.094 A 
ATOM     10  C   UNL     1      55.535  40.651 123.377  1.00  0.00     0.146 A 
ATOM     11  O   UNL     1      54.317  41.183 123.356  1.00  0.00    -0.456 OA
ENDROOT
BRANCH   1  12
ATOM     12  C   UNL     1      51.899  41.168 123.208  1.00  0.00     0.021 A 
ATOM     13  C   UNL     1      50.726  40.440 122.943  1.00  0.00     0.016 A 
ATOM     14  C   UNL     1      49.485  41.079 122.910  1.00  0.00     0.051 A 
ATOM     15  C   UNL     1      49.394  42.459 123.132  1.00  0.00     0.157 A 
ATOM     16  C   UNL     1      51.802  42.558 123.417  1.00  0.00     0.062 A 
ATOM     17  C   UNL     1      50.555  43.200 123.382  1.00  0.00     0.158 A 
BRANCH  15  18
ATOM     18  O   UNL     1      48.157  43.099 123.102  1.00  0.00    -0.504 OA
ATOM     19  H   UNL     1      48.066  44.086 123.313  1.00  0.00     0.293 HD
ENDBRANCH  15  18
BRANCH  17  20
ATOM     20  O   UNL     1      50.463  44.575 123.591  1.00  0.00    -0.504 OA
ATOM     21  H   UNL     1      49.624  45.000 123.968  1.00  0.00     0.293 HD
ENDBRANCH  17  20
ENDBRANCH   1  12
BRANCH   6  22
ATOM     22  O   UNL     1      57.379  37.397 123.011  1.00  0.00    -0.507 OA
ATOM     23  H   UNL     1      57.594  36.994 122.112  1.00  0.00     0.293 HD
ENDBRANCH   6  22
BRANCH   8  24
ATOM     24  O   UNL     1      59.000  41.849 123.785  1.00  0.00    -0.508 OA
ATOM     25  H   UNL     1      59.447  41.948 124.688  1.00  0.00     0.293 HD
ENDBRANCH   8  24
TORSDOF 5
ENDMDL
MODEL 5
REMARK VINA RESULT:    -4.602      1.515      2.482
REMARK INTER + INTRA:          -5.705
REMARK INTER:                  -5.387
REMARK INTRA:                  -0.317
REMARK UNBOUND:                -0.296
REMARK SMILES O=c1cc(-c2ccc(O)c(O)c2)oc2cc(O)cc(O)c12
REMARK SMILES IDX 4 1 3 2 2 3 1 4 21 5 19 6 18 7 16 8 15 9 14 10 13 11 5 12
REMARK SMILES IDX 6 13 7 14 8 15 12 16 10 17 9 18 11 20 20 22 17 24
REMARK H PARENT 9 19 11 21 20 23 17 25
REMARK Flexibility Score: inf
ROOT
ATOM      1  C   UNL     1      52.479  37.845 123.438  1.00  0.00     0.138 A 
ATOM      2  C   UNL     1      53.411  36.808 123.576  1.00  0.00     0.100 A 
ATOM      3  C   UNL     1      54.775  37.103 123.588  1.00  0.00     0.197 A 
ATOM      4  O   UNL     1      55.585  36.157 123.771  1.00  0.00    -0.289 OA
ATOM      5  C   UNL     1      55.208  38.441 123.426  1.00  0.00     0.107 A 
ATOM      6  C   UNL     1      56.573  38.857 123.389  1.00  0.00     0.134 A 
ATOM      7  C   UNL     1      56.876  40.223 123.322  1.00  0.00     0.093 A 
ATOM      8  C   UNL     1      55.865  41.183 123.232  1.00  0.00     0.123 A 
ATOM      9  C   UNL     1      54.532  40.784 123.217  1.00  0.00     0.094 A 
ATOM     10  C   UNL     1      54.195  39.432 123.318  1.00  0.00     0.146 A 
ATOM     11  O   UNL     1      52.909  39.097 123.318  1.00  0.00    -0.456 OA
ENDROOT
BRANCH   1  12
ATOM     12  C   UNL     1      51.017  37.588 123.414  1.00  0.00     0.021 A 
ATOM     13  C   UNL     1      50.542  36.281 123.623  1.00  0.00     0.016 A 
ATOM     14  C   UNL     1      49.171  36.012 123.599  1.00  0.00     0.051 A 
ATOM     15  C   UNL     1      48.252  37.039 123.355  1.00  0.00     0.157 A 
ATOM     16  C   UNL     1      50.087  38.615 123.156  1.00  0.00     0.062 A 
ATOM     17  C   UNL     1      48.711  38.343 123.129  1.00  0.00     0.158 A 
BRANCH  15  18
ATOM     18  O   UNL     1      46.885  36.774 123.331  1.00  0.00    -0.504 OA
ATOM     19  H   UNL     1      46.289  36.987 124.122  1.00  0.00     0.293 HD
ENDBRANCH  15  18
BRANCH  17  20
ATOM     20  O   UNL     1      47.795  39.362 122.875  1.00  0.00    -0.504 OA
ATOM     21  H   UNL     1      46.837  39.308 123.201  1.00  0.00     0.293 HD
ENDBRANCH  17  20
ENDBRANCH   1  12
BRANCH   6  22
ATOM     22  O   UNL     1      57.660  37.978 123.392  1.00  0.00    -0.507 OA
ATOM     23  H   UNL     1      57.723  37.131 122.848  1.00  0.00     0.293 HD
ENDBRANCH   6  22
BRANCH   8  24
ATOM     24  O   UNL     1      56.179  42.537 123.150  1.00  0.00    -0.508 OA
ATOM     25  H   UNL     1      55.552  43.250 123.505  1.00  0.00     0.293 HD
ENDBRANCH   8  24
TORSDOF 5
ENDMDL
MODEL 6
REMARK VINA RESULT:    -4.553     14.886     17.283
REMARK INTER + INTRA:          -5.647
REMARK INTER:                  -5.360
REMARK INTRA:                  -0.286
REMARK UNBOUND:                -0.296
REMARK SMILES O=c1cc(-c2ccc(O)c(O)c2)oc2cc(O)cc(O)c12
REMARK SMILES IDX 4 1 3 2 2 3 1 4 21 5 19 6 18 7 16 8 15 9 14 10 13 11 5 12
REMARK SMILES IDX 6 13 7 14 8 15 12 16 10 17 9 18 11 20 20 22 17 24
REMARK H PARENT 9 19 11 21 20 23 17 25
REMARK Flexibility Score: inf
ROOT
ATOM      1  C   UNL     1      52.425  54.596 127.431  1.00  0.00     0.138 A 
ATOM      2  C   UNL     1      51.465  54.341 128.419  1.00  0.00     0.100 A 
ATOM      3  C   UNL     1      50.110  54.504 128.124  1.00  0.00     0.197 A 
ATOM      4  O   UNL     1      49.271  54.212 129.015  1.00  0.00    -0.289 OA
ATOM      5  C   UNL     1      49.718  54.958 126.842  1.00  0.00     0.107 A 
ATOM      6  C   UNL     1      48.369  55.192 126.438  1.00  0.00     0.134 A 
ATOM      7  C   UNL     1      48.098  55.548 125.111  1.00  0.00     0.093 A 
ATOM      8  C   UNL     1      49.131  55.733 124.189  1.00  0.00     0.123 A 
ATOM      9  C   UNL     1      50.453  55.556 124.586  1.00  0.00     0.094 A 
ATOM     10  C   UNL     1      50.755  55.167 125.893  1.00  0.00     0.146 A 
ATOM     11  O   UNL     1      52.029  54.992 126.225  1.00  0.00    -0.456 OA
ENDROOT
BRANCH   1  12
ATOM     12  C   UNL     1      53.879  54.444 127.690  1.00  0.00     0.021 A 
ATOM     13  C   UNL     1      54.453  55.086 128.802  1.00  0.00     0.016 A 
ATOM     14  C   UNL     1      55.819  54.964 129.064  1.00  0.00     0.051 A 
ATOM     15  C   UNL     1      56.638  54.209 128.216  1.00  0.00     0.157 A 
ATOM     16  C   UNL     1      54.711  53.696 126.833  1.00  0.00     0.062 A 
ATOM     17  C   UNL     1      56.084  53.576 127.097  1.00  0.00     0.158 A 
BRANCH  15  18
ATOM     18  O   UNL     1      58.001  54.085 128.476  1.00  0.00    -0.504 OA
ATOM     19  H   UNL     1      58.546  54.862 128.832  1.00  0.00     0.293 HD
ENDBRANCH  15  18
BRANCH  17  20
ATOM     20  O   UNL     1      56.903  52.835 126.248  1.00  0.00    -0.504 OA
ATOM     21  H   UNL     1      57.903  52.993 126.204  1.00  0.00     0.293 HD
ENDBRANCH  17  20
ENDBRANCH   1  12
BRANCH   6  22
ATOM     22  O   UNL     1      47.269  55.113 127.298  1.00  0.00    -0.507 OA
ATOM     23  H   UNL     1      47.072  54.343 127.917  1.00  0.00     0.293 HD
ENDBRANCH   6  22
BRANCH   8  24
ATOM     24  O   UNL     1      48.851  56.102 122.875  1.00  0.00    -0.508 OA
ATOM     25  H   UNL     1      49.042  55.482 122.098  1.00  0.00     0.293 HD
ENDBRANCH   8  24
TORSDOF 5
ENDMDL
MODEL 7
REMARK VINA RESULT:    -4.510     13.928     15.617
REMARK INTER + INTRA:          -5.597
REMARK INTER:                  -5.316
REMARK INTRA:                  -0.281
REMARK UNBOUND:                -0.296
REMARK SMILES O=c1cc(-c2ccc(O)c(O)c2)oc2cc(O)cc(O)c12
REMARK SMILES IDX 4 1 3 2 2 3 1 4 21 5 19 6 18 7 16 8 15 9 14 10 13 11 5 12
REMARK SMILES IDX 6 13 7 14 8 15 12 16 10 17 9 18 11 20 20 22 17 24
REMARK H PARENT 9 19 11 21 20 23 17 25
REMARK Flexibility Score: inf
ROOT
ATOM      1  C   UNL     1      52.346  54.179 126.674  1.00  0.00     0.138 A 
ATOM      2  C   UNL     1      52.505  52.887 127.193  1.00  0.00     0.100 A 
ATOM      3  C   UNL     1      53.773  52.446 127.571  1.00  0.00     0.197 A 
ATOM      4  O   UNL     1      53.874  51.303 128.086  1.00  0.00    -0.289 OA
ATOM      5  C   UNL     1      54.894  53.292 127.396  1.00  0.00     0.107 A 
ATOM      6  C   UNL     1      56.240  52.938 127.714  1.00  0.00     0.134 A 
ATOM      7  C   UNL     1      57.254  53.896 127.587  1.00  0.00     0.093 A 
ATOM      8  C   UNL     1      56.980  55.176 127.100  1.00  0.00     0.123 A 
ATOM      9  C   UNL     1      55.679  55.515 126.739  1.00  0.00     0.094 A 
ATOM     10  C   UNL     1      54.640  54.594 126.887  1.00  0.00     0.146 A 
ATOM     11  O   UNL     1      53.410  54.966 126.547  1.00  0.00    -0.456 OA
ENDROOT
BRANCH   1  12
ATOM     12  C   UNL     1      51.021  54.698 126.251  1.00  0.00     0.021 A 
ATOM     13  C   UNL     1      49.952  54.687 127.164  1.00  0.00     0.016 A 
ATOM     14  C   UNL     1      48.693  55.163 126.790  1.00  0.00     0.051 A 
ATOM     15  C   UNL     1      48.477  55.648 125.495  1.00  0.00     0.157 A 
ATOM     16  C   UNL     1      50.793  55.176 124.945  1.00  0.00     0.062 A 
ATOM     17  C   UNL     1      49.528  55.652 124.569  1.00  0.00     0.158 A 
BRANCH  15  18
ATOM     18  O   UNL     1      47.223  56.125 125.119  1.00  0.00    -0.504 OA
ATOM     19  H   UNL     1      47.074  57.099 124.886  1.00  0.00     0.293 HD
ENDBRANCH  15  18
BRANCH  17  20
ATOM     20  O   UNL     1      49.307  56.125 123.277  1.00  0.00    -0.504 OA
ATOM     21  H   UNL     1      49.870  56.869 122.881  1.00  0.00     0.293 HD
ENDBRANCH  17  20
ENDBRANCH   1  12
BRANCH   6  22
ATOM     22  O   UNL     1      56.637  51.664 128.133  1.00  0.00    -0.507 OA
ATOM     23  H   UNL     1      56.867  51.411 129.081  1.00  0.00     0.293 HD
ENDBRANCH   6  22
BRANCH   8  24
ATOM     24  O   UNL     1      57.999  56.117 126.964  1.00  0.00    -0.508 OA
ATOM     25  H   UNL     1      58.969  55.840 126.881  1.00  0.00     0.293 HD
ENDBRANCH   8  24
TORSDOF 5
ENDMDL
MODEL 8
REMARK VINA RESULT:    -4.358     14.055     15.907
REMARK INTER + INTRA:          -5.418
REMARK INTER:                  -5.155
REMARK INTRA:                  -0.263
REMARK UNBOUND:                -0.296
REMARK SMILES O=c1cc(-c2ccc(O)c(O)c2)oc2cc(O)cc(O)c12
REMARK SMILES IDX 4 1 3 2 2 3 1 4 21 5 19 6 18 7 16 8 15 9 14 10 13 11 5 12
REMARK SMILES IDX 6 13 7 14 8 15 12 16 10 17 9 18 11 20 20 22 17 24
REMARK H PARENT 9 19 11 21 20 23 17 25
REMARK Flexibility Score: inf
ROOT
ATOM      1  C   UNL     1      47.109  38.836 135.415  1.00  0.00     0.138 A 
ATOM      2  C   UNL     1      47.165  40.227 135.252  1.00  0.00     0.100 A 
ATOM      3  C   UNL     1      46.112  40.892 134.621  1.00  0.00     0.197 A 
ATOM      4  O   UNL     1      46.166  42.146 134.541  1.00  0.00    -0.289 OA
ATOM      5  C   UNL     1      45.013  40.153 134.119  1.00  0.00     0.107 A 
ATOM      6  C   UNL     1      43.899  40.719 133.429  1.00  0.00     0.134 A 
ATOM      7  C   UNL     1      42.824  39.898 133.066  1.00  0.00     0.093 A 
ATOM      8  C   UNL     1      42.848  38.524 133.316  1.00  0.00     0.123 A 
ATOM      9  C   UNL     1      43.953  37.955 133.944  1.00  0.00     0.094 A 
ATOM     10  C   UNL     1      45.026  38.751 134.350  1.00  0.00     0.146 A 
ATOM     11  O   UNL     1      46.052  38.170 134.962  1.00  0.00    -0.456 OA
ENDROOT
BRANCH   1  12
ATOM     12  C   UNL     1      48.202  38.078 136.074  1.00  0.00     0.021 A 
ATOM     13  C   UNL     1      49.072  37.300 135.292  1.00  0.00     0.016 A 
ATOM     14  C   UNL     1      50.104  36.571 135.888  1.00  0.00     0.051 A 
ATOM     15  C   UNL     1      50.278  36.599 137.277  1.00  0.00     0.157 A 
ATOM     16  C   UNL     1      48.375  38.092 137.473  1.00  0.00     0.062 A 
ATOM     17  C   UNL     1      49.410  37.359 138.071  1.00  0.00     0.158 A 
BRANCH  15  18
ATOM     18  O   UNL     1      51.307  35.875 137.875  1.00  0.00    -0.504 OA
ATOM     19  H   UNL     1      52.019  35.411 137.323  1.00  0.00     0.293 HD
ENDBRANCH  15  18
BRANCH  17  20
ATOM     20  O   UNL     1      49.579  37.376 139.454  1.00  0.00    -0.504 OA
ATOM     21  H   UNL     1      50.104  38.110 139.916  1.00  0.00     0.293 HD
ENDBRANCH  17  20
ENDBRANCH   1  12
BRANCH   6  22
ATOM     22  O   UNL     1      43.808  42.064 133.058  1.00  0.00    -0.507 OA
ATOM     23  H   UNL     1      44.579  42.633 132.747  1.00  0.00     0.293 HD
ENDBRANCH   6  22
BRANCH   8  24
ATOM     24  O   UNL     1      41.780  37.714 132.937  1.00  0.00    -0.508 OA
ATOM     25  H   UNL     1      41.024  37.499 133.575  1.00  0.00     0.293 HD
ENDBRANCH   8  24
TORSDOF 5
ENDMDL
MODEL 9
REMARK VINA RESULT:    -4.289     12.561     15.155
REMARK INTER + INTRA:          -5.336
REMARK INTER:                  -5.027
REMARK INTRA:                  -0.309
REMARK UNBOUND:                -0.296
REMARK SMILES O=c1cc(-c2ccc(O)c(O)c2)oc2cc(O)cc(O)c12
REMARK SMILES IDX 4 1 3 2 2 3 1 4 21 5 19 6 18 7 16 8 15 9 14 10 13 11 5 12
REMARK SMILES IDX 6 13 7 14 8 15 12 16 10 17 9 18 11 20 20 22 17 24
REMARK H PARENT 9 19 11 21 20 23 17 25
REMARK Flexibility Score: inf
ROOT
ATOM      1  C   UNL     1      48.024  37.064 134.739  1.00  0.00     0.138 A 
ATOM      2  C   UNL     1      48.184  36.400 133.515  1.00  0.00     0.100 A 
ATOM      3  C   UNL     1      47.155  36.432 132.572  1.00  0.00     0.197 A 
ATOM      4  O   UNL     1      47.351  35.875 131.461  1.00  0.00    -0.289 OA
ATOM      5  C   UNL     1      45.946  37.104 132.873  1.00  0.00     0.107 A 
ATOM      6  C   UNL     1      44.816  37.175 132.003  1.00  0.00     0.134 A 
ATOM      7  C   UNL     1      43.710  37.952 132.371  1.00  0.00     0.093 A 
ATOM      8  C   UNL     1      43.670  38.614 133.600  1.00  0.00     0.123 A 
ATOM      9  C   UNL     1      44.747  38.510 134.477  1.00  0.00     0.094 A 
ATOM     10  C   UNL     1      45.879  37.771 134.125  1.00  0.00     0.146 A 
ATOM     11  O   UNL     1      46.891  37.714 134.984  1.00  0.00    -0.456 OA
ENDROOT
BRANCH   1  12
ATOM     12  C   UNL     1      49.083  37.059 135.779  1.00  0.00     0.021 A 
ATOM     13  C   UNL     1      50.421  36.851 135.401  1.00  0.00     0.016 A 
ATOM     14  C   UNL     1      51.436  36.834 136.360  1.00  0.00     0.051 A 
ATOM     15  C   UNL     1      51.132  37.015 137.715  1.00  0.00     0.157 A 
ATOM     16  C   UNL     1      48.782  37.226 137.145  1.00  0.00     0.062 A 
ATOM     17  C   UNL     1      49.802  37.208 138.109  1.00  0.00     0.158 A 
BRANCH  15  18
ATOM     18  O   UNL     1      52.142  37.000 138.674  1.00  0.00    -0.504 OA
ATOM     19  H   UNL     1      52.714  36.178 138.830  1.00  0.00     0.293 HD
ENDBRANCH  15  18
BRANCH  17  20
ATOM     20  O   UNL     1      49.500  37.375 139.459  1.00  0.00    -0.504 OA
ATOM     21  H   UNL     1      49.217  36.595 140.040  1.00  0.00     0.293 HD
ENDBRANCH  17  20
ENDBRANCH   1  12
BRANCH   6  22
ATOM     22  O   UNL     1      44.717  36.489 130.788  1.00  0.00    -0.507 OA
ATOM     23  H   UNL     1      45.207  35.638 130.562  1.00  0.00     0.293 HD
ENDBRANCH   6  22
BRANCH   8  24
ATOM     24  O   UNL     1      42.559  39.372 133.963  1.00  0.00    -0.508 OA
ATOM     25  H   UNL     1      42.586  40.384 133.968  1.00  0.00     0.293 HD
ENDBRANCH   8  24
TORSDOF 5
ENDMDL
