MODEL 1
REMARK VINA RESULT:    -5.488      0.000      0.000
REMARK INTER + INTRA:         -10.710
REMARK INTER:                  -9.979
REMARK INTRA:                  -0.731
REMARK UNBOUND:                -0.731
REMARK SMILES CCCCCCCCCCCCCCCC(=O)[O-]
REMARK SMILES IDX 9 1 10 2 11 3 12 4 13 5 14 6 15 7 16 8 17 9 18 10 8 11 7 12
REMARK SMILES IDX 6 13 5 14 4 15 3 16 2 17 1 18
REMARK H PARENT
REMARK Flexibility Score: inf
ROOT
ATOM      1  C   UNL     1      12.221 -21.327 -27.412  1.00  0.00     0.000 C 
ENDROOT
BRANCH   1   2
ATOM      2  C   UNL     1      12.729 -20.124 -26.600  1.00  0.00     0.000 C 
BRANCH   2   3
ATOM      3  C   UNL     1      11.585 -19.223 -26.102  1.00  0.00     0.000 C 
BRANCH   3   4
ATOM      4  C   UNL     1      10.898 -18.459 -27.244  1.00  0.00     0.000 C 
BRANCH   4   5
ATOM      5  C   UNL     1       9.835 -17.468 -26.741  1.00  0.00     0.000 C 
BRANCH   5   6
ATOM      6  C   UNL     1       8.476 -17.647 -27.441  1.00  0.00     0.006 C 
BRANCH   6   7
ATOM      7  C   UNL     1       7.944 -16.374 -28.120  1.00  0.00     0.053 C 
BRANCH   7   8
ATOM      8  C   UNL     1       8.060 -16.445 -29.612  1.00  0.00     0.041 C 
ATOM      9  O   UNL     1       7.773 -15.442 -30.318  1.00  0.00    -0.550 OA
ATOM     10  O   UNL     1       8.449 -17.628 -30.225  1.00  0.00    -0.550 OA
ENDBRANCH   7   8
ENDBRANCH   6   7
ENDBRANCH   5   6
ENDBRANCH   4   5
ENDBRANCH   3   4
ENDBRANCH   2   3
ENDBRANCH   1   2
BRANCH   1  11
ATOM     11  C   UNL     1      12.933 -22.636 -27.034  1.00  0.00     0.000 C 
BRANCH  11  12
ATOM     12  C   UNL     1      14.242 -22.852 -27.817  1.00  0.00    -0.000 C 
BRANCH  12  13
ATOM     13  C   UNL     1      15.523 -22.889 -26.959  1.00  0.00    -0.000 C 
BRANCH  13  14
ATOM     14  C   UNL     1      16.577 -23.917 -27.406  1.00  0.00    -0.000 C 
BRANCH  14  15
ATOM     15  C   UNL     1      17.427 -24.444 -26.237  1.00  0.00    -0.000 C 
BRANCH  15  16
ATOM     16  C   UNL     1      17.727 -23.360 -25.190  1.00  0.00    -0.000 C 
BRANCH  16  17
ATOM     17  C   UNL     1      17.466 -23.840 -23.754  1.00  0.00    -0.003 C 
ATOM     18  C   UNL     1      16.188 -24.670 -23.677  1.00  0.00     0.004 C 
ENDBRANCH  16  17
ENDBRANCH  15  16
ENDBRANCH  14  15
ENDBRANCH  13  14
ENDBRANCH  12  13
ENDBRANCH  11  12
ENDBRANCH   1  11
TORSDOF 14
ENDMDL
MODEL 2
REMARK VINA RESULT:    -5.354      1.375      2.100
REMARK INTER + INTRA:         -10.467
REMARK INTER:                  -9.397
REMARK INTRA:                  -1.070
REMARK UNBOUND:                -0.731
REMARK SMILES CCCCCCCCCCCCCCCC(=O)[O-]
REMARK SMILES IDX 9 1 10 2 11 3 12 4 13 5 14 6 15 7 16 8 17 9 18 10 8 11 7 12
REMARK SMILES IDX 6 13 5 14 4 15 3 16 2 17 1 18
REMARK H PARENT
REMARK Flexibility Score: inf
ROOT
ATOM      1  C   UNL     1      12.167 -21.812 -29.347  1.00  0.00     0.000 C 
ENDROOT
BRANCH   1   2
ATOM      2  C   UNL     1      11.881 -20.578 -28.475  1.00  0.00     0.000 C 
BRANCH   2   3
ATOM      3  C   UNL     1      12.508 -20.688 -27.074  1.00  0.00     0.000 C 
BRANCH   3   4
ATOM      4  C   UNL     1      11.676 -19.972 -25.999  1.00  0.00     0.000 C 
BRANCH   4   5
ATOM      5  C   UNL     1      11.583 -18.454 -26.233  1.00  0.00     0.000 C 
BRANCH   5   6
ATOM      6  C   UNL     1      10.184 -18.008 -26.695  1.00  0.00     0.006 C 
BRANCH   6   7
ATOM      7  C   UNL     1      10.090 -17.679 -28.194  1.00  0.00     0.053 C 
BRANCH   7   8
ATOM      8  C   UNL     1       8.679 -17.739 -28.694  1.00  0.00     0.041 C 
ATOM      9  O   UNL     1       7.721 -17.824 -27.881  1.00  0.00    -0.550 OA
ATOM     10  O   UNL     1       8.424 -17.737 -30.059  1.00  0.00    -0.550 OA
ENDBRANCH   7   8
ENDBRANCH   6   7
ENDBRANCH   5   6
ENDBRANCH   4   5
ENDBRANCH   3   4
ENDBRANCH   2   3
ENDBRANCH   1   2
BRANCH   1  11
ATOM     11  C   UNL     1      11.749 -23.125 -28.664  1.00  0.00     0.000 C 
BRANCH  11  12
ATOM     12  C   UNL     1      12.920 -24.113 -28.502  1.00  0.00    -0.000 C 
BRANCH  12  13
ATOM     13  C   UNL     1      14.219 -23.718 -29.235  1.00  0.00    -0.000 C 
BRANCH  13  14
ATOM     14  C   UNL     1      15.501 -23.829 -28.392  1.00  0.00    -0.000 C 
BRANCH  14  15
ATOM     15  C   UNL     1      15.586 -22.755 -27.294  1.00  0.00    -0.000 C 
BRANCH  15  16
ATOM     16  C   UNL     1      16.883 -22.850 -26.475  1.00  0.00    -0.000 C 
BRANCH  16  17
ATOM     17  C   UNL     1      17.085 -24.241 -25.852  1.00  0.00    -0.003 C 
ATOM     18  C   UNL     1      17.008 -24.177 -24.329  1.00  0.00     0.004 C 
ENDBRANCH  16  17
ENDBRANCH  15  16
ENDBRANCH  14  15
ENDBRANCH  13  14
ENDBRANCH  12  13
ENDBRANCH  11  12
ENDBRANCH   1  11
TORSDOF 14
ENDMDL
MODEL 3
REMARK VINA RESULT:    -5.353      1.616      2.976
REMARK INTER + INTRA:         -10.464
REMARK INTER:                  -9.220
REMARK INTRA:                  -1.244
REMARK UNBOUND:                -0.731
REMARK SMILES CCCCCCCCCCCCCCCC(=O)[O-]
REMARK SMILES IDX 9 1 10 2 11 3 12 4 13 5 14 6 15 7 16 8 17 9 18 10 8 11 7 12
REMARK SMILES IDX 6 13 5 14 4 15 3 16 2 17 1 18
REMARK H PARENT
REMARK Flexibility Score: inf
ROOT
ATOM      1  C   UNL     1      14.566 -23.119 -28.185  1.00  0.00     0.000 C 
ENDROOT
BRANCH   1   2
ATOM      2  C   UNL     1      13.203 -22.411 -28.262  1.00  0.00     0.000 C 
BRANCH   2   3
ATOM      3  C   UNL     1      12.459 -22.416 -26.915  1.00  0.00     0.000 C 
BRANCH   3   4
ATOM      4  C   UNL     1      11.894 -21.034 -26.550  1.00  0.00     0.000 C 
BRANCH   4   5
ATOM      5  C   UNL     1      12.948 -19.918 -26.646  1.00  0.00     0.000 C 
BRANCH   5   6
ATOM      6  C   UNL     1      12.367 -18.594 -27.175  1.00  0.00     0.006 C 
BRANCH   6   7
ATOM      7  C   UNL     1      11.553 -18.736 -28.471  1.00  0.00     0.053 C 
BRANCH   7   8
ATOM      8  C   UNL     1      10.191 -18.126 -28.348  1.00  0.00     0.041 C 
ATOM      9  O   UNL     1       9.513 -17.876 -29.380  1.00  0.00    -0.550 OA
ATOM     10  O   UNL     1       9.684 -17.801 -27.097  1.00  0.00    -0.550 OA
ENDBRANCH   7   8
ENDBRANCH   6   7
ENDBRANCH   5   6
ENDBRANCH   4   5
ENDBRANCH   3   4
ENDBRANCH   2   3
ENDBRANCH   1   2
BRANCH   1  11
ATOM     11  C   UNL     1      15.403 -22.655 -26.981  1.00  0.00     0.000 C 
BRANCH  11  12
ATOM     12  C   UNL     1      16.734 -23.420 -26.849  1.00  0.00    -0.000 C 
BRANCH  12  13
ATOM     13  C   UNL     1      17.981 -22.537 -26.636  1.00  0.00    -0.000 C 
BRANCH  13  14
ATOM     14  C   UNL     1      18.552 -22.551 -25.207  1.00  0.00    -0.000 C 
BRANCH  14  15
ATOM     15  C   UNL     1      18.800 -23.974 -24.679  1.00  0.00    -0.000 C 
BRANCH  15  16
ATOM     16  C   UNL     1      18.443 -24.122 -23.192  1.00  0.00    -0.000 C 
BRANCH  16  17
ATOM     17  C   UNL     1      16.933 -24.010 -22.935  1.00  0.00    -0.003 C 
ATOM     18  C   UNL     1      16.208 -25.285 -23.357  1.00  0.00     0.004 C 
ENDBRANCH  16  17
ENDBRANCH  15  16
ENDBRANCH  14  15
ENDBRANCH  13  14
ENDBRANCH  12  13
ENDBRANCH  11  12
ENDBRANCH   1  11
TORSDOF 14
ENDMDL
MODEL 4
REMARK VINA RESULT:    -5.342      5.651      9.334
REMARK INTER + INTRA:         -10.445
REMARK INTER:                  -8.966
REMARK INTRA:                  -1.479
REMARK UNBOUND:                -0.731
REMARK SMILES CCCCCCCCCCCCCCCC(=O)[O-]
REMARK SMILES IDX 9 1 10 2 11 3 12 4 13 5 14 6 15 7 16 8 17 9 18 10 8 11 7 12
REMARK SMILES IDX 6 13 5 14 4 15 3 16 2 17 1 18
REMARK H PARENT
REMARK Flexibility Score: inf
ROOT
ATOM      1  C   UNL     1      18.630 -22.674 -25.565  1.00  0.00     0.000 C 
ENDROOT
BRANCH   1   2
ATOM      2  C   UNL     1      17.866 -23.926 -25.103  1.00  0.00     0.000 C 
BRANCH   2   3
ATOM      3  C   UNL     1      18.568 -25.232 -25.517  1.00  0.00     0.000 C 
BRANCH   3   4
ATOM      4  C   UNL     1      17.725 -26.071 -26.490  1.00  0.00     0.000 C 
BRANCH   4   5
ATOM      5  C   UNL     1      18.393 -26.236 -27.865  1.00  0.00     0.000 C 
BRANCH   5   6
ATOM      6  C   UNL     1      18.106 -27.606 -28.505  1.00  0.00     0.006 C 
BRANCH   6   7
ATOM      7  C   UNL     1      16.678 -28.125 -28.272  1.00  0.00     0.053 C 
BRANCH   7   8
ATOM      8  C   UNL     1      15.766 -27.791 -29.412  1.00  0.00     0.041 C 
ATOM      9  O   UNL     1      15.342 -28.701 -30.172  1.00  0.00    -0.550 OA
ATOM     10  O   UNL     1      15.413 -26.470 -29.657  1.00  0.00    -0.550 OA
ENDBRANCH   7   8
ENDBRANCH   6   7
ENDBRANCH   5   6
ENDBRANCH   4   5
ENDBRANCH   3   4
ENDBRANCH   2   3
ENDBRANCH   1   2
BRANCH   1  11
ATOM     11  C   UNL     1      17.847 -21.857 -26.606  1.00  0.00     0.000 C 
BRANCH  11  12
ATOM     12  C   UNL     1      17.740 -22.570 -27.967  1.00  0.00    -0.000 C 
BRANCH  12  13
ATOM     13  C   UNL     1      16.327 -23.065 -28.341  1.00  0.00    -0.000 C 
BRANCH  13  14
ATOM     14  C   UNL     1      15.241 -22.792 -27.286  1.00  0.00    -0.000 C 
BRANCH  14  15
ATOM     15  C   UNL     1      13.818 -23.004 -27.829  1.00  0.00    -0.000 C 
BRANCH  15  16
ATOM     16  C   UNL     1      12.739 -22.784 -26.758  1.00  0.00    -0.000 C 
BRANCH  16  17
ATOM     17  C   UNL     1      11.407 -23.461 -27.116  1.00  0.00    -0.003 C 
ATOM     18  C   UNL     1      11.503 -24.186 -28.456  1.00  0.00     0.004 C 
ENDBRANCH  16  17
ENDBRANCH  15  16
ENDBRANCH  14  15
ENDBRANCH  13  14
ENDBRANCH  12  13
ENDBRANCH  11  12
ENDBRANCH   1  11
TORSDOF 14
ENDMDL
MODEL 5
REMARK VINA RESULT:    -5.312      5.010      9.345
REMARK INTER + INTRA:         -10.391
REMARK INTER:                  -9.129
REMARK INTRA:                  -1.262
REMARK UNBOUND:                -0.731
REMARK SMILES CCCCCCCCCCCCCCCC(=O)[O-]
REMARK SMILES IDX 9 1 10 2 11 3 12 4 13 5 14 6 15 7 16 8 17 9 18 10 8 11 7 12
REMARK SMILES IDX 6 13 5 14 4 15 3 16 2 17 1 18
REMARK H PARENT
REMARK Flexibility Score: inf
ROOT
ATOM      1  C   UNL     1      17.045 -22.375 -27.170  1.00  0.00     0.000 C 
ENDROOT
BRANCH   1   2
ATOM      2  C   UNL     1      18.187 -23.371 -26.912  1.00  0.00     0.000 C 
BRANCH   2   3
ATOM      3  C   UNL     1      17.885 -24.326 -25.743  1.00  0.00     0.000 C 
BRANCH   3   4
ATOM      4  C   UNL     1      17.790 -25.793 -26.190  1.00  0.00     0.000 C 
BRANCH   4   5
ATOM      5  C   UNL     1      18.721 -26.114 -27.371  1.00  0.00     0.000 C 
BRANCH   5   6
ATOM      6  C   UNL     1      18.123 -27.158 -28.332  1.00  0.00     0.006 C 
BRANCH   6   7
ATOM      7  C   UNL     1      16.744 -26.780 -28.896  1.00  0.00     0.053 C 
BRANCH   7   8
ATOM      8  C   UNL     1      15.934 -27.987 -29.257  1.00  0.00     0.041 C 
ATOM      9  O   UNL     1      14.694 -27.885 -29.448  1.00  0.00    -0.550 OA
ATOM     10  O   UNL     1      16.543 -29.232 -29.347  1.00  0.00    -0.550 OA
ENDBRANCH   7   8
ENDBRANCH   6   7
ENDBRANCH   5   6
ENDBRANCH   4   5
ENDBRANCH   3   4
ENDBRANCH   2   3
ENDBRANCH   1   2
BRANCH   1  11
ATOM     11  C   UNL     1      15.656 -23.008 -26.977  1.00  0.00     0.000 C 
BRANCH  11  12
ATOM     12  C   UNL     1      14.992 -23.406 -28.309  1.00  0.00    -0.000 C 
BRANCH  12  13
ATOM     13  C   UNL     1      13.586 -22.818 -28.544  1.00  0.00    -0.000 C 
BRANCH  13  14
ATOM     14  C   UNL     1      12.516 -23.265 -27.534  1.00  0.00    -0.000 C 
BRANCH  14  15
ATOM     15  C   UNL     1      12.075 -22.130 -26.593  1.00  0.00    -0.000 C 
BRANCH  15  16
ATOM     16  C   UNL     1      12.601 -20.756 -27.039  1.00  0.00    -0.000 C 
BRANCH  16  17
ATOM     17  C   UNL     1      11.704 -19.601 -26.568  1.00  0.00    -0.003 C 
ATOM     18  C   UNL     1      12.404 -18.761 -25.503  1.00  0.00     0.004 C 
ENDBRANCH  16  17
ENDBRANCH  15  16
ENDBRANCH  14  15
ENDBRANCH  13  14
ENDBRANCH  12  13
ENDBRANCH  11  12
ENDBRANCH   1  11
TORSDOF 14
ENDMDL
MODEL 6
REMARK VINA RESULT:    -5.242      2.125      4.186
REMARK INTER + INTRA:         -10.264
REMARK INTER:                  -9.096
REMARK INTRA:                  -1.168
REMARK UNBOUND:                -0.731
REMARK SMILES CCCCCCCCCCCCCCCC(=O)[O-]
REMARK SMILES IDX 9 1 10 2 11 3 12 4 13 5 14 6 15 7 16 8 17 9 18 10 8 11 7 12
REMARK SMILES IDX 6 13 5 14 4 15 3 16 2 17 1 18
REMARK H PARENT
REMARK Flexibility Score: inf
ROOT
ATOM      1  C   UNL     1      15.337 -23.134 -28.405  1.00  0.00     0.000 C 
ENDROOT
BRANCH   1   2
ATOM      2  C   UNL     1      13.813 -23.333 -28.400  1.00  0.00     0.000 C 
BRANCH   2   3
ATOM      3  C   UNL     1      13.130 -22.628 -27.214  1.00  0.00     0.000 C 
BRANCH   3   4
ATOM      4  C   UNL     1      12.470 -21.301 -27.621  1.00  0.00     0.000 C 
BRANCH   4   5
ATOM      5  C   UNL     1      12.069 -20.442 -26.409  1.00  0.00     0.000 C 
BRANCH   5   6
ATOM      6  C   UNL     1      12.622 -19.008 -26.488  1.00  0.00     0.006 C 
BRANCH   6   7
ATOM      7  C   UNL     1      12.171 -18.225 -27.732  1.00  0.00     0.053 C 
BRANCH   7   8
ATOM      8  C   UNL     1      10.680 -18.095 -27.803  1.00  0.00     0.041 C 
ATOM      9  O   UNL     1      10.045 -17.553 -26.860  1.00  0.00    -0.550 OA
ATOM     10  O   UNL     1       9.988 -18.605 -28.894  1.00  0.00    -0.550 OA
ENDBRANCH   7   8
ENDBRANCH   6   7
ENDBRANCH   5   6
ENDBRANCH   4   5
ENDBRANCH   3   4
ENDBRANCH   2   3
ENDBRANCH   1   2
BRANCH   1  11
ATOM     11  C   UNL     1      15.896 -22.825 -27.006  1.00  0.00     0.000 C 
BRANCH  11  12
ATOM     12  C   UNL     1      17.323 -23.369 -26.800  1.00  0.00    -0.000 C 
BRANCH  12  13
ATOM     13  C   UNL     1      17.405 -24.821 -26.287  1.00  0.00    -0.000 C 
BRANCH  13  14
ATOM     14  C   UNL     1      18.374 -25.731 -27.061  1.00  0.00    -0.000 C 
BRANCH  14  15
ATOM     15  C   UNL     1      17.757 -27.097 -27.410  1.00  0.00    -0.000 C 
BRANCH  15  16
ATOM     16  C   UNL     1      17.857 -27.423 -28.909  1.00  0.00    -0.000 C 
BRANCH  16  17
ATOM     17  C   UNL     1      16.779 -26.708 -29.739  1.00  0.00    -0.003 C 
ATOM     18  C   UNL     1      17.368 -25.522 -30.498  1.00  0.00     0.004 C 
ENDBRANCH  16  17
ENDBRANCH  15  16
ENDBRANCH  14  15
ENDBRANCH  13  14
ENDBRANCH  12  13
ENDBRANCH  11  12
ENDBRANCH   1  11
TORSDOF 14
ENDMDL
MODEL 7
REMARK VINA RESULT:    -5.199      3.356      5.594
REMARK INTER + INTRA:         -10.184
REMARK INTER:                  -8.586
REMARK INTRA:                  -1.599
REMARK UNBOUND:                -0.731
REMARK SMILES CCCCCCCCCCCCCCCC(=O)[O-]
REMARK SMILES IDX 9 1 10 2 11 3 12 4 13 5 14 6 15 7 16 8 17 9 18 10 8 11 7 12
REMARK SMILES IDX 6 13 5 14 4 15 3 16 2 17 1 18
REMARK H PARENT
REMARK Flexibility Score: inf
ROOT
ATOM      1  C   UNL     1      16.827 -25.412 -30.363  1.00  0.00     0.000 C 
ENDROOT
BRANCH   1   2
ATOM      2  C   UNL     1      15.469 -25.423 -29.642  1.00  0.00     0.000 C 
BRANCH   2   3
ATOM      3  C   UNL     1      14.948 -24.006 -29.342  1.00  0.00     0.000 C 
BRANCH   3   4
ATOM      4  C   UNL     1      15.698 -23.337 -28.180  1.00  0.00     0.000 C 
BRANCH   4   5
ATOM      5  C   UNL     1      14.762 -22.911 -27.036  1.00  0.00     0.000 C 
BRANCH   5   6
ATOM      6  C   UNL     1      13.290 -22.812 -27.478  1.00  0.00     0.006 C 
BRANCH   6   7
ATOM      7  C   UNL     1      12.733 -21.380 -27.497  1.00  0.00     0.053 C 
BRANCH   7   8
ATOM      8  C   UNL     1      12.011 -21.075 -28.773  1.00  0.00     0.041 C 
ATOM      9  O   UNL     1      12.237 -21.756 -29.808  1.00  0.00    -0.550 OA
ATOM     10  O   UNL     1      11.114 -20.017 -28.830  1.00  0.00    -0.550 OA
ENDBRANCH   7   8
ENDBRANCH   6   7
ENDBRANCH   5   6
ENDBRANCH   4   5
ENDBRANCH   3   4
ENDBRANCH   2   3
ENDBRANCH   1   2
BRANCH   1  11
ATOM     11  C   UNL     1      17.747 -26.557 -29.905  1.00  0.00     0.000 C 
BRANCH  11  12
ATOM     12  C   UNL     1      17.139 -27.388 -28.760  1.00  0.00    -0.000 C 
BRANCH  12  13
ATOM     13  C   UNL     1      17.662 -27.047 -27.350  1.00  0.00    -0.000 C 
BRANCH  13  14
ATOM     14  C   UNL     1      18.848 -26.067 -27.315  1.00  0.00    -0.000 C 
BRANCH  14  15
ATOM     15  C   UNL     1      18.569 -24.827 -26.448  1.00  0.00    -0.000 C 
BRANCH  15  16
ATOM     16  C   UNL     1      17.984 -25.187 -25.074  1.00  0.00    -0.000 C 
BRANCH  16  17
ATOM     17  C   UNL     1      16.915 -24.186 -24.609  1.00  0.00    -0.003 C 
ATOM     18  C   UNL     1      16.133 -24.731 -23.417  1.00  0.00     0.004 C 
ENDBRANCH  16  17
ENDBRANCH  15  16
ENDBRANCH  14  15
ENDBRANCH  13  14
ENDBRANCH  12  13
ENDBRANCH  11  12
ENDBRANCH   1  11
TORSDOF 14
ENDMDL
MODEL 8
REMARK VINA RESULT:    -5.152      6.890      9.703
REMARK INTER + INTRA:         -10.100
REMARK INTER:                  -8.039
REMARK INTRA:                  -2.060
REMARK UNBOUND:                -0.731
REMARK SMILES CCCCCCCCCCCCCCCC(=O)[O-]
REMARK SMILES IDX 9 1 10 2 11 3 12 4 13 5 14 6 15 7 16 8 17 9 18 10 8 11 7 12
REMARK SMILES IDX 6 13 5 14 4 15 3 16 2 17 1 18
REMARK H PARENT
REMARK Flexibility Score: inf
ROOT
ATOM      1  C   UNL     1      18.596 -24.721 -23.853  1.00  0.00     0.000 C 
ENDROOT
BRANCH   1   2
ATOM      2  C   UNL     1      17.347 -25.025 -24.697  1.00  0.00     0.000 C 
BRANCH   2   3
ATOM      3  C   UNL     1      17.668 -25.871 -25.942  1.00  0.00     0.000 C 
BRANCH   3   4
ATOM      4  C   UNL     1      18.936 -25.395 -26.667  1.00  0.00     0.000 C 
BRANCH   4   5
ATOM      5  C   UNL     1      19.147 -26.098 -28.018  1.00  0.00     0.000 C 
BRANCH   5   6
ATOM      6  C   UNL     1      18.111 -27.205 -28.281  1.00  0.00     0.006 C 
BRANCH   6   7
ATOM      7  C   UNL     1      17.448 -27.132 -29.666  1.00  0.00     0.053 C 
BRANCH   7   8
ATOM      8  C   UNL     1      16.458 -28.237 -29.874  1.00  0.00     0.041 C 
ATOM      9  O   UNL     1      16.253 -29.084 -28.964  1.00  0.00    -0.550 OA
ATOM     10  O   UNL     1      15.788 -28.354 -31.085  1.00  0.00    -0.550 OA
ENDBRANCH   7   8
ENDBRANCH   6   7
ENDBRANCH   5   6
ENDBRANCH   4   5
ENDBRANCH   3   4
ENDBRANCH   2   3
ENDBRANCH   1   2
BRANCH   1  11
ATOM     11  C   UNL     1      18.612 -23.277 -23.324  1.00  0.00     0.000 C 
BRANCH  11  12
ATOM     12  C   UNL     1      19.829 -22.473 -23.818  1.00  0.00    -0.000 C 
BRANCH  12  13
ATOM     13  C   UNL     1      19.795 -22.080 -25.309  1.00  0.00    -0.000 C 
BRANCH  13  14
ATOM     14  C   UNL     1      18.497 -21.397 -25.773  1.00  0.00    -0.000 C 
BRANCH  14  15
ATOM     15  C   UNL     1      18.010 -21.909 -27.140  1.00  0.00    -0.000 C 
BRANCH  15  16
ATOM     16  C   UNL     1      16.576 -22.459 -27.087  1.00  0.00    -0.000 C 
BRANCH  16  17
ATOM     17  C   UNL     1      16.267 -23.407 -28.256  1.00  0.00    -0.003 C 
ATOM     18  C   UNL     1      14.779 -23.389 -28.598  1.00  0.00     0.004 C 
ENDBRANCH  16  17
ENDBRANCH  15  16
ENDBRANCH  14  15
ENDBRANCH  13  14
ENDBRANCH  12  13
ENDBRANCH  11  12
ENDBRANCH   1  11
TORSDOF 14
ENDMDL
MODEL 9
REMARK VINA RESULT:    -5.146      1.939      3.456
REMARK INTER + INTRA:         -10.088
REMARK INTER:                  -9.058
REMARK INTRA:                  -1.030
REMARK UNBOUND:                -0.731
REMARK SMILES CCCCCCCCCCCCCCCC(=O)[O-]
REMARK SMILES IDX 9 1 10 2 11 3 12 4 13 5 14 6 15 7 16 8 17 9 18 10 8 11 7 12
REMARK SMILES IDX 6 13 5 14 4 15 3 16 2 17 1 18
REMARK H PARENT
REMARK Flexibility Score: inf
ROOT
ATOM      1  C   UNL     1      13.446 -23.021 -28.865  1.00  0.00     0.000 C 
ENDROOT
BRANCH   1   2
ATOM      2  C   UNL     1      12.280 -23.404 -27.938  1.00  0.00     0.000 C 
BRANCH   2   3
ATOM      3  C   UNL     1      12.147 -22.454 -26.734  1.00  0.00     0.000 C 
BRANCH   3   4
ATOM      4  C   UNL     1      12.302 -20.977 -27.129  1.00  0.00     0.000 C 
BRANCH   4   5
ATOM      5  C   UNL     1      11.806 -20.015 -26.036  1.00  0.00     0.000 C 
BRANCH   5   6
ATOM      6  C   UNL     1      11.900 -18.538 -26.458  1.00  0.00     0.006 C 
BRANCH   6   7
ATOM      7  C   UNL     1      11.551 -18.279 -27.932  1.00  0.00     0.053 C 
BRANCH   7   8
ATOM      8  C   UNL     1      10.088 -18.025 -28.126  1.00  0.00     0.041 C 
ATOM      9  O   UNL     1       9.574 -18.119 -29.273  1.00  0.00    -0.550 OA
ATOM     10  O   UNL     1       9.296 -17.651 -27.048  1.00  0.00    -0.550 OA
ENDBRANCH   7   8
ENDBRANCH   6   7
ENDBRANCH   5   6
ENDBRANCH   4   5
ENDBRANCH   3   4
ENDBRANCH   2   3
ENDBRANCH   1   2
BRANCH   1  11
ATOM     11  C   UNL     1      14.748 -23.759 -28.509  1.00  0.00     0.000 C 
BRANCH  11  12
ATOM     12  C   UNL     1      15.631 -22.970 -27.525  1.00  0.00    -0.000 C 
BRANCH  12  13
ATOM     13  C   UNL     1      16.733 -23.792 -26.826  1.00  0.00    -0.000 C 
BRANCH  13  14
ATOM     14  C   UNL     1      18.144 -23.625 -27.417  1.00  0.00    -0.000 C 
BRANCH  14  15
ATOM     15  C   UNL     1      18.853 -24.970 -27.654  1.00  0.00    -0.000 C 
BRANCH  15  16
ATOM     16  C   UNL     1      18.009 -26.170 -27.198  1.00  0.00    -0.000 C 
BRANCH  16  17
ATOM     17  C   UNL     1      18.127 -27.369 -28.152  1.00  0.00    -0.003 C 
ATOM     18  C   UNL     1      17.611 -27.015 -29.544  1.00  0.00     0.004 C 
ENDBRANCH  16  17
ENDBRANCH  15  16
ENDBRANCH  14  15
ENDBRANCH  13  14
ENDBRANCH  12  13
ENDBRANCH  11  12
ENDBRANCH   1  11
TORSDOF 14
ENDMDL
