MODEL 1
REMARK VINA RESULT:    -3.406      0.000      0.000
REMARK INTER + INTRA:         -15.231
REMARK INTER:                  -8.980
REMARK INTRA:                  -6.251
REMARK UNBOUND:                -6.251
REMARK SMILES CCCCCCCCCCCCCCCCCCCCCCCCCCCCCC(=O)[O-]
REMARK SMILES IDX 16 1 17 2 18 3 19 4 20 5 21 6 22 7 23 8 24 9 25 10 26 11
REMARK SMILES IDX 27 12 28 13 29 14 30 15 31 16 32 17 15 18 14 19 13 20 12 21
REMARK SMILES IDX 11 22 10 23 9 24 8 25 7 26 6 27 5 28 4 29 3 30 2 31 1 32
REMARK H PARENT
REMARK Flexibility Score: inf
ROOT
ATOM      1  C   UNL     1      -4.189   4.304  -8.869  1.00  0.00     0.000 C 
ENDROOT
BRANCH   1   2
ATOM      2  C   UNL     1      -3.777   2.919  -9.405  1.00  0.00     0.000 C 
BRANCH   2   3
ATOM      3  C   UNL     1      -2.263   2.711  -9.591  1.00  0.00     0.000 C 
BRANCH   3   4
ATOM      4  C   UNL     1      -1.451   3.083  -8.338  1.00  0.00     0.000 C 
BRANCH   4   5
ATOM      5  C   UNL     1      -0.171   2.244  -8.188  1.00  0.00     0.000 C 
BRANCH   5   6
ATOM      6  C   UNL     1       0.253   1.456  -9.443  1.00  0.00     0.000 C 
BRANCH   6   7
ATOM      7  C   UNL     1       1.413   2.102 -10.229  1.00  0.00     0.000 C 
BRANCH   7   8
ATOM      8  C   UNL     1       1.142   2.138 -11.743  1.00  0.00     0.000 C 
BRANCH   8   9
ATOM      9  C   UNL     1       0.513   0.837 -12.274  1.00  0.00     0.000 C 
BRANCH   9  10
ATOM     10  C   UNL     1      -0.836   1.006 -13.000  1.00  0.00     0.000 C 
BRANCH  10  11
ATOM     11  C   UNL     1      -1.976   0.216 -12.339  1.00  0.00     0.000 C 
BRANCH  11  12
ATOM     12  C   UNL     1      -2.643  -0.786 -13.297  1.00  0.00     0.000 C 
BRANCH  12  13
ATOM     13  C   UNL     1      -2.195  -2.238 -13.054  1.00  0.00     0.006 C 
BRANCH  13  14
ATOM     14  C   UNL     1      -1.072  -2.665 -14.010  1.00  0.00     0.053 C 
BRANCH  14  15
ATOM     15  C   UNL     1       0.198  -2.975 -13.279  1.00  0.00     0.041 C 
ATOM     16  O   UNL     1       1.201  -2.222 -13.406  1.00  0.00    -0.550 OA
ATOM     17  O   UNL     1       0.290  -4.122 -12.502  1.00  0.00    -0.550 OA
ENDBRANCH  14  15
ENDBRANCH  13  14
ENDBRANCH  12  13
ENDBRANCH  11  12
ENDBRANCH  10  11
ENDBRANCH   9  10
ENDBRANCH   8   9
ENDBRANCH   7   8
ENDBRANCH   6   7
ENDBRANCH   5   6
ENDBRANCH   4   5
ENDBRANCH   3   4
ENDBRANCH   2   3
ENDBRANCH   1   2
BRANCH   1  18
ATOM     18  C   UNL     1      -4.706   5.300  -9.927  1.00  0.00     0.000 C 
BRANCH  18  19
ATOM     19  C   UNL     1      -3.878   6.599 -10.029  1.00  0.00     0.000 C 
BRANCH  19  20
ATOM     20  C   UNL     1      -2.562   6.536  -9.231  1.00  0.00     0.000 C 
BRANCH  20  21
ATOM     21  C   UNL     1      -1.483   7.478  -9.801  1.00  0.00     0.000 C 
BRANCH  21  22
ATOM     22  C   UNL     1      -0.053   6.916  -9.711  1.00  0.00     0.000 C 
BRANCH  22  23
ATOM     23  C   UNL     1       0.077   5.530 -10.363  1.00  0.00     0.000 C 
BRANCH  23  24
ATOM     24  C   UNL     1      -0.169   5.601 -11.878  1.00  0.00    -0.000 C 
BRANCH  24  25
ATOM     25  C   UNL     1      -1.373   4.748 -12.314  1.00  0.00    -0.000 C 
BRANCH  25  26
ATOM     26  C   UNL     1      -2.219   5.423 -13.408  1.00  0.00    -0.000 C 
BRANCH  26  27
ATOM     27  C   UNL     1      -3.679   4.922 -13.412  1.00  0.00    -0.000 C 
BRANCH  27  28
ATOM     28  C   UNL     1      -3.827   3.417 -13.136  1.00  0.00    -0.000 C 
BRANCH  28  29
ATOM     29  C   UNL     1      -5.258   3.014 -12.747  1.00  0.00    -0.000 C 
BRANCH  29  30
ATOM     30  C   UNL     1      -5.331   1.529 -12.358  1.00  0.00    -0.000 C 
BRANCH  30  31
ATOM     31  C   UNL     1      -6.681   1.141 -11.739  1.00  0.00    -0.003 C 
ATOM     32  C   UNL     1      -7.185   2.154 -10.715  1.00  0.00     0.004 C 
ENDBRANCH  30  31
ENDBRANCH  29  30
ENDBRANCH  28  29
ENDBRANCH  27  28
ENDBRANCH  26  27
ENDBRANCH  25  26
ENDBRANCH  24  25
ENDBRANCH  23  24
ENDBRANCH  22  23
ENDBRANCH  21  22
ENDBRANCH  20  21
ENDBRANCH  19  20
ENDBRANCH  18  19
ENDBRANCH   1  18
TORSDOF 28
ENDMDL
MODEL 2
REMARK VINA RESULT:    -3.394      3.321      5.556
REMARK INTER + INTRA:         -15.200
REMARK INTER:                  -9.604
REMARK INTRA:                  -5.597
REMARK UNBOUND:                -6.251
REMARK SMILES CCCCCCCCCCCCCCCCCCCCCCCCCCCCCC(=O)[O-]
REMARK SMILES IDX 16 1 17 2 18 3 19 4 20 5 21 6 22 7 23 8 24 9 25 10 26 11
REMARK SMILES IDX 27 12 28 13 29 14 30 15 31 16 32 17 15 18 14 19 13 20 12 21
REMARK SMILES IDX 11 22 10 23 9 24 8 25 7 26 6 27 5 28 4 29 3 30 2 31 1 32
REMARK H PARENT
REMARK Flexibility Score: inf
ROOT
ATOM      1  C   UNL     1      -1.818   2.961  -8.500  1.00  0.00     0.000 C 
ENDROOT
BRANCH   1   2
ATOM      2  C   UNL     1      -2.100   4.475  -8.556  1.00  0.00     0.000 C 
BRANCH   2   3
ATOM      3  C   UNL     1      -0.855   5.377  -8.472  1.00  0.00     0.000 C 
BRANCH   3   4
ATOM      4  C   UNL     1      -0.632   6.207  -9.749  1.00  0.00     0.000 C 
BRANCH   4   5
ATOM      5  C   UNL     1       0.601   5.751 -10.547  1.00  0.00     0.000 C 
BRANCH   5   6
ATOM      6  C   UNL     1       0.508   5.949 -12.073  1.00  0.00     0.000 C 
BRANCH   6   7
ATOM      7  C   UNL     1       1.630   5.247 -12.867  1.00  0.00     0.000 C 
BRANCH   7   8
ATOM      8  C   UNL     1       3.013   5.453 -12.226  1.00  0.00     0.000 C 
BRANCH   8   9
ATOM      9  C   UNL     1       4.069   4.454 -12.736  1.00  0.00     0.000 C 
BRANCH   9  10
ATOM     10  C   UNL     1       3.518   3.088 -13.188  1.00  0.00     0.000 C 
BRANCH  10  11
ATOM     11  C   UNL     1       4.295   1.902 -12.595  1.00  0.00     0.000 C 
BRANCH  11  12
ATOM     12  C   UNL     1       4.745   2.147 -11.145  1.00  0.00     0.000 C 
BRANCH  12  13
ATOM     13  C   UNL     1       6.268   2.022 -10.960  1.00  0.00     0.006 C 
BRANCH  13  14
ATOM     14  C   UNL     1       6.725   0.558 -10.892  1.00  0.00     0.053 C 
BRANCH  14  15
ATOM     15  C   UNL     1       8.148   0.437 -10.439  1.00  0.00     0.041 C 
ATOM     16  O   UNL     1       8.845  -0.548 -10.803  1.00  0.00    -0.550 OA
ATOM     17  O   UNL     1       8.685   1.381  -9.574  1.00  0.00    -0.550 OA
ENDBRANCH  14  15
ENDBRANCH  13  14
ENDBRANCH  12  13
ENDBRANCH  11  12
ENDBRANCH  10  11
ENDBRANCH   9  10
ENDBRANCH   8   9
ENDBRANCH   7   8
ENDBRANCH   6   7
ENDBRANCH   5   6
ENDBRANCH   4   5
ENDBRANCH   3   4
ENDBRANCH   2   3
ENDBRANCH   1   2
BRANCH   1  18
ATOM     18  C   UNL     1      -0.383   2.565  -8.099  1.00  0.00     0.000 C 
BRANCH  18  19
ATOM     19  C   UNL     1       0.269   1.520  -9.032  1.00  0.00     0.000 C 
BRANCH  19  20
ATOM     20  C   UNL     1       1.090   2.160 -10.167  1.00  0.00     0.000 C 
BRANCH  20  21
ATOM     21  C   UNL     1       0.414   2.003 -11.543  1.00  0.00     0.000 C 
BRANCH  21  22
ATOM     22  C   UNL     1      -0.775   1.025 -11.547  1.00  0.00     0.000 C 
BRANCH  22  23
ATOM     23  C   UNL     1      -2.094   1.702 -11.951  1.00  0.00     0.000 C 
BRANCH  23  24
ATOM     24  C   UNL     1      -1.911   3.217 -12.131  1.00  0.00    -0.000 C 
BRANCH  24  25
ATOM     25  C   UNL     1      -3.226   3.925 -12.501  1.00  0.00    -0.000 C 
BRANCH  25  26
ATOM     26  C   UNL     1      -3.269   5.391 -12.033  1.00  0.00    -0.000 C 
BRANCH  26  27
ATOM     27  C   UNL     1      -4.682   5.821 -11.586  1.00  0.00    -0.000 C 
BRANCH  27  28
ATOM     28  C   UNL     1      -5.027   5.435 -10.138  1.00  0.00    -0.000 C 
BRANCH  28  29
ATOM     29  C   UNL     1      -6.093   4.333 -10.047  1.00  0.00    -0.000 C 
BRANCH  29  30
ATOM     30  C   UNL     1      -5.934   3.511  -8.758  1.00  0.00    -0.000 C 
BRANCH  30  31
ATOM     31  C   UNL     1      -5.442   2.081  -9.020  1.00  0.00    -0.003 C 
ATOM     32  C   UNL     1      -5.459   1.701 -10.497  1.00  0.00     0.004 C 
ENDBRANCH  30  31
ENDBRANCH  29  30
ENDBRANCH  28  29
ENDBRANCH  27  28
ENDBRANCH  26  27
ENDBRANCH  25  26
ENDBRANCH  24  25
ENDBRANCH  23  24
ENDBRANCH  22  23
ENDBRANCH  21  22
ENDBRANCH  20  21
ENDBRANCH  19  20
ENDBRANCH  18  19
ENDBRANCH   1  18
TORSDOF 28
ENDMDL
MODEL 3
REMARK VINA RESULT:    -3.391      3.723      7.884
REMARK INTER + INTRA:         -15.193
REMARK INTER:                 -10.445
REMARK INTRA:                  -4.749
REMARK UNBOUND:                -6.251
REMARK SMILES CCCCCCCCCCCCCCCCCCCCCCCCCCCCCC(=O)[O-]
REMARK SMILES IDX 16 1 17 2 18 3 19 4 20 5 21 6 22 7 23 8 24 9 25 10 26 11
REMARK SMILES IDX 27 12 28 13 29 14 30 15 31 16 32 17 15 18 14 19 13 20 12 21
REMARK SMILES IDX 11 22 10 23 9 24 8 25 7 26 6 27 5 28 4 29 3 30 2 31 1 32
REMARK H PARENT
REMARK Flexibility Score: inf
ROOT
ATOM      1  C   UNL     1      -1.495   4.811  -8.429  1.00  0.00     0.000 C 
ENDROOT
BRANCH   1   2
ATOM      2  C   UNL     1      -0.131   5.355  -8.899  1.00  0.00     0.000 C 
BRANCH   2   3
ATOM      3  C   UNL     1      -0.181   6.709  -9.631  1.00  0.00     0.000 C 
BRANCH   3   4
ATOM      4  C   UNL     1       0.209   6.601 -11.115  1.00  0.00     0.000 C 
BRANCH   4   5
ATOM      5  C   UNL     1       0.250   5.147 -11.616  1.00  0.00     0.000 C 
BRANCH   5   6
ATOM      6  C   UNL     1      -0.857   4.763 -12.617  1.00  0.00     0.000 C 
BRANCH   6   7
ATOM      7  C   UNL     1      -2.035   3.991 -11.987  1.00  0.00     0.000 C 
BRANCH   7   8
ATOM      8  C   UNL     1      -3.359   4.770 -12.081  1.00  0.00     0.000 C 
BRANCH   8   9
ATOM      9  C   UNL     1      -3.304   6.140 -11.379  1.00  0.00     0.000 C 
BRANCH   9  10
ATOM     10  C   UNL     1      -4.373   6.365 -10.292  1.00  0.00     0.000 C 
BRANCH  10  11
ATOM     11  C   UNL     1      -5.342   5.180 -10.149  1.00  0.00     0.000 C 
BRANCH  11  12
ATOM     12  C   UNL     1      -5.097   4.359  -8.873  1.00  0.00     0.000 C 
BRANCH  12  13
ATOM     13  C   UNL     1      -5.723   2.954  -8.933  1.00  0.00     0.006 C 
BRANCH  13  14
ATOM     14  C   UNL     1      -4.957   2.019  -9.879  1.00  0.00     0.053 C 
BRANCH  14  15
ATOM     15  C   UNL     1      -5.788   1.610 -11.056  1.00  0.00     0.041 C 
ATOM     16  O   UNL     1      -6.896   1.034 -10.879  1.00  0.00    -0.550 OA
ATOM     17  O   UNL     1      -5.318   1.817 -12.345  1.00  0.00    -0.550 OA
ENDBRANCH  14  15
ENDBRANCH  13  14
ENDBRANCH  12  13
ENDBRANCH  11  12
ENDBRANCH  10  11
ENDBRANCH   9  10
ENDBRANCH   8   9
ENDBRANCH   7   8
ENDBRANCH   6   7
ENDBRANCH   5   6
ENDBRANCH   4   5
ENDBRANCH   3   4
ENDBRANCH   2   3
ENDBRANCH   1   2
BRANCH   1  18
ATOM     18  C   UNL     1      -1.642   3.276  -8.451  1.00  0.00     0.000 C 
BRANCH  18  19
ATOM     19  C   UNL     1      -0.453   2.518  -7.821  1.00  0.00     0.000 C 
BRANCH  19  20
ATOM     20  C   UNL     1       0.121   1.429  -8.746  1.00  0.00     0.000 C 
BRANCH  20  21
ATOM     21  C   UNL     1       0.935   2.020  -9.915  1.00  0.00     0.000 C 
BRANCH  21  22
ATOM     22  C   UNL     1       0.624   1.379 -11.280  1.00  0.00     0.000 C 
BRANCH  22  23
ATOM     23  C   UNL     1       1.716   1.658 -12.324  1.00  0.00     0.000 C 
BRANCH  23  24
ATOM     24  C   UNL     1       2.953   2.302 -11.680  1.00  0.00    -0.000 C 
BRANCH  24  25
ATOM     25  C   UNL     1       4.268   1.747 -12.255  1.00  0.00    -0.000 C 
BRANCH  25  26
ATOM     26  C   UNL     1       4.044   0.774 -13.427  1.00  0.00    -0.000 C 
BRANCH  26  27
ATOM     27  C   UNL     1       4.576  -0.642 -13.121  1.00  0.00    -0.000 C 
BRANCH  27  28
ATOM     28  C   UNL     1       6.080  -0.694 -12.806  1.00  0.00    -0.000 C 
BRANCH  28  29
ATOM     29  C   UNL     1       6.427  -1.685 -11.685  1.00  0.00    -0.000 C 
BRANCH  29  30
ATOM     30  C   UNL     1       6.981  -0.956 -10.450  1.00  0.00    -0.000 C 
BRANCH  30  31
ATOM     31  C   UNL     1       7.918   0.204 -10.813  1.00  0.00    -0.003 C 
ATOM     32  C   UNL     1       9.305  -0.258 -11.249  1.00  0.00     0.004 C 
ENDBRANCH  30  31
ENDBRANCH  29  30
ENDBRANCH  28  29
ENDBRANCH  27  28
ENDBRANCH  26  27
ENDBRANCH  25  26
ENDBRANCH  24  25
ENDBRANCH  23  24
ENDBRANCH  22  23
ENDBRANCH  21  22
ENDBRANCH  20  21
ENDBRANCH  19  20
ENDBRANCH  18  19
ENDBRANCH   1  18
TORSDOF 28
ENDMDL
MODEL 4
REMARK VINA RESULT:    -3.336      3.779      7.651
REMARK INTER + INTRA:         -15.048
REMARK INTER:                  -9.939
REMARK INTRA:                  -5.109
REMARK UNBOUND:                -6.251
REMARK SMILES CCCCCCCCCCCCCCCCCCCCCCCCCCCCCC(=O)[O-]
REMARK SMILES IDX 16 1 17 2 18 3 19 4 20 5 21 6 22 7 23 8 24 9 25 10 26 11
REMARK SMILES IDX 27 12 28 13 29 14 30 15 31 16 32 17 15 18 14 19 13 20 12 21
REMARK SMILES IDX 11 22 10 23 9 24 8 25 7 26 6 27 5 28 4 29 3 30 2 31 1 32
REMARK H PARENT
REMARK Flexibility Score: inf
ROOT
ATOM      1  C   UNL     1      -1.102   2.208  -9.602  1.00  0.00     0.000 C 
ENDROOT
BRANCH   1   2
ATOM      2  C   UNL     1      -1.438   3.423  -8.716  1.00  0.00     0.000 C 
BRANCH   2   3
ATOM      3  C   UNL     1      -0.419   4.576  -8.770  1.00  0.00     0.000 C 
BRANCH   3   4
ATOM      4  C   UNL     1      -0.919   5.849  -8.065  1.00  0.00     0.000 C 
BRANCH   4   5
ATOM      5  C   UNL     1      -0.251   7.127  -8.598  1.00  0.00     0.000 C 
BRANCH   5   6
ATOM      6  C   UNL     1       0.704   6.923  -9.792  1.00  0.00     0.000 C 
BRANCH   6   7
ATOM      7  C   UNL     1       0.281   7.675 -11.071  1.00  0.00     0.000 C 
BRANCH   7   8
ATOM      8  C   UNL     1      -1.208   7.470 -11.402  1.00  0.00     0.000 C 
BRANCH   8   9
ATOM      9  C   UNL     1      -1.518   6.061 -11.940  1.00  0.00     0.000 C 
BRANCH   9  10
ATOM     10  C   UNL     1      -2.925   5.526 -11.612  1.00  0.00     0.000 C 
BRANCH  10  11
ATOM     11  C   UNL     1      -3.633   6.335 -10.513  1.00  0.00     0.000 C 
BRANCH  11  12
ATOM     12  C   UNL     1      -4.321   5.446  -9.465  1.00  0.00     0.000 C 
BRANCH  12  13
ATOM     13  C   UNL     1      -5.150   4.310 -10.091  1.00  0.00     0.006 C 
BRANCH  13  14
ATOM     14  C   UNL     1      -4.666   2.924  -9.641  1.00  0.00     0.053 C 
BRANCH  14  15
ATOM     15  C   UNL     1      -5.807   2.023  -9.282  1.00  0.00     0.041 C 
ATOM     16  O   UNL     1      -6.054   1.768  -8.072  1.00  0.00    -0.550 OA
ATOM     17  O   UNL     1      -6.562   1.425 -10.281  1.00  0.00    -0.550 OA
ENDBRANCH  14  15
ENDBRANCH  13  14
ENDBRANCH  12  13
ENDBRANCH  11  12
ENDBRANCH  10  11
ENDBRANCH   9  10
ENDBRANCH   8   9
ENDBRANCH   7   8
ENDBRANCH   6   7
ENDBRANCH   5   6
ENDBRANCH   4   5
ENDBRANCH   3   4
ENDBRANCH   2   3
ENDBRANCH   1   2
BRANCH   1  18
ATOM     18  C   UNL     1       0.262   1.542  -9.330  1.00  0.00     0.000 C 
BRANCH  18  19
ATOM     19  C   UNL     1       1.339   1.850 -10.392  1.00  0.00     0.000 C 
BRANCH  19  20
ATOM     20  C   UNL     1       0.837   1.638 -11.833  1.00  0.00     0.000 C 
BRANCH  20  21
ATOM     21  C   UNL     1       0.951   2.916 -12.689  1.00  0.00     0.000 C 
BRANCH  21  22
ATOM     22  C   UNL     1       1.538   4.123 -11.935  1.00  0.00     0.000 C 
BRANCH  22  23
ATOM     23  C   UNL     1       2.297   5.085 -12.863  1.00  0.00     0.000 C 
BRANCH  23  24
ATOM     24  C   UNL     1       3.781   5.179 -12.477  1.00  0.00    -0.000 C 
BRANCH  24  25
ATOM     25  C   UNL     1       4.604   4.003 -13.030  1.00  0.00    -0.000 C 
BRANCH  25  26
ATOM     26  C   UNL     1       5.584   3.420 -11.995  1.00  0.00    -0.000 C 
BRANCH  26  27
ATOM     27  C   UNL     1       5.080   2.091 -11.395  1.00  0.00    -0.000 C 
BRANCH  27  28
ATOM     28  C   UNL     1       4.351   1.184 -12.401  1.00  0.00    -0.000 C 
BRANCH  28  29
ATOM     29  C   UNL     1       5.270   0.131 -13.038  1.00  0.00    -0.000 C 
BRANCH  29  30
ATOM     30  C   UNL     1       6.015  -0.679 -11.966  1.00  0.00    -0.000 C 
BRANCH  30  31
ATOM     31  C   UNL     1       7.540  -0.537 -12.065  1.00  0.00    -0.003 C 
ATOM     32  C   UNL     1       8.232  -0.534 -10.705  1.00  0.00     0.004 C 
ENDBRANCH  30  31
ENDBRANCH  29  30
ENDBRANCH  28  29
ENDBRANCH  27  28
ENDBRANCH  26  27
ENDBRANCH  25  26
ENDBRANCH  24  25
ENDBRANCH  23  24
ENDBRANCH  22  23
ENDBRANCH  21  22
ENDBRANCH  20  21
ENDBRANCH  19  20
ENDBRANCH  18  19
ENDBRANCH   1  18
TORSDOF 28
ENDMDL
MODEL 5
REMARK VINA RESULT:    -3.285      4.383      8.475
REMARK INTER + INTRA:         -14.914
REMARK INTER:                 -10.896
REMARK INTRA:                  -4.018
REMARK UNBOUND:                -6.251
REMARK SMILES CCCCCCCCCCCCCCCCCCCCCCCCCCCCCC(=O)[O-]
REMARK SMILES IDX 16 1 17 2 18 3 19 4 20 5 21 6 22 7 23 8 24 9 25 10 26 11
REMARK SMILES IDX 27 12 28 13 29 14 30 15 31 16 32 17 15 18 14 19 13 20 12 21
REMARK SMILES IDX 11 22 10 23 9 24 8 25 7 26 6 27 5 28 4 29 3 30 2 31 1 32
REMARK H PARENT
REMARK Flexibility Score: inf
ROOT
ATOM      1  C   UNL     1      -1.282   3.230  -8.489  1.00  0.00     0.000 C 
ENDROOT
BRANCH   1   2
ATOM      2  C   UNL     1      -0.855   4.698  -8.677  1.00  0.00     0.000 C 
BRANCH   2   3
ATOM      3  C   UNL     1      -1.971   5.738  -8.472  1.00  0.00     0.000 C 
BRANCH   3   4
ATOM      4  C   UNL     1      -3.354   5.224  -8.906  1.00  0.00     0.000 C 
BRANCH   4   5
ATOM      5  C   UNL     1      -3.983   6.076 -10.022  1.00  0.00     0.000 C 
BRANCH   5   6
ATOM      6  C   UNL     1      -3.068   6.359 -11.230  1.00  0.00     0.000 C 
BRANCH   6   7
ATOM      7  C   UNL     1      -3.100   5.261 -12.313  1.00  0.00     0.000 C 
BRANCH   7   8
ATOM      8  C   UNL     1      -1.882   4.325 -12.229  1.00  0.00     0.000 C 
BRANCH   8   9
ATOM      9  C   UNL     1      -2.250   2.840 -12.401  1.00  0.00     0.000 C 
BRANCH   9  10
ATOM     10  C   UNL     1      -3.021   2.212 -11.224  1.00  0.00     0.000 C 
BRANCH  10  11
ATOM     11  C   UNL     1      -4.287   1.461 -11.668  1.00  0.00     0.000 C 
BRANCH  11  12
ATOM     12  C   UNL     1      -5.391   2.401 -12.178  1.00  0.00     0.000 C 
BRANCH  12  13
ATOM     13  C   UNL     1      -6.639   2.406 -11.278  1.00  0.00     0.006 C 
BRANCH  13  14
ATOM     14  C   UNL     1      -6.577   3.504 -10.207  1.00  0.00     0.053 C 
BRANCH  14  15
ATOM     15  C   UNL     1      -6.331   2.941  -8.842  1.00  0.00     0.041 C 
ATOM     16  O   UNL     1      -6.559   3.641  -7.818  1.00  0.00    -0.550 OA
ATOM     17  O   UNL     1      -5.800   1.666  -8.701  1.00  0.00    -0.550 OA
ENDBRANCH  14  15
ENDBRANCH  13  14
ENDBRANCH  12  13
ENDBRANCH  11  12
ENDBRANCH  10  11
ENDBRANCH   9  10
ENDBRANCH   8   9
ENDBRANCH   7   8
ENDBRANCH   6   7
ENDBRANCH   5   6
ENDBRANCH   4   5
ENDBRANCH   3   4
ENDBRANCH   2   3
ENDBRANCH   1   2
BRANCH   1  18
ATOM     18  C   UNL     1      -0.132   2.222  -8.294  1.00  0.00     0.000 C 
BRANCH  18  19
ATOM     19  C   UNL     1       0.259   1.454  -9.575  1.00  0.00     0.000 C 
BRANCH  19  20
ATOM     20  C   UNL     1       1.398   2.135 -10.358  1.00  0.00     0.000 C 
BRANCH  20  21
ATOM     21  C   UNL     1       1.374   1.781 -11.858  1.00  0.00     0.000 C 
BRANCH  21  22
ATOM     22  C   UNL     1       0.646   0.462 -12.177  1.00  0.00     0.000 C 
BRANCH  22  23
ATOM     23  C   UNL     1       1.428  -0.418 -13.165  1.00  0.00     0.000 C 
BRANCH  23  24
ATOM     24  C   UNL     1       2.740   0.256 -13.596  1.00  0.00    -0.000 C 
BRANCH  24  25
ATOM     25  C   UNL     1       3.943  -0.698 -13.509  1.00  0.00    -0.000 C 
BRANCH  25  26
ATOM     26  C   UNL     1       5.065  -0.166 -12.600  1.00  0.00    -0.000 C 
BRANCH  26  27
ATOM     27  C   UNL     1       6.228  -1.169 -12.456  1.00  0.00    -0.000 C 
BRANCH  27  28
ATOM     28  C   UNL     1       6.640  -1.449 -11.001  1.00  0.00    -0.000 C 
BRANCH  28  29
ATOM     29  C   UNL     1       7.828  -0.594 -10.537  1.00  0.00    -0.000 C 
BRANCH  29  30
ATOM     30  C   UNL     1       8.741  -0.222 -11.716  1.00  0.00    -0.000 C 
BRANCH  30  31
ATOM     31  C   UNL     1       9.916   0.674 -11.301  1.00  0.00    -0.003 C 
ATOM     32  C   UNL     1       9.504   1.816 -10.377  1.00  0.00     0.004 C 
ENDBRANCH  30  31
ENDBRANCH  29  30
ENDBRANCH  28  29
ENDBRANCH  27  28
ENDBRANCH  26  27
ENDBRANCH  25  26
ENDBRANCH  24  25
ENDBRANCH  23  24
ENDBRANCH  22  23
ENDBRANCH  21  22
ENDBRANCH  20  21
ENDBRANCH  19  20
ENDBRANCH  18  19
ENDBRANCH   1  18
TORSDOF 28
ENDMDL
MODEL 6
REMARK VINA RESULT:    -3.285      3.737      4.818
REMARK INTER + INTRA:         -14.914
REMARK INTER:                 -10.302
REMARK INTRA:                  -4.611
REMARK UNBOUND:                -6.251
REMARK SMILES CCCCCCCCCCCCCCCCCCCCCCCCCCCCCC(=O)[O-]
REMARK SMILES IDX 16 1 17 2 18 3 19 4 20 5 21 6 22 7 23 8 24 9 25 10 26 11
REMARK SMILES IDX 27 12 28 13 29 14 30 15 31 16 32 17 15 18 14 19 13 20 12 21
REMARK SMILES IDX 11 22 10 23 9 24 8 25 7 26 6 27 5 28 4 29 3 30 2 31 1 32
REMARK H PARENT
REMARK Flexibility Score: inf
ROOT
ATOM      1  C   UNL     1      -2.630   4.380  -8.748  1.00  0.00     0.000 C 
ENDROOT
BRANCH   1   2
ATOM      2  C   UNL     1      -1.975   2.999  -8.949  1.00  0.00     0.000 C 
BRANCH   2   3
ATOM      3  C   UNL     1      -0.536   2.872  -8.418  1.00  0.00     0.000 C 
BRANCH   3   4
ATOM      4  C   UNL     1       0.245   1.721  -9.076  1.00  0.00     0.000 C 
BRANCH   4   5
ATOM      5  C   UNL     1      -0.194   1.457 -10.526  1.00  0.00     0.000 C 
BRANCH   5   6
ATOM      6  C   UNL     1       0.943   1.451 -11.567  1.00  0.00     0.000 C 
BRANCH   6   7
ATOM      7  C   UNL     1       2.245   2.121 -11.081  1.00  0.00     0.000 C 
BRANCH   7   8
ATOM      8  C   UNL     1       3.305   2.209 -12.192  1.00  0.00     0.000 C 
BRANCH   8   9
ATOM      9  C   UNL     1       3.506   0.879 -12.942  1.00  0.00     0.000 C 
BRANCH   9  10
ATOM     10  C   UNL     1       4.968   0.412 -13.073  1.00  0.00     0.000 C 
BRANCH  10  11
ATOM     11  C   UNL     1       5.117  -1.117 -13.016  1.00  0.00     0.000 C 
BRANCH  11  12
ATOM     12  C   UNL     1       6.242  -1.573 -12.072  1.00  0.00     0.000 C 
BRANCH  12  13
ATOM     13  C   UNL     1       6.706  -0.464 -11.111  1.00  0.00     0.006 C 
BRANCH  13  14
ATOM     14  C   UNL     1       8.183  -0.616 -10.721  1.00  0.00     0.053 C 
BRANCH  14  15
ATOM     15  C   UNL     1       9.078   0.219 -11.583  1.00  0.00     0.041 C 
ATOM     16  O   UNL     1      10.123   0.733 -11.099  1.00  0.00    -0.550 OA
ATOM     17  O   UNL     1       8.733   0.473 -12.904  1.00  0.00    -0.550 OA
ENDBRANCH  14  15
ENDBRANCH  13  14
ENDBRANCH  12  13
ENDBRANCH  11  12
ENDBRANCH  10  11
ENDBRANCH   9  10
ENDBRANCH   8   9
ENDBRANCH   7   8
ENDBRANCH   6   7
ENDBRANCH   5   6
ENDBRANCH   4   5
ENDBRANCH   3   4
ENDBRANCH   2   3
ENDBRANCH   1   2
BRANCH   1  18
ATOM     18  C   UNL     1      -1.695   5.492  -8.233  1.00  0.00     0.000 C 
BRANCH  18  19
ATOM     19  C   UNL     1      -1.955   6.878  -8.861  1.00  0.00     0.000 C 
BRANCH  19  20
ATOM     20  C   UNL     1      -0.678   7.529  -9.427  1.00  0.00     0.000 C 
BRANCH  20  21
ATOM     21  C   UNL     1       0.500   6.537  -9.509  1.00  0.00     0.000 C 
BRANCH  21  22
ATOM     22  C   UNL     1       0.875   6.130 -10.946  1.00  0.00     0.000 C 
BRANCH  22  23
ATOM     23  C   UNL     1      -0.017   5.003 -11.490  1.00  0.00     0.000 C 
BRANCH  23  24
ATOM     24  C   UNL     1      -1.116   5.556 -12.411  1.00  0.00    -0.000 C 
BRANCH  24  25
ATOM     25  C   UNL     1      -2.455   4.821 -12.230  1.00  0.00    -0.000 C 
BRANCH  25  26
ATOM     26  C   UNL     1      -3.628   5.777 -11.946  1.00  0.00    -0.000 C 
BRANCH  26  27
ATOM     27  C   UNL     1      -4.979   5.036 -11.861  1.00  0.00    -0.000 C 
BRANCH  27  28
ATOM     28  C   UNL     1      -4.888   3.528 -12.151  1.00  0.00    -0.000 C 
BRANCH  28  29
ATOM     29  C   UNL     1      -5.874   2.695 -11.319  1.00  0.00    -0.000 C 
BRANCH  29  30
ATOM     30  C   UNL     1      -5.135   1.810 -10.303  1.00  0.00    -0.000 C 
BRANCH  30  31
ATOM     31  C   UNL     1      -5.611   2.032  -8.861  1.00  0.00    -0.003 C 
ATOM     32  C   UNL     1      -6.239   3.405  -8.641  1.00  0.00     0.004 C 
ENDBRANCH  30  31
ENDBRANCH  29  30
ENDBRANCH  28  29
ENDBRANCH  27  28
ENDBRANCH  26  27
ENDBRANCH  25  26
ENDBRANCH  24  25
ENDBRANCH  23  24
ENDBRANCH  22  23
ENDBRANCH  21  22
ENDBRANCH  20  21
ENDBRANCH  19  20
ENDBRANCH  18  19
ENDBRANCH   1  18
TORSDOF 28
ENDMDL
MODEL 7
REMARK VINA RESULT:    -3.244      4.240      8.083
REMARK INTER + INTRA:         -14.804
REMARK INTER:                 -10.273
REMARK INTRA:                  -4.530
REMARK UNBOUND:                -6.251
REMARK SMILES CCCCCCCCCCCCCCCCCCCCCCCCCCCCCC(=O)[O-]
REMARK SMILES IDX 16 1 17 2 18 3 19 4 20 5 21 6 22 7 23 8 24 9 25 10 26 11
REMARK SMILES IDX 27 12 28 13 29 14 30 15 31 16 32 17 15 18 14 19 13 20 12 21
REMARK SMILES IDX 11 22 10 23 9 24 8 25 7 26 6 27 5 28 4 29 3 30 2 31 1 32
REMARK H PARENT
REMARK Flexibility Score: inf
ROOT
ATOM      1  C   UNL     1      -0.108   2.088  -8.271  1.00  0.00     0.000 C 
ENDROOT
BRANCH   1   2
ATOM      2  C   UNL     1      -1.058   3.281  -8.049  1.00  0.00     0.000 C 
BRANCH   2   3
ATOM      3  C   UNL     1      -0.673   4.574  -8.789  1.00  0.00     0.000 C 
BRANCH   3   4
ATOM      4  C   UNL     1      -1.126   5.845  -8.049  1.00  0.00     0.000 C 
BRANCH   4   5
ATOM      5  C   UNL     1      -2.043   6.737  -8.902  1.00  0.00     0.000 C 
BRANCH   5   6
ATOM      6  C   UNL     1      -3.301   6.043  -9.463  1.00  0.00     0.000 C 
BRANCH   6   7
ATOM      7  C   UNL     1      -3.633   6.427 -10.920  1.00  0.00     0.000 C 
BRANCH   7   8
ATOM      8  C   UNL     1      -2.486   6.087 -11.887  1.00  0.00     0.000 C 
BRANCH   8   9
ATOM      9  C   UNL     1      -2.098   4.597 -11.864  1.00  0.00     0.000 C 
BRANCH   9  10
ATOM     10  C   UNL     1      -2.978   3.675 -12.729  1.00  0.00     0.000 C 
BRANCH  10  11
ATOM     11  C   UNL     1      -3.995   2.870 -11.904  1.00  0.00     0.000 C 
BRANCH  11  12
ATOM     12  C   UNL     1      -3.520   2.600 -10.467  1.00  0.00     0.000 C 
BRANCH  12  13
ATOM     13  C   UNL     1      -4.668   2.222  -9.515  1.00  0.00     0.006 C 
BRANCH  13  14
ATOM     14  C   UNL     1      -5.846   3.202  -9.609  1.00  0.00     0.053 C 
BRANCH  14  15
ATOM     15  C   UNL     1      -7.076   2.548 -10.157  1.00  0.00     0.041 C 
ATOM     16  O   UNL     1      -8.193   3.125 -10.066  1.00  0.00    -0.550 OA
ATOM     17  O   UNL     1      -6.998   1.281 -10.720  1.00  0.00    -0.550 OA
ENDBRANCH  14  15
ENDBRANCH  13  14
ENDBRANCH  12  13
ENDBRANCH  11  12
ENDBRANCH  10  11
ENDBRANCH   9  10
ENDBRANCH   8   9
ENDBRANCH   7   8
ENDBRANCH   6   7
ENDBRANCH   5   6
ENDBRANCH   4   5
ENDBRANCH   3   4
ENDBRANCH   2   3
ENDBRANCH   1   2
BRANCH   1  18
ATOM     18  C   UNL     1       0.630   2.068  -9.625  1.00  0.00     0.000 C 
BRANCH  18  19
ATOM     19  C   UNL     1      -0.095   1.266 -10.727  1.00  0.00     0.000 C 
BRANCH  19  20
ATOM     20  C   UNL     1       0.274   1.732 -12.148  1.00  0.00     0.000 C 
BRANCH  20  21
ATOM     21  C   UNL     1       1.302   2.881 -12.141  1.00  0.00     0.000 C 
BRANCH  21  22
ATOM     22  C   UNL     1       2.568   2.593 -12.970  1.00  0.00     0.000 C 
BRANCH  22  23
ATOM     23  C   UNL     1       3.452   1.507 -12.335  1.00  0.00     0.000 C 
BRANCH  23  24
ATOM     24  C   UNL     1       4.482   2.118 -11.373  1.00  0.00    -0.000 C 
BRANCH  24  25
ATOM     25  C   UNL     1       5.051   3.449 -11.895  1.00  0.00    -0.000 C 
BRANCH  25  26
ATOM     26  C   UNL     1       6.582   3.538 -11.764  1.00  0.00    -0.000 C 
BRANCH  26  27
ATOM     27  C   UNL     1       7.295   2.324 -12.394  1.00  0.00    -0.000 C 
BRANCH  27  28
ATOM     28  C   UNL     1       8.488   1.801 -11.577  1.00  0.00    -0.000 C 
BRANCH  28  29
ATOM     29  C   UNL     1       8.065   0.940 -10.377  1.00  0.00    -0.000 C 
BRANCH  29  30
ATOM     30  C   UNL     1       8.193  -0.558 -10.696  1.00  0.00    -0.000 C 
BRANCH  30  31
ATOM     31  C   UNL     1       6.838  -1.279 -10.725  1.00  0.00    -0.003 C 
ATOM     32  C   UNL     1       6.138  -1.187 -12.077  1.00  0.00     0.004 C 
ENDBRANCH  30  31
ENDBRANCH  29  30
ENDBRANCH  28  29
ENDBRANCH  27  28
ENDBRANCH  26  27
ENDBRANCH  25  26
ENDBRANCH  24  25
ENDBRANCH  23  24
ENDBRANCH  22  23
ENDBRANCH  21  22
ENDBRANCH  20  21
ENDBRANCH  19  20
ENDBRANCH  18  19
ENDBRANCH   1  18
TORSDOF 28
ENDMDL
MODEL 8
REMARK VINA RESULT:    -3.235      2.682      4.561
REMARK INTER + INTRA:         -14.781
REMARK INTER:                  -9.352
REMARK INTRA:                  -5.428
REMARK UNBOUND:                -6.251
REMARK SMILES CCCCCCCCCCCCCCCCCCCCCCCCCCCCCC(=O)[O-]
REMARK SMILES IDX 16 1 17 2 18 3 19 4 20 5 21 6 22 7 23 8 24 9 25 10 26 11
REMARK SMILES IDX 27 12 28 13 29 14 30 15 31 16 32 17 15 18 14 19 13 20 12 21
REMARK SMILES IDX 11 22 10 23 9 24 8 25 7 26 6 27 5 28 4 29 3 30 2 31 1 32
REMARK H PARENT
REMARK Flexibility Score: inf
ROOT
ATOM      1  C   UNL     1       0.242   1.406  -8.497  1.00  0.00     0.000 C 
ENDROOT
BRANCH   1   2
ATOM      2  C   UNL     1       0.677   1.829  -9.914  1.00  0.00     0.000 C 
BRANCH   2   3
ATOM      3  C   UNL     1       0.049   1.018 -11.062  1.00  0.00     0.000 C 
BRANCH   3   4
ATOM      4  C   UNL     1      -1.355   1.517 -11.449  1.00  0.00     0.000 C 
BRANCH   4   5
ATOM      5  C   UNL     1      -1.342   2.431 -12.685  1.00  0.00     0.000 C 
BRANCH   5   6
ATOM      6  C   UNL     1      -1.321   3.943 -12.386  1.00  0.00     0.000 C 
BRANCH   6   7
ATOM      7  C   UNL     1      -0.082   4.677 -12.940  1.00  0.00     0.000 C 
BRANCH   7   8
ATOM      8  C   UNL     1       1.028   4.823 -11.884  1.00  0.00     0.000 C 
BRANCH   8   9
ATOM      9  C   UNL     1       2.298   4.024 -12.230  1.00  0.00     0.000 C 
BRANCH   9  10
ATOM     10  C   UNL     1       2.273   3.306 -13.593  1.00  0.00     0.000 C 
BRANCH  10  11
ATOM     11  C   UNL     1       2.693   1.831 -13.502  1.00  0.00     0.000 C 
BRANCH  11  12
ATOM     12  C   UNL     1       3.586   1.538 -12.285  1.00  0.00     0.000 C 
BRANCH  12  13
ATOM     13  C   UNL     1       4.965   0.976 -12.673  1.00  0.00     0.006 C 
BRANCH  13  14
ATOM     14  C   UNL     1       5.001  -0.558 -12.626  1.00  0.00     0.053 C 
BRANCH  14  15
ATOM     15  C   UNL     1       6.343  -1.074 -12.207  1.00  0.00     0.041 C 
ATOM     16  O   UNL     1       6.580  -1.306 -10.991  1.00  0.00    -0.550 OA
ATOM     17  O   UNL     1       7.346  -1.248 -13.151  1.00  0.00    -0.550 OA
ENDBRANCH  14  15
ENDBRANCH  13  14
ENDBRANCH  12  13
ENDBRANCH  11  12
ENDBRANCH  10  11
ENDBRANCH   9  10
ENDBRANCH   8   9
ENDBRANCH   7   8
ENDBRANCH   6   7
ENDBRANCH   5   6
ENDBRANCH   4   5
ENDBRANCH   3   4
ENDBRANCH   2   3
ENDBRANCH   1   2
BRANCH   1  18
ATOM     18  C   UNL     1      -0.478   2.491  -7.671  1.00  0.00     0.000 C 
BRANCH  18  19
ATOM     19  C   UNL     1      -0.774   3.789  -8.453  1.00  0.00     0.000 C 
BRANCH  19  20
ATOM     20  C   UNL     1      -2.273   3.981  -8.750  1.00  0.00     0.000 C 
BRANCH  20  21
ATOM     21  C   UNL     1      -2.692   5.464  -8.727  1.00  0.00     0.000 C 
BRANCH  21  22
ATOM     22  C   UNL     1      -2.978   6.055 -10.119  1.00  0.00     0.000 C 
BRANCH  22  23
ATOM     23  C   UNL     1      -4.408   6.606 -10.243  1.00  0.00     0.000 C 
BRANCH  23  24
ATOM     24  C   UNL     1      -4.782   6.865 -11.711  1.00  0.00    -0.000 C 
BRANCH  24  25
ATOM     25  C   UNL     1      -6.224   6.436 -12.031  1.00  0.00    -0.000 C 
BRANCH  25  26
ATOM     26  C   UNL     1      -6.305   5.429 -13.192  1.00  0.00    -0.000 C 
BRANCH  26  27
ATOM     27  C   UNL     1      -5.095   4.470 -13.221  1.00  0.00    -0.000 C 
BRANCH  27  28
ATOM     28  C   UNL     1      -5.341   3.127 -12.513  1.00  0.00    -0.000 C 
BRANCH  28  29
ATOM     29  C   UNL     1      -4.726   3.067 -11.107  1.00  0.00    -0.000 C 
BRANCH  29  30
ATOM     30  C   UNL     1      -5.146   1.784 -10.371  1.00  0.00    -0.000 C 
BRANCH  30  31
ATOM     31  C   UNL     1      -5.684   2.055  -8.960  1.00  0.00    -0.003 C 
ATOM     32  C   UNL     1      -6.016   3.524  -8.716  1.00  0.00     0.004 C 
ENDBRANCH  30  31
ENDBRANCH  29  30
ENDBRANCH  28  29
ENDBRANCH  27  28
ENDBRANCH  26  27
ENDBRANCH  25  26
ENDBRANCH  24  25
ENDBRANCH  23  24
ENDBRANCH  22  23
ENDBRANCH  21  22
ENDBRANCH  20  21
ENDBRANCH  19  20
ENDBRANCH  18  19
ENDBRANCH   1  18
TORSDOF 28
ENDMDL
MODEL 9
REMARK VINA RESULT:    -3.232      4.258      8.496
REMARK INTER + INTRA:         -14.773
REMARK INTER:                 -10.330
REMARK INTRA:                  -4.443
REMARK UNBOUND:                -6.251
REMARK SMILES CCCCCCCCCCCCCCCCCCCCCCCCCCCCCC(=O)[O-]
REMARK SMILES IDX 16 1 17 2 18 3 19 4 20 5 21 6 22 7 23 8 24 9 25 10 26 11
REMARK SMILES IDX 27 12 28 13 29 14 30 15 31 16 32 17 15 18 14 19 13 20 12 21
REMARK SMILES IDX 11 22 10 23 9 24 8 25 7 26 6 27 5 28 4 29 3 30 2 31 1 32
REMARK H PARENT
REMARK Flexibility Score: inf
ROOT
ATOM      1  C   UNL     1       0.250   1.836  -9.131  1.00  0.00     0.000 C 
ENDROOT
BRANCH   1   2
ATOM      2  C   UNL     1      -0.360   3.220  -8.839  1.00  0.00     0.000 C 
BRANCH   2   3
ATOM      3  C   UNL     1      -1.881   3.231  -8.600  1.00  0.00     0.000 C 
BRANCH   3   4
ATOM      4  C   UNL     1      -2.465   4.652  -8.530  1.00  0.00     0.000 C 
BRANCH   4   5
ATOM      5  C   UNL     1      -3.953   4.704  -8.917  1.00  0.00     0.000 C 
BRANCH   5   6
ATOM      6  C   UNL     1      -4.344   5.840  -9.883  1.00  0.00     0.000 C 
BRANCH   6   7
ATOM      7  C   UNL     1      -3.151   6.691 -10.369  1.00  0.00     0.000 C 
BRANCH   7   8
ATOM      8  C   UNL     1      -2.699   6.303 -11.787  1.00  0.00     0.000 C 
BRANCH   8   9
ATOM      9  C   UNL     1      -1.337   5.585 -11.812  1.00  0.00     0.000 C 
BRANCH   9  10
ATOM     10  C   UNL     1      -1.369   4.131 -12.321  1.00  0.00     0.000 C 
BRANCH  10  11
ATOM     11  C   UNL     1      -2.739   3.723 -12.884  1.00  0.00     0.000 C 
BRANCH  11  12
ATOM     12  C   UNL     1      -3.009   2.214 -12.763  1.00  0.00     0.000 C 
BRANCH  12  13
ATOM     13  C   UNL     1      -3.725   1.834 -11.455  1.00  0.00     0.006 C 
BRANCH  13  14
ATOM     14  C   UNL     1      -5.104   2.498 -11.335  1.00  0.00     0.053 C 
BRANCH  14  15
ATOM     15  C   UNL     1      -6.045   1.686 -10.499  1.00  0.00     0.041 C 
ATOM     16  O   UNL     1      -5.928   1.676  -9.244  1.00  0.00    -0.550 OA
ATOM     17  O   UNL     1      -7.014   0.901 -11.108  1.00  0.00    -0.550 OA
ENDBRANCH  14  15
ENDBRANCH  13  14
ENDBRANCH  12  13
ENDBRANCH  11  12
ENDBRANCH  10  11
ENDBRANCH   9  10
ENDBRANCH   8   9
ENDBRANCH   7   8
ENDBRANCH   6   7
ENDBRANCH   5   6
ENDBRANCH   4   5
ENDBRANCH   3   4
ENDBRANCH   2   3
ENDBRANCH   1   2
BRANCH   1  18
ATOM     18  C   UNL     1       0.907   1.677 -10.517  1.00  0.00     0.000 C 
BRANCH  18  19
ATOM     19  C   UNL     1       0.062   0.873 -11.529  1.00  0.00     0.000 C 
BRANCH  19  20
ATOM     20  C   UNL     1       0.714   0.792 -12.923  1.00  0.00     0.000 C 
BRANCH  20  21
ATOM     21  C   UNL     1       1.412  -0.561 -13.167  1.00  0.00     0.000 C 
BRANCH  21  22
ATOM     22  C   UNL     1       2.908  -0.439 -13.510  1.00  0.00     0.000 C 
BRANCH  22  23
ATOM     23  C   UNL     1       3.453   0.979 -13.271  1.00  0.00     0.000 C 
BRANCH  23  24
ATOM     24  C   UNL     1       4.611   0.969 -12.262  1.00  0.00    -0.000 C 
BRANCH  24  25
ATOM     25  C   UNL     1       5.849   0.231 -12.799  1.00  0.00    -0.000 C 
BRANCH  25  26
ATOM     26  C   UNL     1       6.280  -0.945 -11.905  1.00  0.00    -0.000 C 
BRANCH  26  27
ATOM     27  C   UNL     1       7.030  -0.475 -10.641  1.00  0.00    -0.000 C 
BRANCH  27  28
ATOM     28  C   UNL     1       8.561  -0.588 -10.740  1.00  0.00    -0.000 C 
BRANCH  28  29
ATOM     29  C   UNL     1       9.266   0.776 -10.736  1.00  0.00    -0.000 C 
BRANCH  29  30
ATOM     30  C   UNL     1       8.533   1.779  -9.831  1.00  0.00    -0.000 C 
BRANCH  30  31
ATOM     31  C   UNL     1       8.391   3.166 -10.472  1.00  0.00    -0.003 C 
ATOM     32  C   UNL     1       6.989   3.438 -11.010  1.00  0.00     0.004 C 
ENDBRANCH  30  31
ENDBRANCH  29  30
ENDBRANCH  28  29
ENDBRANCH  27  28
ENDBRANCH  26  27
ENDBRANCH  25  26
ENDBRANCH  24  25
ENDBRANCH  23  24
ENDBRANCH  22  23
ENDBRANCH  21  22
ENDBRANCH  20  21
ENDBRANCH  19  20
ENDBRANCH  18  19
ENDBRANCH   1  18
TORSDOF 28
ENDMDL
