MODEL 1
REMARK VINA RESULT:    -4.087      0.000      0.000
REMARK INTER + INTRA:          -9.763
REMARK INTER:                  -7.671
REMARK INTRA:                  -2.092
REMARK UNBOUND:                -2.092
REMARK SMILES CCCCCCCCC=CCCCCCCCC(=O)[O-]
REMARK SMILES IDX 10 1 9 2 11 3 12 4 13 5 14 6 15 7 16 8 17 9 18 10 19 11
REMARK SMILES IDX 20 12 8 13 7 14 6 15 5 16 4 17 3 18 2 19 1 20
REMARK H PARENT
REMARK Flexibility Score: inf
ROOT
ATOM      1  C   UNL     1     -10.964  -8.173  15.357  1.00  0.00    -0.031 C 
ATOM      2  C   UNL     1     -12.232  -8.491  15.053  1.00  0.00    -0.031 C 
ENDROOT
BRANCH   1   3
ATOM      3  C   UNL     1     -10.509  -8.039  16.784  1.00  0.00     0.027 C 
BRANCH   3   4
ATOM      4  C   UNL     1     -11.656  -8.349  17.756  1.00  0.00     0.004 C 
BRANCH   4   5
ATOM      5  C   UNL     1     -11.170  -8.968  19.078  1.00  0.00     0.000 C 
BRANCH   5   6
ATOM      6  C   UNL     1      -9.869  -8.335  19.613  1.00  0.00     0.000 C 
BRANCH   6   7
ATOM      7  C   UNL     1     -10.075  -7.647  20.971  1.00  0.00     0.000 C 
BRANCH   7   8
ATOM      8  C   UNL     1      -9.659  -6.170  20.909  1.00  0.00     0.006 C 
BRANCH   8   9
ATOM      9  C   UNL     1      -9.721  -5.609  19.482  1.00  0.00     0.053 C 
BRANCH   9  10
ATOM     10  C   UNL     1      -9.624  -4.114  19.467  1.00  0.00     0.041 C 
ATOM     11  O   UNL     1      -9.881  -3.452  20.506  1.00  0.00    -0.550 OA
ATOM     12  O   UNL     1      -9.217  -3.455  18.314  1.00  0.00    -0.550 OA
ENDBRANCH   9  10
ENDBRANCH   8   9
ENDBRANCH   7   8
ENDBRANCH   6   7
ENDBRANCH   5   6
ENDBRANCH   4   5
ENDBRANCH   3   4
ENDBRANCH   1   3
BRANCH   2  13
ATOM     13  C   UNL     1     -12.697  -8.599  13.626  1.00  0.00     0.027 C 
BRANCH  13  14
ATOM     14  C   UNL     1     -11.527  -8.787  12.648  1.00  0.00     0.004 C 
BRANCH  14  15
ATOM     15  C   UNL     1     -11.706  -7.956  11.367  1.00  0.00     0.000 C 
BRANCH  15  16
ATOM     16  C   UNL     1     -12.781  -6.865  11.509  1.00  0.00     0.000 C 
BRANCH  16  17
ATOM     17  C   UNL     1     -12.202  -5.468  11.820  1.00  0.00    -0.000 C 
BRANCH  17  18
ATOM     18  C   UNL     1     -12.732  -4.904  13.147  1.00  0.00    -0.000 C 
BRANCH  18  19
ATOM     19  C   UNL     1     -11.605  -4.773  14.179  1.00  0.00    -0.003 C 
ATOM     20  C   UNL     1     -10.253  -5.128  13.567  1.00  0.00     0.004 C 
ENDBRANCH  18  19
ENDBRANCH  17  18
ENDBRANCH  16  17
ENDBRANCH  15  16
ENDBRANCH  14  15
ENDBRANCH  13  14
ENDBRANCH   2  13
TORSDOF 15
ENDMDL
MODEL 2
REMARK VINA RESULT:    -4.028     11.915     15.037
REMARK INTER + INTRA:          -9.653
REMARK INTER:                  -7.611
REMARK INTRA:                  -2.042
REMARK UNBOUND:                -2.092
REMARK SMILES CCCCCCCCC=CCCCCCCCC(=O)[O-]
REMARK SMILES IDX 10 1 9 2 11 3 12 4 13 5 14 6 15 7 16 8 17 9 18 10 19 11
REMARK SMILES IDX 20 12 8 13 7 14 6 15 5 16 4 17 3 18 2 19 1 20
REMARK H PARENT
REMARK Flexibility Score: inf
ROOT
ATOM      1  C   UNL     1      -2.355   4.220  15.330  1.00  0.00    -0.031 C 
ATOM      2  C   UNL     1      -2.991   3.601  16.336  1.00  0.00    -0.031 C 
ENDROOT
BRANCH   1   3
ATOM      3  C   UNL     1      -3.064   4.575  14.053  1.00  0.00     0.027 C 
BRANCH   3   4
ATOM      4  C   UNL     1      -3.270   3.330  13.178  1.00  0.00     0.004 C 
BRANCH   4   5
ATOM      5  C   UNL     1      -1.946   2.685  12.734  1.00  0.00     0.000 C 
BRANCH   5   6
ATOM      6  C   UNL     1      -1.891   2.365  11.225  1.00  0.00     0.000 C 
BRANCH   6   7
ATOM      7  C   UNL     1      -2.983   1.370  10.803  1.00  0.00     0.000 C 
BRANCH   7   8
ATOM      8  C   UNL     1      -2.769   0.898   9.357  1.00  0.00     0.006 C 
BRANCH   8   9
ATOM      9  C   UNL     1      -3.815   1.477   8.396  1.00  0.00     0.053 C 
BRANCH   9  10
ATOM     10  C   UNL     1      -5.142   0.797   8.542  1.00  0.00     0.041 C 
ATOM     11  O   UNL     1      -5.264  -0.421   8.250  1.00  0.00    -0.550 OA
ATOM     12  O   UNL     1      -6.234   1.500   9.033  1.00  0.00    -0.550 OA
ENDBRANCH   9  10
ENDBRANCH   8   9
ENDBRANCH   7   8
ENDBRANCH   6   7
ENDBRANCH   5   6
ENDBRANCH   4   5
ENDBRANCH   3   4
ENDBRANCH   1   3
BRANCH   2  13
ATOM     13  C   UNL     1      -2.277   3.219  17.605  1.00  0.00     0.027 C 
BRANCH  13  14
ATOM     14  C   UNL     1      -2.010   1.708  17.685  1.00  0.00     0.004 C 
BRANCH  14  15
ATOM     15  C   UNL     1      -0.545   1.363  17.368  1.00  0.00     0.000 C 
BRANCH  15  16
ATOM     16  C   UNL     1      -0.308   1.086  15.873  1.00  0.00     0.000 C 
BRANCH  16  17
ATOM     17  C   UNL     1       0.816   1.947  15.259  1.00  0.00    -0.000 C 
BRANCH  17  18
ATOM     18  C   UNL     1       1.493   2.848  16.303  1.00  0.00    -0.000 C 
BRANCH  18  19
ATOM     19  C   UNL     1       1.235   4.329  16.001  1.00  0.00    -0.003 C 
ATOM     20  C   UNL     1       1.310   4.609  14.503  1.00  0.00     0.004 C 
ENDBRANCH  18  19
ENDBRANCH  17  18
ENDBRANCH  16  17
ENDBRANCH  15  16
ENDBRANCH  14  15
ENDBRANCH  13  14
ENDBRANCH   2  13
TORSDOF 15
ENDMDL
MODEL 3
REMARK VINA RESULT:    -3.901      1.984      4.858
REMARK INTER + INTRA:          -9.414
REMARK INTER:                  -6.787
REMARK INTRA:                  -2.627
REMARK UNBOUND:                -2.092
REMARK SMILES CCCCCCCCC=CCCCCCCCC(=O)[O-]
REMARK SMILES IDX 10 1 9 2 11 3 12 4 13 5 14 6 15 7 16 8 17 9 18 10 19 11
REMARK SMILES IDX 20 12 8 13 7 14 6 15 5 16 4 17 3 18 2 19 1 20
REMARK H PARENT
REMARK Flexibility Score: inf
ROOT
ATOM      1  C   UNL     1     -12.797  -5.066  13.166  1.00  0.00    -0.031 C 
ATOM      2  C   UNL     1     -11.739  -4.831  13.956  1.00  0.00    -0.031 C 
ENDROOT
BRANCH   1   3
ATOM      3  C   UNL     1     -12.812  -6.215  12.195  1.00  0.00     0.027 C 
BRANCH   3   4
ATOM      4  C   UNL     1     -11.887  -7.344  12.671  1.00  0.00     0.004 C 
BRANCH   4   5
ATOM      5  C   UNL     1     -12.629  -8.426  13.475  1.00  0.00     0.000 C 
BRANCH   5   6
ATOM      6  C   UNL     1     -12.225  -8.474  14.964  1.00  0.00     0.000 C 
BRANCH   6   7
ATOM      7  C   UNL     1     -10.759  -8.073  15.180  1.00  0.00     0.000 C 
BRANCH   7   8
ATOM      8  C   UNL     1     -10.294  -8.428  16.600  1.00  0.00     0.006 C 
BRANCH   8   9
ATOM      9  C   UNL     1     -11.395  -8.200  17.645  1.00  0.00     0.053 C 
BRANCH   9  10
ATOM     10  C   UNL     1     -11.000  -7.166  18.654  1.00  0.00     0.041 C 
ATOM     11  O   UNL     1     -10.988  -5.947  18.340  1.00  0.00    -0.550 OA
ATOM     12  O   UNL     1     -10.678  -7.546  19.951  1.00  0.00    -0.550 OA
ENDBRANCH   9  10
ENDBRANCH   8   9
ENDBRANCH   7   8
ENDBRANCH   6   7
ENDBRANCH   5   6
ENDBRANCH   4   5
ENDBRANCH   3   4
ENDBRANCH   1   3
BRANCH   2  13
ATOM     13  C   UNL     1     -11.709  -3.665  14.908  1.00  0.00     0.027 C 
BRANCH  13  14
ATOM     14  C   UNL     1     -10.387  -3.588  15.687  1.00  0.00     0.004 C 
BRANCH  14  15
ATOM     15  C   UNL     1      -9.327  -4.547  15.120  1.00  0.00     0.000 C 
BRANCH  15  16
ATOM     16  C   UNL     1      -8.255  -3.825  14.286  1.00  0.00     0.000 C 
BRANCH  16  17
ATOM     17  C   UNL     1      -7.610  -4.721  13.206  1.00  0.00    -0.000 C 
BRANCH  17  18
ATOM     18  C   UNL     1      -8.233  -6.124  13.169  1.00  0.00    -0.000 C 
BRANCH  18  19
ATOM     19  C   UNL     1      -8.570  -6.539  11.732  1.00  0.00    -0.003 C 
ATOM     20  C   UNL     1      -9.200  -5.385  10.957  1.00  0.00     0.004 C 
ENDBRANCH  18  19
ENDBRANCH  17  18
ENDBRANCH  16  17
ENDBRANCH  15  16
ENDBRANCH  14  15
ENDBRANCH  13  14
ENDBRANCH   2  13
TORSDOF 15
ENDMDL
MODEL 4
REMARK VINA RESULT:    -3.876      1.614      2.173
REMARK INTER + INTRA:          -9.368
REMARK INTER:                  -7.878
REMARK INTRA:                  -1.490
REMARK UNBOUND:                -2.092
REMARK SMILES CCCCCCCCC=CCCCCCCCC(=O)[O-]
REMARK SMILES IDX 10 1 9 2 11 3 12 4 13 5 14 6 15 7 16 8 17 9 18 10 19 11
REMARK SMILES IDX 20 12 8 13 7 14 6 15 5 16 4 17 3 18 2 19 1 20
REMARK H PARENT
REMARK Flexibility Score: inf
ROOT
ATOM      1  C   UNL     1     -11.891  -8.394  15.948  1.00  0.00    -0.031 C 
ATOM      2  C   UNL     1     -11.552  -8.185  14.666  1.00  0.00    -0.031 C 
ENDROOT
BRANCH   1   3
ATOM      3  C   UNL     1     -10.908  -8.181  17.065  1.00  0.00     0.027 C 
BRANCH   3   4
ATOM      4  C   UNL     1     -11.634  -8.000  18.405  1.00  0.00     0.004 C 
BRANCH   4   5
ATOM      5  C   UNL     1     -11.175  -9.005  19.476  1.00  0.00     0.000 C 
BRANCH   5   6
ATOM      6  C   UNL     1     -10.574  -8.337  20.731  1.00  0.00     0.000 C 
BRANCH   6   7
ATOM      7  C   UNL     1      -9.970  -6.959  20.422  1.00  0.00     0.000 C 
BRANCH   7   8
ATOM      8  C   UNL     1      -8.978  -6.536  21.515  1.00  0.00     0.006 C 
BRANCH   8   9
ATOM      9  C   UNL     1      -9.644  -6.426  22.893  1.00  0.00     0.053 C 
BRANCH   9  10
ATOM     10  C   UNL     1      -9.631  -5.019  23.407  1.00  0.00     0.041 C 
ATOM     11  O   UNL     1      -9.416  -4.792  24.626  1.00  0.00    -0.550 OA
ATOM     12  O   UNL     1      -9.823  -3.957  22.533  1.00  0.00    -0.550 OA
ENDBRANCH   9  10
ENDBRANCH   8   9
ENDBRANCH   7   8
ENDBRANCH   6   7
ENDBRANCH   5   6
ENDBRANCH   4   5
ENDBRANCH   3   4
ENDBRANCH   1   3
BRANCH   2  13
ATOM     13  C   UNL     1     -12.525  -8.425  13.544  1.00  0.00     0.027 C 
BRANCH  13  14
ATOM     14  C   UNL     1     -11.934  -8.049  12.176  1.00  0.00     0.004 C 
BRANCH  14  15
ATOM     15  C   UNL     1     -11.738  -6.531  12.030  1.00  0.00     0.000 C 
BRANCH  15  16
ATOM     16  C   UNL     1     -13.005  -5.730  12.373  1.00  0.00     0.000 C 
BRANCH  16  17
ATOM     17  C   UNL     1     -12.759  -4.596  13.392  1.00  0.00    -0.000 C 
BRANCH  17  18
ATOM     18  C   UNL     1     -11.381  -4.708  14.062  1.00  0.00    -0.000 C 
BRANCH  18  19
ATOM     19  C   UNL     1     -11.370  -3.996  15.419  1.00  0.00    -0.003 C 
ATOM     20  C   UNL     1     -10.299  -4.577  16.339  1.00  0.00     0.004 C 
ENDBRANCH  18  19
ENDBRANCH  17  18
ENDBRANCH  16  17
ENDBRANCH  15  16
ENDBRANCH  14  15
ENDBRANCH  13  14
ENDBRANCH   2  13
TORSDOF 15
ENDMDL
MODEL 5
REMARK VINA RESULT:    -3.847      1.804      6.052
REMARK INTER + INTRA:          -9.312
REMARK INTER:                  -6.664
REMARK INTRA:                  -2.648
REMARK UNBOUND:                -2.092
REMARK SMILES CCCCCCCCC=CCCCCCCCC(=O)[O-]
REMARK SMILES IDX 10 1 9 2 11 3 12 4 13 5 14 6 15 7 16 8 17 9 18 10 19 11
REMARK SMILES IDX 20 12 8 13 7 14 6 15 5 16 4 17 3 18 2 19 1 20
REMARK H PARENT
REMARK Flexibility Score: inf
ROOT
ATOM      1  C   UNL     1     -10.722  -7.942  16.068  1.00  0.00    -0.031 C 
ATOM      2  C   UNL     1     -11.695  -8.380  16.881  1.00  0.00    -0.031 C 
ENDROOT
BRANCH   1   3
ATOM      3  C   UNL     1     -10.694  -8.308  14.610  1.00  0.00     0.027 C 
BRANCH   3   4
ATOM      4  C   UNL     1     -12.094  -8.196  13.990  1.00  0.00     0.004 C 
BRANCH   4   5
ATOM      5  C   UNL     1     -12.089  -7.488  12.624  1.00  0.00     0.000 C 
BRANCH   5   6
ATOM      6  C   UNL     1     -11.527  -6.052  12.675  1.00  0.00     0.000 C 
BRANCH   6   7
ATOM      7  C   UNL     1     -12.424  -5.107  13.490  1.00  0.00     0.000 C 
BRANCH   7   8
ATOM      8  C   UNL     1     -11.602  -4.320  14.520  1.00  0.00     0.006 C 
BRANCH   8   9
ATOM      9  C   UNL     1     -10.105  -4.652  14.445  1.00  0.00     0.053 C 
BRANCH   9  10
ATOM     10  C   UNL     1      -9.262  -3.553  15.014  1.00  0.00     0.041 C 
ATOM     11  O   UNL     1      -8.044  -3.751  15.259  1.00  0.00    -0.550 OA
ATOM     12  O   UNL     1      -9.815  -2.299  15.243  1.00  0.00    -0.550 OA
ENDBRANCH   9  10
ENDBRANCH   8   9
ENDBRANCH   7   8
ENDBRANCH   6   7
ENDBRANCH   5   6
ENDBRANCH   4   5
ENDBRANCH   3   4
ENDBRANCH   1   3
BRANCH   2  13
ATOM     13  C   UNL     1     -11.710  -8.038  18.347  1.00  0.00     0.027 C 
BRANCH  13  14
ATOM     14  C   UNL     1     -11.038  -9.125  19.201  1.00  0.00     0.004 C 
BRANCH  14  15
ATOM     15  C   UNL     1      -9.804  -8.591  19.947  1.00  0.00     0.000 C 
BRANCH  15  16
ATOM     16  C   UNL     1      -8.497  -8.803  19.165  1.00  0.00     0.000 C 
BRANCH  16  17
ATOM     17  C   UNL     1      -7.621  -7.535  19.074  1.00  0.00    -0.000 C 
BRANCH  17  18
ATOM     18  C   UNL     1      -8.179  -6.517  18.067  1.00  0.00    -0.000 C 
BRANCH  18  19
ATOM     19  C   UNL     1      -8.629  -5.233  18.774  1.00  0.00    -0.003 C 
ATOM     20  C   UNL     1     -10.023  -4.812  18.320  1.00  0.00     0.004 C 
ENDBRANCH  18  19
ENDBRANCH  17  18
ENDBRANCH  16  17
ENDBRANCH  15  16
ENDBRANCH  14  15
ENDBRANCH  13  14
ENDBRANCH   2  13
TORSDOF 15
ENDMDL
MODEL 6
REMARK VINA RESULT:    -3.842     15.818     17.246
REMARK INTER + INTRA:          -9.303
REMARK INTER:                  -7.001
REMARK INTRA:                  -2.302
REMARK UNBOUND:                -2.092
REMARK SMILES CCCCCCCCC=CCCCCCCCC(=O)[O-]
REMARK SMILES IDX 10 1 9 2 11 3 12 4 13 5 14 6 15 7 16 8 17 9 18 10 19 11
REMARK SMILES IDX 20 12 8 13 7 14 6 15 5 16 4 17 3 18 2 19 1 20
REMARK H PARENT
REMARK Flexibility Score: inf
ROOT
ATOM      1  C   UNL     1       6.720  -4.225  12.921  1.00  0.00    -0.031 C 
ATOM      2  C   UNL     1       6.221  -3.281  12.108  1.00  0.00    -0.031 C 
ENDROOT
BRANCH   1   3
ATOM      3  C   UNL     1       6.272  -5.657  12.830  1.00  0.00     0.027 C 
BRANCH   3   4
ATOM      4  C   UNL     1       6.744  -6.456  14.053  1.00  0.00     0.004 C 
BRANCH   4   5
ATOM      5  C   UNL     1       5.632  -7.325  14.665  1.00  0.00     0.000 C 
BRANCH   5   6
ATOM      6  C   UNL     1       6.024  -7.972  16.010  1.00  0.00     0.000 C 
BRANCH   6   7
ATOM      7  C   UNL     1       6.966  -7.079  16.831  1.00  0.00     0.000 C 
BRANCH   7   8
ATOM      8  C   UNL     1       6.284  -6.597  18.120  1.00  0.00     0.006 C 
BRANCH   8   9
ATOM      9  C   UNL     1       6.435  -7.605  19.267  1.00  0.00     0.053 C 
BRANCH   9  10
ATOM     10  C   UNL     1       5.107  -8.120  19.733  1.00  0.00     0.041 C 
ATOM     11  O   UNL     1       4.589  -9.125  19.180  1.00  0.00    -0.550 OA
ATOM     12  O   UNL     1       4.459  -7.511  20.800  1.00  0.00    -0.550 OA
ENDBRANCH   9  10
ENDBRANCH   8   9
ENDBRANCH   7   8
ENDBRANCH   6   7
ENDBRANCH   5   6
ENDBRANCH   4   5
ENDBRANCH   3   4
ENDBRANCH   1   3
BRANCH   2  13
ATOM     13  C   UNL     1       6.646  -1.842  12.215  1.00  0.00     0.027 C 
BRANCH  13  14
ATOM     14  C   UNL     1       6.260  -1.224  13.568  1.00  0.00     0.004 C 
BRANCH  14  15
ATOM     15  C   UNL     1       4.900  -0.510  13.510  1.00  0.00     0.000 C 
BRANCH  15  16
ATOM     16  C   UNL     1       3.855  -1.140  14.446  1.00  0.00     0.000 C 
BRANCH  16  17
ATOM     17  C   UNL     1       3.234  -2.440  13.890  1.00  0.00    -0.000 C 
BRANCH  17  18
ATOM     18  C   UNL     1       3.563  -3.660  14.764  1.00  0.00    -0.000 C 
BRANCH  18  19
ATOM     19  C   UNL     1       4.173  -3.230  16.103  1.00  0.00    -0.003 C 
ATOM     20  C   UNL     1       5.627  -3.678  16.217  1.00  0.00     0.004 C 
ENDBRANCH  18  19
ENDBRANCH  17  18
ENDBRANCH  16  17
ENDBRANCH  15  16
ENDBRANCH  14  15
ENDBRANCH  13  14
ENDBRANCH   2  13
TORSDOF 15
ENDMDL
MODEL 7
REMARK VINA RESULT:    -3.834     11.627     14.097
REMARK INTER + INTRA:          -9.289
REMARK INTER:                  -6.379
REMARK INTRA:                  -2.910
REMARK UNBOUND:                -2.092
REMARK SMILES CCCCCCCCC=CCCCCCCCC(=O)[O-]
REMARK SMILES IDX 10 1 9 2 11 3 12 4 13 5 14 6 15 7 16 8 17 9 18 10 19 11
REMARK SMILES IDX 20 12 8 13 7 14 6 15 5 16 4 17 3 18 2 19 1 20
REMARK H PARENT
REMARK Flexibility Score: inf
ROOT
ATOM      1  C   UNL     1      -1.027   3.583  16.509  1.00  0.00    -0.031 C 
ATOM      2  C   UNL     1      -2.134   3.634  17.265  1.00  0.00    -0.031 C 
ENDROOT
BRANCH   1   3
ATOM      3  C   UNL     1       0.206   4.364  16.868  1.00  0.00     0.027 C 
BRANCH   3   4
ATOM      4  C   UNL     1       1.474   3.559  16.550  1.00  0.00     0.004 C 
BRANCH   4   5
ATOM      5  C   UNL     1       1.390   2.814  15.206  1.00  0.00     0.000 C 
BRANCH   5   6
ATOM      6  C   UNL     1       1.783   1.325  15.300  1.00  0.00     0.000 C 
BRANCH   6   7
ATOM      7  C   UNL     1       0.575   0.394  15.118  1.00  0.00     0.000 C 
BRANCH   7   8
ATOM      8  C   UNL     1      -0.004  -0.029  16.476  1.00  0.00     0.006 C 
BRANCH   8   9
ATOM      9  C   UNL     1       1.056  -0.028  17.585  1.00  0.00     0.053 C 
BRANCH   9  10
ATOM     10  C   UNL     1       1.566  -1.408  17.870  1.00  0.00     0.041 C 
ATOM     11  O   UNL     1       1.070  -2.401  17.276  1.00  0.00    -0.550 OA
ATOM     12  O   UNL     1       2.612  -1.592  18.765  1.00  0.00    -0.550 OA
ENDBRANCH   9  10
ENDBRANCH   8   9
ENDBRANCH   7   8
ENDBRANCH   6   7
ENDBRANCH   5   6
ENDBRANCH   4   5
ENDBRANCH   3   4
ENDBRANCH   1   3
BRANCH   2  13
ATOM     13  C   UNL     1      -3.380   2.876  16.893  1.00  0.00     0.027 C 
BRANCH  13  14
ATOM     14  C   UNL     1      -3.069   1.637  16.039  1.00  0.00     0.004 C 
BRANCH  14  15
ATOM     15  C   UNL     1      -4.160   1.374  14.987  1.00  0.00     0.000 C 
BRANCH  15  16
ATOM     16  C   UNL     1      -3.710   1.728  13.560  1.00  0.00     0.000 C 
BRANCH  16  17
ATOM     17  C   UNL     1      -2.220   2.123  13.464  1.00  0.00    -0.000 C 
BRANCH  17  18
ATOM     18  C   UNL     1      -2.034   3.597  13.075  1.00  0.00    -0.000 C 
BRANCH  18  19
ATOM     19  C   UNL     1      -3.259   4.430  13.472  1.00  0.00    -0.003 C 
ATOM     20  C   UNL     1      -2.849   5.817  13.957  1.00  0.00     0.004 C 
ENDBRANCH  18  19
ENDBRANCH  17  18
ENDBRANCH  16  17
ENDBRANCH  15  16
ENDBRANCH  14  15
ENDBRANCH  13  14
ENDBRANCH   2  13
TORSDOF 15
ENDMDL
MODEL 8
REMARK VINA RESULT:    -3.803     10.966     13.232
REMARK INTER + INTRA:          -9.230
REMARK INTER:                  -7.174
REMARK INTRA:                  -2.056
REMARK UNBOUND:                -2.092
REMARK SMILES CCCCCCCCC=CCCCCCCCC(=O)[O-]
REMARK SMILES IDX 10 1 9 2 11 3 12 4 13 5 14 6 15 7 16 8 17 9 18 10 19 11
REMARK SMILES IDX 20 12 8 13 7 14 6 15 5 16 4 17 3 18 2 19 1 20
REMARK H PARENT
REMARK Flexibility Score: inf
ROOT
ATOM      1  C   UNL     1      -1.961   1.733  11.836  1.00  0.00    -0.031 C 
ATOM      2  C   UNL     1      -2.843   2.004  10.863  1.00  0.00    -0.031 C 
ENDROOT
BRANCH   1   3
ATOM      3  C   UNL     1      -2.069   2.371  13.193  1.00  0.00     0.027 C 
BRANCH   3   4
ATOM      4  C   UNL     1      -1.671   3.853  13.134  1.00  0.00     0.004 C 
BRANCH   4   5
ATOM      5  C   UNL     1      -2.421   4.715  14.164  1.00  0.00     0.000 C 
BRANCH   5   6
ATOM      6  C   UNL     1      -2.697   3.985  15.496  1.00  0.00     0.000 C 
BRANCH   6   7
ATOM      7  C   UNL     1      -1.706   4.392  16.597  1.00  0.00     0.000 C 
BRANCH   7   8
ATOM      8  C   UNL     1      -0.641   3.305  16.808  1.00  0.00     0.006 C 
BRANCH   8   9
ATOM      9  C   UNL     1       0.783   3.875  16.780  1.00  0.00     0.053 C 
BRANCH   9  10
ATOM     10  C   UNL     1       1.401   3.761  15.420  1.00  0.00     0.041 C 
ATOM     11  O   UNL     1       1.370   4.737  14.626  1.00  0.00    -0.550 OA
ATOM     12  O   UNL     1       2.041   2.587  15.042  1.00  0.00    -0.550 OA
ENDBRANCH   9  10
ENDBRANCH   8   9
ENDBRANCH   7   8
ENDBRANCH   6   7
ENDBRANCH   5   6
ENDBRANCH   4   5
ENDBRANCH   3   4
ENDBRANCH   1   3
BRANCH   2  13
ATOM     13  C   UNL     1      -2.721   1.389   9.494  1.00  0.00     0.027 C 
BRANCH  13  14
ATOM     14  C   UNL     1      -4.065   1.363   8.750  1.00  0.00     0.004 C 
BRANCH  14  15
ATOM     15  C   UNL     1      -5.260   1.474   9.712  1.00  0.00     0.000 C 
BRANCH  15  16
ATOM     16  C   UNL     1      -6.331   0.400   9.458  1.00  0.00     0.000 C 
BRANCH  16  17
ATOM     17  C   UNL     1      -5.922  -1.006   9.947  1.00  0.00    -0.000 C 
BRANCH  17  18
ATOM     18  C   UNL     1      -5.434  -0.993  11.404  1.00  0.00    -0.000 C 
BRANCH  18  19
ATOM     19  C   UNL     1      -4.015  -1.562  11.514  1.00  0.00    -0.003 C 
ATOM     20  C   UNL     1      -3.460  -1.391  12.925  1.00  0.00     0.004 C 
ENDBRANCH  18  19
ENDBRANCH  17  18
ENDBRANCH  16  17
ENDBRANCH  15  16
ENDBRANCH  14  15
ENDBRANCH  13  14
ENDBRANCH   2  13
TORSDOF 15
ENDMDL
MODEL 9
REMARK VINA RESULT:    -3.783     16.188     17.458
REMARK INTER + INTRA:          -9.193
REMARK INTER:                  -7.294
REMARK INTRA:                  -1.898
REMARK UNBOUND:                -2.092
REMARK SMILES CCCCCCCCC=CCCCCCCCC(=O)[O-]
REMARK SMILES IDX 10 1 9 2 11 3 12 4 13 5 14 6 15 7 16 8 17 9 18 10 19 11
REMARK SMILES IDX 20 12 8 13 7 14 6 15 5 16 4 17 3 18 2 19 1 20
REMARK H PARENT
REMARK Flexibility Score: inf
ROOT
ATOM      1  C   UNL     1       5.319  -5.773  12.718  1.00  0.00    -0.031 C 
ATOM      2  C   UNL     1       6.361  -5.363  11.978  1.00  0.00    -0.031 C 
ENDROOT
BRANCH   1   3
ATOM      3  C   UNL     1       5.504  -6.689  13.896  1.00  0.00     0.027 C 
BRANCH   3   4
ATOM      4  C   UNL     1       6.862  -6.446  14.570  1.00  0.00     0.004 C 
BRANCH   4   5
ATOM      5  C   UNL     1       6.733  -6.066  16.055  1.00  0.00     0.000 C 
BRANCH   5   6
ATOM      6  C   UNL     1       6.819  -7.274  17.011  1.00  0.00     0.000 C 
BRANCH   6   7
ATOM      7  C   UNL     1       5.505  -7.507  17.772  1.00  0.00     0.000 C 
BRANCH   7   8
ATOM      8  C   UNL     1       5.739  -7.501  19.290  1.00  0.00     0.006 C 
BRANCH   8   9
ATOM      9  C   UNL     1       6.926  -6.614  19.691  1.00  0.00     0.053 C 
BRANCH   9  10
ATOM     10  C   UNL     1       6.473  -5.298  20.246  1.00  0.00     0.041 C 
ATOM     11  O   UNL     1       6.604  -5.050  21.473  1.00  0.00    -0.550 OA
ATOM     12  O   UNL     1       5.940  -4.333  19.401  1.00  0.00    -0.550 OA
ENDBRANCH   9  10
ENDBRANCH   8   9
ENDBRANCH   7   8
ENDBRANCH   6   7
ENDBRANCH   5   6
ENDBRANCH   4   5
ENDBRANCH   3   4
ENDBRANCH   1   3
BRANCH   2  13
ATOM     13  C   UNL     1       6.176  -4.469  10.782  1.00  0.00     0.027 C 
BRANCH  13  14
ATOM     14  C   UNL     1       7.060  -3.214  10.855  1.00  0.00     0.004 C 
BRANCH  14  15
ATOM     15  C   UNL     1       7.125  -2.637  12.279  1.00  0.00     0.000 C 
BRANCH  15  16
ATOM     16  C   UNL     1       6.232  -1.398  12.462  1.00  0.00     0.000 C 
BRANCH  16  17
ATOM     17  C   UNL     1       5.600  -1.297  13.867  1.00  0.00    -0.000 C 
BRANCH  17  18
ATOM     18  C   UNL     1       5.148  -2.665  14.399  1.00  0.00    -0.000 C 
BRANCH  18  19
ATOM     19  C   UNL     1       4.034  -2.509  15.440  1.00  0.00    -0.003 C 
ATOM     20  C   UNL     1       3.941  -3.740  16.338  1.00  0.00     0.004 C 
ENDBRANCH  18  19
ENDBRANCH  17  18
ENDBRANCH  16  17
ENDBRANCH  15  16
ENDBRANCH  14  15
ENDBRANCH  13  14
ENDBRANCH   2  13
TORSDOF 15
ENDMDL
