MODEL 1
REMARK VINA RESULT:    -4.914      0.000      0.000
REMARK INTER + INTRA:          -5.741
REMARK INTER:                  -5.632
REMARK INTRA:                  -0.110
REMARK UNBOUND:                -0.110
REMARK SMILES O=C([O-])C=Cc1ccc(O)cc1
REMARK SMILES IDX 6 1 7 2 12 3 8 4 11 5 9 6 5 7 4 8 2 9 1 10 3 11 10 12
REMARK H PARENT 10 13
REMARK Flexibility Score: inf
ROOT
ATOM      1  C   UNL     1      18.370  -7.887  19.343  1.00  0.00    -0.025 A 
ATOM      2  C   UNL     1      18.864  -9.041  19.977  1.00  0.00     0.012 A 
ATOM      3  C   UNL     1      18.418  -7.799  17.944  1.00  0.00     0.012 A 
ATOM      4  C   UNL     1      19.351 -10.109  19.217  1.00  0.00     0.047 A 
ATOM      5  C   UNL     1      18.904  -8.869  17.186  1.00  0.00     0.047 A 
ATOM      6  C   UNL     1      19.369 -10.028  17.821  1.00  0.00     0.115 A 
ENDROOT
BRANCH   1   7
ATOM      7  C   UNL     1      17.902  -6.725  20.125  1.00  0.00     0.010 C 
ATOM      8  C   UNL     1      18.471  -5.509  20.125  1.00  0.00     0.025 C 
BRANCH   8   9
ATOM      9  C   UNL     1      19.764  -5.169  19.500  1.00  0.00     0.064 C 
ATOM     10  O   UNL     1      20.832  -5.459  20.099  1.00  0.00    -0.545 OA
ATOM     11  O   UNL     1      19.832  -4.601  18.234  1.00  0.00    -0.545 OA
ENDBRANCH   8   9
ENDBRANCH   1   7
BRANCH   6  12
ATOM     12  O   UNL     1      19.854 -11.100  17.075  1.00  0.00    -0.508 OA
ATOM     13  H   UNL     1      20.733 -11.043  16.575  1.00  0.00     0.293 HD
ENDBRANCH   6  12
TORSDOF 3
ENDMDL
MODEL 2
REMARK VINA RESULT:    -4.793      1.434      4.712
REMARK INTER + INTRA:          -5.604
REMARK INTER:                  -5.333
REMARK INTRA:                  -0.271
REMARK UNBOUND:                -0.110
REMARK SMILES O=C([O-])C=Cc1ccc(O)cc1
REMARK SMILES IDX 6 1 7 2 12 3 8 4 11 5 9 6 5 7 4 8 2 9 1 10 3 11 10 12
REMARK H PARENT 10 13
REMARK Flexibility Score: inf
ROOT
ATOM      1  C   UNL     1      19.225  -8.863  18.929  1.00  0.00    -0.025 A 
ATOM      2  C   UNL     1      18.599  -8.108  17.922  1.00  0.00     0.012 A 
ATOM      3  C   UNL     1      19.977  -8.205  19.913  1.00  0.00     0.012 A 
ATOM      4  C   UNL     1      18.683  -6.713  17.932  1.00  0.00     0.047 A 
ATOM      5  C   UNL     1      20.059  -6.809  19.922  1.00  0.00     0.047 A 
ATOM      6  C   UNL     1      19.409  -6.059  18.933  1.00  0.00     0.115 A 
ENDROOT
BRANCH   1   7
ATOM      7  C   UNL     1      19.197 -10.340  18.908  1.00  0.00     0.010 C 
ATOM      8  C   UNL     1      20.087 -11.125  18.280  1.00  0.00     0.025 C 
BRANCH   8   9
ATOM      9  C   UNL     1      21.131 -10.658  17.347  1.00  0.00     0.064 C 
ATOM     10  O   UNL     1      22.248 -10.300  17.804  1.00  0.00    -0.545 OA
ATOM     11  O   UNL     1      20.935 -10.673  15.972  1.00  0.00    -0.545 OA
ENDBRANCH   8   9
ENDBRANCH   1   7
BRANCH   6  12
ATOM     12  O   UNL     1      19.482  -4.668  18.934  1.00  0.00    -0.508 OA
ATOM     13  H   UNL     1      18.831  -4.103  19.466  1.00  0.00     0.293 HD
ENDBRANCH   6  12
TORSDOF 3
ENDMDL
MODEL 3
REMARK VINA RESULT:    -4.647      0.876      1.826
REMARK INTER + INTRA:          -5.435
REMARK INTER:                  -5.399
REMARK INTRA:                  -0.036
REMARK UNBOUND:                -0.110
REMARK SMILES O=C([O-])C=Cc1ccc(O)cc1
REMARK SMILES IDX 6 1 7 2 12 3 8 4 11 5 9 6 5 7 4 8 2 9 1 10 3 11 10 12
REMARK H PARENT 10 13
REMARK Flexibility Score: inf
ROOT
ATOM      1  C   UNL     1      18.750  -8.365  19.182  1.00  0.00    -0.025 A 
ATOM      2  C   UNL     1      18.641  -8.500  17.787  1.00  0.00     0.012 A 
ATOM      3  C   UNL     1      19.638  -9.193  19.884  1.00  0.00     0.012 A 
ATOM      4  C   UNL     1      19.447  -9.415  17.102  1.00  0.00     0.047 A 
ATOM      5  C   UNL     1      20.444 -10.106  19.198  1.00  0.00     0.047 A 
ATOM      6  C   UNL     1      20.352 -10.217  17.804  1.00  0.00     0.115 A 
ENDROOT
BRANCH   1   7
ATOM      7  C   UNL     1      17.871  -7.445  19.933  1.00  0.00     0.010 C 
ATOM      8  C   UNL     1      18.097  -6.136  20.122  1.00  0.00     0.025 C 
BRANCH   8   9
ATOM      9  C   UNL     1      19.345  -5.425  19.782  1.00  0.00     0.064 C 
ATOM     10  O   UNL     1      19.279  -4.268  19.292  1.00  0.00    -0.545 OA
ATOM     11  O   UNL     1      20.591  -5.974  20.057  1.00  0.00    -0.545 OA
ENDBRANCH   8   9
ENDBRANCH   1   7
BRANCH   6  12
ATOM     12  O   UNL     1      21.152 -11.123  17.110  1.00  0.00    -0.508 OA
ATOM     13  H   UNL     1      21.259 -11.072  16.103  1.00  0.00     0.293 HD
ENDBRANCH   6  12
TORSDOF 3
ENDMDL
MODEL 4
REMARK VINA RESULT:    -4.532     10.128     11.850
REMARK INTER + INTRA:          -5.304
REMARK INTER:                  -5.190
REMARK INTRA:                  -0.114
REMARK UNBOUND:                -0.110
REMARK SMILES O=C([O-])C=Cc1ccc(O)cc1
REMARK SMILES IDX 6 1 7 2 12 3 8 4 11 5 9 6 5 7 4 8 2 9 1 10 3 11 10 12
REMARK H PARENT 10 13
REMARK Flexibility Score: inf
ROOT
ATOM      1  C   UNL     1       9.639  -1.904  17.043  1.00  0.00    -0.025 A 
ATOM      2  C   UNL     1      10.921  -2.418  17.307  1.00  0.00     0.012 A 
ATOM      3  C   UNL     1       9.339  -0.585  17.413  1.00  0.00     0.012 A 
ATOM      4  C   UNL     1      11.901  -1.605  17.884  1.00  0.00     0.047 A 
ATOM      5  C   UNL     1      10.321   0.227  17.988  1.00  0.00     0.047 A 
ATOM      6  C   UNL     1      11.606  -0.280  18.222  1.00  0.00     0.115 A 
ENDROOT
BRANCH   1   7
ATOM      7  C   UNL     1       8.571  -2.760  16.486  1.00  0.00     0.010 C 
ATOM      8  C   UNL     1       8.522  -3.217  15.225  1.00  0.00     0.025 C 
BRANCH   8   9
ATOM      9  C   UNL     1       9.412  -2.797  14.126  1.00  0.00     0.064 C 
ATOM     10  O   UNL     1       9.949  -3.674  13.401  1.00  0.00    -0.545 OA
ATOM     11  O   UNL     1       9.615  -1.455  13.830  1.00  0.00    -0.545 OA
ENDBRANCH   8   9
ENDBRANCH   1   7
BRANCH   6  12
ATOM     12  O   UNL     1      12.592   0.521  18.794  1.00  0.00    -0.508 OA
ATOM     13  H   UNL     1      13.578   0.318  18.670  1.00  0.00     0.293 HD
ENDBRANCH   6  12
TORSDOF 3
ENDMDL
MODEL 5
REMARK VINA RESULT:    -4.466      1.741      4.852
REMARK INTER + INTRA:          -5.228
REMARK INTER:                  -5.054
REMARK INTRA:                  -0.174
REMARK UNBOUND:                -0.110
REMARK SMILES O=C([O-])C=Cc1ccc(O)cc1
REMARK SMILES IDX 6 1 7 2 12 3 8 4 11 5 9 6 5 7 4 8 2 9 1 10 3 11 10 12
REMARK H PARENT 10 13
REMARK Flexibility Score: inf
ROOT
ATOM      1  C   UNL     1      19.173  -6.529  18.418  1.00  0.00    -0.025 A 
ATOM      2  C   UNL     1      19.467  -5.487  17.520  1.00  0.00     0.012 A 
ATOM      3  C   UNL     1      19.708  -6.489  19.714  1.00  0.00     0.012 A 
ATOM      4  C   UNL     1      20.241  -4.398  17.933  1.00  0.00     0.047 A 
ATOM      5  C   UNL     1      20.481  -5.399  20.125  1.00  0.00     0.047 A 
ATOM      6  C   UNL     1      20.746  -4.349  19.236  1.00  0.00     0.115 A 
ENDROOT
BRANCH   1   7
ATOM      7  C   UNL     1      18.405  -7.715  17.988  1.00  0.00     0.010 C 
ATOM      8  C   UNL     1      18.913  -8.944  17.802  1.00  0.00     0.025 C 
BRANCH   8   9
ATOM      9  C   UNL     1      20.348  -9.286  17.806  1.00  0.00     0.064 C 
ATOM     10  O   UNL     1      20.881  -9.692  18.872  1.00  0.00    -0.545 OA
ATOM     11  O   UNL     1      21.109  -9.240  16.645  1.00  0.00    -0.545 OA
ENDBRANCH   8   9
ENDBRANCH   1   7
BRANCH   6  12
ATOM     12  O   UNL     1      21.514  -3.257  19.636  1.00  0.00    -0.508 OA
ATOM     13  H   UNL     1      21.319  -2.321  19.300  1.00  0.00     0.293 HD
ENDBRANCH   6  12
TORSDOF 3
ENDMDL
MODEL 6
REMARK VINA RESULT:    -4.463     11.440     12.561
REMARK INTER + INTRA:          -5.225
REMARK INTER:                  -4.967
REMARK INTRA:                  -0.257
REMARK UNBOUND:                -0.110
REMARK SMILES O=C([O-])C=Cc1ccc(O)cc1
REMARK SMILES IDX 6 1 7 2 12 3 8 4 11 5 9 6 5 7 4 8 2 9 1 10 3 11 10 12
REMARK H PARENT 10 13
REMARK Flexibility Score: inf
ROOT
ATOM      1  C   UNL     1       8.746  -2.903  17.529  1.00  0.00    -0.025 A 
ATOM      2  C   UNL     1       9.826  -2.004  17.574  1.00  0.00     0.012 A 
ATOM      3  C   UNL     1       8.190  -3.248  16.288  1.00  0.00     0.012 A 
ATOM      4  C   UNL     1      10.374  -1.501  16.390  1.00  0.00     0.047 A 
ATOM      5  C   UNL     1       8.740  -2.744  15.105  1.00  0.00     0.047 A 
ATOM      6  C   UNL     1       9.835  -1.872  15.153  1.00  0.00     0.115 A 
ENDROOT
BRANCH   1   7
ATOM      7  C   UNL     1       8.116  -3.404  18.768  1.00  0.00     0.010 C 
ATOM      8  C   UNL     1       7.199  -2.745  19.495  1.00  0.00     0.025 C 
BRANCH   8   9
ATOM      9  C   UNL     1       6.801  -1.338  19.297  1.00  0.00     0.064 C 
ATOM     10  O   UNL     1       7.359  -0.439  19.979  1.00  0.00    -0.545 OA
ATOM     11  O   UNL     1       5.875  -0.975  18.327  1.00  0.00    -0.545 OA
ENDBRANCH   8   9
ENDBRANCH   1   7
BRANCH   6  12
ATOM     12  O   UNL     1      10.391  -1.366  13.980  1.00  0.00    -0.508 OA
ATOM     13  H   UNL     1      10.156  -0.441  13.638  1.00  0.00     0.293 HD
ENDBRANCH   6  12
TORSDOF 3
ENDMDL
MODEL 7
REMARK VINA RESULT:    -4.393      9.788     11.008
REMARK INTER + INTRA:          -5.144
REMARK INTER:                  -4.881
REMARK INTRA:                  -0.263
REMARK UNBOUND:                -0.110
REMARK SMILES O=C([O-])C=Cc1ccc(O)cc1
REMARK SMILES IDX 6 1 7 2 12 3 8 4 11 5 9 6 5 7 4 8 2 9 1 10 3 11 10 12
REMARK H PARENT 10 13
REMARK Flexibility Score: inf
ROOT
ATOM      1  C   UNL     1      11.144  -2.127  17.633  1.00  0.00    -0.025 A 
ATOM      2  C   UNL     1      10.602  -1.747  16.392  1.00  0.00     0.012 A 
ATOM      3  C   UNL     1      10.296  -2.653  18.619  1.00  0.00     0.012 A 
ATOM      4  C   UNL     1       9.243  -1.940  16.127  1.00  0.00     0.047 A 
ATOM      5  C   UNL     1       8.938  -2.847  18.352  1.00  0.00     0.047 A 
ATOM      6  C   UNL     1       8.408  -2.494  17.104  1.00  0.00     0.115 A 
ENDROOT
BRANCH   1   7
ATOM      7  C   UNL     1      12.564  -1.882  17.956  1.00  0.00     0.010 C 
ATOM      8  C   UNL     1      13.034  -0.829  18.642  1.00  0.00     0.025 C 
BRANCH   8   9
ATOM      9  C   UNL     1      12.249   0.360  19.030  1.00  0.00     0.064 C 
ATOM     10  O   UNL     1      11.629   0.357  20.125  1.00  0.00    -0.545 OA
ATOM     11  O   UNL     1      12.237   1.508  18.247  1.00  0.00    -0.545 OA
ENDBRANCH   8   9
ENDBRANCH   1   7
BRANCH   6  12
ATOM     12  O   UNL     1       7.056  -2.683  16.826  1.00  0.00    -0.508 OA
ATOM     13  H   UNL     1       6.661  -2.440  15.925  1.00  0.00     0.293 HD
ENDBRANCH   6  12
TORSDOF 3
ENDMDL
MODEL 8
REMARK VINA RESULT:    -4.308      9.216     10.877
REMARK INTER + INTRA:          -5.047
REMARK INTER:                  -5.089
REMARK INTRA:                   0.042
REMARK UNBOUND:                -0.110
REMARK SMILES O=C([O-])C=Cc1ccc(O)cc1
REMARK SMILES IDX 6 1 7 2 12 3 8 4 11 5 9 6 5 7 4 8 2 9 1 10 3 11 10 12
REMARK H PARENT 10 13
REMARK Flexibility Score: inf
ROOT
ATOM      1  C   UNL     1      10.440  -1.915  18.190  1.00  0.00    -0.025 A 
ATOM      2  C   UNL     1      11.293  -2.984  18.518  1.00  0.00     0.012 A 
ATOM      3  C   UNL     1      10.972  -0.622  18.081  1.00  0.00     0.012 A 
ATOM      4  C   UNL     1      12.664  -2.766  18.683  1.00  0.00     0.047 A 
ATOM      5  C   UNL     1      12.344  -0.406  18.246  1.00  0.00     0.047 A 
ATOM      6  C   UNL     1      13.194  -1.479  18.544  1.00  0.00     0.115 A 
ENDROOT
BRANCH   1   7
ATOM      7  C   UNL     1       8.982  -2.111  18.065  1.00  0.00     0.010 C 
ATOM      8  C   UNL     1       8.344  -2.509  16.953  1.00  0.00     0.025 C 
BRANCH   8   9
ATOM      9  C   UNL     1       8.954  -2.638  15.616  1.00  0.00     0.064 C 
ATOM     10  O   UNL     1       8.560  -3.551  14.845  1.00  0.00    -0.545 OA
ATOM     11  O   UNL     1       9.903  -1.731  15.161  1.00  0.00    -0.545 OA
ENDBRANCH   8   9
ENDBRANCH   1   7
BRANCH   6  12
ATOM     12  O   UNL     1      14.562  -1.276  18.709  1.00  0.00    -0.508 OA
ATOM     13  H   UNL     1      15.046  -0.517  18.242  1.00  0.00     0.293 HD
ENDBRANCH   6  12
TORSDOF 3
ENDMDL
MODEL 9
REMARK VINA RESULT:    -4.231     10.846     11.483
REMARK INTER + INTRA:          -4.959
REMARK INTER:                  -4.730
REMARK INTRA:                  -0.230
REMARK UNBOUND:                -0.110
REMARK SMILES O=C([O-])C=Cc1ccc(O)cc1
REMARK SMILES IDX 6 1 7 2 12 3 8 4 11 5 9 6 5 7 4 8 2 9 1 10 3 11 10 12
REMARK H PARENT 10 13
REMARK Flexibility Score: inf
ROOT
ATOM      1  C   UNL     1      10.453  -1.669  18.361  1.00  0.00    -0.025 A 
ATOM      2  C   UNL     1       9.268  -2.383  18.614  1.00  0.00     0.012 A 
ATOM      3  C   UNL     1      10.849  -1.445  17.034  1.00  0.00     0.012 A 
ATOM      4  C   UNL     1       8.468  -2.819  17.554  1.00  0.00     0.047 A 
ATOM      5  C   UNL     1      10.046  -1.881  15.976  1.00  0.00     0.047 A 
ATOM      6  C   UNL     1       8.852  -2.566  16.233  1.00  0.00     0.115 A 
ENDROOT
BRANCH   1   7
ATOM      7  C   UNL     1      11.342  -1.248  19.463  1.00  0.00     0.010 C 
ATOM      8  C   UNL     1      11.421  -0.005  19.965  1.00  0.00     0.025 C 
BRANCH   8   9
ATOM      9  C   UNL     1      10.781   1.193  19.389  1.00  0.00     0.064 C 
ATOM     10  O   UNL     1       9.671   1.575  19.840  1.00  0.00    -0.545 OA
ATOM     11  O   UNL     1      11.410   1.951  18.409  1.00  0.00    -0.545 OA
ENDBRANCH   8   9
ENDBRANCH   1   7
BRANCH   6  12
ATOM     12  O   UNL     1       8.044  -3.003  15.185  1.00  0.00    -0.508 OA
ATOM     13  H   UNL     1       7.351  -3.731  15.319  1.00  0.00     0.293 HD
ENDBRANCH   6  12
TORSDOF 3
ENDMDL
