MODEL 1
REMARK VINA RESULT:    -3.898      0.000      0.000
REMARK INTER + INTRA:          -3.898
REMARK INTER:                  -3.898
REMARK INTRA:                   0.000
REMARK UNBOUND:                 0.000
REMARK SMILES CC1(C)O[C@]2(C)CC[C@H]1CC2
REMARK SMILES IDX 1 1 2 2 9 3 10 4 11 5 5 6 4 7 7 8 8 9 6 10 3 11
REMARK H PARENT
REMARK Flexibility Score: inf
ROOT
ATOM      1  C   UNL     1      -3.646  81.624  -7.246  1.00  0.00     0.042 C 
ATOM      2  C   UNL     1      -3.851  82.661  -8.372  1.00  0.00     0.066 C 
ATOM      3  C   UNL     1      -5.368  83.084  -8.470  1.00  0.00     0.021 C 
ATOM      4  C   UNL     1      -5.769  83.778  -7.147  1.00  0.00     0.009 C 
ATOM      5  C   UNL     1      -4.749  84.899  -6.830  1.00  0.00     0.035 C 
ATOM      6  C   UNL     1      -3.719  85.015  -7.989  1.00  0.00     0.066 C 
ATOM      7  O   UNL     1      -3.001  83.785  -8.103  1.00  0.00    -0.369 OA
ATOM      8  C   UNL     1      -4.480  85.288  -9.319  1.00  0.00     0.035 C 
ATOM      9  C   UNL     1      -5.506  84.158  -9.576  1.00  0.00     0.009 C 
ATOM     10  C   UNL     1      -2.722  86.144  -7.705  1.00  0.00     0.042 C 
ATOM     11  C   UNL     1      -3.380  82.007  -9.689  1.00  0.00     0.042 C 
ENDROOT
TORSDOF 0
ENDMDL
MODEL 2
REMARK VINA RESULT:    -3.870      0.998      2.085
REMARK INTER + INTRA:          -3.870
REMARK INTER:                  -3.870
REMARK INTRA:                   0.000
REMARK UNBOUND:                 0.000
REMARK SMILES CC1(C)O[C@]2(C)CC[C@H]1CC2
REMARK SMILES IDX 1 1 2 2 9 3 10 4 11 5 5 6 4 7 7 8 8 9 6 10 3 11
REMARK H PARENT
REMARK Flexibility Score: inf
ROOT
ATOM      1  C   UNL     1      -3.375  82.000  -9.641  1.00  0.00     0.042 C 
ATOM      2  C   UNL     1      -4.251  83.002  -8.858  1.00  0.00     0.066 C 
ATOM      3  C   UNL     1      -4.500  82.491  -7.386  1.00  0.00     0.021 C 
ATOM      4  C   UNL     1      -3.139  82.422  -6.654  1.00  0.00     0.009 C 
ATOM      5  C   UNL     1      -2.409  83.779  -6.810  1.00  0.00     0.035 C 
ATOM      6  C   UNL     1      -3.322  84.784  -7.568  1.00  0.00     0.066 C 
ATOM      7  O   UNL     1      -3.595  84.277  -8.875  1.00  0.00    -0.369 OA
ATOM      8  C   UNL     1      -4.661  84.937  -6.789  1.00  0.00     0.035 C 
ATOM      9  C   UNL     1      -5.338  83.554  -6.634  1.00  0.00     0.009 C 
ATOM     10  C   UNL     1      -2.625  86.142  -7.700  1.00  0.00     0.042 C 
ATOM     11  C   UNL     1      -5.586  83.139  -9.622  1.00  0.00     0.042 C 
ENDROOT
TORSDOF 0
ENDMDL
MODEL 3
REMARK VINA RESULT:    -3.685      1.420      3.084
REMARK INTER + INTRA:          -3.685
REMARK INTER:                  -3.685
REMARK INTRA:                   0.000
REMARK UNBOUND:                 0.000
REMARK SMILES CC1(C)O[C@]2(C)CC[C@H]1CC2
REMARK SMILES IDX 1 1 2 2 9 3 10 4 11 5 5 6 4 7 7 8 8 9 6 10 3 11
REMARK H PARENT
REMARK Flexibility Score: inf
ROOT
ATOM      1  C   UNL     1      -4.134  81.875  -6.690  1.00  0.00     0.042 C 
ATOM      2  C   UNL     1      -4.454  83.296  -7.204  1.00  0.00     0.066 C 
ATOM      3  C   UNL     1      -3.415  83.737  -8.306  1.00  0.00     0.021 C 
ATOM      4  C   UNL     1      -3.552  82.783  -9.517  1.00  0.00     0.009 C 
ATOM      5  C   UNL     1      -5.038  82.714  -9.944  1.00  0.00     0.035 C 
ATOM      6  C   UNL     1      -5.881  83.692  -9.078  1.00  0.00     0.066 C 
ATOM      7  O   UNL     1      -5.797  83.296  -7.708  1.00  0.00    -0.369 OA
ATOM      8  C   UNL     1      -5.305  85.130  -9.230  1.00  0.00     0.035 C 
ATOM      9  C   UNL     1      -3.813  85.142  -8.820  1.00  0.00     0.009 C 
ATOM     10  C   UNL     1      -7.350  83.658  -9.512  1.00  0.00     0.042 C 
ATOM     11  C   UNL     1      -4.398  84.247  -5.989  1.00  0.00     0.042 C 
ENDROOT
TORSDOF 0
ENDMDL
MODEL 4
REMARK VINA RESULT:    -3.654      0.916      3.281
REMARK INTER + INTRA:          -3.654
REMARK INTER:                  -3.654
REMARK INTRA:                   0.000
REMARK UNBOUND:                 0.000
REMARK SMILES CC1(C)O[C@]2(C)CC[C@H]1CC2
REMARK SMILES IDX 1 1 2 2 9 3 10 4 11 5 5 6 4 7 7 8 8 9 6 10 3 11
REMARK H PARENT
REMARK Flexibility Score: inf
ROOT
ATOM      1  C   UNL     1      -4.363  86.282  -8.455  1.00  0.00     0.042 C 
ATOM      2  C   UNL     1      -3.876  84.976  -7.790  1.00  0.00     0.066 C 
ATOM      3  C   UNL     1      -5.039  84.305  -6.962  1.00  0.00     0.021 C 
ATOM      4  C   UNL     1      -6.172  83.912  -7.939  1.00  0.00     0.009 C 
ATOM      5  C   UNL     1      -5.575  83.085  -9.104  1.00  0.00     0.035 C 
ATOM      6  C   UNL     1      -4.059  82.847  -8.858  1.00  0.00     0.066 C 
ATOM      7  O   UNL     1      -3.386  84.107  -8.821  1.00  0.00    -0.369 OA
ATOM      8  C   UNL     1      -3.874  82.130  -7.488  1.00  0.00     0.035 C 
ATOM      9  C   UNL     1      -4.511  82.979  -6.362  1.00  0.00     0.009 C 
ATOM     10  C   UNL     1      -3.462  82.001  -9.986  1.00  0.00     0.042 C 
ATOM     11  C   UNL     1      -2.691  85.344  -6.870  1.00  0.00     0.042 C 
ENDROOT
TORSDOF 0
ENDMDL
MODEL 5
REMARK VINA RESULT:    -3.599      9.212     11.018
REMARK INTER + INTRA:          -3.599
REMARK INTER:                  -3.599
REMARK INTRA:                   0.000
REMARK UNBOUND:                 0.000
REMARK SMILES CC1(C)O[C@]2(C)CC[C@H]1CC2
REMARK SMILES IDX 1 1 2 2 9 3 10 4 11 5 5 6 4 7 7 8 8 9 6 10 3 11
REMARK H PARENT
REMARK Flexibility Score: inf
ROOT
ATOM      1  C   UNL     1      -5.586  91.680 -18.243  1.00  0.00     0.042 C 
ATOM      2  C   UNL     1      -4.695  91.322 -17.033  1.00  0.00     0.066 C 
ATOM      3  C   UNL     1      -4.655  92.513 -15.999  1.00  0.00     0.021 C 
ATOM      4  C   UNL     1      -6.085  92.734 -15.450  1.00  0.00     0.009 C 
ATOM      5  C   UNL     1      -6.648  91.384 -14.942  1.00  0.00     0.035 C 
ATOM      6  C   UNL     1      -5.561  90.280 -15.066  1.00  0.00     0.066 C 
ATOM      7  O   UNL     1      -5.209  90.120 -16.441  1.00  0.00    -0.369 OA
ATOM      8  C   UNL     1      -4.300  90.717 -14.264  1.00  0.00     0.035 C 
ATOM      9  C   UNL     1      -3.793  92.081 -14.788  1.00  0.00     0.009 C 
ATOM     10  C   UNL     1      -6.093  88.945 -14.534  1.00  0.00     0.042 C 
ATOM     11  C   UNL     1      -3.282  91.023 -17.577  1.00  0.00     0.042 C 
ENDROOT
TORSDOF 0
ENDMDL
MODEL 6
REMARK VINA RESULT:    -3.554      1.260      3.460
REMARK INTER + INTRA:          -3.554
REMARK INTER:                  -3.554
REMARK INTRA:                   0.000
REMARK UNBOUND:                 0.000
REMARK SMILES CC1(C)O[C@]2(C)CC[C@H]1CC2
REMARK SMILES IDX 1 1 2 2 9 3 10 4 11 5 5 6 4 7 7 8 8 9 6 10 3 11
REMARK H PARENT
REMARK Flexibility Score: inf
ROOT
ATOM      1  C   UNL     1      -4.470  86.535  -7.859  1.00  0.00     0.042 C 
ATOM      2  C   UNL     1      -3.397  85.458  -7.582  1.00  0.00     0.066 C 
ATOM      3  C   UNL     1      -3.719  84.684  -6.245  1.00  0.00     0.021 C 
ATOM      4  C   UNL     1      -5.064  83.940  -6.421  1.00  0.00     0.009 C 
ATOM      5  C   UNL     1      -5.013  83.101  -7.721  1.00  0.00     0.035 C 
ATOM      6  C   UNL     1      -3.603  83.212  -8.366  1.00  0.00     0.066 C 
ATOM      7  O   UNL     1      -3.350  84.575  -8.711  1.00  0.00    -0.369 OA
ATOM      8  C   UNL     1      -2.536  82.740  -7.335  1.00  0.00     0.035 C 
ATOM      9  C   UNL     1      -2.645  83.588  -6.044  1.00  0.00     0.009 C 
ATOM     10  C   UNL     1      -3.528  82.359  -9.636  1.00  0.00     0.042 C 
ATOM     11  C   UNL     1      -2.037  86.181  -7.481  1.00  0.00     0.042 C 
ENDROOT
TORSDOF 0
ENDMDL
MODEL 7
REMARK VINA RESULT:    -3.539      1.278      2.936
REMARK INTER + INTRA:          -3.539
REMARK INTER:                  -3.539
REMARK INTRA:                   0.000
REMARK UNBOUND:                 0.000
REMARK SMILES CC1(C)O[C@]2(C)CC[C@H]1CC2
REMARK SMILES IDX 1 1 2 2 9 3 10 4 11 5 5 6 4 7 7 8 8 9 6 10 3 11
REMARK H PARENT
REMARK Flexibility Score: inf
ROOT
ATOM      1  C   UNL     1      -5.754  84.612  -6.140  1.00  0.00     0.042 C 
ATOM      2  C   UNL     1      -5.886  83.846  -7.475  1.00  0.00     0.066 C 
ATOM      3  C   UNL     1      -5.736  84.830  -8.699  1.00  0.00     0.021 C 
ATOM      4  C   UNL     1      -4.312  85.434  -8.670  1.00  0.00     0.009 C 
ATOM      5  C   UNL     1      -3.277  84.288  -8.562  1.00  0.00     0.035 C 
ATOM      6  C   UNL     1      -4.003  82.915  -8.612  1.00  0.00     0.066 C 
ATOM      7  O   UNL     1      -4.891  82.813  -7.497  1.00  0.00    -0.369 OA
ATOM      8  C   UNL     1      -4.827  82.824  -9.930  1.00  0.00     0.035 C 
ATOM      9  C   UNL     1      -5.826  84.004 -10.005  1.00  0.00     0.009 C 
ATOM     10  C   UNL     1      -2.987  81.770  -8.540  1.00  0.00     0.042 C 
ATOM     11  C   UNL     1      -7.276  83.173  -7.482  1.00  0.00     0.042 C 
ENDROOT
TORSDOF 0
ENDMDL
MODEL 8
REMARK VINA RESULT:    -3.530      1.424      3.188
REMARK INTER + INTRA:          -3.530
REMARK INTER:                  -3.530
REMARK INTRA:                   0.000
REMARK UNBOUND:                 0.000
REMARK SMILES CC1(C)O[C@]2(C)CC[C@H]1CC2
REMARK SMILES IDX 1 1 2 2 9 3 10 4 11 5 5 6 4 7 7 8 8 9 6 10 3 11
REMARK H PARENT
REMARK Flexibility Score: inf
ROOT
ATOM      1  C   UNL     1      -7.512  84.302  -9.594  1.00  0.00     0.042 C 
ATOM      2  C   UNL     1      -6.058  84.808  -9.467  1.00  0.00     0.066 C 
ATOM      3  C   UNL     1      -5.733  85.201  -7.974  1.00  0.00     0.021 C 
ATOM      4  C   UNL     1      -5.842  83.930  -7.098  1.00  0.00     0.009 C 
ATOM      5  C   UNL     1      -4.985  82.804  -7.727  1.00  0.00     0.035 C 
ATOM      6  C   UNL     1      -4.231  83.350  -8.973  1.00  0.00     0.066 C 
ATOM      7  O   UNL     1      -5.184  83.777  -9.948  1.00  0.00    -0.369 OA
ATOM      8  C   UNL     1      -3.359  84.566  -8.545  1.00  0.00     0.035 C 
ATOM      9  C   UNL     1      -4.254  85.650  -7.896  1.00  0.00     0.009 C 
ATOM     10  C   UNL     1      -3.353  82.255  -9.587  1.00  0.00     0.042 C 
ATOM     11  C   UNL     1      -5.914  86.031 -10.398  1.00  0.00     0.042 C 
ENDROOT
TORSDOF 0
ENDMDL
MODEL 9
REMARK VINA RESULT:    -3.473      1.215      3.119
REMARK INTER + INTRA:          -3.473
REMARK INTER:                  -3.473
REMARK INTRA:                   0.000
REMARK UNBOUND:                 0.000
REMARK SMILES CC1(C)O[C@]2(C)CC[C@H]1CC2
REMARK SMILES IDX 1 1 2 2 9 3 10 4 11 5 5 6 4 7 7 8 8 9 6 10 3 11
REMARK H PARENT
REMARK Flexibility Score: inf
ROOT
ATOM      1  C   UNL     1      -2.434  85.041  -7.011  1.00  0.00     0.042 C 
ATOM      2  C   UNL     1      -3.732  84.754  -7.797  1.00  0.00     0.066 C 
ATOM      3  C   UNL     1      -3.496  83.618  -8.866  1.00  0.00     0.021 C 
ATOM      4  C   UNL     1      -3.127  82.313  -8.121  1.00  0.00     0.009 C 
ATOM      5  C   UNL     1      -4.187  82.036  -7.027  1.00  0.00     0.035 C 
ATOM      6  C   UNL     1      -5.314  83.105  -7.102  1.00  0.00     0.066 C 
ATOM      7  O   UNL     1      -4.753  84.395  -6.855  1.00  0.00    -0.369 OA
ATOM      8  C   UNL     1      -5.938  83.084  -8.528  1.00  0.00     0.035 C 
ATOM      9  C   UNL     1      -4.837  83.337  -9.586  1.00  0.00     0.009 C 
ATOM     10  C   UNL     1      -6.388  82.823  -6.047  1.00  0.00     0.042 C 
ATOM     11  C   UNL     1      -4.154  86.071  -8.483  1.00  0.00     0.042 C 
ENDROOT
TORSDOF 0
ENDMDL
