MODEL 1
REMARK VINA RESULT:    -6.507      0.000      0.000
REMARK INTER + INTRA:          -7.941
REMARK INTER:                  -7.648
REMARK INTRA:                  -0.294
REMARK UNBOUND:                -0.294
REMARK SMILES O=c1cc(-c2ccc(O)c(O)c2)oc2cc(O)cc(O)c12
REMARK SMILES IDX 4 1 3 2 2 3 1 4 21 5 19 6 18 7 16 8 15 9 14 10 13 11 5 12
REMARK SMILES IDX 6 13 7 14 8 15 12 16 10 17 9 18 11 20 20 22 17 24
REMARK H PARENT 9 19 11 21 20 23 17 25
REMARK Flexibility Score: inf
ROOT
ATOM      1  C   UNL     1      22.490  32.221   7.204  1.00  0.00     0.138 A 
ATOM      2  C   UNL     1      23.556  32.372   8.102  1.00  0.00     0.100 A 
ATOM      3  C   UNL     1      24.525  31.373   8.197  1.00  0.00     0.197 A 
ATOM      4  O   UNL     1      25.498  31.563   8.971  1.00  0.00    -0.289 OA
ATOM      5  C   UNL     1      24.405  30.199   7.415  1.00  0.00     0.107 A 
ATOM      6  C   UNL     1      25.314  29.099   7.453  1.00  0.00     0.134 A 
ATOM      7  C   UNL     1      25.146  28.033   6.560  1.00  0.00     0.093 A 
ATOM      8  C   UNL     1      24.072  28.001   5.671  1.00  0.00     0.123 A 
ATOM      9  C   UNL     1      23.149  29.047   5.659  1.00  0.00     0.094 A 
ATOM     10  C   UNL     1      23.309  30.140   6.513  1.00  0.00     0.146 A 
ATOM     11  O   UNL     1      22.417  31.124   6.457  1.00  0.00    -0.456 OA
ENDROOT
BRANCH   1  12
ATOM     12  C   UNL     1      21.429  33.251   7.063  1.00  0.00     0.021 A 
ATOM     13  C   UNL     1      20.451  33.176   6.052  1.00  0.00     0.016 A 
ATOM     14  C   UNL     1      19.460  34.155   5.952  1.00  0.00     0.051 A 
ATOM     15  C   UNL     1      19.422  35.219   6.861  1.00  0.00     0.157 A 
ATOM     16  C   UNL     1      21.374  34.316   7.980  1.00  0.00     0.062 A 
ATOM     17  C   UNL     1      20.379  35.299   7.879  1.00  0.00     0.158 A 
BRANCH  15  18
ATOM     18  O   UNL     1      18.434  36.198   6.762  1.00  0.00    -0.504 OA
ATOM     19  H   UNL     1      18.132  36.728   7.571  1.00  0.00     0.293 HD
ENDBRANCH  15  18
BRANCH  17  20
ATOM     20  O   UNL     1      20.337  36.357   8.785  1.00  0.00    -0.504 OA
ATOM     21  H   UNL     1      20.910  37.183   8.662  1.00  0.00     0.293 HD
ENDBRANCH  17  20
ENDBRANCH   1  12
BRANCH   6  22
ATOM     22  O   UNL     1      26.375  28.990   8.356  1.00  0.00    -0.507 OA
ATOM     23  H   UNL     1      26.325  29.208   9.339  1.00  0.00     0.293 HD
ENDBRANCH   6  22
BRANCH   8  24
ATOM     24  O   UNL     1      23.929  26.916   4.807  1.00  0.00    -0.508 OA
ATOM     25  H   UNL     1      24.714  26.323   4.566  1.00  0.00     0.293 HD
ENDBRANCH   8  24
TORSDOF 5
ENDMDL
MODEL 2
REMARK VINA RESULT:    -6.433      2.195      2.613
REMARK INTER + INTRA:          -7.855
REMARK INTER:                  -7.578
REMARK INTRA:                  -0.277
REMARK UNBOUND:                -0.294
REMARK SMILES O=c1cc(-c2ccc(O)c(O)c2)oc2cc(O)cc(O)c12
REMARK SMILES IDX 4 1 3 2 2 3 1 4 21 5 19 6 18 7 16 8 15 9 14 10 13 11 5 12
REMARK SMILES IDX 6 13 7 14 8 15 12 16 10 17 9 18 11 20 20 22 17 24
REMARK H PARENT 9 19 11 21 20 23 17 25
REMARK Flexibility Score: inf
ROOT
ATOM      1  C   UNL     1      22.138  33.432   6.067  1.00  0.00     0.138 A 
ATOM      2  C   UNL     1      21.947  32.740   7.272  1.00  0.00     0.100 A 
ATOM      3  C   UNL     1      22.680  31.581   7.526  1.00  0.00     0.197 A 
ATOM      4  O   UNL     1      22.527  31.015   8.639  1.00  0.00    -0.289 OA
ATOM      5  C   UNL     1      23.583  31.091   6.552  1.00  0.00     0.107 A 
ATOM      6  C   UNL     1      24.359  29.901   6.686  1.00  0.00     0.134 A 
ATOM      7  C   UNL     1      25.293  29.570   5.696  1.00  0.00     0.093 A 
ATOM      8  C   UNL     1      25.438  30.353   4.552  1.00  0.00     0.123 A 
ATOM      9  C   UNL     1      24.649  31.492   4.386  1.00  0.00     0.094 A 
ATOM     10  C   UNL     1      23.734  31.868   5.371  1.00  0.00     0.146 A 
ATOM     11  O   UNL     1      23.015  32.970   5.182  1.00  0.00    -0.456 OA
ENDROOT
BRANCH   1  12
ATOM     12  C   UNL     1      21.383  34.669   5.744  1.00  0.00     0.021 A 
ATOM     13  C   UNL     1      22.003  35.780   5.139  1.00  0.00     0.016 A 
ATOM     14  C   UNL     1      21.264  36.926   4.837  1.00  0.00     0.051 A 
ATOM     15  C   UNL     1      19.895  36.981   5.125  1.00  0.00     0.157 A 
ATOM     16  C   UNL     1      20.004  34.729   6.017  1.00  0.00     0.062 A 
ATOM     17  C   UNL     1      19.263  35.880   5.714  1.00  0.00     0.158 A 
BRANCH  15  18
ATOM     18  O   UNL     1      19.155  38.125   4.826  1.00  0.00    -0.504 OA
ATOM     19  H   UNL     1      19.604  38.980   4.520  1.00  0.00     0.293 HD
ENDBRANCH  15  18
BRANCH  17  20
ATOM     20  O   UNL     1      17.899  35.936   5.996  1.00  0.00    -0.504 OA
ATOM     21  H   UNL     1      17.462  35.278   6.631  1.00  0.00     0.293 HD
ENDBRANCH  17  20
ENDBRANCH   1  12
BRANCH   6  22
ATOM     22  O   UNL     1      24.238  29.002   7.750  1.00  0.00    -0.507 OA
ATOM     23  H   UNL     1      23.457  28.383   7.900  1.00  0.00     0.293 HD
ENDBRANCH   6  22
BRANCH   8  24
ATOM     24  O   UNL     1      26.367  29.984   3.580  1.00  0.00    -0.508 OA
ATOM     25  H   UNL     1      26.467  29.021   3.282  1.00  0.00     0.293 HD
ENDBRANCH   8  24
TORSDOF 5
ENDMDL
MODEL 3
REMARK VINA RESULT:    -6.369      1.817      3.100
REMARK INTER + INTRA:          -7.780
REMARK INTER:                  -7.488
REMARK INTRA:                  -0.292
REMARK UNBOUND:                -0.294
REMARK SMILES O=c1cc(-c2ccc(O)c(O)c2)oc2cc(O)cc(O)c12
REMARK SMILES IDX 4 1 3 2 2 3 1 4 21 5 19 6 18 7 16 8 15 9 14 10 13 11 5 12
REMARK SMILES IDX 6 13 7 14 8 15 12 16 10 17 9 18 11 20 20 22 17 24
REMARK H PARENT 9 19 11 21 20 23 17 25
REMARK Flexibility Score: inf
ROOT
ATOM      1  C   UNL     1      22.158  33.169   6.269  1.00  0.00     0.138 A 
ATOM      2  C   UNL     1      22.402  33.004   4.898  1.00  0.00     0.100 A 
ATOM      3  C   UNL     1      23.405  32.131   4.476  1.00  0.00     0.197 A 
ATOM      4  O   UNL     1      23.562  31.962   3.240  1.00  0.00    -0.289 OA
ATOM      5  C   UNL     1      24.193  31.448   5.434  1.00  0.00     0.107 A 
ATOM      6  C   UNL     1      25.265  30.559   5.122  1.00  0.00     0.134 A 
ATOM      7  C   UNL     1      25.908  29.864   6.154  1.00  0.00     0.093 A 
ATOM      8  C   UNL     1      25.557  30.068   7.488  1.00  0.00     0.123 A 
ATOM      9  C   UNL     1      24.544  30.971   7.809  1.00  0.00     0.094 A 
ATOM     10  C   UNL     1      23.860  31.654   6.800  1.00  0.00     0.146 A 
ATOM     11  O   UNL     1      22.889  32.492   7.148  1.00  0.00    -0.456 OA
ENDROOT
BRANCH   1  12
ATOM     12  C   UNL     1      21.105  34.087   6.774  1.00  0.00     0.021 A 
ATOM     13  C   UNL     1      21.070  34.508   8.117  1.00  0.00     0.016 A 
ATOM     14  C   UNL     1      20.073  35.381   8.560  1.00  0.00     0.051 A 
ATOM     15  C   UNL     1      19.101  35.854   7.671  1.00  0.00     0.157 A 
ATOM     16  C   UNL     1      20.132  34.578   5.885  1.00  0.00     0.062 A 
ATOM     17  C   UNL     1      19.131  35.454   6.330  1.00  0.00     0.158 A 
BRANCH  15  18
ATOM     18  O   UNL     1      18.104  36.723   8.111  1.00  0.00    -0.504 OA
ATOM     19  H   UNL     1      18.325  37.649   8.460  1.00  0.00     0.293 HD
ENDBRANCH  15  18
BRANCH  17  20
ATOM     20  O   UNL     1      18.164  35.929   5.446  1.00  0.00    -0.504 OA
ATOM     21  H   UNL     1      17.901  35.408   4.618  1.00  0.00     0.293 HD
ENDBRANCH  17  20
ENDBRANCH   1  12
BRANCH   6  22
ATOM     22  O   UNL     1      25.752  30.341   3.830  1.00  0.00    -0.507 OA
ATOM     23  H   UNL     1      25.836  31.047   3.115  1.00  0.00     0.293 HD
ENDBRANCH   6  22
BRANCH   8  24
ATOM     24  O   UNL     1      26.230  29.369   8.490  1.00  0.00    -0.508 OA
ATOM     25  H   UNL     1      26.077  28.379   8.639  1.00  0.00     0.293 HD
ENDBRANCH   8  24
TORSDOF 5
ENDMDL
MODEL 4
REMARK VINA RESULT:    -6.107      1.838      3.252
REMARK INTER + INTRA:          -7.472
REMARK INTER:                  -7.208
REMARK INTRA:                  -0.263
REMARK UNBOUND:                -0.294
REMARK SMILES O=c1cc(-c2ccc(O)c(O)c2)oc2cc(O)cc(O)c12
REMARK SMILES IDX 4 1 3 2 2 3 1 4 21 5 19 6 18 7 16 8 15 9 14 10 13 11 5 12
REMARK SMILES IDX 6 13 7 14 8 15 12 16 10 17 9 18 11 20 20 22 17 24
REMARK H PARENT 9 19 11 21 20 23 17 25
REMARK Flexibility Score: inf
ROOT
ATOM      1  C   UNL     1      22.211  32.730   5.352  1.00  0.00     0.138 A 
ATOM      2  C   UNL     1      21.871  31.771   4.388  1.00  0.00     0.100 A 
ATOM      3  C   UNL     1      22.478  30.515   4.419  1.00  0.00     0.197 A 
ATOM      4  O   UNL     1      22.111  29.658   3.575  1.00  0.00    -0.289 OA
ATOM      5  C   UNL     1      23.459  30.232   5.400  1.00  0.00     0.107 A 
ATOM      6  C   UNL     1      24.170  28.999   5.509  1.00  0.00     0.134 A 
ATOM      7  C   UNL     1      25.047  28.800   6.583  1.00  0.00     0.093 A 
ATOM      8  C   UNL     1      25.282  29.808   7.517  1.00  0.00     0.123 A 
ATOM      9  C   UNL     1      24.631  31.035   7.393  1.00  0.00     0.094 A 
ATOM     10  C   UNL     1      23.724  31.252   6.354  1.00  0.00     0.146 A 
ATOM     11  O   UNL     1      23.111  32.430   6.282  1.00  0.00    -0.456 OA
ENDROOT
BRANCH   1  12
ATOM     12  C   UNL     1      21.598  34.084   5.363  1.00  0.00     0.021 A 
ATOM     13  C   UNL     1      22.333  35.233   5.014  1.00  0.00     0.016 A 
ATOM     14  C   UNL     1      21.726  36.492   5.024  1.00  0.00     0.051 A 
ATOM     15  C   UNL     1      20.377  36.623   5.374  1.00  0.00     0.157 A 
ATOM     16  C   UNL     1      20.240  34.224   5.701  1.00  0.00     0.062 A 
ATOM     17  C   UNL     1      19.632  35.487   5.711  1.00  0.00     0.158 A 
BRANCH  15  18
ATOM     18  O   UNL     1      19.769  37.878   5.387  1.00  0.00    -0.504 OA
ATOM     19  H   UNL     1      20.105  38.634   4.802  1.00  0.00     0.293 HD
ENDBRANCH  15  18
BRANCH  17  20
ATOM     20  O   UNL     1      18.288  35.621   6.056  1.00  0.00    -0.504 OA
ATOM     21  H   UNL     1      17.666  34.821   6.086  1.00  0.00     0.293 HD
ENDBRANCH  17  20
ENDBRANCH   1  12
BRANCH   6  22
ATOM     22  O   UNL     1      24.072  27.954   4.586  1.00  0.00    -0.507 OA
ATOM     23  H   UNL     1      24.353  28.006   3.619  1.00  0.00     0.293 HD
ENDBRANCH   6  22
BRANCH   8  24
ATOM     24  O   UNL     1      26.174  29.579   8.565  1.00  0.00    -0.508 OA
ATOM     25  H   UNL     1      25.947  28.949   9.325  1.00  0.00     0.293 HD
ENDBRANCH   8  24
TORSDOF 5
ENDMDL
MODEL 5
REMARK VINA RESULT:    -6.088      1.267      2.956
REMARK INTER + INTRA:          -7.450
REMARK INTER:                  -7.156
REMARK INTRA:                  -0.294
REMARK UNBOUND:                -0.294
REMARK SMILES O=c1cc(-c2ccc(O)c(O)c2)oc2cc(O)cc(O)c12
REMARK SMILES IDX 4 1 3 2 2 3 1 4 21 5 19 6 18 7 16 8 15 9 14 10 13 11 5 12
REMARK SMILES IDX 6 13 7 14 8 15 12 16 10 17 9 18 11 20 20 22 17 24
REMARK H PARENT 9 19 11 21 20 23 17 25
REMARK Flexibility Score: inf
ROOT
ATOM      1  C   UNL     1      22.335  32.295   6.537  1.00  0.00     0.138 A 
ATOM      2  C   UNL     1      22.069  31.604   5.346  1.00  0.00     0.100 A 
ATOM      3  C   UNL     1      22.880  30.532   4.974  1.00  0.00     0.197 A 
ATOM      4  O   UNL     1      22.582  29.897   3.930  1.00  0.00    -0.289 OA
ATOM      5  C   UNL     1      23.987  30.174   5.781  1.00  0.00     0.107 A 
ATOM      6  C   UNL     1      24.904  29.121   5.484  1.00  0.00     0.134 A 
ATOM      7  C   UNL     1      25.905  28.795   6.409  1.00  0.00     0.093 A 
ATOM      8  C   UNL     1      26.057  29.520   7.590  1.00  0.00     0.123 A 
ATOM      9  C   UNL     1      25.198  30.584   7.868  1.00  0.00     0.094 A 
ATOM     10  C   UNL     1      24.168  30.910   6.982  1.00  0.00     0.146 A 
ATOM     11  O   UNL     1      23.360  31.919   7.293  1.00  0.00    -0.456 OA
ENDROOT
BRANCH   1  12
ATOM     12  C   UNL     1      21.505  33.445   6.979  1.00  0.00     0.021 A 
ATOM     13  C   UNL     1      21.796  34.158   8.158  1.00  0.00     0.016 A 
ATOM     14  C   UNL     1      21.003  35.242   8.544  1.00  0.00     0.051 A 
ATOM     15  C   UNL     1      19.915  35.638   7.757  1.00  0.00     0.157 A 
ATOM     16  C   UNL     1      20.418  33.858   6.188  1.00  0.00     0.062 A 
ATOM     17  C   UNL     1      19.623  34.946   6.576  1.00  0.00     0.158 A 
BRANCH  15  18
ATOM     18  O   UNL     1      19.122  36.718   8.140  1.00  0.00    -0.504 OA
ATOM     19  H   UNL     1      19.204  37.622   7.689  1.00  0.00     0.293 HD
ENDBRANCH  15  18
BRANCH  17  20
ATOM     20  O   UNL     1      18.541  35.344   5.792  1.00  0.00    -0.504 OA
ATOM     21  H   UNL     1      18.409  34.991   4.852  1.00  0.00     0.293 HD
ENDBRANCH  17  20
ENDBRANCH   1  12
BRANCH   6  22
ATOM     22  O   UNL     1      24.894  28.384   4.296  1.00  0.00    -0.507 OA
ATOM     23  H   UNL     1      24.439  27.493   4.170  1.00  0.00     0.293 HD
ENDBRANCH   6  22
BRANCH   8  24
ATOM     24  O   UNL     1      27.074  29.177   8.480  1.00  0.00    -0.508 OA
ATOM     25  H   UNL     1      26.870  28.770   9.385  1.00  0.00     0.293 HD
ENDBRANCH   8  24
TORSDOF 5
ENDMDL
MODEL 6
REMARK VINA RESULT:    -6.036      2.199      7.361
REMARK INTER + INTRA:          -7.388
REMARK INTER:                  -7.074
REMARK INTRA:                  -0.314
REMARK UNBOUND:                -0.294
REMARK SMILES O=c1cc(-c2ccc(O)c(O)c2)oc2cc(O)cc(O)c12
REMARK SMILES IDX 4 1 3 2 2 3 1 4 21 5 19 6 18 7 16 8 15 9 14 10 13 11 5 12
REMARK SMILES IDX 6 13 7 14 8 15 12 16 10 17 9 18 11 20 20 22 17 24
REMARK H PARENT 9 19 11 21 20 23 17 25
REMARK Flexibility Score: inf
ROOT
ATOM      1  C   UNL     1      22.428  33.340   5.812  1.00  0.00     0.138 A 
ATOM      2  C   UNL     1      22.604  34.453   4.978  1.00  0.00     0.100 A 
ATOM      3  C   UNL     1      21.795  35.577   5.145  1.00  0.00     0.197 A 
ATOM      4  O   UNL     1      22.015  36.579   4.418  1.00  0.00    -0.289 OA
ATOM      5  C   UNL     1      20.778  35.571   6.130  1.00  0.00     0.107 A 
ATOM      6  C   UNL     1      19.870  36.647   6.369  1.00  0.00     0.134 A 
ATOM      7  C   UNL     1      18.970  36.565   7.440  1.00  0.00     0.093 A 
ATOM      8  C   UNL     1      18.905  35.427   8.241  1.00  0.00     0.123 A 
ATOM      9  C   UNL     1      19.754  34.349   7.987  1.00  0.00     0.094 A 
ATOM     10  C   UNL     1      20.686  34.414   6.949  1.00  0.00     0.146 A 
ATOM     11  O   UNL     1      21.488  33.372   6.751  1.00  0.00    -0.456 OA
ENDROOT
BRANCH   1  12
ATOM     12  C   UNL     1      23.259  32.117   5.676  1.00  0.00     0.021 A 
ATOM     13  C   UNL     1      24.031  31.869   4.524  1.00  0.00     0.016 A 
ATOM     14  C   UNL     1      24.811  30.714   4.429  1.00  0.00     0.051 A 
ATOM     15  C   UNL     1      24.842  29.793   5.483  1.00  0.00     0.157 A 
ATOM     16  C   UNL     1      23.308  31.193   6.735  1.00  0.00     0.062 A 
ATOM     17  C   UNL     1      24.091  30.034   6.639  1.00  0.00     0.158 A 
BRANCH  15  18
ATOM     18  O   UNL     1      25.619  28.639   5.390  1.00  0.00    -0.504 OA
ATOM     19  H   UNL     1      26.016  28.338   4.508  1.00  0.00     0.293 HD
ENDBRANCH  15  18
BRANCH  17  20
ATOM     20  O   UNL     1      24.127  29.117   7.689  1.00  0.00    -0.504 OA
ATOM     21  H   UNL     1      23.604  29.269   8.543  1.00  0.00     0.293 HD
ENDBRANCH  17  20
ENDBRANCH   1  12
BRANCH   6  22
ATOM     22  O   UNL     1      19.793  37.798   5.580  1.00  0.00    -0.507 OA
ATOM     23  H   UNL     1      19.972  38.736   5.904  1.00  0.00     0.293 HD
ENDBRANCH   6  22
BRANCH   8  24
ATOM     24  O   UNL     1      17.986  35.375   9.288  1.00  0.00    -0.508 OA
ATOM     25  H   UNL     1      17.434  36.184   9.548  1.00  0.00     0.293 HD
ENDBRANCH   8  24
TORSDOF 5
ENDMDL
MODEL 7
REMARK VINA RESULT:    -5.942      1.438      7.410
REMARK INTER + INTRA:          -7.277
REMARK INTER:                  -6.993
REMARK INTRA:                  -0.285
REMARK UNBOUND:                -0.294
REMARK SMILES O=c1cc(-c2ccc(O)c(O)c2)oc2cc(O)cc(O)c12
REMARK SMILES IDX 4 1 3 2 2 3 1 4 21 5 19 6 18 7 16 8 15 9 14 10 13 11 5 12
REMARK SMILES IDX 6 13 7 14 8 15 12 16 10 17 9 18 11 20 20 22 17 24
REMARK H PARENT 9 19 11 21 20 23 17 25
REMARK Flexibility Score: inf
ROOT
ATOM      1  C   UNL     1      23.260  31.467   6.850  1.00  0.00     0.138 A 
ATOM      2  C   UNL     1      22.456  31.327   5.710  1.00  0.00     0.100 A 
ATOM      3  C   UNL     1      21.392  32.205   5.504  1.00  0.00     0.197 A 
ATOM      4  O   UNL     1      20.724  32.088   4.444  1.00  0.00    -0.289 OA
ATOM      5  C   UNL     1      21.109  33.206   6.464  1.00  0.00     0.107 A 
ATOM      6  C   UNL     1      20.030  34.136   6.377  1.00  0.00     0.134 A 
ATOM      7  C   UNL     1      19.909  35.146   7.340  1.00  0.00     0.093 A 
ATOM      8  C   UNL     1      20.793  35.225   8.416  1.00  0.00     0.123 A 
ATOM      9  C   UNL     1      21.822  34.291   8.539  1.00  0.00     0.094 A 
ATOM     10  C   UNL     1      21.990  33.293   7.576  1.00  0.00     0.146 A 
ATOM     11  O   UNL     1      22.994  32.434   7.721  1.00  0.00    -0.456 OA
ENDROOT
BRANCH   1  12
ATOM     12  C   UNL     1      24.403  30.558   7.121  1.00  0.00     0.021 A 
ATOM     13  C   UNL     1      25.537  30.987   7.839  1.00  0.00     0.016 A 
ATOM     14  C   UNL     1      26.593  30.106   8.087  1.00  0.00     0.051 A 
ATOM     15  C   UNL     1      26.532  28.783   7.632  1.00  0.00     0.157 A 
ATOM     16  C   UNL     1      24.346  29.224   6.680  1.00  0.00     0.062 A 
ATOM     17  C   UNL     1      25.406  28.341   6.929  1.00  0.00     0.158 A 
BRANCH  15  18
ATOM     18  O   UNL     1      27.585  27.903   7.877  1.00  0.00    -0.504 OA
ATOM     19  H   UNL     1      27.952  27.301   7.149  1.00  0.00     0.293 HD
ENDBRANCH  15  18
BRANCH  17  20
ATOM     20  O   UNL     1      25.347  27.022   6.480  1.00  0.00    -0.504 OA
ATOM     21  H   UNL     1      25.652  26.250   7.061  1.00  0.00     0.293 HD
ENDBRANCH  17  20
ENDBRANCH   1  12
BRANCH   6  22
ATOM     22  O   UNL     1      19.042  34.101   5.389  1.00  0.00    -0.507 OA
ATOM     23  H   UNL     1      18.317  33.404   5.319  1.00  0.00     0.293 HD
ENDBRANCH   6  22
BRANCH   8  24
ATOM     24  O   UNL     1      20.632  36.235   9.364  1.00  0.00    -0.508 OA
ATOM     25  H   UNL     1      20.713  36.047  10.356  1.00  0.00     0.293 HD
ENDBRANCH   8  24
TORSDOF 5
ENDMDL
MODEL 8
REMARK VINA RESULT:    -5.436      1.570      2.659
REMARK INTER + INTRA:          -6.683
REMARK INTER:                  -6.380
REMARK INTRA:                  -0.303
REMARK UNBOUND:                -0.294
REMARK SMILES O=c1cc(-c2ccc(O)c(O)c2)oc2cc(O)cc(O)c12
REMARK SMILES IDX 4 1 3 2 2 3 1 4 21 5 19 6 18 7 16 8 15 9 14 10 13 11 5 12
REMARK SMILES IDX 6 13 7 14 8 15 12 16 10 17 9 18 11 20 20 22 17 24
REMARK H PARENT 9 19 11 21 20 23 17 25
REMARK Flexibility Score: inf
ROOT
ATOM      1  C   UNL     1      24.078  30.657   7.289  1.00  0.00     0.138 A 
ATOM      2  C   UNL     1      25.380  30.838   7.778  1.00  0.00     0.100 A 
ATOM      3  C   UNL     1      26.311  29.807   7.660  1.00  0.00     0.197 A 
ATOM      4  O   UNL     1      27.485  30.020   8.058  1.00  0.00    -0.289 OA
ATOM      5  C   UNL     1      25.926  28.573   7.082  1.00  0.00     0.107 A 
ATOM      6  C   UNL     1      26.780  27.438   6.939  1.00  0.00     0.134 A 
ATOM      7  C   UNL     1      26.315  26.305   6.260  1.00  0.00     0.093 A 
ATOM      8  C   UNL     1      25.011  26.243   5.771  1.00  0.00     0.123 A 
ATOM      9  C   UNL     1      24.151  27.327   5.948  1.00  0.00     0.094 A 
ATOM     10  C   UNL     1      24.596  28.485   6.590  1.00  0.00     0.146 A 
ATOM     11  O   UNL     1      23.750  29.502   6.722  1.00  0.00    -0.456 OA
ENDROOT
BRANCH   1  12
ATOM     12  C   UNL     1      23.046  31.720   7.392  1.00  0.00     0.021 A 
ATOM     13  C   UNL     1      23.008  32.615   8.479  1.00  0.00     0.016 A 
ATOM     14  C   UNL     1      22.031  33.611   8.542  1.00  0.00     0.051 A 
ATOM     15  C   UNL     1      21.083  33.738   7.520  1.00  0.00     0.157 A 
ATOM     16  C   UNL     1      22.097  31.864   6.363  1.00  0.00     0.062 A 
ATOM     17  C   UNL     1      21.117  32.864   6.428  1.00  0.00     0.158 A 
BRANCH  15  18
ATOM     18  O   UNL     1      20.106  34.731   7.582  1.00  0.00    -0.504 OA
ATOM     19  H   UNL     1      19.136  34.534   7.364  1.00  0.00     0.293 HD
ENDBRANCH  15  18
BRANCH  17  20
ATOM     20  O   UNL     1      20.174  32.995   5.410  1.00  0.00    -0.504 OA
ATOM     21  H   UNL     1      19.868  32.198   4.864  1.00  0.00     0.293 HD
ENDBRANCH  17  20
ENDBRANCH   1  12
BRANCH   6  22
ATOM     22  O   UNL     1      28.075  27.361   7.461  1.00  0.00    -0.507 OA
ATOM     23  H   UNL     1      28.813  28.024   7.281  1.00  0.00     0.293 HD
ENDBRANCH   6  22
BRANCH   8  24
ATOM     24  O   UNL     1      24.578  25.092   5.114  1.00  0.00    -0.508 OA
ATOM     25  H   UNL     1      23.861  25.128   4.400  1.00  0.00     0.293 HD
ENDBRANCH   8  24
TORSDOF 5
ENDMDL
MODEL 9
REMARK VINA RESULT:    -5.407      1.842      6.969
REMARK INTER + INTRA:          -6.650
REMARK INTER:                  -6.368
REMARK INTRA:                  -0.282
REMARK UNBOUND:                -0.294
REMARK SMILES O=c1cc(-c2ccc(O)c(O)c2)oc2cc(O)cc(O)c12
REMARK SMILES IDX 4 1 3 2 2 3 1 4 21 5 19 6 18 7 16 8 15 9 14 10 13 11 5 12
REMARK SMILES IDX 6 13 7 14 8 15 12 16 10 17 9 18 11 20 20 22 17 24
REMARK H PARENT 9 19 11 21 20 23 17 25
REMARK Flexibility Score: inf
ROOT
ATOM      1  C   UNL     1      21.993  32.081   5.986  1.00  0.00     0.138 A 
ATOM      2  C   UNL     1      22.536  32.375   7.244  1.00  0.00     0.100 A 
ATOM      3  C   UNL     1      22.024  33.442   7.984  1.00  0.00     0.197 A 
ATOM      4  O   UNL     1      22.495  33.646   9.133  1.00  0.00    -0.289 OA
ATOM      5  C   UNL     1      20.988  34.240   7.444  1.00  0.00     0.107 A 
ATOM      6  C   UNL     1      20.411  35.374   8.092  1.00  0.00     0.134 A 
ATOM      7  C   UNL     1      19.322  36.027   7.501  1.00  0.00     0.093 A 
ATOM      8  C   UNL     1      18.827  35.625   6.262  1.00  0.00     0.123 A 
ATOM      9  C   UNL     1      19.414  34.550   5.595  1.00  0.00     0.094 A 
ATOM     10  C   UNL     1      20.479  33.856   6.174  1.00  0.00     0.146 A 
ATOM     11  O   UNL     1      20.999  32.825   5.514  1.00  0.00    -0.456 OA
ENDROOT
BRANCH   1  12
ATOM     12  C   UNL     1      22.501  30.959   5.154  1.00  0.00     0.021 A 
ATOM     13  C   UNL     1      22.564  31.047   3.750  1.00  0.00     0.016 A 
ATOM     14  C   UNL     1      23.056  29.979   2.996  1.00  0.00     0.051 A 
ATOM     15  C   UNL     1      23.501  28.812   3.628  1.00  0.00     0.157 A 
ATOM     16  C   UNL     1      22.963  29.788   5.782  1.00  0.00     0.062 A 
ATOM     17  C   UNL     1      23.456  28.717   5.024  1.00  0.00     0.158 A 
BRANCH  15  18
ATOM     18  O   UNL     1      23.991  27.744   2.877  1.00  0.00    -0.504 OA
ATOM     19  H   UNL     1      23.691  26.792   3.052  1.00  0.00     0.293 HD
ENDBRANCH  15  18
BRANCH  17  20
ATOM     20  O   UNL     1      23.903  27.555   5.651  1.00  0.00    -0.504 OA
ATOM     21  H   UNL     1      24.420  26.845   5.145  1.00  0.00     0.293 HD
ENDBRANCH  17  20
ENDBRANCH   1  12
BRANCH   6  22
ATOM     22  O   UNL     1      20.879  35.911   9.295  1.00  0.00    -0.507 OA
ATOM     23  H   UNL     1      21.106  36.881   9.447  1.00  0.00     0.293 HD
ENDBRANCH   6  22
BRANCH   8  24
ATOM     24  O   UNL     1      17.751  36.309   5.697  1.00  0.00    -0.508 OA
ATOM     25  H   UNL     1      17.892  37.104   5.085  1.00  0.00     0.293 HD
ENDBRANCH   8  24
TORSDOF 5
ENDMDL
