MODEL 1
REMARK VINA RESULT:    -4.676      0.000      0.000
REMARK INTER + INTRA:         -10.734
REMARK INTER:                  -9.049
REMARK INTRA:                  -1.685
REMARK UNBOUND:                -1.685
REMARK SMILES CCCCCCCCCCCCCCCCCC(=O)[O-]
REMARK SMILES IDX 10 1 11 2 12 3 13 4 14 5 15 6 16 7 17 8 18 9 19 10 20 11
REMARK SMILES IDX 9 12 8 13 7 14 6 15 5 16 4 17 3 18 2 19 1 20
REMARK H PARENT
REMARK Flexibility Score: inf
ROOT
ATOM      1  C   UNL     1      -5.957  -1.816 -12.047  1.00  0.00     0.000 C 
ENDROOT
BRANCH   1   2
ATOM      2  C   UNL     1      -7.375  -2.184 -11.584  1.00  0.00     0.000 C 
BRANCH   2   3
ATOM      3  C   UNL     1      -8.382  -2.244 -12.744  1.00  0.00     0.000 C 
BRANCH   3   4
ATOM      4  C   UNL     1      -7.739  -2.709 -14.063  1.00  0.00     0.000 C 
BRANCH   4   5
ATOM      5  C   UNL     1      -7.940  -4.212 -14.318  1.00  0.00     0.000 C 
BRANCH   5   6
ATOM      6  C   UNL     1      -8.629  -4.494 -15.664  1.00  0.00     0.000 C 
BRANCH   6   7
ATOM      7  C   UNL     1      -9.974  -3.760 -15.811  1.00  0.00     0.006 C 
BRANCH   7   8
ATOM      8  C   UNL     1     -11.193  -4.687 -15.948  1.00  0.00     0.053 C 
BRANCH   8   9
ATOM      9  C   UNL     1     -11.734  -5.104 -14.615  1.00  0.00     0.041 C 
ATOM     10  O   UNL     1     -12.699  -4.480 -14.099  1.00  0.00    -0.550 OA
ATOM     11  O   UNL     1     -11.195  -6.202 -13.956  1.00  0.00    -0.550 OA
ENDBRANCH   8   9
ENDBRANCH   7   8
ENDBRANCH   6   7
ENDBRANCH   5   6
ENDBRANCH   4   5
ENDBRANCH   3   4
ENDBRANCH   2   3
ENDBRANCH   1   2
BRANCH   1  12
ATOM     12  C   UNL     1      -5.022  -1.618 -10.848  1.00  0.00     0.000 C 
BRANCH  12  13
ATOM     13  C   UNL     1      -5.803  -1.669  -9.526  1.00  0.00    -0.000 C 
BRANCH  13  14
ATOM     14  C   UNL     1      -5.866  -0.307  -8.813  1.00  0.00    -0.000 C 
BRANCH  14  15
ATOM     15  C   UNL     1      -7.104   0.547  -9.149  1.00  0.00    -0.000 C 
BRANCH  15  16
ATOM     16  C   UNL     1      -6.760   1.811  -9.952  1.00  0.00    -0.000 C 
BRANCH  16  17
ATOM     17  C   UNL     1      -5.253   2.094  -9.910  1.00  0.00    -0.000 C 
BRANCH  17  18
ATOM     18  C   UNL     1      -4.635   1.990 -11.313  1.00  0.00    -0.000 C 
BRANCH  18  19
ATOM     19  C   UNL     1      -3.118   2.231 -11.308  1.00  0.00    -0.003 C 
ATOM     20  C   UNL     1      -2.488   2.015  -9.933  1.00  0.00     0.004 C 
ENDBRANCH  18  19
ENDBRANCH  17  18
ENDBRANCH  16  17
ENDBRANCH  15  16
ENDBRANCH  14  15
ENDBRANCH  13  14
ENDBRANCH  12  13
ENDBRANCH   1  12
TORSDOF 16
ENDMDL
MODEL 2
REMARK VINA RESULT:    -4.671      3.681      8.691
REMARK INTER + INTRA:         -10.725
REMARK INTER:                  -9.063
REMARK INTRA:                  -1.661
REMARK UNBOUND:                -1.685
REMARK SMILES CCCCCCCCCCCCCCCCCC(=O)[O-]
REMARK SMILES IDX 10 1 11 2 12 3 13 4 14 5 15 6 16 7 17 8 18 9 19 10 20 11
REMARK SMILES IDX 9 12 8 13 7 14 6 15 5 16 4 17 3 18 2 19 1 20
REMARK H PARENT
REMARK Flexibility Score: inf
ROOT
ATOM      1  C   UNL     1      -6.991  -3.604 -14.632  1.00  0.00     0.000 C 
ENDROOT
BRANCH   1   2
ATOM      2  C   UNL     1      -6.356  -3.409 -13.247  1.00  0.00     0.000 C 
BRANCH   2   3
ATOM      3  C   UNL     1      -7.393  -3.091 -12.157  1.00  0.00     0.000 C 
BRANCH   3   4
ATOM      4  C   UNL     1      -6.765  -2.423 -10.921  1.00  0.00     0.000 C 
BRANCH   4   5
ATOM      5  C   UNL     1      -6.948  -0.897 -10.919  1.00  0.00     0.000 C 
BRANCH   5   6
ATOM      6  C   UNL     1      -6.376  -0.236  -9.652  1.00  0.00     0.000 C 
BRANCH   6   7
ATOM      7  C   UNL     1      -7.315   0.832  -9.062  1.00  0.00     0.006 C 
BRANCH   7   8
ATOM      8  C   UNL     1      -6.707   2.242  -8.988  1.00  0.00     0.053 C 
BRANCH   8   9
ATOM      9  C   UNL     1      -6.950   3.025 -10.242  1.00  0.00     0.041 C 
ATOM     10  O   UNL     1      -6.410   2.673 -11.324  1.00  0.00    -0.550 OA
ATOM     11  O   UNL     1      -7.797   4.125 -10.222  1.00  0.00    -0.550 OA
ENDBRANCH   8   9
ENDBRANCH   7   8
ENDBRANCH   6   7
ENDBRANCH   5   6
ENDBRANCH   4   5
ENDBRANCH   3   4
ENDBRANCH   2   3
ENDBRANCH   1   2
BRANCH   1  12
ATOM     12  C   UNL     1      -8.513  -3.435 -14.568  1.00  0.00     0.000 C 
BRANCH  12  13
ATOM     13  C   UNL     1      -9.170  -3.847 -15.893  1.00  0.00    -0.000 C 
BRANCH  13  14
ATOM     14  C   UNL     1     -10.707  -3.867 -15.821  1.00  0.00    -0.000 C 
BRANCH  14  15
ATOM     15  C   UNL     1     -11.332  -5.266 -15.658  1.00  0.00    -0.000 C 
BRANCH  15  16
ATOM     16  C   UNL     1     -11.480  -5.688 -14.189  1.00  0.00    -0.000 C 
BRANCH  16  17
ATOM     17  C   UNL     1     -10.760  -7.016 -13.924  1.00  0.00    -0.000 C 
BRANCH  17  18
ATOM     18  C   UNL     1      -9.768  -7.338 -15.052  1.00  0.00    -0.000 C 
BRANCH  18  19
ATOM     19  C   UNL     1      -8.321  -7.457 -14.550  1.00  0.00    -0.003 C 
ATOM     20  C   UNL     1      -8.109  -6.786 -13.193  1.00  0.00     0.004 C 
ENDBRANCH  18  19
ENDBRANCH  17  18
ENDBRANCH  16  17
ENDBRANCH  15  16
ENDBRANCH  14  15
ENDBRANCH  13  14
ENDBRANCH  12  13
ENDBRANCH   1  12
TORSDOF 16
ENDMDL
MODEL 3
REMARK VINA RESULT:    -4.651      1.087      2.352
REMARK INTER + INTRA:         -10.686
REMARK INTER:                  -8.947
REMARK INTRA:                  -1.739
REMARK UNBOUND:                -1.685
REMARK SMILES CCCCCCCCCCCCCCCCCC(=O)[O-]
REMARK SMILES IDX 10 1 11 2 12 3 13 4 14 5 15 6 16 7 17 8 18 9 19 10 20 11
REMARK SMILES IDX 9 12 8 13 7 14 6 15 5 16 4 17 3 18 2 19 1 20
REMARK H PARENT
REMARK Flexibility Score: inf
ROOT
ATOM      1  C   UNL     1      -7.190  -1.490 -11.620  1.00  0.00     0.000 C 
ENDROOT
BRANCH   1   2
ATOM      2  C   UNL     1      -7.811  -2.155 -12.858  1.00  0.00     0.000 C 
BRANCH   2   3
ATOM      3  C   UNL     1      -6.757  -2.732 -13.816  1.00  0.00     0.000 C 
BRANCH   3   4
ATOM      4  C   UNL     1      -7.360  -3.708 -14.842  1.00  0.00     0.000 C 
BRANCH   4   5
ATOM      5  C   UNL     1      -8.897  -3.696 -14.833  1.00  0.00     0.000 C 
BRANCH   5   6
ATOM      6  C   UNL     1      -9.499  -4.153 -16.173  1.00  0.00     0.000 C 
BRANCH   6   7
ATOM      7  C   UNL     1     -10.726  -5.066 -15.995  1.00  0.00     0.006 C 
BRANCH   7   8
ATOM      8  C   UNL     1     -12.077  -4.361 -16.197  1.00  0.00     0.053 C 
BRANCH   8   9
ATOM      9  C   UNL     1     -12.907  -4.369 -14.951  1.00  0.00     0.041 C 
ATOM     10  O   UNL     1     -14.088  -3.932 -14.972  1.00  0.00    -0.550 OA
ATOM     11  O   UNL     1     -12.388  -4.888 -13.771  1.00  0.00    -0.550 OA
ENDBRANCH   8   9
ENDBRANCH   7   8
ENDBRANCH   6   7
ENDBRANCH   5   6
ENDBRANCH   4   5
ENDBRANCH   3   4
ENDBRANCH   2   3
ENDBRANCH   1   2
BRANCH   1  12
ATOM     12  C   UNL     1      -6.543  -2.533 -10.703  1.00  0.00     0.000 C 
BRANCH  12  13
ATOM     13  C   UNL     1      -5.238  -1.998 -10.093  1.00  0.00    -0.000 C 
BRANCH  13  14
ATOM     14  C   UNL     1      -4.485  -1.038 -11.031  1.00  0.00    -0.000 C 
BRANCH  14  15
ATOM     15  C   UNL     1      -3.867   0.192 -10.342  1.00  0.00    -0.000 C 
BRANCH  15  16
ATOM     16  C   UNL     1      -3.935   1.460 -11.207  1.00  0.00    -0.000 C 
BRANCH  16  17
ATOM     17  C   UNL     1      -5.275   2.182 -11.019  1.00  0.00    -0.000 C 
BRANCH  17  18
ATOM     18  C   UNL     1      -5.726   2.130  -9.551  1.00  0.00    -0.000 C 
BRANCH  18  19
ATOM     19  C   UNL     1      -7.192   1.697  -9.400  1.00  0.00    -0.003 C 
ATOM     20  C   UNL     1      -7.356   0.466  -8.508  1.00  0.00     0.004 C 
ENDBRANCH  18  19
ENDBRANCH  17  18
ENDBRANCH  16  17
ENDBRANCH  15  16
ENDBRANCH  14  15
ENDBRANCH  13  14
ENDBRANCH  12  13
ENDBRANCH   1  12
TORSDOF 16
ENDMDL
MODEL 4
REMARK VINA RESULT:    -4.598      5.123      8.250
REMARK INTER + INTRA:         -10.585
REMARK INTER:                  -8.667
REMARK INTRA:                  -1.918
REMARK UNBOUND:                -1.685
REMARK SMILES CCCCCCCCCCCCCCCCCC(=O)[O-]
REMARK SMILES IDX 10 1 11 2 12 3 13 4 14 5 15 6 16 7 17 8 18 9 19 10 20 11
REMARK SMILES IDX 9 12 8 13 7 14 6 15 5 16 4 17 3 18 2 19 1 20
REMARK H PARENT
REMARK Flexibility Score: inf
ROOT
ATOM      1  C   UNL     1      -5.484  -0.913  -8.987  1.00  0.00     0.000 C 
ENDROOT
BRANCH   1   2
ATOM      2  C   UNL     1      -6.879  -0.404  -9.380  1.00  0.00     0.000 C 
BRANCH   2   3
ATOM      3  C   UNL     1      -7.249   0.916  -8.684  1.00  0.00     0.000 C 
BRANCH   3   4
ATOM      4  C   UNL     1      -6.362   2.091  -9.135  1.00  0.00     0.000 C 
BRANCH   4   5
ATOM      5  C   UNL     1      -6.432   2.334 -10.651  1.00  0.00     0.000 C 
BRANCH   5   6
ATOM      6  C   UNL     1      -5.053   2.239 -11.327  1.00  0.00     0.000 C 
BRANCH   6   7
ATOM      7  C   UNL     1      -3.902   2.096 -10.315  1.00  0.00     0.006 C 
BRANCH   7   8
ATOM      8  C   UNL     1      -2.583   1.590 -10.921  1.00  0.00     0.053 C 
BRANCH   8   9
ATOM      9  C   UNL     1      -1.686   2.716 -11.334  1.00  0.00     0.041 C 
ATOM     10  O   UNL     1      -1.178   3.474 -10.466  1.00  0.00    -0.550 OA
ATOM     11  O   UNL     1      -1.386   2.910 -12.677  1.00  0.00    -0.550 OA
ENDBRANCH   8   9
ENDBRANCH   7   8
ENDBRANCH   6   7
ENDBRANCH   5   6
ENDBRANCH   4   5
ENDBRANCH   3   4
ENDBRANCH   2   3
ENDBRANCH   1   2
BRANCH   1  12
ATOM     12  C   UNL     1      -4.790  -1.586 -10.176  1.00  0.00     0.000 C 
BRANCH  12  13
ATOM     13  C   UNL     1      -5.601  -1.396 -11.467  1.00  0.00    -0.000 C 
BRANCH  13  14
ATOM     14  C   UNL     1      -4.915  -2.007 -12.702  1.00  0.00    -0.000 C 
BRANCH  14  15
ATOM     15  C   UNL     1      -5.747  -3.065 -13.450  1.00  0.00    -0.000 C 
BRANCH  15  16
ATOM     16  C   UNL     1      -5.568  -3.000 -14.975  1.00  0.00    -0.000 C 
BRANCH  16  17
ATOM     17  C   UNL     1      -4.425  -2.051 -15.353  1.00  0.00    -0.000 C 
BRANCH  17  18
ATOM     18  C   UNL     1      -3.547  -2.660 -16.458  1.00  0.00    -0.000 C 
BRANCH  18  19
ATOM     19  C   UNL     1      -3.315  -1.692 -17.628  1.00  0.00    -0.003 C 
ATOM     20  C   UNL     1      -1.930  -1.047 -17.596  1.00  0.00     0.004 C 
ENDBRANCH  18  19
ENDBRANCH  17  18
ENDBRANCH  16  17
ENDBRANCH  15  16
ENDBRANCH  14  15
ENDBRANCH  13  14
ENDBRANCH  12  13
ENDBRANCH   1  12
TORSDOF 16
ENDMDL
MODEL 5
REMARK VINA RESULT:    -4.590      3.470      4.930
REMARK INTER + INTRA:         -10.568
REMARK INTER:                  -8.174
REMARK INTRA:                  -2.395
REMARK UNBOUND:                -1.685
REMARK SMILES CCCCCCCCCCCCCCCCCC(=O)[O-]
REMARK SMILES IDX 10 1 11 2 12 3 13 4 14 5 15 6 16 7 17 8 18 9 19 10 20 11
REMARK SMILES IDX 9 12 8 13 7 14 6 15 5 16 4 17 3 18 2 19 1 20
REMARK H PARENT
REMARK Flexibility Score: inf
ROOT
ATOM      1  C   UNL     1      -7.780  -5.524 -12.922  1.00  0.00     0.000 C 
ENDROOT
BRANCH   1   2
ATOM      2  C   UNL     1      -7.024  -5.858 -14.218  1.00  0.00     0.000 C 
BRANCH   2   3
ATOM      3  C   UNL     1      -7.508  -5.029 -15.419  1.00  0.00     0.000 C 
BRANCH   3   4
ATOM      4  C   UNL     1      -8.391  -3.840 -15.000  1.00  0.00     0.000 C 
BRANCH   4   5
ATOM      5  C   UNL     1      -9.662  -3.720 -15.856  1.00  0.00     0.000 C 
BRANCH   5   6
ATOM      6  C   UNL     1     -10.913  -4.242 -15.130  1.00  0.00     0.000 C 
BRANCH   6   7
ATOM      7  C   UNL     1     -11.137  -5.751 -15.339  1.00  0.00     0.006 C 
BRANCH   7   8
ATOM      8  C   UNL     1     -11.137  -6.580 -14.044  1.00  0.00     0.053 C 
BRANCH   8   9
ATOM      9  C   UNL     1     -10.532  -7.935 -14.244  1.00  0.00     0.041 C 
ATOM     10  O   UNL     1     -10.894  -8.903 -13.525  1.00  0.00    -0.550 OA
ATOM     11  O   UNL     1      -9.592  -8.137 -15.247  1.00  0.00    -0.550 OA
ENDBRANCH   8   9
ENDBRANCH   7   8
ENDBRANCH   6   7
ENDBRANCH   5   6
ENDBRANCH   4   5
ENDBRANCH   3   4
ENDBRANCH   2   3
ENDBRANCH   1   2
BRANCH   1  12
ATOM     12  C   UNL     1      -6.806  -5.147 -11.800  1.00  0.00     0.000 C 
BRANCH  12  13
ATOM     13  C   UNL     1      -6.484  -3.645 -11.830  1.00  0.00    -0.000 C 
BRANCH  13  14
ATOM     14  C   UNL     1      -5.045  -3.347 -12.287  1.00  0.00    -0.000 C 
BRANCH  14  15
ATOM     15  C   UNL     1      -4.872  -2.037 -13.078  1.00  0.00    -0.000 C 
BRANCH  15  16
ATOM     16  C   UNL     1      -5.037  -2.225 -14.593  1.00  0.00    -0.000 C 
BRANCH  16  17
ATOM     17  C   UNL     1      -4.196  -3.406 -15.095  1.00  0.00    -0.000 C 
BRANCH  17  18
ATOM     18  C   UNL     1      -3.881  -3.260 -16.591  1.00  0.00    -0.000 C 
BRANCH  18  19
ATOM     19  C   UNL     1      -3.610  -1.803 -16.998  1.00  0.00    -0.003 C 
ATOM     20  C   UNL     1      -3.020  -1.680 -18.402  1.00  0.00     0.004 C 
ENDBRANCH  18  19
ENDBRANCH  17  18
ENDBRANCH  16  17
ENDBRANCH  15  16
ENDBRANCH  14  15
ENDBRANCH  13  14
ENDBRANCH  12  13
ENDBRANCH   1  12
TORSDOF 16
ENDMDL
MODEL 6
REMARK VINA RESULT:    -4.570      3.613      8.095
REMARK INTER + INTRA:         -10.530
REMARK INTER:                  -8.498
REMARK INTRA:                  -2.031
REMARK UNBOUND:                -1.685
REMARK SMILES CCCCCCCCCCCCCCCCCC(=O)[O-]
REMARK SMILES IDX 10 1 11 2 12 3 13 4 14 5 15 6 16 7 17 8 18 9 19 10 20 11
REMARK SMILES IDX 9 12 8 13 7 14 6 15 5 16 4 17 3 18 2 19 1 20
REMARK H PARENT
REMARK Flexibility Score: inf
ROOT
ATOM      1  C   UNL     1      -5.921  -3.429 -11.991  1.00  0.00     0.000 C 
ENDROOT
BRANCH   1   2
ATOM      2  C   UNL     1      -7.180  -2.813 -11.362  1.00  0.00     0.000 C 
BRANCH   2   3
ATOM      3  C   UNL     1      -7.137  -1.277 -11.326  1.00  0.00     0.000 C 
BRANCH   3   4
ATOM      4  C   UNL     1      -6.783  -0.727  -9.933  1.00  0.00     0.000 C 
BRANCH   4   5
ATOM      5  C   UNL     1      -5.286  -0.406  -9.788  1.00  0.00     0.000 C 
BRANCH   5   6
ATOM      6  C   UNL     1      -4.765   0.495 -10.921  1.00  0.00     0.000 C 
BRANCH   6   7
ATOM      7  C   UNL     1      -4.986   1.993 -10.641  1.00  0.00     0.006 C 
BRANCH   7   8
ATOM      8  C   UNL     1      -6.262   2.574 -11.270  1.00  0.00     0.053 C 
BRANCH   8   9
ATOM      9  C   UNL     1      -7.140   3.235 -10.252  1.00  0.00     0.041 C 
ATOM     10  O   UNL     1      -7.733   4.312 -10.528  1.00  0.00    -0.550 OA
ATOM     11  O   UNL     1      -7.330   2.645  -9.009  1.00  0.00    -0.550 OA
ENDBRANCH   8   9
ENDBRANCH   7   8
ENDBRANCH   6   7
ENDBRANCH   5   6
ENDBRANCH   4   5
ENDBRANCH   3   4
ENDBRANCH   2   3
ENDBRANCH   1   2
BRANCH   1  12
ATOM     12  C   UNL     1      -5.274  -2.459 -12.985  1.00  0.00     0.000 C 
BRANCH  12  13
ATOM     13  C   UNL     1      -5.838  -2.662 -14.400  1.00  0.00    -0.000 C 
BRANCH  13  14
ATOM     14  C   UNL     1      -5.575  -4.073 -14.955  1.00  0.00    -0.000 C 
BRANCH  14  15
ATOM     15  C   UNL     1      -6.831  -4.830 -15.427  1.00  0.00    -0.000 C 
BRANCH  15  16
ATOM     16  C   UNL     1      -7.353  -5.831 -14.386  1.00  0.00    -0.000 C 
BRANCH  16  17
ATOM     17  C   UNL     1      -8.760  -5.447 -13.911  1.00  0.00    -0.000 C 
BRANCH  17  18
ATOM     18  C   UNL     1      -9.214  -4.125 -14.550  1.00  0.00    -0.000 C 
BRANCH  18  19
ATOM     19  C   UNL     1     -10.622  -4.217 -15.157  1.00  0.00    -0.003 C 
ATOM     20  C   UNL     1     -11.467  -5.324 -14.528  1.00  0.00     0.004 C 
ENDBRANCH  18  19
ENDBRANCH  17  18
ENDBRANCH  16  17
ENDBRANCH  15  16
ENDBRANCH  14  15
ENDBRANCH  13  14
ENDBRANCH  12  13
ENDBRANCH   1  12
TORSDOF 16
ENDMDL
MODEL 7
REMARK VINA RESULT:    -4.564      5.396      7.673
REMARK INTER + INTRA:         -10.518
REMARK INTER:                  -8.978
REMARK INTRA:                  -1.540
REMARK UNBOUND:                -1.685
REMARK SMILES CCCCCCCCCCCCCCCCCC(=O)[O-]
REMARK SMILES IDX 10 1 11 2 12 3 13 4 14 5 15 6 16 7 17 8 18 9 19 10 20 11
REMARK SMILES IDX 9 12 8 13 7 14 6 15 5 16 4 17 3 18 2 19 1 20
REMARK H PARENT
REMARK Flexibility Score: inf
ROOT
ATOM      1  C   UNL     1      -5.304  -2.396 -14.233  1.00  0.00     0.000 C 
ENDROOT
BRANCH   1   2
ATOM      2  C   UNL     1      -6.534  -3.210 -14.663  1.00  0.00     0.000 C 
BRANCH   2   3
ATOM      3  C   UNL     1      -7.648  -3.207 -13.604  1.00  0.00     0.000 C 
BRANCH   3   4
ATOM      4  C   UNL     1      -7.562  -1.996 -12.657  1.00  0.00     0.000 C 
BRANCH   4   5
ATOM      5  C   UNL     1      -7.454  -2.410 -11.181  1.00  0.00     0.000 C 
BRANCH   5   6
ATOM      6  C   UNL     1      -6.337  -1.656 -10.438  1.00  0.00     0.000 C 
BRANCH   6   7
ATOM      7  C   UNL     1      -6.527  -0.128 -10.470  1.00  0.00     0.006 C 
BRANCH   7   8
ATOM      8  C   UNL     1      -7.149   0.462  -9.194  1.00  0.00     0.053 C 
BRANCH   8   9
ATOM      9  C   UNL     1      -6.724   1.880  -8.965  1.00  0.00     0.041 C 
ATOM     10  O   UNL     1      -5.669   2.130  -8.324  1.00  0.00    -0.550 OA
ATOM     11  O   UNL     1      -7.475   2.925  -9.487  1.00  0.00    -0.550 OA
ENDBRANCH   8   9
ENDBRANCH   7   8
ENDBRANCH   6   7
ENDBRANCH   5   6
ENDBRANCH   4   5
ENDBRANCH   3   4
ENDBRANCH   2   3
ENDBRANCH   1   2
BRANCH   1  12
ATOM     12  C   UNL     1      -4.360  -2.162 -15.418  1.00  0.00     0.000 C 
BRANCH  12  13
ATOM     13  C   UNL     1      -3.877  -3.495 -16.010  1.00  0.00    -0.000 C 
BRANCH  13  14
ATOM     14  C   UNL     1      -3.433  -3.374 -17.478  1.00  0.00    -0.000 C 
BRANCH  14  15
ATOM     15  C   UNL     1      -3.382  -1.936 -18.026  1.00  0.00    -0.000 C 
BRANCH  15  16
ATOM     16  C   UNL     1      -2.241  -1.718 -19.032  1.00  0.00    -0.000 C 
BRANCH  16  17
ATOM     17  C   UNL     1      -0.924  -1.408 -18.309  1.00  0.00    -0.000 C 
BRANCH  17  18
ATOM     18  C   UNL     1      -1.161  -0.478 -17.110  1.00  0.00    -0.000 C 
BRANCH  18  19
ATOM     19  C   UNL     1      -0.187  -0.749 -15.952  1.00  0.00    -0.003 C 
ATOM     20  C   UNL     1      -0.711  -1.798 -14.971  1.00  0.00     0.004 C 
ENDBRANCH  18  19
ENDBRANCH  17  18
ENDBRANCH  16  17
ENDBRANCH  15  16
ENDBRANCH  14  15
ENDBRANCH  13  14
ENDBRANCH  12  13
ENDBRANCH   1  12
TORSDOF 16
ENDMDL
MODEL 8
REMARK VINA RESULT:    -4.564      3.864      8.402
REMARK INTER + INTRA:         -10.517
REMARK INTER:                  -8.468
REMARK INTRA:                  -2.049
REMARK UNBOUND:                -1.685
REMARK SMILES CCCCCCCCCCCCCCCCCC(=O)[O-]
REMARK SMILES IDX 10 1 11 2 12 3 13 4 14 5 15 6 16 7 17 8 18 9 19 10 20 11
REMARK SMILES IDX 9 12 8 13 7 14 6 15 5 16 4 17 3 18 2 19 1 20
REMARK H PARENT
REMARK Flexibility Score: inf
ROOT
ATOM      1  C   UNL     1      -5.881  -3.390 -14.305  1.00  0.00     0.000 C 
ENDROOT
BRANCH   1   2
ATOM      2  C   UNL     1      -4.773  -2.376 -13.980  1.00  0.00     0.000 C 
BRANCH   2   3
ATOM      3  C   UNL     1      -4.877  -1.819 -12.552  1.00  0.00     0.000 C 
BRANCH   3   4
ATOM      4  C   UNL     1      -4.885  -2.927 -11.483  1.00  0.00     0.000 C 
BRANCH   4   5
ATOM      5  C   UNL     1      -6.034  -2.764 -10.475  1.00  0.00     0.000 C 
BRANCH   5   6
ATOM      6  C   UNL     1      -6.660  -1.360 -10.516  1.00  0.00     0.000 C 
BRANCH   6   7
ATOM      7  C   UNL     1      -6.280  -0.502  -9.295  1.00  0.00     0.006 C 
BRANCH   7   8
ATOM      8  C   UNL     1      -7.272   0.630  -8.980  1.00  0.00     0.053 C 
BRANCH   8   9
ATOM      9  C   UNL     1      -6.587   1.956  -8.849  1.00  0.00     0.041 C 
ATOM     10  O   UNL     1      -6.888   2.904  -9.621  1.00  0.00    -0.550 OA
ATOM     11  O   UNL     1      -5.640   2.155  -7.853  1.00  0.00    -0.550 OA
ENDBRANCH   8   9
ENDBRANCH   7   8
ENDBRANCH   6   7
ENDBRANCH   5   6
ENDBRANCH   4   5
ENDBRANCH   3   4
ENDBRANCH   2   3
ENDBRANCH   1   2
BRANCH   1  12
ATOM     12  C   UNL     1      -7.258  -2.718 -14.299  1.00  0.00     0.000 C 
BRANCH  12  13
ATOM     13  C   UNL     1      -8.280  -3.560 -13.520  1.00  0.00    -0.000 C 
BRANCH  13  14
ATOM     14  C   UNL     1      -7.700  -4.894 -13.016  1.00  0.00    -0.000 C 
BRANCH  14  15
ATOM     15  C   UNL     1      -8.454  -6.151 -13.490  1.00  0.00    -0.000 C 
BRANCH  15  16
ATOM     16  C   UNL     1      -8.798  -6.114 -14.987  1.00  0.00    -0.000 C 
BRANCH  16  17
ATOM     17  C   UNL     1     -10.261  -6.508 -15.223  1.00  0.00    -0.000 C 
BRANCH  17  18
ATOM     18  C   UNL     1     -11.128  -6.166 -14.001  1.00  0.00    -0.000 C 
BRANCH  18  19
ATOM     19  C   UNL     1     -12.066  -4.976 -14.258  1.00  0.00    -0.003 C 
ATOM     20  C   UNL     1     -11.870  -4.356 -15.641  1.00  0.00     0.004 C 
ENDBRANCH  18  19
ENDBRANCH  17  18
ENDBRANCH  16  17
ENDBRANCH  15  16
ENDBRANCH  14  15
ENDBRANCH  13  14
ENDBRANCH  12  13
ENDBRANCH   1  12
TORSDOF 16
ENDMDL
MODEL 9
REMARK VINA RESULT:    -4.505      2.043      3.337
REMARK INTER + INTRA:         -10.404
REMARK INTER:                  -7.962
REMARK INTRA:                  -2.442
REMARK UNBOUND:                -1.685
REMARK SMILES CCCCCCCCCCCCCCCCCC(=O)[O-]
REMARK SMILES IDX 10 1 11 2 12 3 13 4 14 5 15 6 16 7 17 8 18 9 19 10 20 11
REMARK SMILES IDX 9 12 8 13 7 14 6 15 5 16 4 17 3 18 2 19 1 20
REMARK H PARENT
REMARK Flexibility Score: inf
ROOT
ATOM      1  C   UNL     1      -7.351  -5.137 -10.740  1.00  0.00     0.000 C 
ENDROOT
BRANCH   1   2
ATOM      2  C   UNL     1      -6.942  -5.634 -12.135  1.00  0.00     0.000 C 
BRANCH   2   3
ATOM      3  C   UNL     1      -8.107  -5.614 -13.138  1.00  0.00     0.000 C 
BRANCH   3   4
ATOM      4  C   UNL     1      -7.693  -6.108 -14.536  1.00  0.00     0.000 C 
BRANCH   4   5
ATOM      5  C   UNL     1      -7.964  -5.066 -15.633  1.00  0.00     0.000 C 
BRANCH   5   6
ATOM      6  C   UNL     1      -8.872  -3.922 -15.148  1.00  0.00     0.000 C 
BRANCH   6   7
ATOM      7  C   UNL     1     -10.087  -3.696 -16.066  1.00  0.00     0.006 C 
BRANCH   7   8
ATOM      8  C   UNL     1     -11.034  -4.903 -16.174  1.00  0.00     0.053 C 
BRANCH   8   9
ATOM      9  C   UNL     1     -11.867  -5.075 -14.940  1.00  0.00     0.041 C 
ATOM     10  O   UNL     1     -12.909  -4.387 -14.777  1.00  0.00    -0.550 OA
ATOM     11  O   UNL     1     -11.509  -6.019 -13.985  1.00  0.00    -0.550 OA
ENDBRANCH   8   9
ENDBRANCH   7   8
ENDBRANCH   6   7
ENDBRANCH   5   6
ENDBRANCH   4   5
ENDBRANCH   3   4
ENDBRANCH   2   3
ENDBRANCH   1   2
BRANCH   1  12
ATOM     12  C   UNL     1      -6.220  -5.354  -9.728  1.00  0.00     0.000 C 
BRANCH  12  13
ATOM     13  C   UNL     1      -4.977  -4.534 -10.105  1.00  0.00    -0.000 C 
BRANCH  13  14
ATOM     14  C   UNL     1      -4.561  -3.536  -9.011  1.00  0.00    -0.000 C 
BRANCH  14  15
ATOM     15  C   UNL     1      -4.378  -2.083  -9.490  1.00  0.00    -0.000 C 
BRANCH  15  16
ATOM     16  C   UNL     1      -5.653  -1.239  -9.343  1.00  0.00    -0.000 C 
BRANCH  16  17
ATOM     17  C   UNL     1      -6.137  -0.732 -10.707  1.00  0.00    -0.000 C 
BRANCH  17  18
ATOM     18  C   UNL     1      -7.360  -1.528 -11.187  1.00  0.00    -0.000 C 
BRANCH  18  19
ATOM     19  C   UNL     1      -7.208  -2.028 -12.632  1.00  0.00    -0.003 C 
ATOM     20  C   UNL     1      -5.756  -2.325 -13.006  1.00  0.00     0.004 C 
ENDBRANCH  18  19
ENDBRANCH  17  18
ENDBRANCH  16  17
ENDBRANCH  15  16
ENDBRANCH  14  15
ENDBRANCH  13  14
ENDBRANCH  12  13
ENDBRANCH   1  12
TORSDOF 16
ENDMDL
