MODEL 1
REMARK VINA RESULT:    -3.391      0.000      0.000
REMARK INTER + INTRA:          -3.490
REMARK INTER:                  -3.490
REMARK INTRA:                   0.000
REMARK UNBOUND:                 0.000
REMARK SMILES CC1(C)[C@@H]2CC[C@@](C)(C2)[C@H]1O
REMARK SMILES IDX 1 1 2 2 4 3 5 4 6 5 7 6 9 7 10 8 8 9 3 10 11 11
REMARK H PARENT 11 12
REMARK Flexibility Score: inf
ROOT
ATOM      1  C   UNL     1     143.380 143.971 143.759  1.00  0.00     0.014 C 
ATOM      2  C   UNL     1     143.591 143.005 142.562  1.00  0.00    -0.006 C 
ATOM      3  C   UNL     1     145.118 142.700 142.391  1.00  0.00    -0.002 C 
ATOM      4  C   UNL     1     145.400 141.986 141.053  1.00  0.00     0.005 C 
ATOM      5  C   UNL     1     144.744 140.612 141.255  1.00  0.00     0.010 C 
ATOM      6  C   UNL     1     144.269 140.674 142.725  1.00  0.00    -0.006 C 
ATOM      7  C   UNL     1     145.331 141.547 143.356  1.00  0.00     0.013 C 
ATOM      8  C   UNL     1     143.004 141.574 142.808  1.00  0.00     0.126 C 
ATOM      9  C   UNL     1     144.130 139.289 143.374  1.00  0.00     0.014 C 
ATOM     10  C   UNL     1     142.949 143.669 141.319  1.00  0.00     0.014 C 
ENDROOT
BRANCH   8  11
ATOM     11  O   UNL     1     142.393 141.474 144.073  1.00  0.00    -0.392 OA
ATOM     12  H   UNL     1     141.483 141.862 143.987  1.00  0.00     0.211 HD
ENDBRANCH   8  11
TORSDOF 1
ENDMDL
MODEL 2
REMARK VINA RESULT:    -3.386      3.720      5.285
REMARK INTER + INTRA:          -3.485
REMARK INTER:                  -3.485
REMARK INTRA:                   0.000
REMARK UNBOUND:                 0.000
REMARK SMILES CC1(C)[C@@H]2CC[C@@](C)(C2)[C@H]1O
REMARK SMILES IDX 1 1 2 2 4 3 5 4 6 5 7 6 9 7 10 8 8 9 3 10 11 11
REMARK H PARENT 11 12
REMARK Flexibility Score: inf
ROOT
ATOM      1  C   UNL     1     137.646 143.400 143.714  1.00  0.00     0.014 C 
ATOM      2  C   UNL     1     138.613 143.554 142.511  1.00  0.00    -0.006 C 
ATOM      3  C   UNL     1     138.961 145.067 142.301  1.00  0.00    -0.002 C 
ATOM      4  C   UNL     1     139.678 145.296 140.955  1.00  0.00     0.005 C 
ATOM      5  C   UNL     1     141.034 144.607 141.170  1.00  0.00     0.010 C 
ATOM      6  C   UNL     1     140.964 144.170 142.651  1.00  0.00    -0.006 C 
ATOM      7  C   UNL     1     140.123 145.270 143.258  1.00  0.00     0.013 C 
ATOM      8  C   UNL     1     140.029 142.932 142.767  1.00  0.00     0.126 C 
ATOM      9  C   UNL     1     142.346 144.007 143.299  1.00  0.00     0.014 C 
ATOM     10  C   UNL     1     137.928 142.901 141.285  1.00  0.00     0.014 C 
ENDROOT
BRANCH   8  11
ATOM     11  O   UNL     1     140.115 142.350 144.046  1.00  0.00    -0.392 OA
ATOM     12  H   UNL     1     139.450 142.812 144.621  1.00  0.00     0.211 HD
ENDBRANCH   8  11
TORSDOF 1
ENDMDL
MODEL 3
REMARK VINA RESULT:    -3.375      3.716      5.301
REMARK INTER + INTRA:          -3.474
REMARK INTER:                  -3.474
REMARK INTRA:                   0.000
REMARK UNBOUND:                 0.000
REMARK SMILES CC1(C)[C@@H]2CC[C@@](C)(C2)[C@H]1O
REMARK SMILES IDX 1 1 2 2 4 3 5 4 6 5 7 6 9 7 10 8 8 9 3 10 11 11
REMARK H PARENT 11 12
REMARK Flexibility Score: inf
ROOT
ATOM      1  C   UNL     1     144.023 138.252 143.715  1.00  0.00     0.014 C 
ATOM      2  C   UNL     1     143.029 138.059 142.539  1.00  0.00    -0.006 C 
ATOM      3  C   UNL     1     142.698 136.536 142.370  1.00  0.00    -0.002 C 
ATOM      4  C   UNL     1     141.952 136.269 141.046  1.00  0.00     0.005 C 
ATOM      5  C   UNL     1     140.592 136.943 141.280  1.00  0.00     0.010 C 
ATOM      6  C   UNL     1     140.692 137.413 142.750  1.00  0.00    -0.006 C 
ATOM      7  C   UNL     1     141.563 136.337 143.359  1.00  0.00     0.013 C 
ATOM      8  C   UNL     1     141.611 138.665 142.817  1.00  0.00     0.126 C 
ATOM      9  C   UNL     1     139.323 137.569 143.428  1.00  0.00     0.014 C 
ATOM     10  C   UNL     1     143.674 138.695 141.283  1.00  0.00     0.014 C 
ENDROOT
BRANCH   8  11
ATOM     11  O   UNL     1     141.547 139.273 144.086  1.00  0.00    -0.392 OA
ATOM     12  H   UNL     1     141.909 140.192 143.986  1.00  0.00     0.211 HD
ENDBRANCH   8  11
TORSDOF 1
ENDMDL
MODEL 4
REMARK VINA RESULT:    -3.358      5.920      7.496
REMARK INTER + INTRA:          -3.457
REMARK INTER:                  -3.457
REMARK INTRA:                   0.000
REMARK UNBOUND:                 0.000
REMARK SMILES CC1(C)[C@@H]2CC[C@@](C)(C2)[C@H]1O
REMARK SMILES IDX 1 1 2 2 4 3 5 4 6 5 7 6 9 7 10 8 8 9 3 10 11 11
REMARK H PARENT 11 12
REMARK Flexibility Score: inf
ROOT
ATOM      1  C   UNL     1     138.260 137.636 143.778  1.00  0.00     0.014 C 
ATOM      2  C   UNL     1     138.072 138.582 142.563  1.00  0.00    -0.006 C 
ATOM      3  C   UNL     1     136.552 138.918 142.384  1.00  0.00    -0.002 C 
ATOM      4  C   UNL     1     136.286 139.612 141.031  1.00  0.00     0.005 C 
ATOM      5  C   UNL     1     136.972 140.975 141.208  1.00  0.00     0.010 C 
ATOM      6  C   UNL     1     137.445 140.931 142.679  1.00  0.00    -0.006 C 
ATOM      7  C   UNL     1     136.364 140.094 143.325  1.00  0.00     0.013 C 
ATOM      8  C   UNL     1     138.690 140.005 142.781  1.00  0.00     0.126 C 
ATOM      9  C   UNL     1     137.614 142.325 143.301  1.00  0.00     0.014 C 
ATOM     10  C   UNL     1     138.699 137.881 141.333  1.00  0.00     0.014 C 
ENDROOT
BRANCH   8  11
ATOM     11  O   UNL     1     139.302 140.116 144.045  1.00  0.00    -0.392 OA
ATOM     12  H   UNL     1     138.656 139.764 144.712  1.00  0.00     0.211 HD
ENDBRANCH   8  11
TORSDOF 1
ENDMDL
MODEL 5
REMARK VINA RESULT:    -3.231      4.254      6.073
REMARK INTER + INTRA:          -3.325
REMARK INTER:                  -3.325
REMARK INTRA:                   0.000
REMARK UNBOUND:                 0.000
REMARK SMILES CC1(C)[C@@H]2CC[C@@](C)(C2)[C@H]1O
REMARK SMILES IDX 1 1 2 2 4 3 5 4 6 5 7 6 9 7 10 8 8 9 3 10 11 11
REMARK H PARENT 11 12
REMARK Flexibility Score: inf
ROOT
ATOM      1  C   UNL     1     141.724 135.403 141.229  1.00  0.00     0.014 C 
ATOM      2  C   UNL     1     141.234 136.701 141.923  1.00  0.00    -0.006 C 
ATOM      3  C   UNL     1     140.885 136.401 143.421  1.00  0.00    -0.002 C 
ATOM      4  C   UNL     1     140.127 137.579 144.067  1.00  0.00     0.005 C 
ATOM      5  C   UNL     1     141.196 138.681 144.125  1.00  0.00     0.010 C 
ATOM      6  C   UNL     1     142.461 137.956 143.609  1.00  0.00    -0.006 C 
ATOM      7  C   UNL     1     142.232 136.546 144.105  1.00  0.00     0.013 C 
ATOM      8  C   UNL     1     142.352 137.790 142.067  1.00  0.00     0.126 C 
ATOM      9  C   UNL     1     143.766 138.592 144.107  1.00  0.00     0.014 C 
ATOM     10  C   UNL     1     140.033 137.235 141.103  1.00  0.00     0.014 C 
ENDROOT
BRANCH   8  11
ATOM     11  O   UNL     1     143.573 137.354 141.517  1.00  0.00    -0.392 OA
ATOM     12  H   UNL     1     144.298 137.785 142.042  1.00  0.00     0.211 HD
ENDBRANCH   8  11
TORSDOF 1
ENDMDL
MODEL 6
REMARK VINA RESULT:    -3.213      1.669      2.744
REMARK INTER + INTRA:          -3.307
REMARK INTER:                  -3.307
REMARK INTRA:                   0.000
REMARK UNBOUND:                 0.000
REMARK SMILES CC1(C)[C@@H]2CC[C@@](C)(C2)[C@H]1O
REMARK SMILES IDX 1 1 2 2 4 3 5 4 6 5 7 6 9 7 10 8 8 9 3 10 11 11
REMARK H PARENT 11 12
REMARK Flexibility Score: inf
ROOT
ATOM      1  C   UNL     1     141.769 143.330 142.086  1.00  0.00     0.014 C 
ATOM      2  C   UNL     1     143.113 143.015 142.794  1.00  0.00    -0.006 C 
ATOM      3  C   UNL     1     143.173 141.493 143.162  1.00  0.00    -0.002 C 
ATOM      4  C   UNL     1     144.349 141.193 144.115  1.00  0.00     0.005 C 
ATOM      5  C   UNL     1     145.578 141.431 143.224  1.00  0.00     0.010 C 
ATOM      6  C   UNL     1     144.947 141.727 141.844  1.00  0.00    -0.006 C 
ATOM      7  C   UNL     1     143.703 140.868 141.883  1.00  0.00     0.013 C 
ATOM      8  C   UNL     1     144.360 143.167 141.857  1.00  0.00     0.126 C 
ATOM      9  C   UNL     1     145.887 141.416 140.671  1.00  0.00     0.014 C 
ATOM     10  C   UNL     1     143.216 143.953 144.022  1.00  0.00     0.014 C 
ENDROOT
BRANCH   8  11
ATOM     11  O   UNL     1     143.988 143.574 140.561  1.00  0.00    -0.392 OA
ATOM     12  H   UNL     1     143.231 142.995 140.281  1.00  0.00     0.211 HD
ENDBRANCH   8  11
TORSDOF 1
ENDMDL
MODEL 7
REMARK VINA RESULT:    -3.210      1.556      3.226
REMARK INTER + INTRA:          -3.303
REMARK INTER:                  -3.303
REMARK INTRA:                   0.000
REMARK UNBOUND:                 0.000
REMARK SMILES CC1(C)[C@@H]2CC[C@@](C)(C2)[C@H]1O
REMARK SMILES IDX 1 1 2 2 4 3 5 4 6 5 7 6 9 7 10 8 8 9 3 10 11 11
REMARK H PARENT 11 12
REMARK Flexibility Score: inf
ROOT
ATOM      1  C   UNL     1     146.162 141.749 141.122  1.00  0.00     0.014 C 
ATOM      2  C   UNL     1     144.881 141.280 141.861  1.00  0.00    -0.006 C 
ATOM      3  C   UNL     1     145.221 140.958 143.357  1.00  0.00    -0.002 C 
ATOM      4  C   UNL     1     144.057 140.219 144.049  1.00  0.00     0.005 C 
ATOM      5  C   UNL     1     142.964 141.297 144.118  1.00  0.00     0.010 C 
ATOM      6  C   UNL     1     143.681 142.547 143.558  1.00  0.00    -0.006 C 
ATOM      7  C   UNL     1     145.103 142.319 144.019  1.00  0.00     0.013 C 
ATOM      8  C   UNL     1     143.804 142.408 142.014  1.00  0.00     0.126 C 
ATOM      9  C   UNL     1     143.067 143.866 144.049  1.00  0.00     0.014 C 
ATOM     10  C   UNL     1     144.317 140.068 141.080  1.00  0.00     0.014 C 
ENDROOT
BRANCH   8  11
ATOM     11  O   UNL     1     144.231 143.616 141.429  1.00  0.00    -0.392 OA
ATOM     12  H   UNL     1     144.866 143.378 140.703  1.00  0.00     0.211 HD
ENDBRANCH   8  11
TORSDOF 1
ENDMDL
MODEL 8
REMARK VINA RESULT:    -3.202      6.139      7.696
REMARK INTER + INTRA:          -3.296
REMARK INTER:                  -3.296
REMARK INTRA:                   0.000
REMARK UNBOUND:                 0.000
REMARK SMILES CC1(C)[C@@H]2CC[C@@](C)(C2)[C@H]1O
REMARK SMILES IDX 1 1 2 2 4 3 5 4 6 5 7 6 9 7 10 8 8 9 3 10 11 11
REMARK H PARENT 11 12
REMARK Flexibility Score: inf
ROOT
ATOM      1  C   UNL     1     139.847 138.179 142.123  1.00  0.00     0.014 C 
ATOM      2  C   UNL     1     138.499 138.531 142.808  1.00  0.00    -0.006 C 
ATOM      3  C   UNL     1     138.481 140.050 143.192  1.00  0.00    -0.002 C 
ATOM      4  C   UNL     1     137.297 140.378 144.125  1.00  0.00     0.005 C 
ATOM      5  C   UNL     1     136.079 140.189 143.208  1.00  0.00     0.010 C 
ATOM      6  C   UNL     1     136.727 139.888 141.837  1.00  0.00    -0.006 C 
ATOM      7  C   UNL     1     137.998 140.705 141.911  1.00  0.00     0.013 C 
ATOM      8  C   UNL     1     137.267 138.429 141.845  1.00  0.00     0.126 C 
ATOM      9  C   UNL     1     135.822 140.243 140.650  1.00  0.00     0.014 C 
ATOM     10  C   UNL     1     138.341 137.584 144.023  1.00  0.00     0.014 C 
ENDROOT
BRANCH   8  11
ATOM     11  O   UNL     1     137.652 138.024 140.552  1.00  0.00    -0.392 OA
ATOM     12  H   UNL     1     137.221 138.650 139.912  1.00  0.00     0.211 HD
ENDBRANCH   8  11
TORSDOF 1
ENDMDL
MODEL 9
REMARK VINA RESULT:    -3.194      6.345      7.495
REMARK INTER + INTRA:          -3.287
REMARK INTER:                  -3.287
REMARK INTRA:                   0.000
REMARK UNBOUND:                 0.000
REMARK SMILES CC1(C)[C@@H]2CC[C@@](C)(C2)[C@H]1O
REMARK SMILES IDX 1 1 2 2 4 3 5 4 6 5 7 6 9 7 10 8 8 9 3 10 11 11
REMARK H PARENT 11 12
REMARK Flexibility Score: inf
ROOT
ATOM      1  C   UNL     1     135.439 139.875 141.055  1.00  0.00     0.014 C 
ATOM      2  C   UNL     1     136.719 140.310 141.816  1.00  0.00    -0.006 C 
ATOM      3  C   UNL     1     136.379 140.558 143.326  1.00  0.00    -0.002 C 
ATOM      4  C   UNL     1     137.542 141.265 144.053  1.00  0.00     0.005 C 
ATOM      5  C   UNL     1     138.637 140.188 144.069  1.00  0.00     0.010 C 
ATOM      6  C   UNL     1     137.923 138.965 143.449  1.00  0.00    -0.006 C 
ATOM      7  C   UNL     1     136.500 139.167 143.921  1.00  0.00     0.013 C 
ATOM      8  C   UNL     1     137.799 139.179 141.914  1.00  0.00     0.126 C 
ATOM      9  C   UNL     1     138.540 137.625 143.875  1.00  0.00     0.014 C 
ATOM     10  C   UNL     1     137.280 141.560 141.095  1.00  0.00     0.014 C 
ENDROOT
BRANCH   8  11
ATOM     11  O   UNL     1     137.374 138.000 141.271  1.00  0.00    -0.392 OA
ATOM     12  H   UNL     1     137.916 137.909 140.444  1.00  0.00     0.211 HD
ENDBRANCH   8  11
TORSDOF 1
ENDMDL
