MODEL 1
REMARK VINA RESULT:    -3.826      0.000      0.000
REMARK INTER + INTRA:          -8.434
REMARK INTER:                  -6.957
REMARK INTRA:                  -1.477
REMARK UNBOUND:                -1.477
REMARK SMILES CCCCCCCCCCCCCCCC(=O)[O-]
REMARK SMILES IDX 9 1 10 2 11 3 12 4 13 5 14 6 15 7 16 8 17 9 18 10 8 11 7 12
REMARK SMILES IDX 6 13 5 14 4 15 3 16 2 17 1 18
REMARK H PARENT
REMARK Flexibility Score: inf
ROOT
ATOM      1  C   UNL     1      13.261 -10.262  18.603  1.00  0.00     0.000 C 
ENDROOT
BRANCH   1   2
ATOM      2  C   UNL     1      13.117 -10.657  17.123  1.00  0.00     0.000 C 
BRANCH   2   3
ATOM      3  C   UNL     1      11.956  -9.928  16.425  1.00  0.00     0.000 C 
BRANCH   3   4
ATOM      4  C   UNL     1      11.232 -10.815  15.397  1.00  0.00     0.000 C 
BRANCH   4   5
ATOM      5  C   UNL     1      11.660 -10.514  13.952  1.00  0.00     0.000 C 
BRANCH   5   6
ATOM      6  C   UNL     1      10.467 -10.431  12.984  1.00  0.00     0.006 C 
BRANCH   6   7
ATOM      7  C   UNL     1      10.510  -9.162  12.122  1.00  0.00     0.053 C 
BRANCH   7   8
ATOM      8  C   UNL     1       9.428  -9.157  11.086  1.00  0.00     0.041 C 
ATOM      9  O   UNL     1       9.539  -8.442  10.055  1.00  0.00    -0.550 OA
ATOM     10  O   UNL     1       8.282  -9.920  11.272  1.00  0.00    -0.550 OA
ENDBRANCH   7   8
ENDBRANCH   6   7
ENDBRANCH   5   6
ENDBRANCH   4   5
ENDBRANCH   3   4
ENDBRANCH   2   3
ENDBRANCH   1   2
BRANCH   1  11
ATOM     11  C   UNL     1      12.568  -8.928  18.925  1.00  0.00     0.000 C 
BRANCH  11  12
ATOM     12  C   UNL     1      12.371  -8.714  20.435  1.00  0.00    -0.000 C 
BRANCH  12  13
ATOM     13  C   UNL     1      11.037  -9.283  20.949  1.00  0.00    -0.000 C 
BRANCH  13  14
ATOM     14  C   UNL     1       9.884  -9.174  19.930  1.00  0.00    -0.000 C 
BRANCH  14  15
ATOM     15  C   UNL     1       8.611  -9.885  20.415  1.00  0.00    -0.000 C 
BRANCH  15  16
ATOM     16  C   UNL     1       8.481 -11.276  19.783  1.00  0.00    -0.000 C 
BRANCH  16  17
ATOM     17  C   UNL     1       9.587 -11.516  18.749  1.00  0.00    -0.003 C 
ATOM     18  C   UNL     1      10.495 -12.667  19.169  1.00  0.00     0.004 C 
ENDBRANCH  16  17
ENDBRANCH  15  16
ENDBRANCH  14  15
ENDBRANCH  13  14
ENDBRANCH  12  13
ENDBRANCH  11  12
ENDBRANCH   1  11
TORSDOF 14
ENDMDL
MODEL 2
REMARK VINA RESULT:    -3.770      1.698      2.544
REMARK INTER + INTRA:          -8.333
REMARK INTER:                  -7.287
REMARK INTRA:                  -1.046
REMARK UNBOUND:                -1.477
REMARK SMILES CCCCCCCCCCCCCCCC(=O)[O-]
REMARK SMILES IDX 9 1 10 2 11 3 12 4 13 5 14 6 15 7 16 8 17 9 18 10 8 11 7 12
REMARK SMILES IDX 6 13 5 14 4 15 3 16 2 17 1 18
REMARK H PARENT
REMARK Flexibility Score: inf
ROOT
ATOM      1  C   UNL     1      11.294  -9.793  18.113  1.00  0.00     0.000 C 
ENDROOT
BRANCH   1   2
ATOM      2  C   UNL     1      12.340 -10.305  17.107  1.00  0.00     0.000 C 
BRANCH   2   3
ATOM      3  C   UNL     1      11.902 -11.602  16.407  1.00  0.00     0.000 C 
BRANCH   3   4
ATOM      4  C   UNL     1      10.871 -11.355  15.292  1.00  0.00     0.000 C 
BRANCH   4   5
ATOM      5  C   UNL     1      11.274 -10.200  14.361  1.00  0.00     0.000 C 
BRANCH   5   6
ATOM      6  C   UNL     1      10.866 -10.448  12.897  1.00  0.00     0.006 C 
BRANCH   6   7
ATOM      7  C   UNL     1      10.618  -9.138  12.138  1.00  0.00     0.053 C 
BRANCH   7   8
ATOM      8  C   UNL     1       9.444  -9.245  11.214  1.00  0.00     0.041 C 
ATOM      9  O   UNL     1       9.457  -8.657  10.100  1.00  0.00    -0.550 OA
ATOM     10  O   UNL     1       8.323  -9.970  11.595  1.00  0.00    -0.550 OA
ENDBRANCH   7   8
ENDBRANCH   6   7
ENDBRANCH   5   6
ENDBRANCH   4   5
ENDBRANCH   3   4
ENDBRANCH   2   3
ENDBRANCH   1   2
BRANCH   1  11
ATOM     11  C   UNL     1      11.123 -10.737  19.315  1.00  0.00     0.000 C 
BRANCH  11  12
ATOM     12  C   UNL     1       9.738 -11.405  19.347  1.00  0.00    -0.000 C 
BRANCH  12  13
ATOM     13  C   UNL     1       8.991 -11.166  20.671  1.00  0.00    -0.000 C 
BRANCH  13  14
ATOM     14  C   UNL     1       8.848 -12.434  21.538  1.00  0.00    -0.000 C 
BRANCH  14  15
ATOM     15  C   UNL     1       9.831 -13.538  21.119  1.00  0.00    -0.000 C 
BRANCH  15  16
ATOM     16  C   UNL     1      10.737 -13.943  22.288  1.00  0.00    -0.000 C 
BRANCH  16  17
ATOM     17  C   UNL     1      12.101 -14.428  21.786  1.00  0.00    -0.003 C 
ATOM     18  C   UNL     1      12.269 -14.156  20.294  1.00  0.00     0.004 C 
ENDBRANCH  16  17
ENDBRANCH  15  16
ENDBRANCH  14  15
ENDBRANCH  13  14
ENDBRANCH  12  13
ENDBRANCH  11  12
ENDBRANCH   1  11
TORSDOF 14
ENDMDL
MODEL 3
REMARK VINA RESULT:    -3.731      3.268      6.893
REMARK INTER + INTRA:          -8.262
REMARK INTER:                  -6.709
REMARK INTRA:                  -1.553
REMARK UNBOUND:                -1.477
REMARK SMILES CCCCCCCCCCCCCCCC(=O)[O-]
REMARK SMILES IDX 9 1 10 2 11 3 12 4 13 5 14 6 15 7 16 8 17 9 18 10 8 11 7 12
REMARK SMILES IDX 6 13 5 14 4 15 3 16 2 17 1 18
REMARK H PARENT
REMARK Flexibility Score: inf
ROOT
ATOM      1  C   UNL     1      12.058  -9.662  17.962  1.00  0.00     0.000 C 
ENDROOT
BRANCH   1   2
ATOM      2  C   UNL     1      12.702  -9.148  19.263  1.00  0.00     0.000 C 
BRANCH   2   3
ATOM      3  C   UNL     1      13.961  -9.940  19.653  1.00  0.00     0.000 C 
BRANCH   3   4
ATOM      4  C   UNL     1      13.653 -11.113  20.601  1.00  0.00     0.000 C 
BRANCH   4   5
ATOM      5  C   UNL     1      13.682 -12.473  19.886  1.00  0.00     0.000 C 
BRANCH   5   6
ATOM      6  C   UNL     1      12.490 -13.370  20.267  1.00  0.00     0.006 C 
BRANCH   6   7
ATOM      7  C   UNL     1      11.334 -13.252  19.265  1.00  0.00     0.053 C 
BRANCH   7   8
ATOM      8  C   UNL     1      10.282 -12.298  19.741  1.00  0.00     0.041 C 
ATOM      9  O   UNL     1      10.192 -12.010  20.964  1.00  0.00    -0.550 OA
ATOM     10  O   UNL     1       9.382 -11.748  18.838  1.00  0.00    -0.550 OA
ENDBRANCH   7   8
ENDBRANCH   6   7
ENDBRANCH   5   6
ENDBRANCH   4   5
ENDBRANCH   3   4
ENDBRANCH   2   3
ENDBRANCH   1   2
BRANCH   1  11
ATOM     11  C   UNL     1      13.092 -10.252  16.989  1.00  0.00     0.000 C 
BRANCH  11  12
ATOM     12  C   UNL     1      12.604 -11.552  16.328  1.00  0.00    -0.000 C 
BRANCH  12  13
ATOM     13  C   UNL     1      11.250 -11.388  15.617  1.00  0.00    -0.000 C 
BRANCH  13  14
ATOM     14  C   UNL     1      11.230 -10.245  14.579  1.00  0.00    -0.000 C 
BRANCH  14  15
ATOM     15  C   UNL     1      10.491 -10.644  13.292  1.00  0.00    -0.000 C 
BRANCH  15  16
ATOM     16  C   UNL     1      10.843  -9.698  12.139  1.00  0.00    -0.000 C 
BRANCH  16  17
ATOM     17  C   UNL     1       9.587  -9.274  11.370  1.00  0.00    -0.003 C 
ATOM     18  C   UNL     1       8.386 -10.128  11.762  1.00  0.00     0.004 C 
ENDBRANCH  16  17
ENDBRANCH  15  16
ENDBRANCH  14  15
ENDBRANCH  13  14
ENDBRANCH  12  13
ENDBRANCH  11  12
ENDBRANCH   1  11
TORSDOF 14
ENDMDL
MODEL 4
REMARK VINA RESULT:    -3.730      3.258      5.079
REMARK INTER + INTRA:          -8.261
REMARK INTER:                  -6.032
REMARK INTRA:                  -2.229
REMARK UNBOUND:                -1.477
REMARK SMILES CCCCCCCCCCCCCCCC(=O)[O-]
REMARK SMILES IDX 9 1 10 2 11 3 12 4 13 5 14 6 15 7 16 8 17 9 18 10 8 11 7 12
REMARK SMILES IDX 6 13 5 14 4 15 3 16 2 17 1 18
REMARK H PARENT
REMARK Flexibility Score: inf
ROOT
ATOM      1  C   UNL     1      14.590 -13.246  21.281  1.00  0.00     0.000 C 
ENDROOT
BRANCH   1   2
ATOM      2  C   UNL     1      14.217 -12.457  20.014  1.00  0.00     0.000 C 
BRANCH   2   3
ATOM      3  C   UNL     1      14.053 -10.951  20.281  1.00  0.00     0.000 C 
BRANCH   3   4
ATOM      4  C   UNL     1      14.014 -10.121  18.985  1.00  0.00     0.000 C 
BRANCH   4   5
ATOM      5  C   UNL     1      12.677  -9.386  18.796  1.00  0.00     0.000 C 
BRANCH   5   6
ATOM      6  C   UNL     1      12.015  -9.698  17.442  1.00  0.00     0.006 C 
BRANCH   6   7
ATOM      7  C   UNL     1      12.705 -10.859  16.715  1.00  0.00     0.053 C 
BRANCH   7   8
ATOM      8  C   UNL     1      11.718 -11.870  16.218  1.00  0.00     0.041 C 
ATOM      9  O   UNL     1      11.891 -13.095  16.454  1.00  0.00    -0.550 OA
ATOM     10  O   UNL     1      10.621 -11.462  15.470  1.00  0.00    -0.550 OA
ENDBRANCH   7   8
ENDBRANCH   6   7
ENDBRANCH   5   6
ENDBRANCH   4   5
ENDBRANCH   3   4
ENDBRANCH   2   3
ENDBRANCH   1   2
BRANCH   1  11
ATOM     11  C   UNL     1      14.246 -14.740  21.165  1.00  0.00     0.000 C 
BRANCH  11  12
ATOM     12  C   UNL     1      13.074 -15.148  22.073  1.00  0.00    -0.000 C 
BRANCH  12  13
ATOM     13  C   UNL     1      12.357 -13.941  22.701  1.00  0.00    -0.000 C 
BRANCH  13  14
ATOM     14  C   UNL     1      10.871 -13.825  22.300  1.00  0.00    -0.000 C 
BRANCH  14  15
ATOM     15  C   UNL     1      10.584 -14.489  20.944  1.00  0.00    -0.000 C 
BRANCH  15  16
ATOM     16  C   UNL     1      10.859 -13.522  19.787  1.00  0.00    -0.000 C 
BRANCH  16  17
ATOM     17  C   UNL     1      10.438 -12.093  20.151  1.00  0.00    -0.003 C 
ATOM     18  C   UNL     1       9.378 -11.568  19.188  1.00  0.00     0.004 C 
ENDBRANCH  16  17
ENDBRANCH  15  16
ENDBRANCH  14  15
ENDBRANCH  13  14
ENDBRANCH  12  13
ENDBRANCH  11  12
ENDBRANCH   1  11
TORSDOF 14
ENDMDL
MODEL 5
REMARK VINA RESULT:    -3.696      3.723      6.379
REMARK INTER + INTRA:          -8.198
REMARK INTER:                  -5.732
REMARK INTRA:                  -2.466
REMARK UNBOUND:                -1.477
REMARK SMILES CCCCCCCCCCCCCCCC(=O)[O-]
REMARK SMILES IDX 9 1 10 2 11 3 12 4 13 5 14 6 15 7 16 8 17 9 18 10 8 11 7 12
REMARK SMILES IDX 6 13 5 14 4 15 3 16 2 17 1 18
REMARK H PARENT
REMARK Flexibility Score: inf
ROOT
ATOM      1  C   UNL     1      10.873 -13.728  22.093  1.00  0.00     0.000 C 
ENDROOT
BRANCH   1   2
ATOM      2  C   UNL     1      10.125 -12.385  22.173  1.00  0.00     0.000 C 
BRANCH   2   3
ATOM      3  C   UNL     1       8.703 -12.464  21.592  1.00  0.00     0.000 C 
BRANCH   3   4
ATOM      4  C   UNL     1       8.458 -11.426  20.484  1.00  0.00     0.000 C 
BRANCH   4   5
ATOM      5  C   UNL     1       9.752 -11.014  19.764  1.00  0.00     0.000 C 
BRANCH   5   6
ATOM      6  C   UNL     1       9.925 -11.718  18.406  1.00  0.00     0.006 C 
BRANCH   6   7
ATOM      7  C   UNL     1      11.286 -12.416  18.287  1.00  0.00     0.053 C 
BRANCH   7   8
ATOM      8  C   UNL     1      11.748 -12.494  16.864  1.00  0.00     0.041 C 
ATOM      9  O   UNL     1      12.767 -13.172  16.564  1.00  0.00    -0.550 OA
ATOM     10  O   UNL     1      11.072 -11.796  15.873  1.00  0.00    -0.550 OA
ENDBRANCH   7   8
ENDBRANCH   6   7
ENDBRANCH   5   6
ENDBRANCH   4   5
ENDBRANCH   3   4
ENDBRANCH   2   3
ENDBRANCH   1   2
BRANCH   1  11
ATOM     11  C   UNL     1      10.243 -14.692  21.074  1.00  0.00     0.000 C 
BRANCH  11  12
ATOM     12  C   UNL     1      11.296 -15.499  20.296  1.00  0.00    -0.000 C 
BRANCH  12  13
ATOM     13  C   UNL     1      12.734 -15.207  20.760  1.00  0.00    -0.000 C 
BRANCH  13  14
ATOM     14  C   UNL     1      13.713 -14.928  19.600  1.00  0.00    -0.000 C 
BRANCH  14  15
ATOM     15  C   UNL     1      14.459 -13.596  19.779  1.00  0.00    -0.000 C 
BRANCH  15  16
ATOM     16  C   UNL     1      14.542 -13.205  21.259  1.00  0.00    -0.000 C 
BRANCH  16  17
ATOM     17  C   UNL     1      14.087 -11.758  21.474  1.00  0.00    -0.003 C 
ATOM     18  C   UNL     1      14.072 -10.983  20.160  1.00  0.00     0.004 C 
ENDBRANCH  16  17
ENDBRANCH  15  16
ENDBRANCH  14  15
ENDBRANCH  13  14
ENDBRANCH  12  13
ENDBRANCH  11  12
ENDBRANCH   1  11
TORSDOF 14
ENDMDL
MODEL 6
REMARK VINA RESULT:    -3.673      5.143      7.213
REMARK INTER + INTRA:          -8.156
REMARK INTER:                  -5.630
REMARK INTRA:                  -2.526
REMARK UNBOUND:                -1.477
REMARK SMILES CCCCCCCCCCCCCCCC(=O)[O-]
REMARK SMILES IDX 9 1 10 2 11 3 12 4 13 5 14 6 15 7 16 8 17 9 18 10 8 11 7 12
REMARK SMILES IDX 6 13 5 14 4 15 3 16 2 17 1 18
REMARK H PARENT
REMARK Flexibility Score: inf
ROOT
ATOM      1  C   UNL     1      13.371  -9.636  19.081  1.00  0.00     0.000 C 
ENDROOT
BRANCH   1   2
ATOM      2  C   UNL     1      13.457 -10.534  20.327  1.00  0.00     0.000 C 
BRANCH   2   3
ATOM      3  C   UNL     1      12.092 -11.116  20.733  1.00  0.00     0.000 C 
BRANCH   3   4
ATOM      4  C   UNL     1      10.957 -10.674  19.793  1.00  0.00     0.000 C 
BRANCH   4   5
ATOM      5  C   UNL     1       9.870 -11.749  19.635  1.00  0.00     0.000 C 
BRANCH   5   6
ATOM      6  C   UNL     1       8.594 -11.425  20.432  1.00  0.00     0.006 C 
BRANCH   6   7
ATOM      7  C   UNL     1       8.339 -12.442  21.552  1.00  0.00     0.053 C 
BRANCH   7   8
ATOM      8  C   UNL     1       9.152 -12.138  22.773  1.00  0.00     0.041 C 
ATOM      9  O   UNL     1       8.915 -11.105  23.453  1.00  0.00    -0.550 OA
ATOM     10  O   UNL     1      10.191 -12.982  23.145  1.00  0.00    -0.550 OA
ENDBRANCH   7   8
ENDBRANCH   6   7
ENDBRANCH   5   6
ENDBRANCH   4   5
ENDBRANCH   3   4
ENDBRANCH   2   3
ENDBRANCH   1   2
BRANCH   1  11
ATOM     11  C   UNL     1      14.119 -10.230  17.876  1.00  0.00     0.000 C 
BRANCH  11  12
ATOM     12  C   UNL     1      13.165 -10.784  16.804  1.00  0.00    -0.000 C 
BRANCH  12  13
ATOM     13  C   UNL     1      12.931 -12.298  16.940  1.00  0.00    -0.000 C 
BRANCH  13  14
ATOM     14  C   UNL     1      14.211 -13.097  17.262  1.00  0.00    -0.000 C 
BRANCH  14  15
ATOM     15  C   UNL     1      14.001 -14.090  18.416  1.00  0.00    -0.000 C 
BRANCH  15  16
ATOM     16  C   UNL     1      12.511 -14.248  18.742  1.00  0.00    -0.000 C 
BRANCH  16  17
ATOM     17  C   UNL     1      12.308 -14.672  20.200  1.00  0.00    -0.003 C 
ATOM     18  C   UNL     1      10.918 -15.261  20.416  1.00  0.00     0.004 C 
ENDBRANCH  16  17
ENDBRANCH  15  16
ENDBRANCH  14  15
ENDBRANCH  13  14
ENDBRANCH  12  13
ENDBRANCH  11  12
ENDBRANCH   1  11
TORSDOF 14
ENDMDL
MODEL 7
REMARK VINA RESULT:    -3.645      3.913      5.080
REMARK INTER + INTRA:          -8.105
REMARK INTER:                  -5.811
REMARK INTRA:                  -2.294
REMARK UNBOUND:                -1.477
REMARK SMILES CCCCCCCCCCCCCCCC(=O)[O-]
REMARK SMILES IDX 9 1 10 2 11 3 12 4 13 5 14 6 15 7 16 8 17 9 18 10 8 11 7 12
REMARK SMILES IDX 6 13 5 14 4 15 3 16 2 17 1 18
REMARK H PARENT
REMARK Flexibility Score: inf
ROOT
ATOM      1  C   UNL     1      12.023 -10.863  21.045  1.00  0.00     0.000 C 
ENDROOT
BRANCH   1   2
ATOM      2  C   UNL     1      13.050  -9.932  20.378  1.00  0.00     0.000 C 
BRANCH   2   3
ATOM      3  C   UNL     1      14.004 -10.681  19.433  1.00  0.00     0.000 C 
BRANCH   3   4
ATOM      4  C   UNL     1      14.006 -10.098  18.008  1.00  0.00     0.000 C 
BRANCH   4   5
ATOM      5  C   UNL     1      12.627 -10.179  17.336  1.00  0.00     0.000 C 
BRANCH   5   6
ATOM      6  C   UNL     1      12.589 -11.193  16.179  1.00  0.00     0.006 C 
BRANCH   6   7
ATOM      7  C   UNL     1      11.967 -12.530  16.603  1.00  0.00     0.053 C 
BRANCH   7   8
ATOM      8  C   UNL     1      13.001 -13.605  16.743  1.00  0.00     0.041 C 
ATOM      9  O   UNL     1      12.653 -14.793  16.974  1.00  0.00    -0.550 OA
ATOM     10  O   UNL     1      14.349 -13.290  16.647  1.00  0.00    -0.550 OA
ENDBRANCH   7   8
ENDBRANCH   6   7
ENDBRANCH   5   6
ENDBRANCH   4   5
ENDBRANCH   3   4
ENDBRANCH   2   3
ENDBRANCH   1   2
BRANCH   1  11
ATOM     11  C   UNL     1      11.991 -12.260  20.402  1.00  0.00     0.000 C 
BRANCH  11  12
ATOM     12  C   UNL     1      10.570 -12.695  20.008  1.00  0.00    -0.000 C 
BRANCH  12  13
ATOM     13  C   UNL     1       9.726 -11.539  19.443  1.00  0.00    -0.000 C 
BRANCH  13  14
ATOM     14  C   UNL     1       8.375 -11.350  20.164  1.00  0.00    -0.000 C 
BRANCH  14  15
ATOM     15  C   UNL     1       8.242 -12.260  21.395  1.00  0.00    -0.000 C 
BRANCH  15  16
ATOM     16  C   UNL     1       7.919 -11.444  22.652  1.00  0.00    -0.000 C 
BRANCH  16  17
ATOM     17  C   UNL     1       9.186 -11.169  23.470  1.00  0.00    -0.003 C 
ATOM     18  C   UNL     1       9.493  -9.676  23.526  1.00  0.00     0.004 C 
ENDBRANCH  16  17
ENDBRANCH  15  16
ENDBRANCH  14  15
ENDBRANCH  13  14
ENDBRANCH  12  13
ENDBRANCH  11  12
ENDBRANCH   1  11
TORSDOF 14
ENDMDL
MODEL 8
REMARK VINA RESULT:    -3.614      4.145      5.711
REMARK INTER + INTRA:          -8.049
REMARK INTER:                  -5.928
REMARK INTRA:                  -2.121
REMARK UNBOUND:                -1.477
REMARK SMILES CCCCCCCCCCCCCCCC(=O)[O-]
REMARK SMILES IDX 9 1 10 2 11 3 12 4 13 5 14 6 15 7 16 8 17 9 18 10 8 11 7 12
REMARK SMILES IDX 6 13 5 14 4 15 3 16 2 17 1 18
REMARK H PARENT
REMARK Flexibility Score: inf
ROOT
ATOM      1  C   UNL     1      13.629 -10.112  19.497  1.00  0.00     0.000 C 
ENDROOT
BRANCH   1   2
ATOM      2  C   UNL     1      14.155 -11.127  20.527  1.00  0.00     0.000 C 
BRANCH   2   3
ATOM      3  C   UNL     1      13.543 -12.526  20.346  1.00  0.00     0.000 C 
BRANCH   3   4
ATOM      4  C   UNL     1      14.608 -13.634  20.270  1.00  0.00     0.000 C 
BRANCH   4   5
ATOM      5  C   UNL     1      14.595 -14.375  18.924  1.00  0.00     0.000 C 
BRANCH   5   6
ATOM      6  C   UNL     1      13.327 -14.086  18.100  1.00  0.00     0.006 C 
BRANCH   6   7
ATOM      7  C   UNL     1      13.311 -14.858  16.775  1.00  0.00     0.053 C 
BRANCH   7   8
ATOM      8  C   UNL     1      14.627 -14.770  16.064  1.00  0.00     0.041 C 
ATOM      9  O   UNL     1      14.997 -13.682  15.547  1.00  0.00    -0.550 OA
ATOM     10  O   UNL     1      15.433 -15.894  15.948  1.00  0.00    -0.550 OA
ENDBRANCH   7   8
ENDBRANCH   6   7
ENDBRANCH   5   6
ENDBRANCH   4   5
ENDBRANCH   3   4
ENDBRANCH   2   3
ENDBRANCH   1   2
BRANCH   1  11
ATOM     11  C   UNL     1      14.247 -10.315  18.104  1.00  0.00     0.000 C 
BRANCH  11  12
ATOM     12  C   UNL     1      13.188 -10.587  17.023  1.00  0.00    -0.000 C 
BRANCH  12  13
ATOM     13  C   UNL     1      11.754 -10.325  17.513  1.00  0.00    -0.000 C 
BRANCH  13  14
ATOM     14  C   UNL     1      10.809 -11.533  17.341  1.00  0.00    -0.000 C 
BRANCH  14  15
ATOM     15  C   UNL     1      10.291 -12.061  18.688  1.00  0.00    -0.000 C 
BRANCH  15  16
ATOM     16  C   UNL     1       9.190 -11.155  19.249  1.00  0.00    -0.000 C 
BRANCH  16  17
ATOM     17  C   UNL     1       8.710 -11.652  20.616  1.00  0.00    -0.003 C 
ATOM     18  C   UNL     1       9.688 -12.660  21.212  1.00  0.00     0.004 C 
ENDBRANCH  16  17
ENDBRANCH  15  16
ENDBRANCH  14  15
ENDBRANCH  13  14
ENDBRANCH  12  13
ENDBRANCH  11  12
ENDBRANCH   1  11
TORSDOF 14
ENDMDL
MODEL 9
REMARK VINA RESULT:    -3.612      4.163      6.141
REMARK INTER + INTRA:          -8.046
REMARK INTER:                  -5.229
REMARK INTRA:                  -2.817
REMARK UNBOUND:                -1.477
REMARK SMILES CCCCCCCCCCCCCCCC(=O)[O-]
REMARK SMILES IDX 9 1 10 2 11 3 12 4 13 5 14 6 15 7 16 8 17 9 18 10 8 11 7 12
REMARK SMILES IDX 6 13 5 14 4 15 3 16 2 17 1 18
REMARK H PARENT
REMARK Flexibility Score: inf
ROOT
ATOM      1  C   UNL     1      13.553  -9.649  19.349  1.00  0.00     0.000 C 
ENDROOT
BRANCH   1   2
ATOM      2  C   UNL     1      13.137  -9.738  20.828  1.00  0.00     0.000 C 
BRANCH   2   3
ATOM      3  C   UNL     1      13.331 -11.147  21.414  1.00  0.00     0.000 C 
BRANCH   3   4
ATOM      4  C   UNL     1      14.414 -11.952  20.675  1.00  0.00     0.000 C 
BRANCH   4   5
ATOM      5  C   UNL     1      14.391 -13.445  21.040  1.00  0.00     0.000 C 
BRANCH   5   6
ATOM      6  C   UNL     1      14.721 -14.354  19.842  1.00  0.00     0.006 C 
BRANCH   6   7
ATOM      7  C   UNL     1      14.296 -13.728  18.508  1.00  0.00     0.053 C 
BRANCH   7   8
ATOM      8  C   UNL     1      13.548 -14.702  17.650  1.00  0.00     0.041 C 
ATOM      9  O   UNL     1      13.090 -15.764  18.147  1.00  0.00    -0.550 OA
ATOM     10  O   UNL     1      13.382 -14.450  16.294  1.00  0.00    -0.550 OA
ENDBRANCH   7   8
ENDBRANCH   6   7
ENDBRANCH   5   6
ENDBRANCH   4   5
ENDBRANCH   3   4
ENDBRANCH   2   3
ENDBRANCH   1   2
BRANCH   1  11
ATOM     11  C   UNL     1      12.346  -9.508  18.407  1.00  0.00     0.000 C 
BRANCH  11  12
ATOM     12  C   UNL     1      12.257 -10.656  17.388  1.00  0.00    -0.000 C 
BRANCH  12  13
ATOM     13  C   UNL     1      11.210 -11.716  17.773  1.00  0.00    -0.000 C 
BRANCH  13  14
ATOM     14  C   UNL     1      10.186 -11.224  18.818  1.00  0.00    -0.000 C 
BRANCH  14  15
ATOM     15  C   UNL     1      10.010 -12.224  19.971  1.00  0.00    -0.000 C 
BRANCH  15  16
ATOM     16  C   UNL     1      10.854 -13.483  19.744  1.00  0.00    -0.000 C 
BRANCH  16  17
ATOM     17  C   UNL     1      10.664 -14.488  20.885  1.00  0.00    -0.003 C 
ATOM     18  C   UNL     1      10.674 -13.791  22.242  1.00  0.00     0.004 C 
ENDBRANCH  16  17
ENDBRANCH  15  16
ENDBRANCH  14  15
ENDBRANCH  13  14
ENDBRANCH  12  13
ENDBRANCH  11  12
ENDBRANCH   1  11
TORSDOF 14
ENDMDL
