MODEL 1
REMARK VINA RESULT:    -8.114      0.000      0.000
REMARK INTER + INTRA:         -15.711
REMARK INTER:                 -13.331
REMARK INTRA:                  -2.379
REMARK UNBOUND:                -2.379
REMARK SMILES C[C@H]1O[C@@H](OC[C@H]2O[C@H](Oc3c(-c4ccc(O)c(O)c4)oc4cc(O)cc(O)c4c3=O)[C@@H](O)[C@@H](O)[C@@H]2O)[C@@H](O)[C@H](O)[C@H]1O
REMARK SMILES IDX 7 1 36 2 34 3 32 4 9 5 8 6 6 7 5 8 4 9 1 10 2 11 42 12 3 13
REMARK SMILES IDX 40 14 38 15 43 16 41 18 39 20 37 22 35 24 10 26 11 27 12 28
REMARK SMILES IDX 30 29 21 30 29 31 31 32 22 33 27 34 23 35 26 36 24 37 13 38
REMARK SMILES IDX 20 39 14 40 18 41 15 42 16 43 19 44 17 46 28 48 25 50 33 52
REMARK H PARENT 43 17 41 19 39 21 37 23 35 25 19 45 17 47 28 49 25 51 33 53
REMARK Flexibility Score: inf
ROOT
ATOM      1  C   UNL     1       0.561   0.651 -19.615  1.00  0.00     0.180 C 
ATOM      2  C   UNL     1       0.371   1.650 -18.461  1.00  0.00     0.177 C 
ATOM      3  C   UNL     1       0.788   3.116 -18.659  1.00  0.00     0.180 C 
ATOM      4  C   UNL     1       1.784   3.221 -19.851  1.00  0.00     0.214 C 
ATOM      5  C   UNL     1       1.150   2.547 -21.098  1.00  0.00     0.339 C 
ATOM      6  O   UNL     1       1.034   1.179 -20.905  1.00  0.00    -0.332 OA
ENDROOT
BRANCH   1   7
ATOM      7  C   UNL     1      -0.631  -0.379 -19.769  1.00  0.00     0.198 C 
BRANCH   7   8
ATOM      8  O   UNL     1      -1.407  -0.413 -20.978  1.00  0.00    -0.347 OA
BRANCH   8   9
ATOM      9  C   UNL     1      -2.827  -0.221 -21.067  1.00  0.00     0.281 C 
ATOM     10  C   UNL     1      -5.293  -1.096 -23.512  1.00  0.00     0.041 C 
ATOM     11  C   UNL     1      -4.610  -0.183 -22.522  1.00  0.00     0.150 C 
ATOM     12  C   UNL     1      -4.560   1.334 -22.778  1.00  0.00     0.174 C 
ATOM     13  O   UNL     1      -3.253  -0.631 -22.421  1.00  0.00    -0.344 OA
ATOM     14  C   UNL     1      -4.393   1.977 -21.392  1.00  0.00     0.179 C 
ATOM     15  C   UNL     1      -3.192   1.303 -20.647  1.00  0.00     0.202 C 
BRANCH  12  16
ATOM     16  O   UNL     1      -3.455   1.678 -23.636  1.00  0.00    -0.388 OA
ATOM     17  H   UNL     1      -3.018   0.847 -23.839  1.00  0.00     0.211 HD
ENDBRANCH  12  16
BRANCH  14  18
ATOM     18  O   UNL     1      -5.625   1.759 -20.735  1.00  0.00    -0.387 OA
ATOM     19  H   UNL     1      -5.886   0.810 -20.837  1.00  0.00     0.211 HD
ENDBRANCH  14  18
BRANCH  15  20
ATOM     20  O   UNL     1      -2.087   2.146 -20.859  1.00  0.00    -0.385 OA
ATOM     21  H   UNL     1      -2.162   2.508 -21.777  1.00  0.00     0.211 HD
ENDBRANCH  15  20
ENDBRANCH   8   9
ENDBRANCH   7   8
ENDBRANCH   1   7
BRANCH   2  22
ATOM     22  O   UNL     1       1.113   1.112 -17.374  1.00  0.00    -0.387 OA
ATOM     23  H   UNL     1       1.970   1.695 -17.265  1.00  0.00     0.211 HD
ENDBRANCH   2  22
BRANCH   3  24
ATOM     24  O   UNL     1      -0.330   3.915 -18.870  1.00  0.00    -0.387 OA
ATOM     25  H   UNL     1      -0.207   4.310 -19.816  1.00  0.00     0.211 HD
ENDBRANCH   3  24
BRANCH   5  26
ATOM     26  O   UNL     1       1.905   2.857 -22.262  1.00  0.00    -0.454 OA
BRANCH  26  27
ATOM     27  C   UNL     1       1.482   2.875 -23.644  1.00  0.00     0.214 A 
ATOM     28  C   UNL     1       2.365   3.262 -24.702  1.00  0.00     0.180 A 
ATOM     29  C   UNL     1       0.128   2.841 -24.043  1.00  0.00     0.239 A 
ATOM     30  O   UNL     1       2.069   3.018 -25.990  1.00  0.00    -0.452 OA
ATOM     31  C   UNL     1      -0.260   3.147 -25.377  1.00  0.00     0.111 A 
ATOM     32  O   UNL     1      -0.754   2.758 -23.140  1.00  0.00    -0.285 OA
ATOM     33  C   UNL     1       0.796   3.039 -26.319  1.00  0.00     0.146 A 
ATOM     34  C   UNL     1      -1.496   3.722 -25.746  1.00  0.00     0.134 A 
ATOM     35  C   UNL     1       0.475   3.215 -27.660  1.00  0.00     0.094 A 
ATOM     36  C   UNL     1      -1.677   4.118 -27.102  1.00  0.00     0.093 A 
ATOM     37  C   UNL     1      -0.699   3.885 -28.035  1.00  0.00     0.123 A 
BRANCH  28  38
ATOM     38  C   UNL     1       2.998   4.587 -24.522  1.00  0.00     0.025 A 
ATOM     39  C   UNL     1       3.685   4.954 -25.704  1.00  0.00     0.062 A 
ATOM     40  C   UNL     1       2.802   5.582 -23.536  1.00  0.00     0.016 A 
ATOM     41  C   UNL     1       3.426   6.225 -26.211  1.00  0.00     0.158 A 
ATOM     42  C   UNL     1       2.817   6.915 -23.957  1.00  0.00     0.051 A 
ATOM     43  C   UNL     1       2.855   7.158 -25.387  1.00  0.00     0.157 A 
BRANCH  41  44
ATOM     44  O   UNL     1       3.692   6.462 -27.553  1.00  0.00    -0.504 OA
ATOM     45  H   UNL     1       3.275   5.912 -28.299  1.00  0.00     0.293 HD
ENDBRANCH  41  44
BRANCH  43  46
ATOM     46  O   UNL     1       2.014   8.118 -25.980  1.00  0.00    -0.504 OA
ATOM     47  H   UNL     1       1.087   7.764 -26.252  1.00  0.00     0.293 HD
ENDBRANCH  43  46
ENDBRANCH  28  38
BRANCH  34  48
ATOM     48  O   UNL     1      -2.416   4.141 -24.765  1.00  0.00    -0.507 OA
ATOM     49  H   UNL     1      -3.248   3.555 -24.514  1.00  0.00     0.293 HD
ENDBRANCH  34  48
BRANCH  37  50
ATOM     50  O   UNL     1      -0.873   4.379 -29.329  1.00  0.00    -0.508 OA
ATOM     51  H   UNL     1      -1.215   5.332 -29.535  1.00  0.00     0.293 HD
ENDBRANCH  37  50
ENDBRANCH  26  27
ENDBRANCH   5  26
BRANCH   4  52
ATOM     52  O   UNL     1       2.071   4.548 -20.224  1.00  0.00    -0.384 OA
ATOM     53  H   UNL     1       2.177   5.167 -19.405  1.00  0.00     0.211 HD
ENDBRANCH   4  52
TORSDOF 16
ENDMDL
MODEL 2
REMARK VINA RESULT:    -7.779      2.012      8.012
REMARK INTER + INTRA:         -15.161
REMARK INTER:                 -12.645
REMARK INTRA:                  -2.515
REMARK UNBOUND:                -2.379
REMARK SMILES C[C@H]1O[C@@H](OC[C@H]2O[C@H](Oc3c(-c4ccc(O)c(O)c4)oc4cc(O)cc(O)c4c3=O)[C@@H](O)[C@@H](O)[C@@H]2O)[C@@H](O)[C@H](O)[C@H]1O
REMARK SMILES IDX 7 1 36 2 34 3 32 4 9 5 8 6 6 7 5 8 4 9 1 10 2 11 42 12 3 13
REMARK SMILES IDX 40 14 38 15 43 16 41 18 39 20 37 22 35 24 10 26 11 27 12 28
REMARK SMILES IDX 30 29 21 30 29 31 31 32 22 33 27 34 23 35 26 36 24 37 13 38
REMARK SMILES IDX 20 39 14 40 18 41 15 42 16 43 19 44 17 46 28 48 25 50 33 52
REMARK H PARENT 43 17 41 19 39 21 37 23 35 25 19 45 17 47 28 49 25 51 33 53
REMARK Flexibility Score: inf
ROOT
ATOM      1  C   UNL     1      -0.425   0.510 -26.343  1.00  0.00     0.180 C 
ATOM      2  C   UNL     1      -1.878   0.434 -26.842  1.00  0.00     0.177 C 
ATOM      3  C   UNL     1      -2.980  -0.038 -25.881  1.00  0.00     0.180 C 
ATOM      4  C   UNL     1      -2.342  -0.820 -24.695  1.00  0.00     0.214 C 
ATOM      5  C   UNL     1      -1.240   0.061 -24.046  1.00  0.00     0.339 C 
ATOM      6  O   UNL     1      -0.176   0.232 -24.919  1.00  0.00    -0.332 OA
ENDROOT
BRANCH   1   7
ATOM      7  C   UNL     1       0.365   1.776 -26.872  1.00  0.00     0.198 C 
BRANCH   7   8
ATOM      8  O   UNL     1      -0.259   3.071 -26.870  1.00  0.00    -0.347 OA
BRANCH   8   9
ATOM      9  C   UNL     1       0.415   4.324 -26.685  1.00  0.00     0.281 C 
ATOM     10  C   UNL     1       3.778   5.429 -27.230  1.00  0.00     0.041 C 
ATOM     11  C   UNL     1       2.484   5.307 -26.460  1.00  0.00     0.150 C 
ATOM     12  C   UNL     1       2.502   5.263 -24.922  1.00  0.00     0.174 C 
ATOM     13  O   UNL     1       1.859   4.096 -26.901  1.00  0.00    -0.344 OA
ATOM     14  C   UNL     1       1.115   5.757 -24.482  1.00  0.00     0.179 C 
ATOM     15  C   UNL     1       0.011   4.947 -25.241  1.00  0.00     0.202 C 
BRANCH  12  16
ATOM     16  O   UNL     1       2.744   3.926 -24.444  1.00  0.00    -0.388 OA
ATOM     17  H   UNL     1       2.915   4.016 -23.503  1.00  0.00     0.211 HD
ENDBRANCH  12  16
BRANCH  14  18
ATOM     18  O   UNL     1       1.094   7.132 -24.808  1.00  0.00    -0.387 OA
ATOM     19  H   UNL     1       2.012   7.430 -25.027  1.00  0.00     0.211 HD
ENDBRANCH  14  18
BRANCH  15  20
ATOM     20  O   UNL     1      -0.387   3.924 -24.364  1.00  0.00    -0.385 OA
ATOM     21  H   UNL     1      -0.292   4.270 -23.442  1.00  0.00     0.211 HD
ENDBRANCH  15  20
ENDBRANCH   8   9
ENDBRANCH   7   8
ENDBRANCH   1   7
BRANCH   2  22
ATOM     22  O   UNL     1      -1.845  -0.446 -27.958  1.00  0.00    -0.387 OA
ATOM     23  H   UNL     1      -1.251   0.001 -28.687  1.00  0.00     0.211 HD
ENDBRANCH   2  22
BRANCH   3  24
ATOM     24  O   UNL     1      -3.722   1.045 -25.422  1.00  0.00    -0.387 OA
ATOM     25  H   UNL     1      -3.211   1.395 -24.597  1.00  0.00     0.211 HD
ENDBRANCH   3  24
BRANCH   5  26
ATOM     26  O   UNL     1      -0.826  -0.502 -22.808  1.00  0.00    -0.454 OA
BRANCH  26  27
ATOM     27  C   UNL     1      -0.203   0.145 -21.676  1.00  0.00     0.214 A 
ATOM     28  C   UNL     1      -0.709  -0.003 -20.345  1.00  0.00     0.180 A 
ATOM     29  C   UNL     1       0.719   1.208 -21.799  1.00  0.00     0.239 A 
ATOM     30  O   UNL     1       0.014   0.363 -19.273  1.00  0.00    -0.452 OA
ATOM     31  C   UNL     1       1.087   2.004 -20.677  1.00  0.00     0.111 A 
ATOM     32  O   UNL     1       1.035   1.587 -22.963  1.00  0.00    -0.285 OA
ATOM     33  C   UNL     1       0.827   1.385 -19.427  1.00  0.00     0.146 A 
ATOM     34  C   UNL     1       1.465   3.362 -20.742  1.00  0.00     0.134 A 
ATOM     35  C   UNL     1       1.258   2.049 -18.285  1.00  0.00     0.094 A 
ATOM     36  C   UNL     1       1.651   4.069 -19.519  1.00  0.00     0.093 A 
ATOM     37  C   UNL     1       1.530   3.425 -18.314  1.00  0.00     0.123 A 
BRANCH  28  38
ATOM     38  C   UNL     1      -2.140   0.339 -20.189  1.00  0.00     0.025 A 
ATOM     39  C   UNL     1      -2.357   1.684 -20.573  1.00  0.00     0.062 A 
ATOM     40  C   UNL     1      -3.274  -0.485 -20.000  1.00  0.00     0.016 A 
ATOM     41  C   UNL     1      -3.396   1.921 -21.469  1.00  0.00     0.158 A 
ATOM     42  C   UNL     1      -4.449  -0.122 -20.666  1.00  0.00     0.051 A 
ATOM     43  C   UNL     1      -4.359   0.959 -21.628  1.00  0.00     0.157 A 
BRANCH  41  44
ATOM     44  O   UNL     1      -3.367   3.093 -22.212  1.00  0.00    -0.504 OA
ATOM     45  H   UNL     1      -2.777   3.207 -23.031  1.00  0.00     0.293 HD
ENDBRANCH  41  44
BRANCH  43  46
ATOM     46  O   UNL     1      -4.964   0.854 -22.895  1.00  0.00    -0.504 OA
ATOM     47  H   UNL     1      -5.908   0.446 -22.884  1.00  0.00     0.293 HD
ENDBRANCH  43  46
ENDBRANCH  28  38
BRANCH  34  48
ATOM     48  O   UNL     1       1.398   4.071 -21.957  1.00  0.00    -0.507 OA
ATOM     49  H   UNL     1       0.478   4.363 -22.366  1.00  0.00     0.293 HD
ENDBRANCH  34  48
BRANCH  37  50
ATOM     50  O   UNL     1       1.618   4.174 -17.140  1.00  0.00    -0.508 OA
ATOM     51  H   UNL     1       2.453   4.188 -16.532  1.00  0.00     0.293 HD
ENDBRANCH  37  50
ENDBRANCH  26  27
ENDBRANCH   5  26
BRANCH   4  52
ATOM     52  O   UNL     1      -3.256  -1.125 -23.669  1.00  0.00    -0.384 OA
ATOM     53  H   UNL     1      -3.093  -0.556 -22.823  1.00  0.00     0.211 HD
ENDBRANCH   4  52
TORSDOF 16
ENDMDL
MODEL 3
REMARK VINA RESULT:    -7.706      2.056      8.592
REMARK INTER + INTRA:         -15.042
REMARK INTER:                 -11.990
REMARK INTRA:                  -3.052
REMARK UNBOUND:                -2.379
REMARK SMILES C[C@H]1O[C@@H](OC[C@H]2O[C@H](Oc3c(-c4ccc(O)c(O)c4)oc4cc(O)cc(O)c4c3=O)[C@@H](O)[C@@H](O)[C@@H]2O)[C@@H](O)[C@H](O)[C@H]1O
REMARK SMILES IDX 7 1 36 2 34 3 32 4 9 5 8 6 6 7 5 8 4 9 1 10 2 11 42 12 3 13
REMARK SMILES IDX 40 14 38 15 43 16 41 18 39 20 37 22 35 24 10 26 11 27 12 28
REMARK SMILES IDX 30 29 21 30 29 31 31 32 22 33 27 34 23 35 26 36 24 37 13 38
REMARK SMILES IDX 20 39 14 40 18 41 15 42 16 43 19 44 17 46 28 48 25 50 33 52
REMARK H PARENT 43 17 41 19 39 21 37 23 35 25 19 45 17 47 28 49 25 51 33 53
REMARK Flexibility Score: inf
ROOT
ATOM      1  C   UNL     1      -0.868   1.495 -28.305  1.00  0.00     0.180 C 
ATOM      2  C   UNL     1      -2.216   2.181 -28.588  1.00  0.00     0.177 C 
ATOM      3  C   UNL     1      -3.414   1.894 -27.670  1.00  0.00     0.180 C 
ATOM      4  C   UNL     1      -3.169   0.570 -26.888  1.00  0.00     0.214 C 
ATOM      5  C   UNL     1      -1.797   0.657 -26.166  1.00  0.00     0.339 C 
ATOM      6  O   UNL     1      -0.761   0.675 -27.088  1.00  0.00    -0.332 OA
ENDROOT
BRANCH   1   7
ATOM      7  C   UNL     1       0.385   2.437 -28.528  1.00  0.00     0.198 C 
BRANCH   7   8
ATOM      8  O   UNL     1       1.161   2.886 -27.404  1.00  0.00    -0.347 OA
BRANCH   8   9
ATOM      9  C   UNL     1       1.324   4.250 -26.991  1.00  0.00     0.281 C 
ATOM     10  C   UNL     1       4.124   6.479 -26.862  1.00  0.00     0.041 C 
ATOM     11  C   UNL     1       2.872   5.822 -26.333  1.00  0.00     0.150 C 
ATOM     12  C   UNL     1       2.715   5.561 -24.824  1.00  0.00     0.174 C 
ATOM     13  O   UNL     1       2.771   4.550 -26.986  1.00  0.00    -0.344 OA
ATOM     14  C   UNL     1       1.200   5.494 -24.576  1.00  0.00     0.179 C 
ATOM     15  C   UNL     1       0.553   4.483 -25.582  1.00  0.00     0.202 C 
BRANCH  12  16
ATOM     16  O   UNL     1       3.350   4.325 -24.443  1.00  0.00    -0.388 OA
ATOM     17  H   UNL     1       2.720   3.634 -24.661  1.00  0.00     0.211 HD
ENDBRANCH  12  16
BRANCH  14  18
ATOM     18  O   UNL     1       0.737   6.815 -24.768  1.00  0.00    -0.387 OA
ATOM     19  H   UNL     1       0.689   7.274 -23.892  1.00  0.00     0.211 HD
ENDBRANCH  14  18
BRANCH  15  20
ATOM     20  O   UNL     1       0.435   3.268 -24.884  1.00  0.00    -0.385 OA
ATOM     21  H   UNL     1      -0.410   2.842 -25.172  1.00  0.00     0.211 HD
ENDBRANCH  15  20
ENDBRANCH   8   9
ENDBRANCH   7   8
ENDBRANCH   1   7
BRANCH   2  22
ATOM     22  O   UNL     1      -2.561   1.799 -29.913  1.00  0.00    -0.387 OA
ATOM     23  H   UNL     1      -2.305   0.795 -30.022  1.00  0.00     0.211 HD
ENDBRANCH   2  22
BRANCH   3  24
ATOM     24  O   UNL     1      -3.625   2.956 -26.798  1.00  0.00    -0.387 OA
ATOM     25  H   UNL     1      -2.685   3.329 -26.591  1.00  0.00     0.211 HD
ENDBRANCH   3  24
BRANCH   5  26
ATOM     26  O   UNL     1      -1.661  -0.409 -25.235  1.00  0.00    -0.454 OA
BRANCH  26  27
ATOM     27  C   UNL     1      -1.209  -0.368 -23.864  1.00  0.00     0.214 A 
ATOM     28  C   UNL     1      -2.106  -0.558 -22.764  1.00  0.00     0.180 A 
ATOM     29  C   UNL     1       0.036   0.171 -23.471  1.00  0.00     0.239 A 
ATOM     30  O   UNL     1      -1.653  -0.794 -21.521  1.00  0.00    -0.452 OA
ATOM     31  C   UNL     1       0.324   0.455 -22.107  1.00  0.00     0.111 A 
ATOM     32  O   UNL     1       0.803   0.609 -24.376  1.00  0.00    -0.285 OA
ATOM     33  C   UNL     1      -0.510  -0.236 -21.190  1.00  0.00     0.146 A 
ATOM     34  C   UNL     1       1.186   1.480 -21.662  1.00  0.00     0.134 A 
ATOM     35  C   UNL     1      -0.223  -0.098 -19.837  1.00  0.00     0.094 A 
ATOM     36  C   UNL     1       1.251   1.748 -20.264  1.00  0.00     0.093 A 
ATOM     37  C   UNL     1       0.542   0.983 -19.373  1.00  0.00     0.123 A 
BRANCH  28  38
ATOM     38  C   UNL     1      -3.279   0.343 -22.763  1.00  0.00     0.025 A 
ATOM     39  C   UNL     1      -4.438  -0.379 -22.392  1.00  0.00     0.062 A 
ATOM     40  C   UNL     1      -3.362   1.755 -22.797  1.00  0.00     0.016 A 
ATOM     41  C   UNL     1      -5.228   0.176 -21.388  1.00  0.00     0.158 A 
ATOM     42  C   UNL     1      -4.347   2.358 -22.009  1.00  0.00     0.051 A 
ATOM     43  C   UNL     1      -5.079   1.505 -21.092  1.00  0.00     0.157 A 
BRANCH  41  44
ATOM     44  O   UNL     1      -6.080  -0.665 -20.684  1.00  0.00    -0.504 OA
ATOM     45  H   UNL     1      -5.765  -1.236 -19.905  1.00  0.00     0.293 HD
ENDBRANCH  41  44
BRANCH  43  46
ATOM     46  O   UNL     1      -5.311   1.902 -19.762  1.00  0.00    -0.504 OA
ATOM     47  H   UNL     1      -4.480   2.257 -19.271  1.00  0.00     0.293 HD
ENDBRANCH  43  46
ENDBRANCH  28  38
BRANCH  34  48
ATOM     48  O   UNL     1       1.756   2.388 -22.575  1.00  0.00    -0.507 OA
ATOM     49  H   UNL     1       2.576   2.985 -22.309  1.00  0.00     0.293 HD
ENDBRANCH  34  48
BRANCH  37  50
ATOM     50  O   UNL     1       0.552   1.341 -18.024  1.00  0.00    -0.508 OA
ATOM     51  H   UNL     1       0.969   2.216 -17.668  1.00  0.00     0.293 HD
ENDBRANCH  37  50
ENDBRANCH  26  27
ENDBRANCH   5  26
BRANCH   4  52
ATOM     52  O   UNL     1      -4.126   0.326 -25.885  1.00  0.00    -0.384 OA
ATOM     53  H   UNL     1      -4.104   1.046 -25.146  1.00  0.00     0.211 HD
ENDBRANCH   4  52
TORSDOF 16
ENDMDL
MODEL 4
REMARK VINA RESULT:    -7.600      1.856      6.603
REMARK INTER + INTRA:         -14.867
REMARK INTER:                 -12.140
REMARK INTRA:                  -2.728
REMARK UNBOUND:                -2.379
REMARK SMILES C[C@H]1O[C@@H](OC[C@H]2O[C@H](Oc3c(-c4ccc(O)c(O)c4)oc4cc(O)cc(O)c4c3=O)[C@@H](O)[C@@H](O)[C@@H]2O)[C@@H](O)[C@H](O)[C@H]1O
REMARK SMILES IDX 7 1 36 2 34 3 32 4 9 5 8 6 6 7 5 8 4 9 1 10 2 11 42 12 3 13
REMARK SMILES IDX 40 14 38 15 43 16 41 18 39 20 37 22 35 24 10 26 11 27 12 28
REMARK SMILES IDX 30 29 21 30 29 31 31 32 22 33 27 34 23 35 26 36 24 37 13 38
REMARK SMILES IDX 20 39 14 40 18 41 15 42 16 43 19 44 17 46 28 48 25 50 33 52
REMARK H PARENT 43 17 41 19 39 21 37 23 35 25 19 45 17 47 28 49 25 51 33 53
REMARK Flexibility Score: inf
ROOT
ATOM      1  C   UNL     1       2.124   3.413 -24.002  1.00  0.00     0.180 C 
ATOM      2  C   UNL     1       2.403   4.391 -25.156  1.00  0.00     0.177 C 
ATOM      3  C   UNL     1       1.841   4.085 -26.554  1.00  0.00     0.180 C 
ATOM      4  C   UNL     1       1.487   2.572 -26.656  1.00  0.00     0.214 C 
ATOM      5  C   UNL     1       0.549   2.193 -25.477  1.00  0.00     0.339 C 
ATOM      6  O   UNL     1       1.228   2.276 -24.270  1.00  0.00    -0.332 OA
ENDROOT
BRANCH   1   7
ATOM      7  C   UNL     1       1.820   4.127 -22.622  1.00  0.00     0.198 C 
BRANCH   7   8
ATOM      8  O   UNL     1       1.118   3.424 -21.582  1.00  0.00    -0.347 OA
BRANCH   8   9
ATOM      9  C   UNL     1       1.724   2.607 -20.570  1.00  0.00     0.281 C 
ATOM     10  C   UNL     1       1.361  -0.826 -19.616  1.00  0.00     0.041 C 
ATOM     11  C   UNL     1       1.490   0.658 -19.367  1.00  0.00     0.150 C 
ATOM     12  C   UNL     1       0.766   1.306 -18.174  1.00  0.00     0.174 C 
ATOM     13  O   UNL     1       1.010   1.313 -20.548  1.00  0.00    -0.344 OA
ATOM     14  C   UNL     1       1.564   2.580 -17.855  1.00  0.00     0.179 C 
ATOM     15  C   UNL     1       1.748   3.419 -19.165  1.00  0.00     0.202 C 
BRANCH  12  16
ATOM     16  O   UNL     1      -0.598   1.627 -18.507  1.00  0.00    -0.388 OA
ATOM     17  H   UNL     1      -0.710   1.357 -19.422  1.00  0.00     0.211 HD
ENDBRANCH  12  16
BRANCH  14  18
ATOM     18  O   UNL     1       2.794   2.123 -17.331  1.00  0.00    -0.387 OA
ATOM     19  H   UNL     1       3.307   1.674 -18.049  1.00  0.00     0.211 HD
ENDBRANCH  14  18
BRANCH  15  20
ATOM     20  O   UNL     1       0.732   4.390 -19.145  1.00  0.00    -0.385 OA
ATOM     21  H   UNL     1       1.073   5.166 -18.635  1.00  0.00     0.211 HD
ENDBRANCH  15  20
ENDBRANCH   8   9
ENDBRANCH   7   8
ENDBRANCH   1   7
BRANCH   2  22
ATOM     22  O   UNL     1       3.819   4.471 -25.246  1.00  0.00    -0.387 OA
ATOM     23  H   UNL     1       4.073   4.343 -26.248  1.00  0.00     0.211 HD
ENDBRANCH   2  22
BRANCH   3  24
ATOM     24  O   UNL     1       0.729   4.876 -26.815  1.00  0.00    -0.387 OA
ATOM     25  H   UNL     1       0.126   4.782 -25.983  1.00  0.00     0.211 HD
ENDBRANCH   3  24
BRANCH   5  26
ATOM     26  O   UNL     1      -0.007   0.902 -25.685  1.00  0.00    -0.454 OA
BRANCH  26  27
ATOM     27  C   UNL     1      -1.176   0.305 -25.081  1.00  0.00     0.214 A 
ATOM     28  C   UNL     1      -2.478   0.430 -25.663  1.00  0.00     0.180 A 
ATOM     29  C   UNL     1      -1.212  -0.154 -23.746  1.00  0.00     0.239 A 
ATOM     30  O   UNL     1      -3.503  -0.341 -25.264  1.00  0.00    -0.452 OA
ATOM     31  C   UNL     1      -2.442  -0.465 -23.102  1.00  0.00     0.111 A 
ATOM     32  O   UNL     1      -0.154  -0.063 -23.060  1.00  0.00    -0.285 OA
ATOM     33  C   UNL     1      -3.513  -0.707 -24.001  1.00  0.00     0.146 A 
ATOM     34  C   UNL     1      -2.682  -0.339 -21.717  1.00  0.00     0.134 A 
ATOM     35  C   UNL     1      -4.721  -1.125 -23.456  1.00  0.00     0.094 A 
ATOM     36  C   UNL     1      -4.010  -0.535 -21.241  1.00  0.00     0.093 A 
ATOM     37  C   UNL     1      -5.013  -0.903 -22.102  1.00  0.00     0.123 A 
BRANCH  28  38
ATOM     38  C   UNL     1      -2.904   1.822 -25.926  1.00  0.00     0.025 A 
ATOM     39  C   UNL     1      -3.525   2.360 -24.774  1.00  0.00     0.062 A 
ATOM     40  C   UNL     1      -2.560   2.715 -26.969  1.00  0.00     0.016 A 
ATOM     41  C   UNL     1      -3.075   3.605 -24.342  1.00  0.00     0.158 A 
ATOM     42  C   UNL     1      -2.373   4.057 -26.628  1.00  0.00     0.051 A 
ATOM     43  C   UNL     1      -2.372   4.390 -25.216  1.00  0.00     0.157 A 
BRANCH  41  44
ATOM     44  O   UNL     1      -3.300   3.960 -23.018  1.00  0.00    -0.504 OA
ATOM     45  H   UNL     1      -4.197   4.304 -22.689  1.00  0.00     0.293 HD
ENDBRANCH  41  44
BRANCH  43  46
ATOM     46  O   UNL     1      -1.394   5.246 -24.675  1.00  0.00    -0.504 OA
ATOM     47  H   UNL     1      -0.486   5.216 -25.158  1.00  0.00     0.293 HD
ENDBRANCH  43  46
ENDBRANCH  28  38
BRANCH  34  48
ATOM     48  O   UNL     1      -1.711   0.225 -20.867  1.00  0.00    -0.507 OA
ATOM     49  H   UNL     1      -1.945   0.507 -19.884  1.00  0.00     0.293 HD
ENDBRANCH  34  48
BRANCH  37  50
ATOM     50  O   UNL     1      -6.319  -0.985 -21.615  1.00  0.00    -0.508 OA
ATOM     51  H   UNL     1      -6.898  -0.160 -21.390  1.00  0.00     0.293 HD
ENDBRANCH  37  50
ENDBRANCH  26  27
ENDBRANCH   5  26
BRANCH   4  52
ATOM     52  O   UNL     1       0.791   2.239 -27.833  1.00  0.00    -0.384 OA
ATOM     53  H   UNL     1      -0.123   1.802 -27.633  1.00  0.00     0.211 HD
ENDBRANCH   4  52
TORSDOF 16
ENDMDL
MODEL 5
REMARK VINA RESULT:    -7.259      1.695      8.378
REMARK INTER + INTRA:         -14.307
REMARK INTER:                 -12.198
REMARK INTRA:                  -2.109
REMARK UNBOUND:                -2.379
REMARK SMILES C[C@H]1O[C@@H](OC[C@H]2O[C@H](Oc3c(-c4ccc(O)c(O)c4)oc4cc(O)cc(O)c4c3=O)[C@@H](O)[C@@H](O)[C@@H]2O)[C@@H](O)[C@H](O)[C@H]1O
REMARK SMILES IDX 7 1 36 2 34 3 32 4 9 5 8 6 6 7 5 8 4 9 1 10 2 11 42 12 3 13
REMARK SMILES IDX 40 14 38 15 43 16 41 18 39 20 37 22 35 24 10 26 11 27 12 28
REMARK SMILES IDX 30 29 21 30 29 31 31 32 22 33 27 34 23 35 26 36 24 37 13 38
REMARK SMILES IDX 20 39 14 40 18 41 15 42 16 43 19 44 17 46 28 48 25 50 33 52
REMARK H PARENT 43 17 41 19 39 21 37 23 35 25 19 45 17 47 28 49 25 51 33 53
REMARK Flexibility Score: inf
ROOT
ATOM      1  C   UNL     1      -1.703   1.974 -26.646  1.00  0.00     0.180 C 
ATOM      2  C   UNL     1      -2.276   3.388 -26.448  1.00  0.00     0.177 C 
ATOM      3  C   UNL     1      -2.565   3.890 -25.025  1.00  0.00     0.180 C 
ATOM      4  C   UNL     1      -2.675   2.677 -24.055  1.00  0.00     0.214 C 
ATOM      5  C   UNL     1      -1.398   1.804 -24.193  1.00  0.00     0.339 C 
ATOM      6  O   UNL     1      -1.352   1.204 -25.442  1.00  0.00    -0.332 OA
ENDROOT
BRANCH   1   7
ATOM      7  C   UNL     1      -0.601   1.886 -27.779  1.00  0.00     0.198 C 
BRANCH   7   8
ATOM      8  O   UNL     1       0.070   3.075 -28.230  1.00  0.00    -0.347 OA
BRANCH   8   9
ATOM      9  C   UNL     1       1.357   3.529 -27.786  1.00  0.00     0.281 C 
ATOM     10  C   UNL     1       3.020   3.534 -24.615  1.00  0.00     0.041 C 
ATOM     11  C   UNL     1       2.578   4.130 -25.930  1.00  0.00     0.150 C 
ATOM     12  C   UNL     1       2.269   5.635 -26.030  1.00  0.00     0.174 C 
ATOM     13  O   UNL     1       1.384   3.436 -26.312  1.00  0.00    -0.344 OA
ATOM     14  C   UNL     1       2.469   5.995 -27.511  1.00  0.00     0.179 C 
ATOM     15  C   UNL     1       1.651   5.002 -28.403  1.00  0.00     0.202 C 
BRANCH  12  16
ATOM     16  O   UNL     1       0.919   5.916 -25.615  1.00  0.00    -0.388 OA
ATOM     17  H   UNL     1       0.710   5.252 -24.952  1.00  0.00     0.211 HD
ENDBRANCH  12  16
BRANCH  14  18
ATOM     18  O   UNL     1       3.862   5.893 -27.729  1.00  0.00    -0.387 OA
ATOM     19  H   UNL     1       4.031   5.756 -28.694  1.00  0.00     0.211 HD
ENDBRANCH  14  18
BRANCH  15  20
ATOM     20  O   UNL     1       0.443   5.656 -28.699  1.00  0.00    -0.385 OA
ATOM     21  H   UNL     1      -0.292   5.022 -28.508  1.00  0.00     0.211 HD
ENDBRANCH  15  20
ENDBRANCH   8   9
ENDBRANCH   7   8
ENDBRANCH   1   7
BRANCH   2  22
ATOM     22  O   UNL     1      -3.487   3.409 -27.190  1.00  0.00    -0.387 OA
ATOM     23  H   UNL     1      -4.008   2.538 -26.958  1.00  0.00     0.211 HD
ENDBRANCH   2  22
BRANCH   3  24
ATOM     24  O   UNL     1      -1.576   4.774 -24.609  1.00  0.00    -0.387 OA
ATOM     25  H   UNL     1      -1.246   5.237 -25.470  1.00  0.00     0.211 HD
ENDBRANCH   3  24
BRANCH   5  26
ATOM     26  O   UNL     1      -1.339   0.848 -23.142  1.00  0.00    -0.454 OA
BRANCH  26  27
ATOM     27  C   UNL     1      -0.396   0.751 -22.052  1.00  0.00     0.214 A 
ATOM     28  C   UNL     1      -0.519  -0.244 -21.030  1.00  0.00     0.180 A 
ATOM     29  C   UNL     1       0.505   1.784 -21.709  1.00  0.00     0.239 A 
ATOM     30  O   UNL     1       0.490  -0.511 -20.184  1.00  0.00    -0.452 OA
ATOM     31  C   UNL     1       1.208   1.774 -20.471  1.00  0.00     0.111 A 
ATOM     32  O   UNL     1       0.502   2.831 -22.417  1.00  0.00    -0.285 OA
ATOM     33  C   UNL     1       1.276   0.494 -19.863  1.00  0.00     0.146 A 
ATOM     34  C   UNL     1       1.617   2.927 -19.768  1.00  0.00     0.134 A 
ATOM     35  C   UNL     1       2.039   0.377 -18.707  1.00  0.00     0.094 A 
ATOM     36  C   UNL     1       2.169   2.761 -18.465  1.00  0.00     0.093 A 
ATOM     37  C   UNL     1       2.357   1.508 -17.939  1.00  0.00     0.123 A 
BRANCH  28  38
ATOM     38  C   UNL     1      -1.832  -0.269 -20.349  1.00  0.00     0.025 A 
ATOM     39  C   UNL     1      -2.020   0.934 -19.626  1.00  0.00     0.062 A 
ATOM     40  C   UNL     1      -2.951  -1.116 -20.524  1.00  0.00     0.016 A 
ATOM     41  C   UNL     1      -3.224   1.604 -19.826  1.00  0.00     0.158 A 
ATOM     42  C   UNL     1      -4.217  -0.530 -20.449  1.00  0.00     0.051 A 
ATOM     43  C   UNL     1      -4.275   0.918 -20.375  1.00  0.00     0.157 A 
BRANCH  41  44
ATOM     44  O   UNL     1      -3.279   2.959 -19.526  1.00  0.00    -0.504 OA
ATOM     45  H   UNL     1      -4.010   3.362 -18.949  1.00  0.00     0.293 HD
ENDBRANCH  41  44
BRANCH  43  46
ATOM     46  O   UNL     1      -5.182   1.648 -21.167  1.00  0.00    -0.504 OA
ATOM     47  H   UNL     1      -5.415   2.580 -20.801  1.00  0.00     0.293 HD
ENDBRANCH  43  46
ENDBRANCH  28  38
BRANCH  34  48
ATOM     48  O   UNL     1       1.248   4.211 -20.213  1.00  0.00    -0.507 OA
ATOM     49  H   UNL     1       1.517   4.554 -21.167  1.00  0.00     0.293 HD
ENDBRANCH  34  48
BRANCH  37  50
ATOM     50  O   UNL     1       2.804   1.392 -16.622  1.00  0.00    -0.508 OA
ATOM     51  H   UNL     1       2.242   1.669 -15.801  1.00  0.00     0.293 HD
ENDBRANCH  37  50
ENDBRANCH  26  27
ENDBRANCH   5  26
BRANCH   4  52
ATOM     52  O   UNL     1      -2.751   3.050 -22.699  1.00  0.00    -0.384 OA
ATOM     53  H   UNL     1      -3.484   3.757 -22.532  1.00  0.00     0.211 HD
ENDBRANCH   4  52
TORSDOF 16
ENDMDL
MODEL 6
REMARK VINA RESULT:    -7.116      1.636      5.644
REMARK INTER + INTRA:         -14.071
REMARK INTER:                 -11.252
REMARK INTRA:                  -2.819
REMARK UNBOUND:                -2.379
REMARK SMILES C[C@H]1O[C@@H](OC[C@H]2O[C@H](Oc3c(-c4ccc(O)c(O)c4)oc4cc(O)cc(O)c4c3=O)[C@@H](O)[C@@H](O)[C@@H]2O)[C@@H](O)[C@H](O)[C@H]1O
REMARK SMILES IDX 7 1 36 2 34 3 32 4 9 5 8 6 6 7 5 8 4 9 1 10 2 11 42 12 3 13
REMARK SMILES IDX 40 14 38 15 43 16 41 18 39 20 37 22 35 24 10 26 11 27 12 28
REMARK SMILES IDX 30 29 21 30 29 31 31 32 22 33 27 34 23 35 26 36 24 37 13 38
REMARK SMILES IDX 20 39 14 40 18 41 15 42 16 43 19 44 17 46 28 48 25 50 33 52
REMARK H PARENT 43 17 41 19 39 21 37 23 35 25 19 45 17 47 28 49 25 51 33 53
REMARK Flexibility Score: inf
ROOT
ATOM      1  C   UNL     1      -3.300   1.640 -21.352  1.00  0.00     0.180 C 
ATOM      2  C   UNL     1      -4.633   1.028 -21.815  1.00  0.00     0.177 C 
ATOM      3  C   UNL     1      -4.863   0.771 -23.312  1.00  0.00     0.180 C 
ATOM      4  C   UNL     1      -3.874   1.634 -24.149  1.00  0.00     0.214 C 
ATOM      5  C   UNL     1      -2.427   1.364 -23.654  1.00  0.00     0.339 C 
ATOM      6  O   UNL     1      -2.255   1.849 -22.367  1.00  0.00    -0.332 OA
ENDROOT
BRANCH   1   7
ATOM      7  C   UNL     1      -2.742   1.012 -20.010  1.00  0.00     0.198 C 
BRANCH   7   8
ATOM      8  O   UNL     1      -1.993  -0.215 -20.043  1.00  0.00    -0.347 OA
BRANCH   8   9
ATOM      9  C   UNL     1      -0.643  -0.384 -19.586  1.00  0.00     0.281 C 
ATOM     10  C   UNL     1       1.469   1.473 -17.369  1.00  0.00     0.041 C 
ATOM     11  C   UNL     1       1.145   0.703 -18.627  1.00  0.00     0.150 C 
ATOM     12  C   UNL     1       1.820   1.079 -19.958  1.00  0.00     0.174 C 
ATOM     13  O   UNL     1      -0.268   0.829 -18.830  1.00  0.00    -0.344 OA
ATOM     14  C   UNL     1       1.776  -0.197 -20.813  1.00  0.00     0.179 C 
ATOM     15  C   UNL     1       0.311  -0.749 -20.847  1.00  0.00     0.202 C 
BRANCH  12  16
ATOM     16  O   UNL     1       1.120   2.156 -20.609  1.00  0.00    -0.388 OA
ATOM     17  H   UNL     1       0.191   2.017 -20.408  1.00  0.00     0.211 HD
ENDBRANCH  12  16
BRANCH  14  18
ATOM     18  O   UNL     1       2.674  -1.091 -20.188  1.00  0.00    -0.387 OA
ATOM     19  H   UNL     1       3.090  -1.668 -20.875  1.00  0.00     0.211 HD
ENDBRANCH  14  18
BRANCH  15  20
ATOM     20  O   UNL     1      -0.254  -0.267 -22.041  1.00  0.00    -0.385 OA
ATOM     21  H   UNL     1       0.345  -0.536 -22.781  1.00  0.00     0.211 HD
ENDBRANCH  15  20
ENDBRANCH   8   9
ENDBRANCH   7   8
ENDBRANCH   1   7
BRANCH   2  22
ATOM     22  O   UNL     1      -5.637   1.920 -21.350  1.00  0.00    -0.387 OA
ATOM     23  H   UNL     1      -6.508   1.710 -21.881  1.00  0.00     0.211 HD
ENDBRANCH   2  22
BRANCH   3  24
ATOM     24  O   UNL     1      -4.716  -0.580 -23.603  1.00  0.00    -0.387 OA
ATOM     25  H   UNL     1      -5.256  -0.733 -24.469  1.00  0.00     0.211 HD
ENDBRANCH   3  24
BRANCH   5  26
ATOM     26  O   UNL     1      -1.484   1.920 -24.562  1.00  0.00    -0.454 OA
BRANCH  26  27
ATOM     27  C   UNL     1      -0.725   3.144 -24.450  1.00  0.00     0.214 A 
ATOM     28  C   UNL     1      -1.039   4.305 -25.227  1.00  0.00     0.180 A 
ATOM     29  C   UNL     1       0.549   3.215 -23.845  1.00  0.00     0.239 A 
ATOM     30  O   UNL     1      -0.522   5.509 -24.932  1.00  0.00    -0.452 OA
ATOM     31  C   UNL     1       1.384   4.357 -24.006  1.00  0.00     0.111 A 
ATOM     32  O   UNL     1       1.030   2.156 -23.349  1.00  0.00    -0.285 OA
ATOM     33  C   UNL     1       0.684   5.524 -24.408  1.00  0.00     0.146 A 
ATOM     34  C   UNL     1       2.795   4.332 -23.998  1.00  0.00     0.134 A 
ATOM     35  C   UNL     1       1.408   6.708 -24.482  1.00  0.00     0.094 A 
ATOM     36  C   UNL     1       3.492   5.528 -24.332  1.00  0.00     0.093 A 
ATOM     37  C   UNL     1       2.807   6.689 -24.587  1.00  0.00     0.123 A 
BRANCH  28  38
ATOM     38  C   UNL     1      -1.097   4.072 -26.687  1.00  0.00     0.025 A 
ATOM     39  C   UNL     1       0.215   4.006 -27.215  1.00  0.00     0.062 A 
ATOM     40  C   UNL     1      -2.165   3.657 -27.517  1.00  0.00     0.016 A 
ATOM     41  C   UNL     1       0.509   2.917 -28.031  1.00  0.00     0.158 A 
ATOM     42  C   UNL     1      -1.865   2.766 -28.551  1.00  0.00     0.051 A 
ATOM     43  C   UNL     1      -0.527   2.206 -28.577  1.00  0.00     0.157 A 
BRANCH  41  44
ATOM     44  O   UNL     1       1.841   2.560 -28.193  1.00  0.00    -0.504 OA
ATOM     45  H   UNL     1       2.565   2.838 -27.538  1.00  0.00     0.293 HD
ENDBRANCH  41  44
BRANCH  43  46
ATOM     46  O   UNL     1      -0.322   0.831 -28.799  1.00  0.00    -0.504 OA
ATOM     47  H   UNL     1      -0.281   0.261 -27.944  1.00  0.00     0.293 HD
ENDBRANCH  43  46
ENDBRANCH  28  38
BRANCH  34  48
ATOM     48  O   UNL     1       3.492   3.110 -23.933  1.00  0.00    -0.507 OA
ATOM     49  H   UNL     1       4.210   2.932 -23.190  1.00  0.00     0.293 HD
ENDBRANCH  34  48
BRANCH  37  50
ATOM     50  O   UNL     1       3.521   7.811 -25.009  1.00  0.00    -0.508 OA
ATOM     51  H   UNL     1       3.720   8.624 -24.403  1.00  0.00     0.293 HD
ENDBRANCH  37  50
ENDBRANCH  26  27
ENDBRANCH   5  26
BRANCH   4  52
ATOM     52  O   UNL     1      -3.884   1.322 -25.522  1.00  0.00    -0.384 OA
ATOM     53  H   UNL     1      -3.232   0.555 -25.750  1.00  0.00     0.211 HD
ENDBRANCH   4  52
TORSDOF 16
ENDMDL
MODEL 7
REMARK VINA RESULT:    -7.071      1.553      5.778
REMARK INTER + INTRA:         -13.998
REMARK INTER:                 -11.775
REMARK INTRA:                  -2.223
REMARK UNBOUND:                -2.379
REMARK SMILES C[C@H]1O[C@@H](OC[C@H]2O[C@H](Oc3c(-c4ccc(O)c(O)c4)oc4cc(O)cc(O)c4c3=O)[C@@H](O)[C@@H](O)[C@@H]2O)[C@@H](O)[C@H](O)[C@H]1O
REMARK SMILES IDX 7 1 36 2 34 3 32 4 9 5 8 6 6 7 5 8 4 9 1 10 2 11 42 12 3 13
REMARK SMILES IDX 40 14 38 15 43 16 41 18 39 20 37 22 35 24 10 26 11 27 12 28
REMARK SMILES IDX 30 29 21 30 29 31 31 32 22 33 27 34 23 35 26 36 24 37 13 38
REMARK SMILES IDX 20 39 14 40 18 41 15 42 16 43 19 44 17 46 28 48 25 50 33 52
REMARK H PARENT 43 17 41 19 39 21 37 23 35 25 19 45 17 47 28 49 25 51 33 53
REMARK Flexibility Score: inf
ROOT
ATOM      1  C   UNL     1      -3.031   2.534 -25.402  1.00  0.00     0.180 C 
ATOM      2  C   UNL     1      -2.959   3.380 -26.684  1.00  0.00     0.177 C 
ATOM      3  C   UNL     1      -1.589   3.837 -27.208  1.00  0.00     0.180 C 
ATOM      4  C   UNL     1      -0.538   3.760 -26.062  1.00  0.00     0.214 C 
ATOM      5  C   UNL     1      -0.562   2.332 -25.452  1.00  0.00     0.339 C 
ATOM      6  O   UNL     1      -1.761   2.104 -24.794  1.00  0.00    -0.332 OA
ENDROOT
BRANCH   1   7
ATOM      7  C   UNL     1      -4.110   1.377 -25.462  1.00  0.00     0.198 C 
BRANCH   7   8
ATOM      8  O   UNL     1      -3.902   0.155 -24.734  1.00  0.00    -0.347 OA
BRANCH   8   9
ATOM      9  C   UNL     1      -4.137  -0.033 -23.330  1.00  0.00     0.281 C 
ATOM     10  C   UNL     1      -5.536   2.028 -20.757  1.00  0.00     0.041 C 
ATOM     11  C   UNL     1      -4.531   1.067 -21.347  1.00  0.00     0.150 C 
ATOM     12  C   UNL     1      -3.054   1.135 -20.919  1.00  0.00     0.174 C 
ATOM     13  O   UNL     1      -4.561   1.265 -22.766  1.00  0.00    -0.344 OA
ATOM     14  C   UNL     1      -2.488  -0.270 -21.181  1.00  0.00     0.179 C 
ATOM     15  C   UNL     1      -2.823  -0.700 -22.649  1.00  0.00     0.202 C 
BRANCH  12  16
ATOM     16  O   UNL     1      -2.338   2.124 -21.683  1.00  0.00    -0.388 OA
ATOM     17  H   UNL     1      -2.618   2.973 -21.330  1.00  0.00     0.211 HD
ENDBRANCH  12  16
BRANCH  14  18
ATOM     18  O   UNL     1      -3.108  -1.101 -20.221  1.00  0.00    -0.387 OA
ATOM     19  H   UNL     1      -2.569  -1.099 -19.391  1.00  0.00     0.211 HD
ENDBRANCH  14  18
BRANCH  15  20
ATOM     20  O   UNL     1      -1.678  -0.405 -23.407  1.00  0.00    -0.385 OA
ATOM     21  H   UNL     1      -1.708  -0.967 -24.221  1.00  0.00     0.211 HD
ENDBRANCH  15  20
ENDBRANCH   8   9
ENDBRANCH   7   8
ENDBRANCH   1   7
BRANCH   2  22
ATOM     22  O   UNL     1      -3.748   4.532 -26.418  1.00  0.00    -0.387 OA
ATOM     23  H   UNL     1      -4.711   4.203 -26.193  1.00  0.00     0.211 HD
ENDBRANCH   2  22
BRANCH   3  24
ATOM     24  O   UNL     1      -1.200   3.062 -28.295  1.00  0.00    -0.387 OA
ATOM     25  H   UNL     1      -1.851   3.314 -29.055  1.00  0.00     0.211 HD
ENDBRANCH   3  24
BRANCH   5  26
ATOM     26  O   UNL     1       0.557   2.143 -24.596  1.00  0.00    -0.454 OA
BRANCH  26  27
ATOM     27  C   UNL     1       0.609   2.135 -23.152  1.00  0.00     0.214 A 
ATOM     28  C   UNL     1       0.883   3.319 -22.396  1.00  0.00     0.180 A 
ATOM     29  C   UNL     1       0.724   0.954 -22.385  1.00  0.00     0.239 A 
ATOM     30  O   UNL     1       0.662   3.375 -21.072  1.00  0.00    -0.452 OA
ATOM     31  C   UNL     1       1.059   0.997 -21.003  1.00  0.00     0.111 A 
ATOM     32  O   UNL     1       0.751  -0.151 -23.000  1.00  0.00    -0.285 OA
ATOM     33  C   UNL     1       0.823   2.258 -20.397  1.00  0.00     0.146 A 
ATOM     34  C   UNL     1       1.766  -0.011 -20.313  1.00  0.00     0.134 A 
ATOM     35  C   UNL     1       1.020   2.353 -19.024  1.00  0.00     0.094 A 
ATOM     36  C   UNL     1       2.167   0.245 -18.970  1.00  0.00     0.093 A 
ATOM     37  C   UNL     1       1.815   1.416 -18.347  1.00  0.00     0.123 A 
BRANCH  28  38
ATOM     38  C   UNL     1       2.130   4.018 -22.778  1.00  0.00     0.025 A 
ATOM     39  C   UNL     1       2.832   3.256 -23.742  1.00  0.00     0.062 A 
ATOM     40  C   UNL     1       2.550   5.351 -22.555  1.00  0.00     0.016 A 
ATOM     41  C   UNL     1       3.250   3.927 -24.888  1.00  0.00     0.158 A 
ATOM     42  C   UNL     1       3.239   5.987 -23.592  1.00  0.00     0.051 A 
ATOM     43  C   UNL     1       3.311   5.295 -24.864  1.00  0.00     0.157 A 
BRANCH  41  44
ATOM     44  O   UNL     1       3.517   3.177 -26.026  1.00  0.00    -0.504 OA
ATOM     45  H   UNL     1       3.042   3.336 -26.910  1.00  0.00     0.293 HD
ENDBRANCH  41  44
BRANCH  43  46
ATOM     46  O   UNL     1       3.067   5.975 -26.073  1.00  0.00    -0.504 OA
ATOM     47  H   UNL     1       3.751   6.710 -26.295  1.00  0.00     0.293 HD
ENDBRANCH  43  46
ENDBRANCH  28  38
BRANCH  34  48
ATOM     48  O   UNL     1       2.296  -1.119 -21.002  1.00  0.00    -0.507 OA
ATOM     49  H   UNL     1       3.303  -1.390 -20.902  1.00  0.00     0.293 HD
ENDBRANCH  34  48
BRANCH  37  50
ATOM     50  O   UNL     1       2.314   1.672 -17.069  1.00  0.00    -0.508 OA
ATOM     51  H   UNL     1       1.858   2.308 -16.394  1.00  0.00     0.293 HD
ENDBRANCH  37  50
ENDBRANCH  26  27
ENDBRANCH   5  26
BRANCH   4  52
ATOM     52  O   UNL     1       0.783   3.978 -26.498  1.00  0.00    -0.384 OA
ATOM     53  H   UNL     1       1.323   3.100 -26.554  1.00  0.00     0.211 HD
ENDBRANCH   4  52
TORSDOF 16
ENDMDL
MODEL 8
REMARK VINA RESULT:    -6.879      2.615      7.718
REMARK INTER + INTRA:         -13.682
REMARK INTER:                 -10.998
REMARK INTRA:                  -2.684
REMARK UNBOUND:                -2.379
REMARK SMILES C[C@H]1O[C@@H](OC[C@H]2O[C@H](Oc3c(-c4ccc(O)c(O)c4)oc4cc(O)cc(O)c4c3=O)[C@@H](O)[C@@H](O)[C@@H]2O)[C@@H](O)[C@H](O)[C@H]1O
REMARK SMILES IDX 7 1 36 2 34 3 32 4 9 5 8 6 6 7 5 8 4 9 1 10 2 11 42 12 3 13
REMARK SMILES IDX 40 14 38 15 43 16 41 18 39 20 37 22 35 24 10 26 11 27 12 28
REMARK SMILES IDX 30 29 21 30 29 31 31 32 22 33 27 34 23 35 26 36 24 37 13 38
REMARK SMILES IDX 20 39 14 40 18 41 15 42 16 43 19 44 17 46 28 48 25 50 33 52
REMARK H PARENT 43 17 41 19 39 21 37 23 35 25 19 45 17 47 28 49 25 51 33 53
REMARK Flexibility Score: inf
ROOT
ATOM      1  C   UNL     1      -1.319   2.009 -27.233  1.00  0.00     0.180 C 
ATOM      2  C   UNL     1      -0.423   3.104 -27.838  1.00  0.00     0.177 C 
ATOM      3  C   UNL     1       0.226   4.143 -26.910  1.00  0.00     0.180 C 
ATOM      4  C   UNL     1      -0.537   4.184 -25.554  1.00  0.00     0.214 C 
ATOM      5  C   UNL     1      -0.612   2.745 -24.974  1.00  0.00     0.339 C 
ATOM      6  O   UNL     1      -1.420   1.943 -25.766  1.00  0.00    -0.332 OA
ENDROOT
BRANCH   1   7
ATOM      7  C   UNL     1      -1.129   0.588 -27.904  1.00  0.00     0.198 C 
BRANCH   7   8
ATOM      8  O   UNL     1      -1.921  -0.529 -27.468  1.00  0.00    -0.347 OA
BRANCH   8   9
ATOM      9  C   UNL     1      -3.314  -0.729 -27.751  1.00  0.00     0.281 C 
ATOM     10  C   UNL     1      -5.586   0.694 -30.125  1.00  0.00     0.041 C 
ATOM     11  C   UNL     1      -5.159   0.206 -28.761  1.00  0.00     0.150 C 
ATOM     12  C   UNL     1      -5.688   0.897 -27.493  1.00  0.00     0.174 C 
ATOM     13  O   UNL     1      -3.730   0.305 -28.721  1.00  0.00    -0.344 OA
ATOM     14  C   UNL     1      -5.593  -0.159 -26.381  1.00  0.00     0.179 C 
ATOM     15  C   UNL     1      -4.147  -0.761 -26.358  1.00  0.00     0.202 C 
BRANCH  12  16
ATOM     16  O   UNL     1      -4.897   2.055 -27.165  1.00  0.00    -0.388 OA
ATOM     17  H   UNL     1      -3.988   1.748 -27.143  1.00  0.00     0.211 HD
ENDBRANCH  12  16
BRANCH  14  18
ATOM     18  O   UNL     1      -6.573  -1.125 -26.706  1.00  0.00    -0.387 OA
ATOM     19  H   UNL     1      -6.723  -1.712 -25.924  1.00  0.00     0.211 HD
ENDBRANCH  14  18
BRANCH  15  20
ATOM     20  O   UNL     1      -3.454  -0.056 -25.359  1.00  0.00    -0.385 OA
ATOM     21  H   UNL     1      -4.128   0.325 -24.743  1.00  0.00     0.211 HD
ENDBRANCH  15  20
ENDBRANCH   8   9
ENDBRANCH   7   8
ENDBRANCH   1   7
BRANCH   2  22
ATOM     22  O   UNL     1      -1.247   3.787 -28.774  1.00  0.00    -0.387 OA
ATOM     23  H   UNL     1      -1.611   4.640 -28.301  1.00  0.00     0.211 HD
ENDBRANCH   2  22
BRANCH   3  24
ATOM     24  O   UNL     1       1.571   3.850 -26.717  1.00  0.00    -0.387 OA
ATOM     25  H   UNL     1       2.077   4.421 -27.412  1.00  0.00     0.211 HD
ENDBRANCH   3  24
BRANCH   5  26
ATOM     26  O   UNL     1      -1.058   2.780 -23.625  1.00  0.00    -0.454 OA
BRANCH  26  27
ATOM     27  C   UNL     1      -0.454   2.194 -22.450  1.00  0.00     0.214 A 
ATOM     28  C   UNL     1      -1.137   1.224 -21.650  1.00  0.00     0.180 A 
ATOM     29  C   UNL     1       0.680   2.738 -21.807  1.00  0.00     0.239 A 
ATOM     30  O   UNL     1      -0.488   0.485 -20.735  1.00  0.00    -0.452 OA
ATOM     31  C   UNL     1       1.070   2.311 -20.506  1.00  0.00     0.111 A 
ATOM     32  O   UNL     1       1.207   3.771 -22.309  1.00  0.00    -0.285 OA
ATOM     33  C   UNL     1       0.536   1.050 -20.134  1.00  0.00     0.146 A 
ATOM     34  C   UNL     1       1.733   3.119 -19.557  1.00  0.00     0.134 A 
ATOM     35  C   UNL     1       0.957   0.511 -18.924  1.00  0.00     0.094 A 
ATOM     36  C   UNL     1       1.915   2.603 -18.242  1.00  0.00     0.093 A 
ATOM     37  C   UNL     1       1.515   1.329 -17.930  1.00  0.00     0.123 A 
BRANCH  28  38
ATOM     38  C   UNL     1      -2.471   1.648 -21.172  1.00  0.00     0.025 A 
ATOM     39  C   UNL     1      -3.432   1.449 -22.192  1.00  0.00     0.062 A 
ATOM     40  C   UNL     1      -2.940   1.931 -19.868  1.00  0.00     0.016 A 
ATOM     41  C   UNL     1      -4.592   0.765 -21.836  1.00  0.00     0.158 A 
ATOM     42  C   UNL     1      -4.233   1.509 -19.546  1.00  0.00     0.051 A 
ATOM     43  C   UNL     1      -4.915   0.665 -20.509  1.00  0.00     0.157 A 
BRANCH  41  44
ATOM     44  O   UNL     1      -5.328   0.155 -22.842  1.00  0.00    -0.504 OA
ATOM     45  H   UNL     1      -4.983  -0.644 -23.366  1.00  0.00     0.293 HD
ENDBRANCH  41  44
BRANCH  43  46
ATOM     46  O   UNL     1      -5.608  -0.489 -20.097  1.00  0.00    -0.504 OA
ATOM     47  H   UNL     1      -5.354  -0.829 -19.160  1.00  0.00     0.293 HD
ENDBRANCH  43  46
ENDBRANCH  28  38
BRANCH  34  48
ATOM     48  O   UNL     1       1.964   4.485 -19.812  1.00  0.00    -0.507 OA
ATOM     49  H   UNL     1       1.981   4.861 -20.790  1.00  0.00     0.293 HD
ENDBRANCH  34  48
BRANCH  37  50
ATOM     50  O   UNL     1       1.618   0.898 -16.606  1.00  0.00    -0.508 OA
ATOM     51  H   UNL     1       1.167   1.380 -15.812  1.00  0.00     0.293 HD
ENDBRANCH  37  50
ENDBRANCH  26  27
ENDBRANCH   5  26
BRANCH   4  52
ATOM     52  O   UNL     1       0.101   4.969 -24.575  1.00  0.00    -0.384 OA
ATOM     53  H   UNL     1       0.651   5.736 -24.993  1.00  0.00     0.211 HD
ENDBRANCH   4  52
TORSDOF 16
ENDMDL
MODEL 9
REMARK VINA RESULT:    -6.811      2.290      6.087
REMARK INTER + INTRA:         -13.571
REMARK INTER:                 -11.740
REMARK INTRA:                  -1.831
REMARK UNBOUND:                -2.379
REMARK SMILES C[C@H]1O[C@@H](OC[C@H]2O[C@H](Oc3c(-c4ccc(O)c(O)c4)oc4cc(O)cc(O)c4c3=O)[C@@H](O)[C@@H](O)[C@@H]2O)[C@@H](O)[C@H](O)[C@H]1O
REMARK SMILES IDX 7 1 36 2 34 3 32 4 9 5 8 6 6 7 5 8 4 9 1 10 2 11 42 12 3 13
REMARK SMILES IDX 40 14 38 15 43 16 41 18 39 20 37 22 35 24 10 26 11 27 12 28
REMARK SMILES IDX 30 29 21 30 29 31 31 32 22 33 27 34 23 35 26 36 24 37 13 38
REMARK SMILES IDX 20 39 14 40 18 41 15 42 16 43 19 44 17 46 28 48 25 50 33 52
REMARK H PARENT 43 17 41 19 39 21 37 23 35 25 19 45 17 47 28 49 25 51 33 53
REMARK Flexibility Score: inf
ROOT
ATOM      1  C   UNL     1      -3.974  -0.681 -23.418  1.00  0.00     0.180 C 
ATOM      2  C   UNL     1      -5.077   0.172 -22.767  1.00  0.00     0.177 C 
ATOM      3  C   UNL     1      -4.682   1.354 -21.868  1.00  0.00     0.180 C 
ATOM      4  C   UNL     1      -3.212   1.177 -21.388  1.00  0.00     0.214 C 
ATOM      5  C   UNL     1      -2.299   0.965 -22.626  1.00  0.00     0.339 C 
ATOM      6  O   UNL     1      -2.579  -0.250 -23.234  1.00  0.00    -0.332 OA
ENDROOT
BRANCH   1   7
ATOM      7  C   UNL     1      -4.297  -1.111 -24.907  1.00  0.00     0.198 C 
BRANCH   7   8
ATOM      8  O   UNL     1      -3.266  -1.085 -25.908  1.00  0.00    -0.347 OA
BRANCH   8   9
ATOM      9  C   UNL     1      -2.807   0.083 -26.605  1.00  0.00     0.281 C 
ATOM     10  C   UNL     1      -2.952   1.140 -30.023  1.00  0.00     0.041 C 
ATOM     11  C   UNL     1      -2.289   0.923 -28.684  1.00  0.00     0.150 C 
ATOM     12  C   UNL     1      -0.789   0.584 -28.611  1.00  0.00     0.174 C 
ATOM     13  O   UNL     1      -2.988  -0.156 -28.052  1.00  0.00    -0.344 OA
ATOM     14  C   UNL     1      -0.335   1.038 -27.215  1.00  0.00     0.179 C 
ATOM     15  C   UNL     1      -1.293   0.432 -26.135  1.00  0.00     0.202 C 
BRANCH  12  16
ATOM     16  O   UNL     1      -0.568  -0.828 -28.787  1.00  0.00    -0.388 OA
ATOM     17  H   UNL     1      -1.376  -1.168 -29.180  1.00  0.00     0.211 HD
ENDBRANCH  12  16
BRANCH  14  18
ATOM     18  O   UNL     1      -0.388   2.449 -27.251  1.00  0.00    -0.387 OA
ATOM     19  H   UNL     1       0.327   2.817 -26.675  1.00  0.00     0.211 HD
ENDBRANCH  14  18
BRANCH  15  20
ATOM     20  O   UNL     1      -0.652  -0.725 -25.658  1.00  0.00    -0.385 OA
ATOM     21  H   UNL     1      -0.834  -1.452 -26.304  1.00  0.00     0.211 HD
ENDBRANCH  15  20
ENDBRANCH   8   9
ENDBRANCH   7   8
ENDBRANCH   1   7
BRANCH   2  22
ATOM     22  O   UNL     1      -5.853  -0.739 -22.002  1.00  0.00    -0.387 OA
ATOM     23  H   UNL     1      -5.885  -1.638 -22.528  1.00  0.00     0.211 HD
ENDBRANCH   2  22
BRANCH   3  24
ATOM     24  O   UNL     1      -4.845   2.557 -22.544  1.00  0.00    -0.387 OA
ATOM     25  H   UNL     1      -5.586   2.379 -23.240  1.00  0.00     0.211 HD
ENDBRANCH   3  24
BRANCH   5  26
ATOM     26  O   UNL     1      -0.931   1.070 -22.254  1.00  0.00    -0.454 OA
BRANCH  26  27
ATOM     27  C   UNL     1       0.073   1.996 -22.724  1.00  0.00     0.214 A 
ATOM     28  C   UNL     1       1.273   2.251 -21.988  1.00  0.00     0.180 A 
ATOM     29  C   UNL     1      -0.166   2.952 -23.736  1.00  0.00     0.239 A 
ATOM     30  O   UNL     1       2.317   2.889 -22.545  1.00  0.00    -0.452 OA
ATOM     31  C   UNL     1       0.739   4.025 -23.971  1.00  0.00     0.111 A 
ATOM     32  O   UNL     1      -1.309   2.971 -24.276  1.00  0.00    -0.285 OA
ATOM     33  C   UNL     1       2.041   3.799 -23.452  1.00  0.00     0.146 A 
ATOM     34  C   UNL     1       0.373   5.296 -24.463  1.00  0.00     0.134 A 
ATOM     35  C   UNL     1       3.014   4.751 -23.734  1.00  0.00     0.094 A 
ATOM     36  C   UNL     1       1.363   6.319 -24.494  1.00  0.00     0.093 A 
ATOM     37  C   UNL     1       2.655   6.052 -24.117  1.00  0.00     0.123 A 
BRANCH  28  38
ATOM     38  C   UNL     1       1.059   2.665 -20.584  1.00  0.00     0.025 A 
ATOM     39  C   UNL     1       0.605   1.561 -19.823  1.00  0.00     0.062 A 
ATOM     40  C   UNL     1       1.474   3.823 -19.886  1.00  0.00     0.016 A 
ATOM     41  C   UNL     1       1.273   1.305 -18.629  1.00  0.00     0.158 A 
ATOM     42  C   UNL     1       1.894   3.658 -18.563  1.00  0.00     0.051 A 
ATOM     43  C   UNL     1       2.037   2.299 -18.076  1.00  0.00     0.157 A 
BRANCH  41  44
ATOM     44  O   UNL     1       1.192   0.027 -18.092  1.00  0.00    -0.504 OA
ATOM     45  H   UNL     1       0.380  -0.570 -18.222  1.00  0.00     0.293 HD
ENDBRANCH  41  44
BRANCH  43  46
ATOM     46  O   UNL     1       3.171   1.910 -17.338  1.00  0.00    -0.504 OA
ATOM     47  H   UNL     1       3.535   2.631 -16.702  1.00  0.00     0.293 HD
ENDBRANCH  43  46
ENDBRANCH  28  38
BRANCH  34  48
ATOM     48  O   UNL     1      -0.982   5.628 -24.661  1.00  0.00    -0.507 OA
ATOM     49  H   UNL     1      -1.525   5.237 -25.468  1.00  0.00     0.293 HD
ENDBRANCH  34  48
BRANCH  37  50
ATOM     50  O   UNL     1       3.570   7.105 -24.064  1.00  0.00    -0.508 OA
ATOM     51  H   UNL     1       4.433   7.084 -23.496  1.00  0.00     0.293 HD
ENDBRANCH  37  50
ENDBRANCH  26  27
ENDBRANCH   5  26
BRANCH   4  52
ATOM     52  O   UNL     1      -2.704   2.305 -20.714  1.00  0.00    -0.384 OA
ATOM     53  H   UNL     1      -2.801   3.166 -21.274  1.00  0.00     0.211 HD
ENDBRANCH   4  52
TORSDOF 16
ENDMDL
