MODEL 1
REMARK VINA RESULT:    -6.034      0.000      0.000
REMARK INTER + INTRA:          -6.202
REMARK INTER:                  -6.563
REMARK INTRA:                   0.362
REMARK UNBOUND:                 0.362
REMARK SMILES CC1(C)CC[C@@]2(C(=O)[O-])CC[C@@]3(C)C(=CC[C@H]4[C@]5(C)CC[C@@H](O)C(C)(C)[C@H]5CC[C@@]43C)[C@@H]2C1
REMARK SMILES IDX 6 1 5 2 10 3 32 4 4 5 11 6 14 7 33 8 2 9 12 10 15 11 1 12
REMARK SMILES IDX 3 13 13 14 30 15 16 16 17 17 29 18 31 19 18 20 28 21 27 22
REMARK SMILES IDX 20 23 19 24 24 25 21 26 22 27 25 28 26 29 7 30 8 31 9 32
REMARK SMILES IDX 23 33
REMARK H PARENT 23 34
REMARK Flexibility Score: inf
ROOT
ATOM      1  C   UNL     1      71.169  54.071  18.086  1.00  0.00     0.017 C 
ATOM      2  C   UNL     1      72.307  53.898  17.046  1.00  0.00     0.014 C 
ATOM      3  C   UNL     1      71.615  53.395  19.404  1.00  0.00     0.014 C 
ATOM      4  C   UNL     1      70.957  55.595  18.350  1.00  0.00     0.028 C 
ATOM      5  C   UNL     1      72.001  54.617  15.723  1.00  0.00     0.007 C 
ATOM      6  C   UNL     1      70.574  53.571  20.520  1.00  0.00     0.013 C 
ATOM      7  C   UNL     1      69.972  55.833  19.525  1.00  0.00    -0.064 C 
ATOM      8  C   UNL     1      70.646  56.353  17.024  1.00  0.00     0.015 C 
ATOM      9  C   UNL     1      71.707  56.127  15.907  1.00  0.00    -0.035 C 
ATOM     10  C   UNL     1      70.225  55.067  20.852  1.00  0.00    -0.006 C 
ATOM     11  C   UNL     1      69.051  56.829  19.458  1.00  0.00    -0.027 C 
ATOM     12  C   UNL     1      73.013  56.898  16.224  1.00  0.00     0.011 C 
ATOM     13  C   UNL     1      71.146  56.682  14.579  1.00  0.00     0.011 C 
ATOM     14  C   UNL     1      71.507  55.690  21.505  1.00  0.00     0.017 C 
ATOM     15  C   UNL     1      68.941  55.149  21.840  1.00  0.00    -0.020 C 
ATOM     16  C   UNL     1      68.038  57.145  20.518  1.00  0.00     0.032 C 
ATOM     17  C   UNL     1      68.447  56.649  21.921  1.00  0.00     0.006 C 
ATOM     18  C   UNL     1      69.310  54.635  23.271  1.00  0.00     0.008 C 
ATOM     19  C   UNL     1      67.793  54.237  21.296  1.00  0.00     0.012 C 
ATOM     20  C   UNL     1      67.432  57.042  23.097  1.00  0.00    -0.025 C 
ATOM     21  C   UNL     1      68.251  54.936  24.336  1.00  0.00     0.005 C 
ATOM     22  C   UNL     1      68.025  56.466  24.439  1.00  0.00     0.003 C 
ATOM     23  C   UNL     1      67.398  58.603  23.222  1.00  0.00     0.010 C 
ATOM     24  C   UNL     1      65.967  56.552  22.824  1.00  0.00     0.012 C 
ATOM     25  C   UNL     1      67.350  56.962  25.782  1.00  0.00    -0.006 C 
ATOM     26  C   UNL     1      66.708  59.125  24.494  1.00  0.00     0.033 C 
ATOM     27  C   UNL     1      67.322  58.527  25.770  1.00  0.00     0.120 C 
ATOM     28  C   UNL     1      65.936  56.366  26.007  1.00  0.00     0.014 C 
ATOM     29  C   UNL     1      68.222  56.534  26.997  1.00  0.00     0.014 C 
ENDROOT
BRANCH   1  30
ATOM     30  C   UNL     1      69.910  53.373  17.571  1.00  0.00     0.048 C 
ATOM     31  O   UNL     1      68.969  54.023  17.042  1.00  0.00    -0.550 OA
ATOM     32  O   UNL     1      69.752  52.004  17.753  1.00  0.00    -0.550 OA
ENDBRANCH   1  30
BRANCH  27  33
ATOM     33  O   UNL     1      66.693  59.053  26.917  1.00  0.00    -0.393 OA
ATOM     34  H   UNL     1      67.148  58.684  27.718  1.00  0.00     0.210 HD
ENDBRANCH  27  33
TORSDOF 2
ENDMDL
MODEL 2
REMARK VINA RESULT:    -5.972      3.088      5.233
REMARK INTER + INTRA:          -6.134
REMARK INTER:                  -6.482
REMARK INTRA:                   0.348
REMARK UNBOUND:                 0.362
REMARK SMILES CC1(C)CC[C@@]2(C(=O)[O-])CC[C@@]3(C)C(=CC[C@H]4[C@]5(C)CC[C@@H](O)C(C)(C)[C@H]5CC[C@@]43C)[C@@H]2C1
REMARK SMILES IDX 6 1 5 2 10 3 32 4 4 5 11 6 14 7 33 8 2 9 12 10 15 11 1 12
REMARK SMILES IDX 3 13 13 14 30 15 16 16 17 17 29 18 31 19 18 20 28 21 27 22
REMARK SMILES IDX 20 23 19 24 24 25 21 26 22 27 25 28 26 29 7 30 8 31 9 32
REMARK SMILES IDX 23 33
REMARK H PARENT 23 34
REMARK Flexibility Score: inf
ROOT
ATOM      1  C   UNL     1      69.206  53.594  18.632  1.00  0.00     0.017 C 
ATOM      2  C   UNL     1      68.091  53.329  17.586  1.00  0.00     0.014 C 
ATOM      3  C   UNL     1      69.677  55.060  18.473  1.00  0.00     0.014 C 
ATOM      4  C   UNL     1      68.607  53.412  20.062  1.00  0.00     0.028 C 
ATOM      5  C   UNL     1      67.489  51.922  17.722  1.00  0.00     0.007 C 
ATOM      6  C   UNL     1      70.741  55.437  19.515  1.00  0.00     0.013 C 
ATOM      7  C   UNL     1      69.613  53.855  21.157  1.00  0.00    -0.064 C 
ATOM      8  C   UNL     1      67.985  51.993  20.230  1.00  0.00     0.015 C 
ATOM      9  C   UNL     1      66.934  51.635  19.139  1.00  0.00    -0.035 C 
ATOM     10  C   UNL     1      70.284  55.247  21.007  1.00  0.00    -0.006 C 
ATOM     11  C   UNL     1      69.740  53.139  22.304  1.00  0.00    -0.027 C 
ATOM     12  C   UNL     1      65.613  52.411  19.371  1.00  0.00     0.011 C 
ATOM     13  C   UNL     1      66.614  50.126  19.242  1.00  0.00     0.011 C 
ATOM     14  C   UNL     1      69.176  56.324  21.274  1.00  0.00     0.017 C 
ATOM     15  C   UNL     1      71.544  55.413  22.016  1.00  0.00    -0.020 C 
ATOM     16  C   UNL     1      70.687  53.456  23.424  1.00  0.00     0.032 C 
ATOM     17  C   UNL     1      71.113  54.938  23.462  1.00  0.00     0.006 C 
ATOM     18  C   UNL     1      72.021  56.902  22.067  1.00  0.00     0.008 C 
ATOM     19  C   UNL     1      72.748  54.553  21.508  1.00  0.00     0.012 C 
ATOM     20  C   UNL     1      72.057  55.337  24.694  1.00  0.00    -0.025 C 
ATOM     21  C   UNL     1      73.012  57.203  23.195  1.00  0.00     0.005 C 
ATOM     22  C   UNL     1      72.367  56.877  24.566  1.00  0.00     0.003 C 
ATOM     23  C   UNL     1      71.255  55.121  26.022  1.00  0.00     0.010 C 
ATOM     24  C   UNL     1      73.356  54.462  24.771  1.00  0.00     0.012 C 
ATOM     25  C   UNL     1      73.049  57.567  25.817  1.00  0.00    -0.006 C 
ATOM     26  C   UNL     1      71.911  55.739  27.269  1.00  0.00     0.033 C 
ATOM     27  C   UNL     1      72.196  57.239  27.087  1.00  0.00     0.120 C 
ATOM     28  C   UNL     1      74.533  57.158  26.002  1.00  0.00     0.014 C 
ATOM     29  C   UNL     1      73.023  59.113  25.642  1.00  0.00     0.014 C 
ENDROOT
BRANCH   1  30
ATOM     30  C   UNL     1      70.385  52.661  18.355  1.00  0.00     0.048 C 
ATOM     31  O   UNL     1      70.577  51.623  19.043  1.00  0.00    -0.550 OA
ATOM     32  O   UNL     1      71.316  52.991  17.376  1.00  0.00    -0.550 OA
ENDBRANCH   1  30
BRANCH  27  33
ATOM     33  O   UNL     1      72.762  57.782  28.259  1.00  0.00    -0.393 OA
ATOM     34  H   UNL     1      72.734  57.088  28.968  1.00  0.00     0.210 HD
ENDBRANCH  27  33
TORSDOF 2
ENDMDL
MODEL 3
REMARK VINA RESULT:    -5.567      1.640      2.535
REMARK INTER + INTRA:          -5.693
REMARK INTER:                  -5.959
REMARK INTRA:                   0.266
REMARK UNBOUND:                 0.362
REMARK SMILES CC1(C)CC[C@@]2(C(=O)[O-])CC[C@@]3(C)C(=CC[C@H]4[C@]5(C)CC[C@@H](O)C(C)(C)[C@H]5CC[C@@]43C)[C@@H]2C1
REMARK SMILES IDX 6 1 5 2 10 3 32 4 4 5 11 6 14 7 33 8 2 9 12 10 15 11 1 12
REMARK SMILES IDX 3 13 13 14 30 15 16 16 17 17 29 18 31 19 18 20 28 21 27 22
REMARK SMILES IDX 20 23 19 24 24 25 21 26 22 27 25 28 26 29 7 30 8 31 9 32
REMARK SMILES IDX 23 33
REMARK H PARENT 23 34
REMARK Flexibility Score: inf
ROOT
ATOM      1  C   UNL     1      71.328  54.439  18.218  1.00  0.00     0.017 C 
ATOM      2  C   UNL     1      72.356  53.522  17.504  1.00  0.00     0.014 C 
ATOM      3  C   UNL     1      70.117  53.571  18.636  1.00  0.00     0.014 C 
ATOM      4  C   UNL     1      71.990  55.030  19.503  1.00  0.00     0.028 C 
ATOM      5  C   UNL     1      73.643  54.273  17.128  1.00  0.00     0.007 C 
ATOM      6  C   UNL     1      69.070  54.383  19.412  1.00  0.00     0.013 C 
ATOM      7  C   UNL     1      70.956  55.796  20.369  1.00  0.00    -0.064 C 
ATOM      8  C   UNL     1      73.301  55.796  19.154  1.00  0.00     0.015 C 
ATOM      9  C   UNL     1      74.326  54.951  18.341  1.00  0.00    -0.035 C 
ATOM     10  C   UNL     1      69.620  55.082  20.709  1.00  0.00    -0.006 C 
ATOM     11  C   UNL     1      71.298  56.962  20.977  1.00  0.00    -0.027 C 
ATOM     12  C   UNL     1      75.003  53.890  19.244  1.00  0.00     0.011 C 
ATOM     13  C   UNL     1      75.432  55.893  17.816  1.00  0.00     0.011 C 
ATOM     14  C   UNL     1      69.956  53.935  21.724  1.00  0.00     0.017 C 
ATOM     15  C   UNL     1      68.525  56.119  21.307  1.00  0.00    -0.020 C 
ATOM     16  C   UNL     1      70.384  57.800  21.822  1.00  0.00     0.032 C 
ATOM     17  C   UNL     1      69.210  57.002  22.426  1.00  0.00     0.006 C 
ATOM     18  C   UNL     1      67.305  55.349  21.913  1.00  0.00     0.008 C 
ATOM     19  C   UNL     1      67.979  57.035  20.163  1.00  0.00     0.012 C 
ATOM     20  C   UNL     1      68.259  57.842  23.406  1.00  0.00    -0.025 C 
ATOM     21  C   UNL     1      66.365  56.223  22.746  1.00  0.00     0.005 C 
ATOM     22  C   UNL     1      67.141  56.860  23.927  1.00  0.00     0.003 C 
ATOM     23  C   UNL     1      69.103  58.303  24.642  1.00  0.00     0.010 C 
ATOM     24  C   UNL     1      67.667  59.125  22.724  1.00  0.00     0.012 C 
ATOM     25  C   UNL     1      66.246  57.379  25.125  1.00  0.00    -0.006 C 
ATOM     26  C   UNL     1      68.270  58.857  25.810  1.00  0.00     0.033 C 
ATOM     27  C   UNL     1      67.193  57.862  26.274  1.00  0.00     0.120 C 
ATOM     28  C   UNL     1      65.248  58.487  24.701  1.00  0.00     0.014 C 
ATOM     29  C   UNL     1      65.403  56.204  25.697  1.00  0.00     0.014 C 
ENDROOT
BRANCH   1  30
ATOM     30  C   UNL     1      70.853  55.515  17.241  1.00  0.00     0.048 C 
ATOM     31  O   UNL     1      70.716  56.715  17.603  1.00  0.00    -0.550 OA
ATOM     32  O   UNL     1      70.490  55.166  15.946  1.00  0.00    -0.550 OA
ENDBRANCH   1  30
BRANCH  27  33
ATOM     33  O   UNL     1      66.473  58.384  27.368  1.00  0.00    -0.393 OA
ATOM     34  H   UNL     1      66.487  57.712  28.098  1.00  0.00     0.210 HD
ENDBRANCH  27  33
TORSDOF 2
ENDMDL
MODEL 4
REMARK VINA RESULT:    -5.413      2.149      8.128
REMARK INTER + INTRA:          -5.527
REMARK INTER:                  -5.753
REMARK INTRA:                   0.226
REMARK UNBOUND:                 0.362
REMARK SMILES CC1(C)CC[C@@]2(C(=O)[O-])CC[C@@]3(C)C(=CC[C@H]4[C@]5(C)CC[C@@H](O)C(C)(C)[C@H]5CC[C@@]43C)[C@@H]2C1
REMARK SMILES IDX 6 1 5 2 10 3 32 4 4 5 11 6 14 7 33 8 2 9 12 10 15 11 1 12
REMARK SMILES IDX 3 13 13 14 30 15 16 16 17 17 29 18 31 19 18 20 28 21 27 22
REMARK SMILES IDX 20 23 19 24 24 25 21 26 22 27 25 28 26 29 7 30 8 31 9 32
REMARK SMILES IDX 23 33
REMARK H PARENT 23 34
REMARK Flexibility Score: inf
ROOT
ATOM      1  C   UNL     1      68.852  54.968  24.667  1.00  0.00     0.017 C 
ATOM      2  C   UNL     1      67.884  54.631  25.831  1.00  0.00     0.014 C 
ATOM      3  C   UNL     1      68.960  53.724  23.754  1.00  0.00     0.014 C 
ATOM      4  C   UNL     1      68.250  56.148  23.839  1.00  0.00     0.028 C 
ATOM      5  C   UNL     1      67.635  55.837  26.749  1.00  0.00     0.007 C 
ATOM      6  C   UNL     1      69.852  53.985  22.531  1.00  0.00     0.013 C 
ATOM      7  C   UNL     1      69.068  56.405  22.546  1.00  0.00    -0.064 C 
ATOM      8  C   UNL     1      67.984  57.387  24.745  1.00  0.00     0.015 C 
ATOM      9  C   UNL     1      67.102  57.078  25.990  1.00  0.00    -0.035 C 
ATOM     10  C   UNL     1      69.388  55.189  21.634  1.00  0.00    -0.006 C 
ATOM     11  C   UNL     1      69.312  57.674  22.128  1.00  0.00    -0.027 C 
ATOM     12  C   UNL     1      65.624  56.867  25.578  1.00  0.00     0.011 C 
ATOM     13  C   UNL     1      67.154  58.294  26.942  1.00  0.00     0.011 C 
ATOM     14  C   UNL     1      68.040  54.750  20.962  1.00  0.00     0.017 C 
ATOM     15  C   UNL     1      70.523  55.552  20.532  1.00  0.00    -0.020 C 
ATOM     16  C   UNL     1      70.102  58.048  20.908  1.00  0.00     0.032 C 
ATOM     17  C   UNL     1      70.154  56.929  19.847  1.00  0.00     0.006 C 
ATOM     18  C   UNL     1      70.621  54.430  19.447  1.00  0.00     0.008 C 
ATOM     19  C   UNL     1      71.921  55.658  21.226  1.00  0.00     0.012 C 
ATOM     20  C   UNL     1      70.916  57.320  18.492  1.00  0.00    -0.025 C 
ATOM     21  C   UNL     1      71.457  54.815  18.223  1.00  0.00     0.005 C 
ATOM     22  C   UNL     1      70.849  56.066  17.540  1.00  0.00     0.003 C 
ATOM     23  C   UNL     1      70.130  58.487  17.801  1.00  0.00     0.010 C 
ATOM     24  C   UNL     1      72.384  57.813  18.742  1.00  0.00     0.012 C 
ATOM     25  C   UNL     1      71.285  56.296  16.036  1.00  0.00    -0.006 C 
ATOM     26  C   UNL     1      70.559  58.770  16.351  1.00  0.00     0.033 C 
ATOM     27  C   UNL     1      70.480  57.513  15.470  1.00  0.00     0.120 C 
ATOM     28  C   UNL     1      72.814  56.494  15.871  1.00  0.00     0.014 C 
ATOM     29  C   UNL     1      70.893  55.057  15.181  1.00  0.00     0.014 C 
ENDROOT
BRANCH   1  30
ATOM     30  C   UNL     1      70.234  55.285  25.240  1.00  0.00     0.048 C 
ATOM     31  O   UNL     1      70.833  56.355  24.954  1.00  0.00    -0.550 OA
ATOM     32  O   UNL     1      70.887  54.349  26.034  1.00  0.00    -0.550 OA
ENDBRANCH   1  30
BRANCH  27  33
ATOM     33  O   UNL     1      70.843  57.815  14.141  1.00  0.00    -0.393 OA
ATOM     34  H   UNL     1      70.848  58.802  14.037  1.00  0.00     0.210 HD
ENDBRANCH  27  33
TORSDOF 2
ENDMDL
MODEL 5
REMARK VINA RESULT:    -5.408      2.858      8.183
REMARK INTER + INTRA:          -5.520
REMARK INTER:                  -5.925
REMARK INTRA:                   0.404
REMARK UNBOUND:                 0.362
REMARK SMILES CC1(C)CC[C@@]2(C(=O)[O-])CC[C@@]3(C)C(=CC[C@H]4[C@]5(C)CC[C@@H](O)C(C)(C)[C@H]5CC[C@@]43C)[C@@H]2C1
REMARK SMILES IDX 6 1 5 2 10 3 32 4 4 5 11 6 14 7 33 8 2 9 12 10 15 11 1 12
REMARK SMILES IDX 3 13 13 14 30 15 16 16 17 17 29 18 31 19 18 20 28 21 27 22
REMARK SMILES IDX 20 23 19 24 24 25 21 26 22 27 25 28 26 29 7 30 8 31 9 32
REMARK SMILES IDX 23 33
REMARK H PARENT 23 34
REMARK Flexibility Score: inf
ROOT
ATOM      1  C   UNL     1      69.413  54.413  23.909  1.00  0.00     0.017 C 
ATOM      2  C   UNL     1      68.867  54.606  25.348  1.00  0.00     0.014 C 
ATOM      3  C   UNL     1      68.255  54.664  22.915  1.00  0.00     0.014 C 
ATOM      4  C   UNL     1      70.534  55.469  23.651  1.00  0.00     0.028 C 
ATOM      5  C   UNL     1      69.967  54.467  26.412  1.00  0.00     0.007 C 
ATOM      6  C   UNL     1      68.718  54.559  21.455  1.00  0.00     0.013 C 
ATOM      7  C   UNL     1      70.986  55.462  22.167  1.00  0.00    -0.064 C 
ATOM      8  C   UNL     1      71.665  55.355  24.717  1.00  0.00     0.015 C 
ATOM      9  C   UNL     1      71.154  55.436  26.186  1.00  0.00    -0.035 C 
ATOM     10  C   UNL     1      69.888  55.536  21.072  1.00  0.00    -0.006 C 
ATOM     11  C   UNL     1      72.300  55.597  21.848  1.00  0.00    -0.027 C 
ATOM     12  C   UNL     1      70.747  56.886  26.547  1.00  0.00     0.011 C 
ATOM     13  C   UNL     1      72.307  55.025  27.129  1.00  0.00     0.011 C 
ATOM     14  C   UNL     1      69.290  56.986  21.117  1.00  0.00     0.017 C 
ATOM     15  C   UNL     1      70.481  55.172  19.607  1.00  0.00    -0.020 C 
ATOM     16  C   UNL     1      72.859  55.587  20.455  1.00  0.00     0.032 C 
ATOM     17  C   UNL     1      71.824  55.976  19.379  1.00  0.00     0.006 C 
ATOM     18  C   UNL     1      69.451  55.532  18.485  1.00  0.00     0.008 C 
ATOM     19  C   UNL     1      70.756  53.635  19.513  1.00  0.00     0.012 C 
ATOM     20  C   UNL     1      72.403  56.063  17.887  1.00  0.00    -0.025 C 
ATOM     21  C   UNL     1      70.028  55.488  17.068  1.00  0.00     0.005 C 
ATOM     22  C   UNL     1      71.210  56.483  16.947  1.00  0.00     0.003 C 
ATOM     23  C   UNL     1      73.475  57.203  17.838  1.00  0.00     0.010 C 
ATOM     24  C   UNL     1      73.097  54.733  17.428  1.00  0.00     0.012 C 
ATOM     25  C   UNL     1      71.590  56.907  15.470  1.00  0.00    -0.006 C 
ATOM     26  C   UNL     1      73.903  57.612  16.417  1.00  0.00     0.033 C 
ATOM     27  C   UNL     1      72.702  58.005  15.543  1.00  0.00     0.120 C 
ATOM     28  C   UNL     1      72.026  55.708  14.587  1.00  0.00     0.014 C 
ATOM     29  C   UNL     1      70.357  57.555  14.777  1.00  0.00     0.014 C 
ENDROOT
BRANCH   1  30
ATOM     30  C   UNL     1      69.901  52.972  23.747  1.00  0.00     0.048 C 
ATOM     31  O   UNL     1      71.119  52.674  23.876  1.00  0.00    -0.550 OA
ATOM     32  O   UNL     1      69.008  51.974  23.377  1.00  0.00    -0.550 OA
ENDBRANCH   1  30
BRANCH  27  33
ATOM     33  O   UNL     1      73.132  58.409  14.262  1.00  0.00    -0.393 OA
ATOM     34  H   UNL     1      72.614  59.214  14.000  1.00  0.00     0.210 HD
ENDBRANCH  27  33
TORSDOF 2
ENDMDL
MODEL 6
REMARK VINA RESULT:    -5.383      3.889      7.240
REMARK INTER + INTRA:          -5.493
REMARK INTER:                  -5.722
REMARK INTRA:                   0.229
REMARK UNBOUND:                 0.362
REMARK SMILES CC1(C)CC[C@@]2(C(=O)[O-])CC[C@@]3(C)C(=CC[C@H]4[C@]5(C)CC[C@@H](O)C(C)(C)[C@H]5CC[C@@]43C)[C@@H]2C1
REMARK SMILES IDX 6 1 5 2 10 3 32 4 4 5 11 6 14 7 33 8 2 9 12 10 15 11 1 12
REMARK SMILES IDX 3 13 13 14 30 15 16 16 17 17 29 18 31 19 18 20 28 21 27 22
REMARK SMILES IDX 20 23 19 24 24 25 21 26 22 27 25 28 26 29 7 30 8 31 9 32
REMARK SMILES IDX 23 33
REMARK H PARENT 23 34
REMARK Flexibility Score: inf
ROOT
ATOM      1  C   UNL     1      74.161  55.363  24.502  1.00  0.00     0.017 C 
ATOM      2  C   UNL     1      74.987  55.574  25.798  1.00  0.00     0.014 C 
ATOM      3  C   UNL     1      74.161  53.852  24.171  1.00  0.00     0.014 C 
ATOM      4  C   UNL     1      72.691  55.820  24.763  1.00  0.00     0.028 C 
ATOM      5  C   UNL     1      74.972  57.038  26.265  1.00  0.00     0.007 C 
ATOM      6  C   UNL     1      73.310  53.535  22.932  1.00  0.00     0.013 C 
ATOM      7  C   UNL     1      71.766  55.452  23.573  1.00  0.00    -0.064 C 
ATOM      8  C   UNL     1      72.643  57.302  25.241  1.00  0.00     0.015 C 
ATOM      9  C   UNL     1      73.542  57.592  26.479  1.00  0.00    -0.035 C 
ATOM     10  C   UNL     1      71.810  53.994  23.041  1.00  0.00    -0.006 C 
ATOM     11  C   UNL     1      70.807  56.319  23.154  1.00  0.00    -0.027 C 
ATOM     12  C   UNL     1      72.916  56.994  27.764  1.00  0.00     0.011 C 
ATOM     13  C   UNL     1      73.633  59.122  26.671  1.00  0.00     0.011 C 
ATOM     14  C   UNL     1      71.144  53.085  24.131  1.00  0.00     0.017 C 
ATOM     15  C   UNL     1      71.067  53.861  21.605  1.00  0.00    -0.020 C 
ATOM     16  C   UNL     1      69.867  56.084  22.008  1.00  0.00     0.032 C 
ATOM     17  C   UNL     1      69.666  54.591  21.680  1.00  0.00     0.006 C 
ATOM     18  C   UNL     1      70.861  52.357  21.224  1.00  0.00     0.008 C 
ATOM     19  C   UNL     1      71.948  54.511  20.488  1.00  0.00     0.012 C 
ATOM     20  C   UNL     1      68.602  54.293  20.518  1.00  0.00    -0.025 C 
ATOM     21  C   UNL     1      69.925  52.136  20.034  1.00  0.00     0.005 C 
ATOM     22  C   UNL     1      68.527  52.729  20.342  1.00  0.00     0.003 C 
ATOM     23  C   UNL     1      67.195  54.788  20.997  1.00  0.00     0.010 C 
ATOM     24  C   UNL     1      68.941  55.038  19.180  1.00  0.00     0.012 C 
ATOM     25  C   UNL     1      67.343  52.173  19.451  1.00  0.00    -0.006 C 
ATOM     26  C   UNL     1      66.021  54.305  20.127  1.00  0.00     0.033 C 
ATOM     27  C   UNL     1      66.000  52.775  19.984  1.00  0.00     0.120 C 
ATOM     28  C   UNL     1      67.537  52.458  17.939  1.00  0.00     0.014 C 
ATOM     29  C   UNL     1      67.244  50.629  19.613  1.00  0.00     0.014 C 
ENDROOT
BRANCH   1  30
ATOM     30  C   UNL     1      74.828  56.122  23.353  1.00  0.00     0.048 C 
ATOM     31  O   UNL     1      74.209  57.009  22.706  1.00  0.00    -0.550 OA
ATOM     32  O   UNL     1      76.116  55.786  22.955  1.00  0.00    -0.550 OA
ENDBRANCH   1  30
BRANCH  27  33
ATOM     33  O   UNL     1      64.894  52.363  19.213  1.00  0.00    -0.393 OA
ATOM     34  H   UNL     1      64.437  51.625  19.694  1.00  0.00     0.210 HD
ENDBRANCH  27  33
TORSDOF 2
ENDMDL
MODEL 7
REMARK VINA RESULT:    -5.330      2.529      3.101
REMARK INTER + INTRA:          -5.436
REMARK INTER:                  -5.677
REMARK INTRA:                   0.241
REMARK UNBOUND:                 0.362
REMARK SMILES CC1(C)CC[C@@]2(C(=O)[O-])CC[C@@]3(C)C(=CC[C@H]4[C@]5(C)CC[C@@H](O)C(C)(C)[C@H]5CC[C@@]43C)[C@@H]2C1
REMARK SMILES IDX 6 1 5 2 10 3 32 4 4 5 11 6 14 7 33 8 2 9 12 10 15 11 1 12
REMARK SMILES IDX 3 13 13 14 30 15 16 16 17 17 29 18 31 19 18 20 28 21 27 22
REMARK SMILES IDX 20 23 19 24 24 25 21 26 22 27 25 28 26 29 7 30 8 31 9 32
REMARK SMILES IDX 23 33
REMARK H PARENT 23 34
REMARK Flexibility Score: inf
ROOT
ATOM      1  C   UNL     1      71.287  54.661  17.478  1.00  0.00     0.017 C 
ATOM      2  C   UNL     1      71.741  54.591  15.996  1.00  0.00     0.014 C 
ATOM      3  C   UNL     1      72.144  53.662  18.292  1.00  0.00     0.014 C 
ATOM      4  C   UNL     1      71.550  56.103  18.016  1.00  0.00     0.028 C 
ATOM      5  C   UNL     1      71.010  55.616  15.115  1.00  0.00     0.007 C 
ATOM      6  C   UNL     1      71.810  53.708  19.791  1.00  0.00     0.013 C 
ATOM      7  C   UNL     1      71.305  56.189  19.546  1.00  0.00    -0.064 C 
ATOM      8  C   UNL     1      70.823  57.167  17.140  1.00  0.00     0.015 C 
ATOM      9  C   UNL     1      71.163  57.071  15.624  1.00  0.00    -0.035 C 
ATOM     10  C   UNL     1      71.981  55.124  20.451  1.00  0.00    -0.006 C 
ATOM     11  C   UNL     1      70.693  57.276  20.084  1.00  0.00    -0.027 C 
ATOM     12  C   UNL     1      72.594  57.594  15.347  1.00  0.00     0.011 C 
ATOM     13  C   UNL     1      70.177  57.968  14.842  1.00  0.00     0.011 C 
ATOM     14  C   UNL     1      73.519  55.431  20.454  1.00  0.00     0.017 C 
ATOM     15  C   UNL     1      71.359  55.135  21.950  1.00  0.00    -0.020 C 
ATOM     16  C   UNL     1      70.386  57.465  21.540  1.00  0.00     0.032 C 
ATOM     17  C   UNL     1      71.289  56.627  22.469  1.00  0.00     0.006 C 
ATOM     18  C   UNL     1      72.236  54.276  22.921  1.00  0.00     0.008 C 
ATOM     19  C   UNL     1      69.926  54.506  21.935  1.00  0.00     0.012 C 
ATOM     20  C   UNL     1      71.051  56.866  24.036  1.00  0.00    -0.025 C 
ATOM     21  C   UNL     1      71.890  54.457  24.401  1.00  0.00     0.005 C 
ATOM     22  C   UNL     1      72.066  55.941  24.809  1.00  0.00     0.003 C 
ATOM     23  C   UNL     1      71.410  58.353  24.370  1.00  0.00     0.010 C 
ATOM     24  C   UNL     1      69.562  56.624  24.467  1.00  0.00     0.012 C 
ATOM     25  C   UNL     1      72.220  56.203  26.362  1.00  0.00    -0.006 C 
ATOM     26  C   UNL     1      71.523  58.657  25.874  1.00  0.00     0.033 C 
ATOM     27  C   UNL     1      72.521  57.724  26.578  1.00  0.00     0.120 C 
ATOM     28  C   UNL     1      70.986  55.742  27.181  1.00  0.00     0.014 C 
ATOM     29  C   UNL     1      73.446  55.417  26.908  1.00  0.00     0.014 C 
ENDROOT
BRANCH   1  30
ATOM     30  C   UNL     1      69.818  54.247  17.573  1.00  0.00     0.048 C 
ATOM     31  O   UNL     1      68.989  54.918  18.244  1.00  0.00    -0.550 OA
ATOM     32  O   UNL     1      69.390  53.067  16.975  1.00  0.00    -0.550 OA
ENDBRANCH   1  30
BRANCH  27  33
ATOM     33  O   UNL     1      72.628  58.053  27.945  1.00  0.00    -0.393 OA
ATOM     34  H   UNL     1      71.936  58.731  28.157  1.00  0.00     0.210 HD
ENDBRANCH  27  33
TORSDOF 2
ENDMDL
MODEL 8
REMARK VINA RESULT:    -5.219      2.452      3.597
REMARK INTER + INTRA:          -5.315
REMARK INTER:                  -5.549
REMARK INTRA:                   0.233
REMARK UNBOUND:                 0.362
REMARK SMILES CC1(C)CC[C@@]2(C(=O)[O-])CC[C@@]3(C)C(=CC[C@H]4[C@]5(C)CC[C@@H](O)C(C)(C)[C@H]5CC[C@@]43C)[C@@H]2C1
REMARK SMILES IDX 6 1 5 2 10 3 32 4 4 5 11 6 14 7 33 8 2 9 12 10 15 11 1 12
REMARK SMILES IDX 3 13 13 14 30 15 16 16 17 17 29 18 31 19 18 20 28 21 27 22
REMARK SMILES IDX 20 23 19 24 24 25 21 26 22 27 25 28 26 29 7 30 8 31 9 32
REMARK SMILES IDX 23 33
REMARK H PARENT 23 34
REMARK Flexibility Score: inf
ROOT
ATOM      1  C   UNL     1      73.381  56.263  17.979  1.00  0.00     0.017 C 
ATOM      2  C   UNL     1      73.671  57.027  16.660  1.00  0.00     0.014 C 
ATOM      3  C   UNL     1      74.186  56.939  19.115  1.00  0.00     0.014 C 
ATOM      4  C   UNL     1      71.858  56.381  18.304  1.00  0.00     0.028 C 
ATOM      5  C   UNL     1      72.845  56.489  15.482  1.00  0.00     0.007 C 
ATOM      6  C   UNL     1      73.911  56.288  20.478  1.00  0.00     0.013 C 
ATOM      7  C   UNL     1      71.535  55.809  19.709  1.00  0.00    -0.064 C 
ATOM      8  C   UNL     1      70.993  55.844  17.124  1.00  0.00     0.015 C 
ATOM      9  C   UNL     1      71.320  56.505  15.753  1.00  0.00    -0.035 C 
ATOM     10  C   UNL     1      72.399  56.290  20.906  1.00  0.00    -0.006 C 
ATOM     11  C   UNL     1      70.407  55.079  19.911  1.00  0.00    -0.027 C 
ATOM     12  C   UNL     1      70.776  57.955  15.697  1.00  0.00     0.011 C 
ATOM     13  C   UNL     1      70.617  55.698  14.639  1.00  0.00     0.011 C 
ATOM     14  C   UNL     1      72.015  57.786  21.180  1.00  0.00     0.017 C 
ATOM     15  C   UNL     1      72.174  55.358  22.215  1.00  0.00    -0.020 C 
ATOM     16  C   UNL     1      69.997  54.461  21.215  1.00  0.00     0.032 C 
ATOM     17  C   UNL     1      70.622  55.154  22.443  1.00  0.00     0.006 C 
ATOM     18  C   UNL     1      72.813  56.018  23.482  1.00  0.00     0.008 C 
ATOM     19  C   UNL     1      72.870  53.973  22.007  1.00  0.00     0.012 C 
ATOM     20  C   UNL     1      70.140  54.579  23.859  1.00  0.00    -0.025 C 
ATOM     21  C   UNL     1      72.409  55.357  24.803  1.00  0.00     0.005 C 
ATOM     22  C   UNL     1      70.870  55.418  24.977  1.00  0.00     0.003 C 
ATOM     23  C   UNL     1      68.601  54.834  24.000  1.00  0.00     0.010 C 
ATOM     24  C   UNL     1      70.386  53.037  24.003  1.00  0.00     0.012 C 
ATOM     25  C   UNL     1      70.348  55.227  26.459  1.00  0.00    -0.006 C 
ATOM     26  C   UNL     1      68.048  54.614  25.419  1.00  0.00     0.033 C 
ATOM     27  C   UNL     1      68.799  55.451  26.468  1.00  0.00     0.120 C 
ATOM     28  C   UNL     1      70.732  53.853  27.066  1.00  0.00     0.014 C 
ATOM     29  C   UNL     1      70.968  56.319  27.378  1.00  0.00     0.014 C 
ENDROOT
BRANCH   1  30
ATOM     30  C   UNL     1      73.850  54.815  17.832  1.00  0.00     0.048 C 
ATOM     31  O   UNL     1      73.045  53.851  17.932  1.00  0.00    -0.550 OA
ATOM     32  O   UNL     1      75.201  54.538  17.660  1.00  0.00    -0.550 OA
ENDBRANCH   1  30
BRANCH  27  33
ATOM     33  O   UNL     1      68.244  55.255  27.749  1.00  0.00    -0.393 OA
ATOM     34  H   UNL     1      67.856  56.116  28.055  1.00  0.00     0.210 HD
ENDBRANCH  27  33
TORSDOF 2
ENDMDL
MODEL 9
REMARK VINA RESULT:    -5.072      2.909      8.492
REMARK INTER + INTRA:          -5.155
REMARK INTER:                  -5.420
REMARK INTRA:                   0.265
REMARK UNBOUND:                 0.362
REMARK SMILES CC1(C)CC[C@@]2(C(=O)[O-])CC[C@@]3(C)C(=CC[C@H]4[C@]5(C)CC[C@@H](O)C(C)(C)[C@H]5CC[C@@]43C)[C@@H]2C1
REMARK SMILES IDX 6 1 5 2 10 3 32 4 4 5 11 6 14 7 33 8 2 9 12 10 15 11 1 12
REMARK SMILES IDX 3 13 13 14 30 15 16 16 17 17 29 18 31 19 18 20 28 21 27 22
REMARK SMILES IDX 20 23 19 24 24 25 21 26 22 27 25 28 26 29 7 30 8 31 9 32
REMARK SMILES IDX 23 33
REMARK H PARENT 23 34
REMARK Flexibility Score: inf
ROOT
ATOM      1  C   UNL     1      68.570  55.374  25.343  1.00  0.00     0.017 C 
ATOM      2  C   UNL     1      67.176  55.372  26.022  1.00  0.00     0.014 C 
ATOM      3  C   UNL     1      68.668  54.121  24.440  1.00  0.00     0.014 C 
ATOM      4  C   UNL     1      68.692  56.648  24.448  1.00  0.00     0.028 C 
ATOM      5  C   UNL     1      66.942  56.630  26.874  1.00  0.00     0.007 C 
ATOM      6  C   UNL     1      69.996  54.070  23.671  1.00  0.00     0.013 C 
ATOM      7  C   UNL     1      69.982  56.612  23.587  1.00  0.00    -0.064 C 
ATOM      8  C   UNL     1      68.458  57.942  25.285  1.00  0.00     0.015 C 
ATOM      9  C   UNL     1      67.116  57.945  26.074  1.00  0.00    -0.035 C 
ATOM     10  C   UNL     1      70.273  55.326  22.767  1.00  0.00    -0.006 C 
ATOM     11  C   UNL     1      70.714  57.740  23.398  1.00  0.00    -0.027 C 
ATOM     12  C   UNL     1      65.916  58.160  25.118  1.00  0.00     0.011 C 
ATOM     13  C   UNL     1      67.136  59.125  27.071  1.00  0.00     0.011 C 
ATOM     14  C   UNL     1      69.224  55.275  21.602  1.00  0.00     0.017 C 
ATOM     15  C   UNL     1      71.797  55.305  22.211  1.00  0.00    -0.020 C 
ATOM     16  C   UNL     1      71.984  57.826  22.603  1.00  0.00     0.032 C 
ATOM     17  C   UNL     1      72.124  56.705  21.553  1.00  0.00     0.006 C 
ATOM     18  C   UNL     1      71.986  54.166  21.155  1.00  0.00     0.008 C 
ATOM     19  C   UNL     1      72.788  55.023  23.387  1.00  0.00     0.012 C 
ATOM     20  C   UNL     1      73.426  56.812  20.623  1.00  0.00    -0.025 C 
ATOM     21  C   UNL     1      73.301  54.250  20.374  1.00  0.00     0.005 C 
ATOM     22  C   UNL     1      73.382  55.599  19.617  1.00  0.00     0.003 C 
ATOM     23  C   UNL     1      73.330  58.131  19.785  1.00  0.00     0.010 C 
ATOM     24  C   UNL     1      74.758  56.864  21.449  1.00  0.00     0.012 C 
ATOM     25  C   UNL     1      74.410  55.641  18.414  1.00  0.00    -0.006 C 
ATOM     26  C   UNL     1      74.346  58.228  18.634  1.00  0.00     0.033 C 
ATOM     27  C   UNL     1      74.263  57.019  17.688  1.00  0.00     0.120 C 
ATOM     28  C   UNL     1      75.873  55.379  18.857  1.00  0.00     0.014 C 
ATOM     29  C   UNL     1      74.047  54.541  17.375  1.00  0.00     0.014 C 
ENDROOT
BRANCH   1  30
ATOM     30  C   UNL     1      69.653  55.294  26.420  1.00  0.00     0.048 C 
ATOM     31  O   UNL     1      69.761  54.285  27.167  1.00  0.00    -0.550 OA
ATOM     32  O   UNL     1      70.492  56.379  26.642  1.00  0.00    -0.550 OA
ENDBRANCH   1  30
BRANCH  27  33
ATOM     33  O   UNL     1      75.179  57.157  16.625  1.00  0.00    -0.393 OA
ATOM     34  H   UNL     1      75.632  58.035  16.717  1.00  0.00     0.210 HD
ENDBRANCH  27  33
TORSDOF 2
ENDMDL
