MODEL 1
REMARK VINA RESULT:    -4.050      0.000      0.000
REMARK INTER + INTRA:          -8.827
REMARK INTER:                  -7.839
REMARK INTRA:                  -0.988
REMARK UNBOUND:                -0.988
REMARK SMILES CCCCCCCCCCCCCCCCCC(=O)[O-]
REMARK SMILES IDX 10 1 11 2 12 3 13 4 14 5 15 6 16 7 17 8 18 9 19 10 20 11
REMARK SMILES IDX 9 12 8 13 7 14 6 15 5 16 4 17 3 18 2 19 1 20
REMARK H PARENT
REMARK Flexibility Score: inf
ROOT
ATOM      1  C   UNL     1     -16.572 -11.996 -19.815  1.00  0.00     0.000 C 
ENDROOT
BRANCH   1   2
ATOM      2  C   UNL     1     -16.881 -10.488 -19.861  1.00  0.00     0.000 C 
BRANCH   2   3
ATOM      3  C   UNL     1     -15.668  -9.580 -20.145  1.00  0.00     0.000 C 
BRANCH   3   4
ATOM      4  C   UNL     1     -15.974  -8.071 -20.174  1.00  0.00     0.000 C 
BRANCH   4   5
ATOM      5  C   UNL     1     -14.809  -7.159 -19.739  1.00  0.00     0.000 C 
BRANCH   5   6
ATOM      6  C   UNL     1     -14.951  -5.684 -20.154  1.00  0.00     0.000 C 
BRANCH   6   7
ATOM      7  C   UNL     1     -16.411  -5.202 -20.154  1.00  0.00     0.006 C 
BRANCH   7   8
ATOM      8  C   UNL     1     -16.722  -4.298 -21.355  1.00  0.00     0.053 C 
BRANCH   8   9
ATOM      9  C   UNL     1     -17.594  -4.989 -22.359  1.00  0.00     0.041 C 
ATOM     10  O   UNL     1     -18.407  -5.876 -21.986  1.00  0.00    -0.550 OA
ATOM     11  O   UNL     1     -17.483  -4.680 -23.708  1.00  0.00    -0.550 OA
ENDBRANCH   8   9
ENDBRANCH   7   8
ENDBRANCH   6   7
ENDBRANCH   5   6
ENDBRANCH   4   5
ENDBRANCH   3   4
ENDBRANCH   2   3
ENDBRANCH   1   2
BRANCH   1  12
ATOM     12  C   UNL     1     -16.794 -12.693 -21.169  1.00  0.00     0.000 C 
BRANCH  12  13
ATOM     13  C   UNL     1     -17.474 -14.063 -21.019  1.00  0.00    -0.000 C 
BRANCH  13  14
ATOM     14  C   UNL     1     -18.846 -14.125 -21.714  1.00  0.00    -0.000 C 
BRANCH  14  15
ATOM     15  C   UNL     1     -19.318 -12.748 -22.208  1.00  0.00    -0.000 C 
BRANCH  15  16
ATOM     16  C   UNL     1     -19.610 -12.733 -23.719  1.00  0.00    -0.000 C 
BRANCH  16  17
ATOM     17  C   UNL     1     -18.642 -13.622 -24.518  1.00  0.00    -0.000 C 
BRANCH  17  18
ATOM     18  C   UNL     1     -17.333 -12.897 -24.873  1.00  0.00    -0.000 C 
BRANCH  18  19
ATOM     19  C   UNL     1     -17.439 -12.099 -26.181  1.00  0.00    -0.003 C 
ATOM     20  C   UNL     1     -18.789 -12.272 -26.875  1.00  0.00     0.004 C 
ENDBRANCH  18  19
ENDBRANCH  17  18
ENDBRANCH  16  17
ENDBRANCH  15  16
ENDBRANCH  14  15
ENDBRANCH  13  14
ENDBRANCH  12  13
ENDBRANCH   1  12
TORSDOF 16
ENDMDL
MODEL 2
REMARK VINA RESULT:    -3.893      2.806      7.437
REMARK INTER + INTRA:          -8.522
REMARK INTER:                  -7.463
REMARK INTRA:                  -1.059
REMARK UNBOUND:                -0.988
REMARK SMILES CCCCCCCCCCCCCCCCCC(=O)[O-]
REMARK SMILES IDX 10 1 11 2 12 3 13 4 14 5 15 6 16 7 17 8 18 9 19 10 20 11
REMARK SMILES IDX 9 12 8 13 7 14 6 15 5 16 4 17 3 18 2 19 1 20
REMARK H PARENT
REMARK Flexibility Score: inf
ROOT
ATOM      1  C   UNL     1     -16.654 -13.290 -19.623  1.00  0.00     0.000 C 
ENDROOT
BRANCH   1   2
ATOM      2  C   UNL     1     -16.912 -13.131 -21.133  1.00  0.00     0.000 C 
BRANCH   2   3
ATOM      3  C   UNL     1     -18.078 -13.970 -21.690  1.00  0.00     0.000 C 
BRANCH   3   4
ATOM      4  C   UNL     1     -19.349 -13.172 -22.040  1.00  0.00     0.000 C 
BRANCH   4   5
ATOM      5  C   UNL     1     -19.460 -12.735 -23.515  1.00  0.00     0.000 C 
BRANCH   5   6
ATOM      6  C   UNL     1     -18.963 -13.772 -24.538  1.00  0.00     0.000 C 
BRANCH   6   7
ATOM      7  C   UNL     1     -18.601 -13.146 -25.895  1.00  0.00     0.006 C 
BRANCH   7   8
ATOM      8  C   UNL     1     -17.439 -12.150 -25.782  1.00  0.00     0.053 C 
BRANCH   8   9
ATOM      9  C   UNL     1     -16.137 -12.844 -25.519  1.00  0.00     0.041 C 
ATOM     10  O   UNL     1     -15.493 -13.362 -26.469  1.00  0.00    -0.550 OA
ATOM     11  O   UNL     1     -15.654 -12.950 -24.221  1.00  0.00    -0.550 OA
ENDBRANCH   8   9
ENDBRANCH   7   8
ENDBRANCH   6   7
ENDBRANCH   5   6
ENDBRANCH   4   5
ENDBRANCH   3   4
ENDBRANCH   2   3
ENDBRANCH   1   2
BRANCH   1  12
ATOM     12  C   UNL     1     -16.903 -11.993 -18.834  1.00  0.00     0.000 C 
BRANCH  12  13
ATOM     13  C   UNL     1     -17.232 -10.804 -19.750  1.00  0.00    -0.000 C 
BRANCH  13  14
ATOM     14  C   UNL     1     -15.990  -9.971 -20.112  1.00  0.00    -0.000 C 
BRANCH  14  15
ATOM     15  C   UNL     1     -16.276  -8.461 -20.121  1.00  0.00    -0.000 C 
BRANCH  15  16
ATOM     16  C   UNL     1     -14.989  -7.618 -20.058  1.00  0.00    -0.000 C 
BRANCH  16  17
ATOM     17  C   UNL     1     -15.240  -6.130 -20.356  1.00  0.00    -0.000 C 
BRANCH  17  18
ATOM     18  C   UNL     1     -16.731  -5.815 -20.567  1.00  0.00    -0.000 C 
BRANCH  18  19
ATOM     19  C   UNL     1     -16.949  -4.547 -21.408  1.00  0.00    -0.003 C 
ATOM     20  C   UNL     1     -17.429  -4.850 -22.826  1.00  0.00     0.004 C 
ENDBRANCH  18  19
ENDBRANCH  17  18
ENDBRANCH  16  17
ENDBRANCH  15  16
ENDBRANCH  14  15
ENDBRANCH  13  14
ENDBRANCH  12  13
ENDBRANCH   1  12
TORSDOF 16
ENDMDL
MODEL 3
REMARK VINA RESULT:    -3.811      1.253      2.226
REMARK INTER + INTRA:          -8.364
REMARK INTER:                  -7.177
REMARK INTRA:                  -1.187
REMARK UNBOUND:                -0.988
REMARK SMILES CCCCCCCCCCCCCCCCCC(=O)[O-]
REMARK SMILES IDX 10 1 11 2 12 3 13 4 14 5 15 6 16 7 17 8 18 9 19 10 20 11
REMARK SMILES IDX 9 12 8 13 7 14 6 15 5 16 4 17 3 18 2 19 1 20
REMARK H PARENT
REMARK Flexibility Score: inf
ROOT
ATOM      1  C   UNL     1     -17.267 -12.450 -21.656  1.00  0.00     0.000 C 
ENDROOT
BRANCH   1   2
ATOM      2  C   UNL     1     -16.748 -12.225 -20.224  1.00  0.00     0.000 C 
BRANCH   2   3
ATOM      3  C   UNL     1     -16.905 -10.788 -19.689  1.00  0.00     0.000 C 
BRANCH   3   4
ATOM      4  C   UNL     1     -15.838  -9.789 -20.175  1.00  0.00     0.000 C 
BRANCH   4   5
ATOM      5  C   UNL     1     -16.240  -8.304 -20.075  1.00  0.00     0.000 C 
BRANCH   5   6
ATOM      6  C   UNL     1     -15.085  -7.305 -20.270  1.00  0.00     0.000 C 
BRANCH   6   7
ATOM      7  C   UNL     1     -15.535  -5.840 -20.143  1.00  0.00     0.006 C 
BRANCH   7   8
ATOM      8  C   UNL     1     -16.992  -5.642 -20.581  1.00  0.00     0.053 C 
BRANCH   8   9
ATOM      9  C   UNL     1     -17.093  -4.763 -21.790  1.00  0.00     0.041 C 
ATOM     10  O   UNL     1     -17.488  -5.239 -22.888  1.00  0.00    -0.550 OA
ATOM     11  O   UNL     1     -16.717  -3.428 -21.714  1.00  0.00    -0.550 OA
ENDBRANCH   8   9
ENDBRANCH   7   8
ENDBRANCH   6   7
ENDBRANCH   5   6
ENDBRANCH   4   5
ENDBRANCH   3   4
ENDBRANCH   2   3
ENDBRANCH   1   2
BRANCH   1  12
ATOM     12  C   UNL     1     -17.895 -13.841 -21.852  1.00  0.00     0.000 C 
BRANCH  12  13
ATOM     13  C   UNL     1     -19.393 -13.767 -22.187  1.00  0.00    -0.000 C 
BRANCH  13  14
ATOM     14  C   UNL     1     -19.672 -12.999 -23.491  1.00  0.00    -0.000 C 
BRANCH  14  15
ATOM     15  C   UNL     1     -18.953 -13.614 -24.702  1.00  0.00    -0.000 C 
BRANCH  15  16
ATOM     16  C   UNL     1     -18.859 -12.638 -25.888  1.00  0.00    -0.000 C 
BRANCH  16  17
ATOM     17  C   UNL     1     -17.417 -12.179 -26.165  1.00  0.00    -0.000 C 
BRANCH  17  18
ATOM     18  C   UNL     1     -16.375 -13.236 -25.764  1.00  0.00    -0.000 C 
BRANCH  18  19
ATOM     19  C   UNL     1     -15.291 -12.670 -24.834  1.00  0.00    -0.003 C 
ATOM     20  C   UNL     1     -13.880 -12.836 -25.396  1.00  0.00     0.004 C 
ENDBRANCH  18  19
ENDBRANCH  17  18
ENDBRANCH  16  17
ENDBRANCH  15  16
ENDBRANCH  14  15
ENDBRANCH  13  14
ENDBRANCH  12  13
ENDBRANCH   1  12
TORSDOF 16
ENDMDL
MODEL 4
REMARK VINA RESULT:    -3.382      6.060     11.393
REMARK INTER + INTRA:          -7.532
REMARK INTER:                  -6.530
REMARK INTRA:                  -1.002
REMARK UNBOUND:                -0.988
REMARK SMILES CCCCCCCCCCCCCCCCCC(=O)[O-]
REMARK SMILES IDX 10 1 11 2 12 3 13 4 14 5 15 6 16 7 17 8 18 9 19 10 20 11
REMARK SMILES IDX 9 12 8 13 7 14 6 15 5 16 4 17 3 18 2 19 1 20
REMARK H PARENT
REMARK Flexibility Score: inf
ROOT
ATOM      1  C   UNL     1     -14.221  -3.806 -16.766  1.00  0.00     0.000 C 
ENDROOT
BRANCH   1   2
ATOM      2  C   UNL     1     -14.215  -5.272 -16.295  1.00  0.00     0.000 C 
BRANCH   2   3
ATOM      3  C   UNL     1     -13.910  -6.311 -17.392  1.00  0.00     0.000 C 
BRANCH   3   4
ATOM      4  C   UNL     1     -14.167  -5.833 -18.834  1.00  0.00     0.000 C 
BRANCH   4   5
ATOM      5  C   UNL     1     -14.664  -6.923 -19.805  1.00  0.00     0.000 C 
BRANCH   5   6
ATOM      6  C   UNL     1     -15.903  -6.538 -20.633  1.00  0.00     0.000 C 
BRANCH   6   7
ATOM      7  C   UNL     1     -16.496  -5.179 -20.223  1.00  0.00     0.006 C 
BRANCH   7   8
ATOM      8  C   UNL     1     -16.683  -4.243 -21.425  1.00  0.00     0.053 C 
BRANCH   8   9
ATOM      9  C   UNL     1     -17.596  -4.838 -22.453  1.00  0.00     0.041 C 
ATOM     10  O   UNL     1     -17.343  -4.700 -23.680  1.00  0.00    -0.550 OA
ATOM     11  O   UNL     1     -18.744  -5.513 -22.059  1.00  0.00    -0.550 OA
ENDBRANCH   8   9
ENDBRANCH   7   8
ENDBRANCH   6   7
ENDBRANCH   5   6
ENDBRANCH   4   5
ENDBRANCH   3   4
ENDBRANCH   2   3
ENDBRANCH   1   2
BRANCH   1  12
ATOM     12  C   UNL     1     -14.600  -2.821 -15.646  1.00  0.00     0.000 C 
BRANCH  12  13
ATOM     13  C   UNL     1     -13.552  -1.713 -15.459  1.00  0.00    -0.000 C 
BRANCH  13  14
ATOM     14  C   UNL     1     -12.920  -1.723 -14.055  1.00  0.00    -0.000 C 
BRANCH  14  15
ATOM     15  C   UNL     1     -13.737  -2.549 -13.049  1.00  0.00    -0.000 C 
BRANCH  15  16
ATOM     16  C   UNL     1     -12.933  -3.724 -12.464  1.00  0.00    -0.000 C 
BRANCH  16  17
ATOM     17  C   UNL     1     -12.910  -3.719 -10.926  1.00  0.00    -0.000 C 
BRANCH  17  18
ATOM     18  C   UNL     1     -14.288  -4.026 -10.315  1.00  0.00    -0.000 C 
BRANCH  18  19
ATOM     19  C   UNL     1     -14.184  -4.626  -8.904  1.00  0.00    -0.003 C 
ATOM     20  C   UNL     1     -13.455  -5.968  -8.882  1.00  0.00     0.004 C 
ENDBRANCH  18  19
ENDBRANCH  17  18
ENDBRANCH  16  17
ENDBRANCH  15  16
ENDBRANCH  14  15
ENDBRANCH  13  14
ENDBRANCH  12  13
ENDBRANCH   1  12
TORSDOF 16
ENDMDL
MODEL 5
REMARK VINA RESULT:    -3.189      2.526      7.585
REMARK INTER + INTRA:          -7.159
REMARK INTER:                  -6.338
REMARK INTRA:                  -0.821
REMARK UNBOUND:                -0.988
REMARK SMILES CCCCCCCCCCCCCCCCCC(=O)[O-]
REMARK SMILES IDX 10 1 11 2 12 3 13 4 14 5 15 6 16 7 17 8 18 9 19 10 20 11
REMARK SMILES IDX 9 12 8 13 7 14 6 15 5 16 4 17 3 18 2 19 1 20
REMARK H PARENT
REMARK Flexibility Score: inf
ROOT
ATOM      1  C   UNL     1     -15.935 -10.206 -20.436  1.00  0.00     0.000 C 
ENDROOT
BRANCH   1   2
ATOM      2  C   UNL     1     -16.902 -11.262 -19.870  1.00  0.00     0.000 C 
BRANCH   2   3
ATOM      3  C   UNL     1     -16.584 -12.719 -20.262  1.00  0.00     0.000 C 
BRANCH   3   4
ATOM      4  C   UNL     1     -17.666 -13.419 -21.107  1.00  0.00     0.000 C 
BRANCH   4   5
ATOM      5  C   UNL     1     -18.666 -12.473 -21.802  1.00  0.00     0.000 C 
BRANCH   5   6
ATOM      6  C   UNL     1     -19.553 -13.138 -22.869  1.00  0.00     0.000 C 
BRANCH   6   7
ATOM      7  C   UNL     1     -18.740 -13.868 -23.951  1.00  0.00     0.006 C 
BRANCH   7   8
ATOM      8  C   UNL     1     -18.960 -13.266 -25.345  1.00  0.00     0.053 C 
BRANCH   8   9
ATOM      9  C   UNL     1     -17.824 -12.376 -25.749  1.00  0.00     0.041 C 
ATOM     10  O   UNL     1     -16.805 -12.277 -25.016  1.00  0.00    -0.550 OA
ATOM     11  O   UNL     1     -17.907 -11.627 -26.916  1.00  0.00    -0.550 OA
ENDBRANCH   8   9
ENDBRANCH   7   8
ENDBRANCH   6   7
ENDBRANCH   5   6
ENDBRANCH   4   5
ENDBRANCH   3   4
ENDBRANCH   2   3
ENDBRANCH   1   2
BRANCH   1  12
ATOM     12  C   UNL     1     -16.220  -8.791 -19.906  1.00  0.00     0.000 C 
BRANCH  12  13
ATOM     13  C   UNL     1     -15.231  -7.749 -20.453  1.00  0.00    -0.000 C 
BRANCH  13  14
ATOM     14  C   UNL     1     -14.480  -6.999 -19.339  1.00  0.00    -0.000 C 
BRANCH  14  15
ATOM     15  C   UNL     1     -14.811  -5.498 -19.314  1.00  0.00    -0.000 C 
BRANCH  15  16
ATOM     16  C   UNL     1     -15.680  -5.067 -20.509  1.00  0.00    -0.000 C 
BRANCH  16  17
ATOM     17  C   UNL     1     -17.184  -5.238 -20.240  1.00  0.00    -0.000 C 
BRANCH  17  18
ATOM     18  C   UNL     1     -18.009  -5.324 -21.535  1.00  0.00    -0.000 C 
BRANCH  18  19
ATOM     19  C   UNL     1     -17.483  -4.383 -22.630  1.00  0.00    -0.003 C 
ATOM     20  C   UNL     1     -17.448  -5.039 -24.010  1.00  0.00     0.004 C 
ENDBRANCH  18  19
ENDBRANCH  17  18
ENDBRANCH  16  17
ENDBRANCH  15  16
ENDBRANCH  14  15
ENDBRANCH  13  14
ENDBRANCH  12  13
ENDBRANCH   1  12
TORSDOF 16
ENDMDL
MODEL 6
REMARK VINA RESULT:    -3.173      3.628      9.428
REMARK INTER + INTRA:          -7.128
REMARK INTER:                  -6.311
REMARK INTRA:                  -0.817
REMARK UNBOUND:                -0.988
REMARK SMILES CCCCCCCCCCCCCCCCCC(=O)[O-]
REMARK SMILES IDX 10 1 11 2 12 3 13 4 14 5 15 6 16 7 17 8 18 9 19 10 20 11
REMARK SMILES IDX 9 12 8 13 7 14 6 15 5 16 4 17 3 18 2 19 1 20
REMARK H PARENT
REMARK Flexibility Score: inf
ROOT
ATOM      1  C   UNL     1     -16.326  -8.837 -20.131  1.00  0.00     0.000 C 
ENDROOT
BRANCH   1   2
ATOM      2  C   UNL     1     -15.943 -10.291 -20.466  1.00  0.00     0.000 C 
BRANCH   2   3
ATOM      3  C   UNL     1     -16.908 -11.364 -19.924  1.00  0.00     0.000 C 
BRANCH   3   4
ATOM      4  C   UNL     1     -16.646 -12.794 -20.433  1.00  0.00     0.000 C 
BRANCH   4   5
ATOM      5  C   UNL     1     -17.862 -13.492 -21.076  1.00  0.00     0.000 C 
BRANCH   5   6
ATOM      6  C   UNL     1     -18.923 -12.540 -21.656  1.00  0.00     0.000 C 
BRANCH   6   7
ATOM      7  C   UNL     1     -19.373 -12.940 -23.071  1.00  0.00     0.006 C 
BRANCH   7   8
ATOM      8  C   UNL     1     -18.213 -13.485 -23.915  1.00  0.00     0.053 C 
BRANCH   8   9
ATOM      9  C   UNL     1     -18.048 -12.718 -25.192  1.00  0.00     0.041 C 
ATOM     10  O   UNL     1     -19.024 -12.578 -25.977  1.00  0.00    -0.550 OA
ATOM     11  O   UNL     1     -16.810 -12.189 -25.532  1.00  0.00    -0.550 OA
ENDBRANCH   8   9
ENDBRANCH   7   8
ENDBRANCH   6   7
ENDBRANCH   5   6
ENDBRANCH   4   5
ENDBRANCH   3   4
ENDBRANCH   2   3
ENDBRANCH   1   2
BRANCH   1  12
ATOM     12  C   UNL     1     -15.120  -7.882 -20.149  1.00  0.00     0.000 C 
BRANCH  12  13
ATOM     13  C   UNL     1     -15.539  -6.411 -20.295  1.00  0.00    -0.000 C 
BRANCH  13  14
ATOM     14  C   UNL     1     -14.639  -5.455 -19.492  1.00  0.00    -0.000 C 
BRANCH  14  15
ATOM     15  C   UNL     1     -13.758  -6.193 -18.472  1.00  0.00    -0.000 C 
BRANCH  15  16
ATOM     16  C   UNL     1     -14.083  -5.798 -17.020  1.00  0.00    -0.000 C 
BRANCH  16  17
ATOM     17  C   UNL     1     -14.441  -4.310 -16.876  1.00  0.00    -0.000 C 
BRANCH  17  18
ATOM     18  C   UNL     1     -14.465  -3.848 -15.410  1.00  0.00    -0.000 C 
BRANCH  18  19
ATOM     19  C   UNL     1     -14.273  -2.330 -15.268  1.00  0.00    -0.003 C 
ATOM     20  C   UNL     1     -13.180  -1.961 -14.266  1.00  0.00     0.004 C 
ENDBRANCH  18  19
ENDBRANCH  17  18
ENDBRANCH  16  17
ENDBRANCH  15  16
ENDBRANCH  14  15
ENDBRANCH  13  14
ENDBRANCH  12  13
ENDBRANCH   1  12
TORSDOF 16
ENDMDL
MODEL 7
REMARK VINA RESULT:    -3.020      4.123      9.786
REMARK INTER + INTRA:          -6.833
REMARK INTER:                  -6.032
REMARK INTRA:                  -0.801
REMARK UNBOUND:                -0.988
REMARK SMILES CCCCCCCCCCCCCCCCCC(=O)[O-]
REMARK SMILES IDX 10 1 11 2 12 3 13 4 14 5 15 6 16 7 17 8 18 9 19 10 20 11
REMARK SMILES IDX 9 12 8 13 7 14 6 15 5 16 4 17 3 18 2 19 1 20
REMARK H PARENT
REMARK Flexibility Score: inf
ROOT
ATOM      1  C   UNL     1     -15.804  -6.686 -20.491  1.00  0.00     0.000 C 
ENDROOT
BRANCH   1   2
ATOM      2  C   UNL     1     -15.404  -8.129 -20.131  1.00  0.00     0.000 C 
BRANCH   2   3
ATOM      3  C   UNL     1     -16.560  -9.149 -20.129  1.00  0.00     0.000 C 
BRANCH   3   4
ATOM      4  C   UNL     1     -16.128 -10.627 -20.169  1.00  0.00     0.000 C 
BRANCH   4   5
ATOM      5  C   UNL     1     -17.232 -11.640 -19.805  1.00  0.00     0.000 C 
BRANCH   5   6
ATOM      6  C   UNL     1     -16.881 -13.111 -20.091  1.00  0.00     0.000 C 
BRANCH   6   7
ATOM      7  C   UNL     1     -17.584 -13.659 -21.344  1.00  0.00     0.006 C 
BRANCH   7   8
ATOM      8  C   UNL     1     -18.351 -12.567 -22.102  1.00  0.00     0.053 C 
BRANCH   8   9
ATOM      9  C   UNL     1     -18.144 -12.669 -23.582  1.00  0.00     0.041 C 
ATOM     10  O   UNL     1     -16.984 -12.823 -24.050  1.00  0.00    -0.550 OA
ATOM     11  O   UNL     1     -19.225 -12.559 -24.447  1.00  0.00    -0.550 OA
ENDBRANCH   8   9
ENDBRANCH   7   8
ENDBRANCH   6   7
ENDBRANCH   5   6
ENDBRANCH   4   5
ENDBRANCH   3   4
ENDBRANCH   2   3
ENDBRANCH   1   2
BRANCH   1  12
ATOM     12  C   UNL     1     -14.919  -5.632 -19.804  1.00  0.00     0.000 C 
BRANCH  12  13
ATOM     13  C   UNL     1     -13.951  -6.253 -18.784  1.00  0.00    -0.000 C 
BRANCH  13  14
ATOM     14  C   UNL     1     -14.066  -5.612 -17.390  1.00  0.00    -0.000 C 
BRANCH  14  15
ATOM     15  C   UNL     1     -13.951  -6.643 -16.256  1.00  0.00    -0.000 C 
BRANCH  15  16
ATOM     16  C   UNL     1     -14.252  -6.036 -14.875  1.00  0.00    -0.000 C 
BRANCH  16  17
ATOM     17  C   UNL     1     -14.394  -4.505 -14.918  1.00  0.00    -0.000 C 
BRANCH  17  18
ATOM     18  C   UNL     1     -14.103  -3.847 -13.559  1.00  0.00    -0.000 C 
BRANCH  18  19
ATOM     19  C   UNL     1     -13.299  -2.545 -13.696  1.00  0.00    -0.003 C 
ATOM     20  C   UNL     1     -13.709  -1.719 -14.914  1.00  0.00     0.004 C 
ENDBRANCH  18  19
ENDBRANCH  17  18
ENDBRANCH  16  17
ENDBRANCH  15  16
ENDBRANCH  14  15
ENDBRANCH  13  14
ENDBRANCH  12  13
ENDBRANCH   1  12
TORSDOF 16
ENDMDL
MODEL 8
REMARK VINA RESULT:    -2.759      5.313      6.947
REMARK INTER + INTRA:          -6.328
REMARK INTER:                  -5.919
REMARK INTRA:                  -0.408
REMARK UNBOUND:                -0.988
REMARK SMILES CCCCCCCCCCCCCCCCCC(=O)[O-]
REMARK SMILES IDX 10 1 11 2 12 3 13 4 14 5 15 6 16 7 17 8 18 9 19 10 20 11
REMARK SMILES IDX 9 12 8 13 7 14 6 15 5 16 4 17 3 18 2 19 1 20
REMARK H PARENT
REMARK Flexibility Score: inf
ROOT
ATOM      1  C   UNL     1     -19.677 -14.110 -22.975  1.00  0.00     0.000 C 
ENDROOT
BRANCH   1   2
ATOM      2  C   UNL     1     -18.749 -13.398 -21.973  1.00  0.00     0.000 C 
BRANCH   2   3
ATOM      3  C   UNL     1     -17.381 -12.968 -22.540  1.00  0.00     0.000 C 
BRANCH   3   4
ATOM      4  C   UNL     1     -16.281 -12.738 -21.486  1.00  0.00     0.000 C 
BRANCH   4   5
ATOM      5  C   UNL     1     -16.790 -12.322 -20.091  1.00  0.00     0.000 C 
BRANCH   5   6
ATOM      6  C   UNL     1     -17.241 -13.488 -19.192  1.00  0.00     0.000 C 
BRANCH   6   7
ATOM      7  C   UNL     1     -16.648 -13.412 -17.775  1.00  0.00     0.006 C 
BRANCH   7   8
ATOM      8  C   UNL     1     -17.531 -14.122 -16.739  1.00  0.00     0.053 C 
BRANCH   8   9
ATOM      9  C   UNL     1     -17.021 -13.922 -15.345  1.00  0.00     0.041 C 
ATOM     10  O   UNL     1     -15.818 -13.601 -15.151  1.00  0.00    -0.550 OA
ATOM     11  O   UNL     1     -17.862 -14.125 -14.259  1.00  0.00    -0.550 OA
ENDBRANCH   8   9
ENDBRANCH   7   8
ENDBRANCH   6   7
ENDBRANCH   5   6
ENDBRANCH   4   5
ENDBRANCH   3   4
ENDBRANCH   2   3
ENDBRANCH   1   2
BRANCH   1  12
ATOM     12  C   UNL     1     -19.167 -14.027 -24.424  1.00  0.00     0.000 C 
BRANCH  12  13
ATOM     13  C   UNL     1     -19.135 -12.585 -24.953  1.00  0.00    -0.000 C 
BRANCH  13  14
ATOM     14  C   UNL     1     -19.053 -12.516 -26.488  1.00  0.00    -0.000 C 
BRANCH  14  15
ATOM     15  C   UNL     1     -17.708 -11.960 -26.982  1.00  0.00    -0.000 C 
BRANCH  15  16
ATOM     16  C   UNL     1     -16.689 -11.786 -25.842  1.00  0.00    -0.000 C 
BRANCH  16  17
ATOM     17  C   UNL     1     -15.754 -12.997 -25.692  1.00  0.00    -0.000 C 
BRANCH  17  18
ATOM     18  C   UNL     1     -14.447 -12.645 -24.962  1.00  0.00    -0.000 C 
BRANCH  18  19
ATOM     19  C   UNL     1     -13.202 -12.923 -25.819  1.00  0.00    -0.003 C 
ATOM     20  C   UNL     1     -13.537 -13.571 -27.161  1.00  0.00     0.004 C 
ENDBRANCH  18  19
ENDBRANCH  17  18
ENDBRANCH  16  17
ENDBRANCH  15  16
ENDBRANCH  14  15
ENDBRANCH  13  14
ENDBRANCH  12  13
ENDBRANCH   1  12
TORSDOF 16
ENDMDL
MODEL 9
REMARK VINA RESULT:    -2.634      2.014      4.019
REMARK INTER + INTRA:          -6.085
REMARK INTER:                  -4.816
REMARK INTRA:                  -1.269
REMARK UNBOUND:                -0.988
REMARK SMILES CCCCCCCCCCCCCCCCCC(=O)[O-]
REMARK SMILES IDX 10 1 11 2 12 3 13 4 14 5 15 6 16 7 17 8 18 9 19 10 20 11
REMARK SMILES IDX 9 12 8 13 7 14 6 15 5 16 4 17 3 18 2 19 1 20
REMARK H PARENT
REMARK Flexibility Score: inf
ROOT
ATOM      1  C   UNL     1     -18.747 -13.860 -22.347  1.00  0.00     0.000 C 
ENDROOT
BRANCH   1   2
ATOM      2  C   UNL     1     -17.861 -12.635 -22.056  1.00  0.00     0.000 C 
BRANCH   2   3
ATOM      3  C   UNL     1     -16.626 -12.915 -21.176  1.00  0.00     0.000 C 
BRANCH   3   4
ATOM      4  C   UNL     1     -16.761 -12.481 -19.704  1.00  0.00     0.000 C 
BRANCH   4   5
ATOM      5  C   UNL     1     -16.963 -10.968 -19.485  1.00  0.00     0.000 C 
BRANCH   5   6
ATOM      6  C   UNL     1     -15.898 -10.070 -20.140  1.00  0.00     0.000 C 
BRANCH   6   7
ATOM      7  C   UNL     1     -16.298  -8.586 -20.158  1.00  0.00     0.006 C 
BRANCH   7   8
ATOM      8  C   UNL     1     -15.076  -7.657 -20.164  1.00  0.00     0.053 C 
BRANCH   8   9
ATOM      9  C   UNL     1     -15.477  -6.213 -20.199  1.00  0.00     0.041 C 
ATOM     10  O   UNL     1     -16.585  -5.876 -20.694  1.00  0.00    -0.550 OA
ATOM     11  O   UNL     1     -14.612  -5.238 -19.718  1.00  0.00    -0.550 OA
ENDBRANCH   8   9
ENDBRANCH   7   8
ENDBRANCH   6   7
ENDBRANCH   5   6
ENDBRANCH   4   5
ENDBRANCH   3   4
ENDBRANCH   2   3
ENDBRANCH   1   2
BRANCH   1  12
ATOM     12  C   UNL     1     -18.940 -14.113 -23.853  1.00  0.00     0.000 C 
BRANCH  12  13
ATOM     13  C   UNL     1     -19.265 -12.826 -24.627  1.00  0.00    -0.000 C 
BRANCH  13  14
ATOM     14  C   UNL     1     -18.934 -12.935 -26.126  1.00  0.00    -0.000 C 
BRANCH  14  15
ATOM     15  C   UNL     1     -17.682 -12.131 -26.512  1.00  0.00    -0.000 C 
BRANCH  15  16
ATOM     16  C   UNL     1     -16.732 -11.915 -25.321  1.00  0.00    -0.000 C 
BRANCH  16  17
ATOM     17  C   UNL     1     -15.649 -13.003 -25.222  1.00  0.00    -0.000 C 
BRANCH  17  18
ATOM     18  C   UNL     1     -15.062 -13.378 -26.593  1.00  0.00    -0.000 C 
BRANCH  18  19
ATOM     19  C   UNL     1     -13.526 -13.388 -26.592  1.00  0.00    -0.003 C 
ATOM     20  C   UNL     1     -12.930 -12.934 -25.261  1.00  0.00     0.004 C 
ENDBRANCH  18  19
ENDBRANCH  17  18
ENDBRANCH  16  17
ENDBRANCH  15  16
ENDBRANCH  14  15
ENDBRANCH  13  14
ENDBRANCH  12  13
ENDBRANCH   1  12
TORSDOF 16
ENDMDL
