MODEL 1
REMARK VINA RESULT:    11.437      0.000      0.000
REMARK INTER + INTRA:          23.997
REMARK INTER:                  22.134
REMARK INTRA:                   1.863
REMARK UNBOUND:                 1.863
REMARK SMILES CCCCCCCCCCCCCCCCCC(=O)[O-]
REMARK SMILES IDX 10 1 11 2 12 3 13 4 14 5 15 6 16 7 17 8 18 9 19 10 20 11
REMARK SMILES IDX 9 12 8 13 7 14 6 15 5 16 4 17 3 18 2 19 1 20
REMARK H PARENT
REMARK Flexibility Score: inf
ROOT
ATOM      1  C   UNL     1       7.454  49.649   9.891  1.00  0.00     0.000 C 
ENDROOT
BRANCH   1   2
ATOM      2  C   UNL     1       7.170  48.141   9.948  1.00  0.00     0.000 C 
BRANCH   2   3
ATOM      3  C   UNL     1       8.133  47.318   9.074  1.00  0.00     0.000 C 
BRANCH   3   4
ATOM      4  C   UNL     1       9.577  47.852   9.017  1.00  0.00     0.000 C 
BRANCH   4   5
ATOM      5  C   UNL     1      10.672  46.773   8.900  1.00  0.00     0.000 C 
BRANCH   5   6
ATOM      6  C   UNL     1      12.115  47.309   8.879  1.00  0.00     0.000 C 
BRANCH   6   7
ATOM      7  C   UNL     1      13.032  46.589   9.885  1.00  0.00     0.006 C 
BRANCH   7   8
ATOM      8  C   UNL     1      14.454  47.166   9.887  1.00  0.00     0.053 C 
BRANCH   8   9
ATOM      9  C   UNL     1      15.475  46.131   9.526  1.00  0.00     0.041 C 
ATOM     10  O   UNL     1      16.698  46.431   9.493  1.00  0.00    -0.550 OA
ATOM     11  O   UNL     1      15.074  44.841   9.203  1.00  0.00    -0.550 OA
ENDBRANCH   8   9
ENDBRANCH   7   8
ENDBRANCH   6   7
ENDBRANCH   5   6
ENDBRANCH   4   5
ENDBRANCH   3   4
ENDBRANCH   2   3
ENDBRANCH   1   2
BRANCH   1  12
ATOM     12  C   UNL     1       6.237  50.418   9.367  1.00  0.00     0.000 C 
BRANCH  12  13
ATOM     13  C   UNL     1       5.116  49.457   8.953  1.00  0.00    -0.000 C 
BRANCH  13  14
ATOM     14  C   UNL     1       4.075  49.309  10.068  1.00  0.00    -0.000 C 
BRANCH  14  15
ATOM     15  C   UNL     1       4.416  48.130  10.986  1.00  0.00    -0.000 C 
BRANCH  15  16
ATOM     16  C   UNL     1       5.613  48.460  11.887  1.00  0.00    -0.000 C 
BRANCH  16  17
ATOM     17  C   UNL     1       5.299  48.142  13.358  1.00  0.00    -0.000 C 
BRANCH  17  18
ATOM     18  C   UNL     1       3.961  47.391  13.519  1.00  0.00    -0.000 C 
BRANCH  18  19
ATOM     19  C   UNL     1       3.042  47.994  14.594  1.00  0.00    -0.003 C 
ATOM     20  C   UNL     1       2.788  47.046  15.764  1.00  0.00     0.004 C 
ENDBRANCH  18  19
ENDBRANCH  17  18
ENDBRANCH  16  17
ENDBRANCH  15  16
ENDBRANCH  14  15
ENDBRANCH  13  14
ENDBRANCH  12  13
ENDBRANCH   1  12
TORSDOF 16
ENDMDL
MODEL 2
REMARK VINA RESULT:    13.251      8.116     10.684
REMARK INTER + INTRA:          27.509
REMARK INTER:                  28.290
REMARK INTRA:                  -0.781
REMARK UNBOUND:                 1.863
REMARK SMILES CCCCCCCCCCCCCCCCCC(=O)[O-]
REMARK SMILES IDX 10 1 11 2 12 3 13 4 14 5 15 6 16 7 17 8 18 9 19 10 20 11
REMARK SMILES IDX 9 12 8 13 7 14 6 15 5 16 4 17 3 18 2 19 1 20
REMARK H PARENT
REMARK Flexibility Score: inf
ROOT
ATOM      1  C   UNL     1      14.859  52.553  12.938  1.00  0.00     0.000 C 
ENDROOT
BRANCH   1   2
ATOM      2  C   UNL     1      15.432  52.212  11.555  1.00  0.00     0.000 C 
BRANCH   2   3
ATOM      3  C   UNL     1      14.820  50.935  10.952  1.00  0.00     0.000 C 
BRANCH   3   4
ATOM      4  C   UNL     1      15.493  50.439   9.658  1.00  0.00     0.000 C 
BRANCH   4   5
ATOM      5  C   UNL     1      14.829  49.213   9.001  1.00  0.00     0.000 C 
BRANCH   5   6
ATOM      6  C   UNL     1      15.687  47.935   8.989  1.00  0.00     0.000 C 
BRANCH   6   7
ATOM      7  C   UNL     1      14.910  46.692   9.459  1.00  0.00     0.006 C 
BRANCH   7   8
ATOM      8  C   UNL     1      15.493  45.394   8.883  1.00  0.00     0.053 C 
BRANCH   8   9
ATOM      9  C   UNL     1      14.670  44.199   9.259  1.00  0.00     0.041 C 
ATOM     10  O   UNL     1      15.185  43.051   9.264  1.00  0.00    -0.550 OA
ATOM     11  O   UNL     1      13.327  44.353   9.580  1.00  0.00    -0.550 OA
ENDBRANCH   8   9
ENDBRANCH   7   8
ENDBRANCH   6   7
ENDBRANCH   5   6
ENDBRANCH   4   5
ENDBRANCH   3   4
ENDBRANCH   2   3
ENDBRANCH   1   2
BRANCH   1  12
ATOM     12  C   UNL     1      15.958  53.057  13.879  1.00  0.00     0.000 C 
BRANCH  12  13
ATOM     13  C   UNL     1      17.138  52.078  13.919  1.00  0.00    -0.000 C 
BRANCH  13  14
ATOM     14  C   UNL     1      17.469  51.670  15.359  1.00  0.00    -0.000 C 
BRANCH  14  15
ATOM     15  C   UNL     1      16.253  51.035  16.044  1.00  0.00    -0.000 C 
BRANCH  15  16
ATOM     16  C   UNL     1      16.599  50.576  17.467  1.00  0.00    -0.000 C 
BRANCH  16  17
ATOM     17  C   UNL     1      18.111  50.354  17.622  1.00  0.00    -0.000 C 
BRANCH  17  18
ATOM     18  C   UNL     1      18.572  50.485  19.089  1.00  0.00    -0.000 C 
BRANCH  18  19
ATOM     19  C   UNL     1      20.100  50.533  19.252  1.00  0.00    -0.003 C 
ATOM     20  C   UNL     1      20.757  51.631  18.420  1.00  0.00     0.004 C 
ENDBRANCH  18  19
ENDBRANCH  17  18
ENDBRANCH  16  17
ENDBRANCH  15  16
ENDBRANCH  14  15
ENDBRANCH  13  14
ENDBRANCH  12  13
ENDBRANCH   1  12
TORSDOF 16
ENDMDL
MODEL 3
REMARK VINA RESULT:    13.583      3.749      5.855
REMARK INTER + INTRA:          28.151
REMARK INTER:                  27.854
REMARK INTRA:                   0.297
REMARK UNBOUND:                 1.863
REMARK SMILES CCCCCCCCCCCCCCCCCC(=O)[O-]
REMARK SMILES IDX 10 1 11 2 12 3 13 4 14 5 15 6 16 7 17 8 18 9 19 10 20 11
REMARK SMILES IDX 9 12 8 13 7 14 6 15 5 16 4 17 3 18 2 19 1 20
REMARK H PARENT
REMARK Flexibility Score: inf
ROOT
ATOM      1  C   UNL     1       5.247  48.428  12.218  1.00  0.00     0.000 C 
ENDROOT
BRANCH   1   2
ATOM      2  C   UNL     1       4.044  47.891  11.429  1.00  0.00     0.000 C 
BRANCH   2   3
ATOM      3  C   UNL     1       3.691  48.764  10.212  1.00  0.00     0.000 C 
BRANCH   3   4
ATOM      4  C   UNL     1       4.844  49.637   9.681  1.00  0.00     0.000 C 
BRANCH   4   5
ATOM      5  C   UNL     1       5.921  48.883   8.875  1.00  0.00     0.000 C 
BRANCH   5   6
ATOM      6  C   UNL     1       5.892  47.351   9.024  1.00  0.00     0.000 C 
BRANCH   6   7
ATOM      7  C   UNL     1       7.299  46.733   9.093  1.00  0.00     0.006 C 
BRANCH   7   8
ATOM      8  C   UNL     1       8.393  47.799   9.244  1.00  0.00     0.053 C 
BRANCH   8   9
ATOM      9  C   UNL     1       8.314  48.495  10.569  1.00  0.00     0.041 C 
ATOM     10  O   UNL     1       8.175  49.745  10.622  1.00  0.00    -0.550 OA
ATOM     11  O   UNL     1       8.419  47.764  11.746  1.00  0.00    -0.550 OA
ENDBRANCH   8   9
ENDBRANCH   7   8
ENDBRANCH   6   7
ENDBRANCH   5   6
ENDBRANCH   4   5
ENDBRANCH   3   4
ENDBRANCH   2   3
ENDBRANCH   1   2
BRANCH   1  12
ATOM     12  C   UNL     1       5.044  48.239  13.726  1.00  0.00     0.000 C 
BRANCH  12  13
ATOM     13  C   UNL     1       3.812  47.371  14.010  1.00  0.00    -0.000 C 
BRANCH  13  14
ATOM     14  C   UNL     1       3.117  47.805  15.305  1.00  0.00    -0.000 C 
BRANCH  14  15
ATOM     15  C   UNL     1       2.410  46.621  15.974  1.00  0.00    -0.000 C 
BRANCH  15  16
ATOM     16  C   UNL     1       3.419  45.698  16.670  1.00  0.00    -0.000 C 
BRANCH  16  17
ATOM     17  C   UNL     1       2.724  44.447  17.231  1.00  0.00    -0.000 C 
BRANCH  17  18
ATOM     18  C   UNL     1       2.736  44.417  18.774  1.00  0.00    -0.000 C 
BRANCH  18  19
ATOM     19  C   UNL     1       2.385  45.768  19.418  1.00  0.00    -0.003 C 
ATOM     20  C   UNL     1       0.885  46.059  19.419  1.00  0.00     0.004 C 
ENDBRANCH  18  19
ENDBRANCH  17  18
ENDBRANCH  16  17
ENDBRANCH  15  16
ENDBRANCH  14  15
ENDBRANCH  13  14
ENDBRANCH  12  13
ENDBRANCH   1  12
TORSDOF 16
ENDMDL
MODEL 4
REMARK VINA RESULT:    13.892      4.021      6.636
REMARK INTER + INTRA:          28.750
REMARK INTER:                  29.797
REMARK INTRA:                  -1.047
REMARK UNBOUND:                 1.863
REMARK SMILES CCCCCCCCCCCCCCCCCC(=O)[O-]
REMARK SMILES IDX 10 1 11 2 12 3 13 4 14 5 15 6 16 7 17 8 18 9 19 10 20 11
REMARK SMILES IDX 9 12 8 13 7 14 6 15 5 16 4 17 3 18 2 19 1 20
REMARK H PARENT
REMARK Flexibility Score: inf
ROOT
ATOM      1  C   UNL     1       4.302  47.875  13.905  1.00  0.00     0.000 C 
ENDROOT
BRANCH   1   2
ATOM      2  C   UNL     1       3.720  47.693  12.495  1.00  0.00     0.000 C 
BRANCH   2   3
ATOM      3  C   UNL     1       4.498  48.476  11.422  1.00  0.00     0.000 C 
BRANCH   3   4
ATOM      4  C   UNL     1       3.808  48.554  10.046  1.00  0.00     0.000 C 
BRANCH   4   5
ATOM      5  C   UNL     1       4.724  48.963   8.876  1.00  0.00     0.000 C 
BRANCH   5   6
ATOM      6  C   UNL     1       5.821  49.983   9.232  1.00  0.00     0.000 C 
BRANCH   6   7
ATOM      7  C   UNL     1       7.234  49.483   8.883  1.00  0.00     0.006 C 
BRANCH   7   8
ATOM      8  C   UNL     1       7.465  48.036   9.339  1.00  0.00     0.053 C 
BRANCH   8   9
ATOM      9  C   UNL     1       7.880  47.965  10.777  1.00  0.00     0.041 C 
ATOM     10  O   UNL     1       7.577  46.963  11.476  1.00  0.00    -0.550 OA
ATOM     11  O   UNL     1       8.580  49.018  11.352  1.00  0.00    -0.550 OA
ENDBRANCH   8   9
ENDBRANCH   7   8
ENDBRANCH   6   7
ENDBRANCH   5   6
ENDBRANCH   4   5
ENDBRANCH   3   4
ENDBRANCH   2   3
ENDBRANCH   1   2
BRANCH   1  12
ATOM     12  C   UNL     1       3.189  48.107  14.933  1.00  0.00     0.000 C 
BRANCH  12  13
ATOM     13  C   UNL     1       2.705  46.778  15.526  1.00  0.00    -0.000 C 
BRANCH  13  14
ATOM     14  C   UNL     1       3.882  45.941  16.041  1.00  0.00    -0.000 C 
BRANCH  14  15
ATOM     15  C   UNL     1       3.487  44.467  16.185  1.00  0.00    -0.000 C 
BRANCH  15  16
ATOM     16  C   UNL     1       2.504  44.270  17.346  1.00  0.00    -0.000 C 
BRANCH  16  17
ATOM     17  C   UNL     1       2.890  45.145  18.550  1.00  0.00    -0.000 C 
BRANCH  17  18
ATOM     18  C   UNL     1       1.656  45.620  19.344  1.00  0.00    -0.000 C 
BRANCH  18  19
ATOM     19  C   UNL     1       1.830  47.010  19.978  1.00  0.00    -0.003 C 
ATOM     20  C   UNL     1       3.284  47.337  20.312  1.00  0.00     0.004 C 
ENDBRANCH  18  19
ENDBRANCH  17  18
ENDBRANCH  16  17
ENDBRANCH  15  16
ENDBRANCH  14  15
ENDBRANCH  13  14
ENDBRANCH  12  13
ENDBRANCH   1  12
TORSDOF 16
ENDMDL
MODEL 5
REMARK VINA RESULT:    14.311      5.913     10.290
REMARK INTER + INTRA:          29.561
REMARK INTER:                  30.244
REMARK INTRA:                  -0.684
REMARK UNBOUND:                 1.863
REMARK SMILES CCCCCCCCCCCCCCCCCC(=O)[O-]
REMARK SMILES IDX 10 1 11 2 12 3 13 4 14 5 15 6 16 7 17 8 18 9 19 10 20 11
REMARK SMILES IDX 9 12 8 13 7 14 6 15 5 16 4 17 3 18 2 19 1 20
REMARK H PARENT
REMARK Flexibility Score: inf
ROOT
ATOM      1  C   UNL     1       4.458  47.843  13.642  1.00  0.00     0.000 C 
ENDROOT
BRANCH   1   2
ATOM      2  C   UNL     1       3.086  47.762  14.328  1.00  0.00     0.000 C 
BRANCH   2   3
ATOM      3  C   UNL     1       3.166  47.204  15.760  1.00  0.00     0.000 C 
BRANCH   3   4
ATOM      4  C   UNL     1       2.602  45.781  15.937  1.00  0.00     0.000 C 
BRANCH   4   5
ATOM      5  C   UNL     1       3.339  44.906  16.970  1.00  0.00     0.000 C 
BRANCH   5   6
ATOM      6  C   UNL     1       2.506  44.512  18.203  1.00  0.00     0.000 C 
BRANCH   6   7
ATOM      7  C   UNL     1       2.863  45.337  19.451  1.00  0.00     0.006 C 
BRANCH   7   8
ATOM      8  C   UNL     1       1.765  46.347  19.811  1.00  0.00     0.053 C 
BRANCH   8   9
ATOM      9  C   UNL     1       2.326  47.566  20.478  1.00  0.00     0.041 C 
ATOM     10  O   UNL     1       1.584  48.302  21.181  1.00  0.00    -0.550 OA
ATOM     11  O   UNL     1       3.662  47.901  20.304  1.00  0.00    -0.550 OA
ENDBRANCH   8   9
ENDBRANCH   7   8
ENDBRANCH   6   7
ENDBRANCH   5   6
ENDBRANCH   4   5
ENDBRANCH   3   4
ENDBRANCH   2   3
ENDBRANCH   1   2
BRANCH   1  12
ATOM     12  C   UNL     1       4.344  47.532  12.146  1.00  0.00     0.000 C 
BRANCH  12  13
ATOM     13  C   UNL     1       4.652  48.774  11.301  1.00  0.00    -0.000 C 
BRANCH  13  14
ATOM     14  C   UNL     1       4.205  48.579   9.848  1.00  0.00    -0.000 C 
BRANCH  14  15
ATOM     15  C   UNL     1       5.353  48.870   8.875  1.00  0.00    -0.000 C 
BRANCH  15  16
ATOM     16  C   UNL     1       6.476  49.655   9.566  1.00  0.00    -0.000 C 
BRANCH  16  17
ATOM     17  C   UNL     1       7.826  49.408   8.875  1.00  0.00    -0.000 C 
BRANCH  17  18
ATOM     18  C   UNL     1       8.372  47.992   9.153  1.00  0.00    -0.000 C 
BRANCH  18  19
ATOM     19  C   UNL     1       7.689  47.291  10.339  1.00  0.00    -0.003 C 
ATOM     20  C   UNL     1       8.125  47.846  11.693  1.00  0.00     0.004 C 
ENDBRANCH  18  19
ENDBRANCH  17  18
ENDBRANCH  16  17
ENDBRANCH  15  16
ENDBRANCH  14  15
ENDBRANCH  13  14
ENDBRANCH  12  13
ENDBRANCH   1  12
TORSDOF 16
ENDMDL
