MODEL 1
REMARK VINA RESULT:    -5.799      0.000      0.000
REMARK INTER + INTRA:          -7.310
REMARK INTER:                  -6.985
REMARK INTRA:                  -0.325
REMARK UNBOUND:                -0.325
REMARK SMILES O=c1c(O)c(-c2ccc(O)cc2O)oc2cc(O)cc(O)c12
REMARK SMILES IDX 5 1 3 2 2 3 1 4 22 5 20 6 19 7 17 8 16 9 15 10 14 11 6 12
REMARK SMILES IDX 8 13 7 14 9 15 11 16 12 17 10 18 13 20 4 22 21 24 18 26
REMARK H PARENT 10 19 13 21 4 23 21 25 18 27
REMARK Flexibility Score: inf
ROOT
ATOM      1  C   UNL     1      45.482   3.782 131.863  1.00  0.00     0.184 A 
ATOM      2  C   UNL     1      46.782   4.016 131.389  1.00  0.00     0.208 A 
ATOM      3  C   UNL     1      46.966   4.890 130.307  1.00  0.00     0.238 A 
ATOM      4  O   UNL     1      48.125   5.038 129.840  1.00  0.00    -0.285 OA
ATOM      5  C   UNL     1      45.851   5.563 129.749  1.00  0.00     0.111 A 
ATOM      6  C   UNL     1      45.923   6.505 128.678  1.00  0.00     0.134 A 
ATOM      7  C   UNL     1      44.743   7.029 128.138  1.00  0.00     0.093 A 
ATOM      8  C   UNL     1      43.495   6.692 128.669  1.00  0.00     0.123 A 
ATOM      9  C   UNL     1      43.417   5.817 129.748  1.00  0.00     0.094 A 
ATOM     10  C   UNL     1      44.575   5.248 130.286  1.00  0.00     0.146 A 
ATOM     11  O   UNL     1      44.451   4.401 131.301  1.00  0.00    -0.451 OA
ENDROOT
BRANCH   1  12
ATOM     12  C   UNL     1      45.219   2.868 132.993  1.00  0.00     0.063 A 
ATOM     13  C   UNL     1      44.375   0.727 133.781  1.00  0.00     0.047 A 
ATOM     14  C   UNL     1      44.632   1.619 132.735  1.00  0.00     0.020 A 
ATOM     15  C   UNL     1      44.712   1.067 135.093  1.00  0.00     0.119 A 
ATOM     16  C   UNL     1      45.320   2.301 135.358  1.00  0.00     0.093 A 
ATOM     17  C   UNL     1      45.587   3.199 134.313  1.00  0.00     0.130 A 
BRANCH  15  18
ATOM     18  O   UNL     1      44.446   0.170 136.125  1.00  0.00    -0.508 OA
ATOM     19  H   UNL     1      44.916  -0.726 136.182  1.00  0.00     0.293 HD
ENDBRANCH  15  18
BRANCH  17  20
ATOM     20  O   UNL     1      46.235   4.404 134.583  1.00  0.00    -0.507 OA
ATOM     21  H   UNL     1      45.968   4.988 135.367  1.00  0.00     0.293 HD
ENDBRANCH  17  20
ENDBRANCH   1  12
BRANCH   2  22
ATOM     22  O   UNL     1      47.872   3.394 132.004  1.00  0.00    -0.502 OA
ATOM     23  H   UNL     1      48.731   3.188 131.508  1.00  0.00     0.293 HD
ENDBRANCH   2  22
BRANCH   6  24
ATOM     24  O   UNL     1      47.120   6.977 128.130  1.00  0.00    -0.507 OA
ATOM     25  H   UNL     1      47.288   7.124 127.147  1.00  0.00     0.293 HD
ENDBRANCH   6  24
BRANCH   8  26
ATOM     26  O   UNL     1      42.327   7.231 128.136  1.00  0.00    -0.508 OA
ATOM     27  H   UNL     1      41.541   6.645 127.879  1.00  0.00     0.293 HD
ENDBRANCH   8  26
TORSDOF 6
ENDMDL
MODEL 2
REMARK VINA RESULT:    -5.693      0.720      1.472
REMARK INTER + INTRA:          -7.182
REMARK INTER:                  -6.835
REMARK INTRA:                  -0.347
REMARK UNBOUND:                -0.325
REMARK SMILES O=c1c(O)c(-c2ccc(O)cc2O)oc2cc(O)cc(O)c12
REMARK SMILES IDX 5 1 3 2 2 3 1 4 22 5 20 6 19 7 17 8 16 9 15 10 14 11 6 12
REMARK SMILES IDX 8 13 7 14 9 15 11 16 12 17 10 18 13 20 4 22 21 24 18 26
REMARK H PARENT 10 19 13 21 4 23 21 25 18 27
REMARK Flexibility Score: inf
ROOT
ATOM      1  C   UNL     1      45.455   3.831 131.804  1.00  0.00     0.184 A 
ATOM      2  C   UNL     1      46.756   4.046 131.326  1.00  0.00     0.208 A 
ATOM      3  C   UNL     1      46.953   4.951 130.271  1.00  0.00     0.238 A 
ATOM      4  O   UNL     1      48.112   5.084 129.798  1.00  0.00    -0.285 OA
ATOM      5  C   UNL     1      45.851   5.671 129.747  1.00  0.00     0.111 A 
ATOM      6  C   UNL     1      45.940   6.647 128.708  1.00  0.00     0.134 A 
ATOM      7  C   UNL     1      44.768   7.219 128.196  1.00  0.00     0.093 A 
ATOM      8  C   UNL     1      43.517   6.898 128.729  1.00  0.00     0.123 A 
ATOM      9  C   UNL     1      43.426   5.989 129.779  1.00  0.00     0.094 A 
ATOM     10  C   UNL     1      44.572   5.373 130.286  1.00  0.00     0.146 A 
ATOM     11  O   UNL     1      44.436   4.496 131.273  1.00  0.00    -0.451 OA
ENDROOT
BRANCH   1  12
ATOM     12  C   UNL     1      45.177   2.887 132.906  1.00  0.00     0.063 A 
ATOM     13  C   UNL     1      45.490   2.262 135.235  1.00  0.00     0.047 A 
ATOM     14  C   UNL     1      45.737   3.132 134.170  1.00  0.00     0.020 A 
ATOM     15  C   UNL     1      44.672   1.145 135.055  1.00  0.00     0.119 A 
ATOM     16  C   UNL     1      44.089   0.903 133.804  1.00  0.00     0.093 A 
ATOM     17  C   UNL     1      44.327   1.775 132.731  1.00  0.00     0.130 A 
BRANCH  15  18
ATOM     18  O   UNL     1      44.438   0.284 136.125  1.00  0.00    -0.508 OA
ATOM     19  H   UNL     1      44.448   0.616 137.083  1.00  0.00     0.293 HD
ENDBRANCH  15  18
BRANCH  17  20
ATOM     20  O   UNL     1      43.704   1.551 131.503  1.00  0.00    -0.507 OA
ATOM     21  H   UNL     1      44.117   0.951 130.799  1.00  0.00     0.293 HD
ENDBRANCH  17  20
ENDBRANCH   1  12
BRANCH   2  22
ATOM     22  O   UNL     1      47.835   3.376 131.909  1.00  0.00    -0.502 OA
ATOM     23  H   UNL     1      48.684   3.853 132.189  1.00  0.00     0.293 HD
ENDBRANCH   2  22
BRANCH   6  24
ATOM     24  O   UNL     1      47.144   7.105 128.164  1.00  0.00    -0.507 OA
ATOM     25  H   UNL     1      47.222   7.783 127.421  1.00  0.00     0.293 HD
ENDBRANCH   6  24
BRANCH   8  26
ATOM     26  O   UNL     1      42.359   7.485 128.225  1.00  0.00    -0.508 OA
ATOM     27  H   UNL     1      42.284   7.760 127.252  1.00  0.00     0.293 HD
ENDBRANCH   8  26
TORSDOF 6
ENDMDL
MODEL 3
REMARK VINA RESULT:    -5.422      1.495      6.610
REMARK INTER + INTRA:          -6.856
REMARK INTER:                  -6.738
REMARK INTRA:                  -0.118
REMARK UNBOUND:                -0.325
REMARK SMILES O=c1c(O)c(-c2ccc(O)cc2O)oc2cc(O)cc(O)c12
REMARK SMILES IDX 5 1 3 2 2 3 1 4 22 5 20 6 19 7 17 8 16 9 15 10 14 11 6 12
REMARK SMILES IDX 8 13 7 14 9 15 11 16 12 17 10 18 13 20 4 22 21 24 18 26
REMARK H PARENT 10 19 13 21 4 23 21 25 18 27
REMARK Flexibility Score: inf
ROOT
ATOM      1  C   UNL     1      44.971   3.736 131.920  1.00  0.00     0.184 A 
ATOM      2  C   UNL     1      45.678   3.858 133.125  1.00  0.00     0.208 A 
ATOM      3  C   UNL     1      45.431   2.938 134.157  1.00  0.00     0.238 A 
ATOM      4  O   UNL     1      46.014   3.098 135.260  1.00  0.00    -0.285 OA
ATOM      5  C   UNL     1      44.520   1.874 133.947  1.00  0.00     0.111 A 
ATOM      6  C   UNL     1      44.225   0.857 134.905  1.00  0.00     0.134 A 
ATOM      7  C   UNL     1      43.228  -0.086 134.626  1.00  0.00     0.093 A 
ATOM      8  C   UNL     1      42.560  -0.087 133.399  1.00  0.00     0.123 A 
ATOM      9  C   UNL     1      42.879   0.866 132.437  1.00  0.00     0.094 A 
ATOM     10  C   UNL     1      43.843   1.844 132.699  1.00  0.00     0.146 A 
ATOM     11  O   UNL     1      44.099   2.747 131.761  1.00  0.00    -0.451 OA
ENDROOT
BRANCH   1  12
ATOM     12  C   UNL     1      45.177   4.675 130.798  1.00  0.00     0.063 A 
ATOM     13  C   UNL     1      44.255   6.343 129.289  1.00  0.00     0.047 A 
ATOM     14  C   UNL     1      44.093   5.441 130.344  1.00  0.00     0.020 A 
ATOM     15  C   UNL     1      45.504   6.500 128.684  1.00  0.00     0.119 A 
ATOM     16  C   UNL     1      46.598   5.757 129.145  1.00  0.00     0.093 A 
ATOM     17  C   UNL     1      46.445   4.854 130.208  1.00  0.00     0.130 A 
BRANCH  15  18
ATOM     18  O   UNL     1      45.650   7.399 127.631  1.00  0.00    -0.508 OA
ATOM     19  H   UNL     1      44.871   7.637 127.026  1.00  0.00     0.293 HD
ENDBRANCH  15  18
BRANCH  17  20
ATOM     20  O   UNL     1      47.552   4.155 130.690  1.00  0.00    -0.507 OA
ATOM     21  H   UNL     1      47.604   3.144 130.643  1.00  0.00     0.293 HD
ENDBRANCH  17  20
ENDBRANCH   1  12
BRANCH   2  22
ATOM     22  O   UNL     1      46.624   4.876 133.281  1.00  0.00    -0.502 OA
ATOM     23  H   UNL     1      47.164   4.990 134.130  1.00  0.00     0.293 HD
ENDBRANCH   2  22
BRANCH   6  24
ATOM     24  O   UNL     1      44.893   0.713 136.125  1.00  0.00    -0.507 OA
ATOM     25  H   UNL     1      44.458   0.773 137.033  1.00  0.00     0.293 HD
ENDBRANCH   6  24
BRANCH   8  26
ATOM     26  O   UNL     1      41.581  -1.040 133.125  1.00  0.00    -0.508 OA
ATOM     27  H   UNL     1      41.187  -1.143 132.197  1.00  0.00     0.293 HD
ENDBRANCH   8  26
TORSDOF 6
ENDMDL
MODEL 4
REMARK VINA RESULT:    -5.166      1.374      2.076
REMARK INTER + INTRA:          -6.548
REMARK INTER:                  -6.220
REMARK INTRA:                  -0.328
REMARK UNBOUND:                -0.325
REMARK SMILES O=c1c(O)c(-c2ccc(O)cc2O)oc2cc(O)cc(O)c12
REMARK SMILES IDX 5 1 3 2 2 3 1 4 22 5 20 6 19 7 17 8 16 9 15 10 14 11 6 12
REMARK SMILES IDX 8 13 7 14 9 15 11 16 12 17 10 18 13 20 4 22 21 24 18 26
REMARK H PARENT 10 19 13 21 4 23 21 25 18 27
REMARK Flexibility Score: inf
ROOT
ATOM      1  C   UNL     1      44.891   3.076 132.450  1.00  0.00     0.184 A 
ATOM      2  C   UNL     1      46.286   3.212 132.384  1.00  0.00     0.208 A 
ATOM      3  C   UNL     1      46.839   4.129 131.476  1.00  0.00     0.238 A 
ATOM      4  O   UNL     1      48.091   4.193 131.371  1.00  0.00    -0.285 OA
ATOM      5  C   UNL     1      45.986   4.938 130.686  1.00  0.00     0.111 A 
ATOM      6  C   UNL     1      46.435   5.933 129.765  1.00  0.00     0.134 A 
ATOM      7  C   UNL     1      45.503   6.599 128.960  1.00  0.00     0.093 A 
ATOM      8  C   UNL     1      44.134   6.353 129.087  1.00  0.00     0.123 A 
ATOM      9  C   UNL     1      43.682   5.425 130.021  1.00  0.00     0.094 A 
ATOM     10  C   UNL     1      44.589   4.716 130.813  1.00  0.00     0.146 A 
ATOM     11  O   UNL     1      44.116   3.825 131.675  1.00  0.00    -0.451 OA
ENDROOT
BRANCH   1  12
ATOM     12  C   UNL     1      44.246   2.124 133.377  1.00  0.00     0.063 A 
ATOM     13  C   UNL     1      43.847   1.397 135.663  1.00  0.00     0.047 A 
ATOM     14  C   UNL     1      44.448   2.276 134.758  1.00  0.00     0.020 A 
ATOM     15  C   UNL     1      43.027   0.365 135.201  1.00  0.00     0.119 A 
ATOM     16  C   UNL     1      42.799   0.219 133.827  1.00  0.00     0.093 A 
ATOM     17  C   UNL     1      43.394   1.101 132.912  1.00  0.00     0.130 A 
BRANCH  15  18
ATOM     18  O   UNL     1      42.439  -0.507 136.115  1.00  0.00    -0.508 OA
ATOM     19  H   UNL     1      41.436  -0.519 136.264  1.00  0.00     0.293 HD
ENDBRANCH  15  18
BRANCH  17  20
ATOM     20  O   UNL     1      43.122   0.976 131.549  1.00  0.00    -0.507 OA
ATOM     21  H   UNL     1      42.641   1.704 131.034  1.00  0.00     0.293 HD
ENDBRANCH  17  20
ENDBRANCH   1  12
BRANCH   2  22
ATOM     22  O   UNL     1      47.103   2.452 133.226  1.00  0.00    -0.502 OA
ATOM     23  H   UNL     1      46.904   2.334 134.213  1.00  0.00     0.293 HD
ENDBRANCH   2  22
BRANCH   6  24
ATOM     24  O   UNL     1      47.771   6.320 129.619  1.00  0.00    -0.507 OA
ATOM     25  H   UNL     1      48.125   7.249 129.789  1.00  0.00     0.293 HD
ENDBRANCH   6  24
BRANCH   8  26
ATOM     26  O   UNL     1      43.213   7.032 128.293  1.00  0.00    -0.508 OA
ATOM     27  H   UNL     1      42.447   7.557 128.700  1.00  0.00     0.293 HD
ENDBRANCH   8  26
TORSDOF 6
ENDMDL
MODEL 5
REMARK VINA RESULT:    -4.620      8.508     12.389
REMARK INTER + INTRA:          -5.891
REMARK INTER:                  -5.487
REMARK INTRA:                  -0.404
REMARK UNBOUND:                -0.325
REMARK SMILES O=c1c(O)c(-c2ccc(O)cc2O)oc2cc(O)cc(O)c12
REMARK SMILES IDX 5 1 3 2 2 3 1 4 22 5 20 6 19 7 17 8 16 9 15 10 14 11 6 12
REMARK SMILES IDX 8 13 7 14 9 15 11 16 12 17 10 18 13 20 4 22 21 24 18 26
REMARK H PARENT 10 19 13 21 4 23 21 25 18 27
REMARK Flexibility Score: inf
ROOT
ATOM      1  C   UNL     1      46.044  10.572 121.959  1.00  0.00     0.184 A 
ATOM      2  C   UNL     1      45.139  11.630 122.128  1.00  0.00     0.208 A 
ATOM      3  C   UNL     1      44.746  12.376 121.006  1.00  0.00     0.238 A 
ATOM      4  O   UNL     1      43.992  13.369 121.176  1.00  0.00    -0.285 OA
ATOM      5  C   UNL     1      45.222  12.017 119.721  1.00  0.00     0.111 A 
ATOM      6  C   UNL     1      44.855  12.674 118.507  1.00  0.00     0.134 A 
ATOM      7  C   UNL     1      45.470  12.300 117.306  1.00  0.00     0.093 A 
ATOM      8  C   UNL     1      46.391  11.250 117.265  1.00  0.00     0.123 A 
ATOM      9  C   UNL     1      46.714  10.567 118.434  1.00  0.00     0.094 A 
ATOM     10  C   UNL     1      46.146  10.942 119.654  1.00  0.00     0.146 A 
ATOM     11  O   UNL     1      46.499  10.277 120.747  1.00  0.00    -0.451 OA
ENDROOT
BRANCH   1  12
ATOM     12  C   UNL     1      46.504   9.752 123.099  1.00  0.00     0.063 A 
ATOM     13  C   UNL     1      48.125   9.386 124.875  1.00  0.00     0.047 A 
ATOM     14  C   UNL     1      47.665  10.136 123.788  1.00  0.00     0.020 A 
ATOM     15  C   UNL     1      47.424   8.253 125.293  1.00  0.00     0.119 A 
ATOM     16  C   UNL     1      46.251   7.875 124.628  1.00  0.00     0.093 A 
ATOM     17  C   UNL     1      45.780   8.625 123.540  1.00  0.00     0.130 A 
BRANCH  15  18
ATOM     18  O   UNL     1      47.896   7.513 126.375  1.00  0.00    -0.508 OA
ATOM     19  H   UNL     1      47.920   7.901 127.312  1.00  0.00     0.293 HD
ENDBRANCH  15  18
BRANCH  17  20
ATOM     20  O   UNL     1      44.585   8.267 122.915  1.00  0.00    -0.507 OA
ATOM     21  H   UNL     1      44.211   7.328 122.982  1.00  0.00     0.293 HD
ENDBRANCH  17  20
ENDBRANCH   1  12
BRANCH   2  22
ATOM     22  O   UNL     1      44.630  11.918 123.398  1.00  0.00    -0.502 OA
ATOM     23  H   UNL     1      45.179  11.805 124.242  1.00  0.00     0.293 HD
ENDBRANCH   2  22
BRANCH   6  24
ATOM     24  O   UNL     1      43.883  13.675 118.421  1.00  0.00    -0.507 OA
ATOM     25  H   UNL     1      43.578  14.114 117.565  1.00  0.00     0.293 HD
ENDBRANCH   6  24
BRANCH   8  26
ATOM     26  O   UNL     1      46.986  10.874 116.063  1.00  0.00    -0.508 OA
ATOM     27  H   UNL     1      46.842  11.403 115.211  1.00  0.00     0.293 HD
ENDBRANCH   8  26
TORSDOF 6
ENDMDL
MODEL 6
REMARK VINA RESULT:    -4.492      1.681      6.441
REMARK INTER + INTRA:          -5.736
REMARK INTER:                  -5.313
REMARK INTRA:                  -0.423
REMARK UNBOUND:                -0.325
REMARK SMILES O=c1c(O)c(-c2ccc(O)cc2O)oc2cc(O)cc(O)c12
REMARK SMILES IDX 5 1 3 2 2 3 1 4 22 5 20 6 19 7 17 8 16 9 15 10 14 11 6 12
REMARK SMILES IDX 8 13 7 14 9 15 11 16 12 17 10 18 13 20 4 22 21 24 18 26
REMARK H PARENT 10 19 13 21 4 23 21 25 18 27
REMARK Flexibility Score: inf
ROOT
ATOM      1  C   UNL     1      45.227   4.371 130.503  1.00  0.00     0.184 A 
ATOM      2  C   UNL     1      46.415   4.640 131.200  1.00  0.00     0.208 A 
ATOM      3  C   UNL     1      46.586   4.106 132.487  1.00  0.00     0.238 A 
ATOM      4  O   UNL     1      47.621   4.412 133.134  1.00  0.00    -0.285 OA
ATOM      5  C   UNL     1      45.589   3.263 133.037  1.00  0.00     0.111 A 
ATOM      6  C   UNL     1      45.676   2.631 134.315  1.00  0.00     0.134 A 
ATOM      7  C   UNL     1      44.582   1.904 134.801  1.00  0.00     0.093 A 
ATOM      8  C   UNL     1      43.430   1.733 134.029  1.00  0.00     0.123 A 
ATOM      9  C   UNL     1      43.357   2.300 132.761  1.00  0.00     0.094 A 
ATOM     10  C   UNL     1      44.417   3.063 132.262  1.00  0.00     0.146 A 
ATOM     11  O   UNL     1      44.295   3.603 131.056  1.00  0.00    -0.451 OA
ENDROOT
BRANCH   1  12
ATOM     12  C   UNL     1      44.980   4.908 129.150  1.00  0.00     0.063 A 
ATOM     13  C   UNL     1      45.473   4.846 126.769  1.00  0.00     0.047 A 
ATOM     14  C   UNL     1      45.686   4.366 128.064  1.00  0.00     0.020 A 
ATOM     15  C   UNL     1      44.543   5.864 126.542  1.00  0.00     0.119 A 
ATOM     16  C   UNL     1      43.817   6.396 127.615  1.00  0.00     0.093 A 
ATOM     17  C   UNL     1      44.021   5.914 128.917  1.00  0.00     0.130 A 
BRANCH  15  18
ATOM     18  O   UNL     1      44.344   6.336 125.246  1.00  0.00    -0.508 OA
ATOM     19  H   UNL     1      44.870   7.124 124.883  1.00  0.00     0.293 HD
ENDBRANCH  15  18
BRANCH  17  20
ATOM     20  O   UNL     1      43.257   6.418 129.970  1.00  0.00    -0.507 OA
ATOM     21  H   UNL     1      43.601   7.160 130.569  1.00  0.00     0.293 HD
ENDBRANCH  17  20
ENDBRANCH   1  12
BRANCH   2  22
ATOM     22  O   UNL     1      47.414   5.416 130.604  1.00  0.00    -0.502 OA
ATOM     23  H   UNL     1      48.383   5.368 130.894  1.00  0.00     0.293 HD
ENDBRANCH   2  22
BRANCH   6  24
ATOM     24  O   UNL     1      46.812   2.662 135.129  1.00  0.00    -0.507 OA
ATOM     25  H   UNL     1      46.814   2.898 136.110  1.00  0.00     0.293 HD
ENDBRANCH   6  24
BRANCH   8  26
ATOM     26  O   UNL     1      42.354   0.994 134.515  1.00  0.00    -0.508 OA
ATOM     27  H   UNL     1      42.272  -0.001 134.342  1.00  0.00     0.293 HD
ENDBRANCH   8  26
TORSDOF 6
ENDMDL
MODEL 7
REMARK VINA RESULT:    -4.475      2.416      7.886
REMARK INTER + INTRA:          -5.716
REMARK INTER:                  -5.644
REMARK INTRA:                  -0.072
REMARK UNBOUND:                -0.325
REMARK SMILES O=c1c(O)c(-c2ccc(O)cc2O)oc2cc(O)cc(O)c12
REMARK SMILES IDX 5 1 3 2 2 3 1 4 22 5 20 6 19 7 17 8 16 9 15 10 14 11 6 12
REMARK SMILES IDX 8 13 7 14 9 15 11 16 12 17 10 18 13 20 4 22 21 24 18 26
REMARK H PARENT 10 19 13 21 4 23 21 25 18 27
REMARK Flexibility Score: inf
ROOT
ATOM      1  C   UNL     1      45.737   6.423 127.746  1.00  0.00     0.184 A 
ATOM      2  C   UNL     1      44.395   6.459 128.154  1.00  0.00     0.208 A 
ATOM      3  C   UNL     1      44.025   5.801 129.338  1.00  0.00     0.238 A 
ATOM      4  O   UNL     1      42.809   5.775 129.659  1.00  0.00    -0.285 OA
ATOM      5  C   UNL     1      45.014   5.162 130.126  1.00  0.00     0.111 A 
ATOM      6  C   UNL     1      44.762   4.502 131.367  1.00  0.00     0.134 A 
ATOM      7  C   UNL     1      45.800   3.814 132.007  1.00  0.00     0.093 A 
ATOM      8  C   UNL     1      47.095   3.815 131.484  1.00  0.00     0.123 A 
ATOM      9  C   UNL     1      47.363   4.502 130.303  1.00  0.00     0.094 A 
ATOM     10  C   UNL     1      46.341   5.167 129.621  1.00  0.00     0.146 A 
ATOM     11  O   UNL     1      46.638   5.790 128.488  1.00  0.00    -0.451 OA
ENDROOT
BRANCH   1  12
ATOM     12  C   UNL     1      46.191   7.088 126.507  1.00  0.00     0.063 A 
ATOM     13  C   UNL     1      45.802   7.602 124.162  1.00  0.00     0.047 A 
ATOM     14  C   UNL     1      45.405   6.980 125.349  1.00  0.00     0.020 A 
ATOM     15  C   UNL     1      46.981   8.349 124.122  1.00  0.00     0.119 A 
ATOM     16  C   UNL     1      47.761   8.484 125.277  1.00  0.00     0.093 A 
ATOM     17  C   UNL     1      47.366   7.867 126.474  1.00  0.00     0.130 A 
BRANCH  15  18
ATOM     18  O   UNL     1      47.367   8.960 122.930  1.00  0.00    -0.508 OA
ATOM     19  H   UNL     1      47.450   9.968 122.854  1.00  0.00     0.293 HD
ENDBRANCH  15  18
BRANCH  17  20
ATOM     20  O   UNL     1      48.125   8.047 127.631  1.00  0.00    -0.507 OA
ATOM     21  H   UNL     1      48.501   7.261 128.147  1.00  0.00     0.293 HD
ENDBRANCH  17  20
ENDBRANCH   1  12
BRANCH   2  22
ATOM     22  O   UNL     1      43.452   7.158 127.395  1.00  0.00    -0.502 OA
ATOM     23  H   UNL     1      43.052   8.037 127.701  1.00  0.00     0.293 HD
ENDBRANCH   2  22
BRANCH   6  24
ATOM     24  O   UNL     1      43.526   4.512 132.022  1.00  0.00    -0.507 OA
ATOM     25  H   UNL     1      42.637   4.331 131.583  1.00  0.00     0.293 HD
ENDBRANCH   6  24
BRANCH   8  26
ATOM     26  O   UNL     1      48.125   3.142 132.136  1.00  0.00    -0.508 OA
ATOM     27  H   UNL     1      48.956   3.625 132.456  1.00  0.00     0.293 HD
ENDBRANCH   8  26
TORSDOF 6
ENDMDL
MODEL 8
REMARK VINA RESULT:    -4.446      9.873     13.817
REMARK INTER + INTRA:          -5.681
REMARK INTER:                  -5.273
REMARK INTRA:                  -0.408
REMARK UNBOUND:                -0.325
REMARK SMILES O=c1c(O)c(-c2ccc(O)cc2O)oc2cc(O)cc(O)c12
REMARK SMILES IDX 5 1 3 2 2 3 1 4 22 5 20 6 19 7 17 8 16 9 15 10 14 11 6 12
REMARK SMILES IDX 8 13 7 14 9 15 11 16 12 17 10 18 13 20 4 22 21 24 18 26
REMARK H PARENT 10 19 13 21 4 23 21 25 18 27
REMARK Flexibility Score: inf
ROOT
ATOM      1  C   UNL     1      45.731  12.101 120.917  1.00  0.00     0.184 A 
ATOM      2  C   UNL     1      46.027  13.472 120.904  1.00  0.00     0.208 A 
ATOM      3  C   UNL     1      45.463  14.282 119.907  1.00  0.00     0.238 A 
ATOM      4  O   UNL     1      45.792  15.496 119.858  1.00  0.00    -0.285 OA
ATOM      5  C   UNL     1      44.564  13.719 118.968  1.00  0.00     0.111 A 
ATOM      6  C   UNL     1      43.898  14.453 117.940  1.00  0.00     0.134 A 
ATOM      7  C   UNL     1      43.113  13.772 117.002  1.00  0.00     0.093 A 
ATOM      8  C   UNL     1      42.919  12.391 117.093  1.00  0.00     0.123 A 
ATOM      9  C   UNL     1      43.520  11.674 118.123  1.00  0.00     0.094 A 
ATOM     10  C   UNL     1      44.339  12.320 119.052  1.00  0.00     0.146 A 
ATOM     11  O   UNL     1      44.910  11.593 120.005  1.00  0.00    -0.451 OA
ENDROOT
BRANCH   1  12
ATOM     12  C   UNL     1      46.297  11.192 121.934  1.00  0.00     0.063 A 
ATOM     13  C   UNL     1      48.099   9.713 122.626  1.00  0.00     0.047 A 
ATOM     14  C   UNL     1      47.532  10.574 121.682  1.00  0.00     0.020 A 
ATOM     15  C   UNL     1      47.446   9.469 123.836  1.00  0.00     0.119 A 
ATOM     16  C   UNL     1      46.225  10.099 124.108  1.00  0.00     0.093 A 
ATOM     17  C   UNL     1      45.652  10.969 123.168  1.00  0.00     0.130 A 
BRANCH  15  18
ATOM     18  O   UNL     1      48.022   8.605 124.765  1.00  0.00    -0.508 OA
ATOM     19  H   UNL     1      47.707   8.577 125.729  1.00  0.00     0.293 HD
ENDBRANCH  15  18
BRANCH  17  20
ATOM     20  O   UNL     1      44.460  11.628 123.469  1.00  0.00    -0.507 OA
ATOM     21  H   UNL     1      43.604  11.119 123.656  1.00  0.00     0.293 HD
ENDBRANCH  17  20
ENDBRANCH   1  12
BRANCH   2  22
ATOM     22  O   UNL     1      46.861  14.016 121.886  1.00  0.00    -0.502 OA
ATOM     23  H   UNL     1      46.817  13.727 122.856  1.00  0.00     0.293 HD
ENDBRANCH   2  22
BRANCH   6  24
ATOM     24  O   UNL     1      43.952  15.845 117.811  1.00  0.00    -0.507 OA
ATOM     25  H   UNL     1      44.503  16.341 117.127  1.00  0.00     0.293 HD
ENDBRANCH   6  24
BRANCH   8  26
ATOM     26  O   UNL     1      42.122  11.724 116.165  1.00  0.00    -0.508 OA
ATOM     27  H   UNL     1      41.620  10.877 116.407  1.00  0.00     0.293 HD
ENDBRANCH   8  26
TORSDOF 6
ENDMDL
MODEL 9
REMARK VINA RESULT:    -4.323      1.723      2.445
REMARK INTER + INTRA:          -5.532
REMARK INTER:                  -5.608
REMARK INTRA:                   0.075
REMARK UNBOUND:                -0.325
REMARK SMILES O=c1c(O)c(-c2ccc(O)cc2O)oc2cc(O)cc(O)c12
REMARK SMILES IDX 5 1 3 2 2 3 1 4 22 5 20 6 19 7 17 8 16 9 15 10 14 11 6 12
REMARK SMILES IDX 8 13 7 14 9 15 11 16 12 17 10 18 13 20 4 22 21 24 18 26
REMARK H PARENT 10 19 13 21 4 23 21 25 18 27
REMARK Flexibility Score: inf
ROOT
ATOM      1  C   UNL     1      45.945   4.727 130.377  1.00  0.00     0.184 A 
ATOM      2  C   UNL     1      47.037   5.508 129.971  1.00  0.00     0.208 A 
ATOM      3  C   UNL     1      47.010   6.112 128.704  1.00  0.00     0.238 A 
ATOM      4  O   UNL     1      48.024   6.750 128.317  1.00  0.00    -0.285 OA
ATOM      5  C   UNL     1      45.865   5.972 127.882  1.00  0.00     0.111 A 
ATOM      6  C   UNL     1      45.708   6.576 126.598  1.00  0.00     0.134 A 
ATOM      7  C   UNL     1      44.575   6.281 125.829  1.00  0.00     0.093 A 
ATOM      8  C   UNL     1      43.564   5.454 126.324  1.00  0.00     0.123 A 
ATOM      9  C   UNL     1      43.682   4.904 127.597  1.00  0.00     0.094 A 
ATOM     10  C   UNL     1      44.817   5.149 128.374  1.00  0.00     0.146 A 
ATOM     11  O   UNL     1      44.898   4.586 129.573  1.00  0.00    -0.451 OA
ENDROOT
BRANCH   1  12
ATOM     12  C   UNL     1      45.914   4.058 131.693  1.00  0.00     0.063 A 
ATOM     13  C   UNL     1      44.709   3.573 133.749  1.00  0.00     0.047 A 
ATOM     14  C   UNL     1      44.774   4.198 132.500  1.00  0.00     0.020 A 
ATOM     15  C   UNL     1      45.775   2.792 134.200  1.00  0.00     0.119 A 
ATOM     16  C   UNL     1      46.907   2.627 133.393  1.00  0.00     0.093 A 
ATOM     17  C   UNL     1      46.978   3.245 132.135  1.00  0.00     0.130 A 
BRANCH  15  18
ATOM     18  O   UNL     1      45.698   2.179 135.449  1.00  0.00    -0.508 OA
ATOM     19  H   UNL     1      44.907   1.600 135.706  1.00  0.00     0.293 HD
ENDBRANCH  15  18
BRANCH  17  20
ATOM     20  O   UNL     1      48.090   3.035 131.319  1.00  0.00    -0.507 OA
ATOM     21  H   UNL     1      48.736   2.272 131.488  1.00  0.00     0.293 HD
ENDBRANCH  17  20
ENDBRANCH   1  12
BRANCH   2  22
ATOM     22  O   UNL     1      48.125   5.690 130.830  1.00  0.00    -0.502 OA
ATOM     23  H   UNL     1      48.399   6.602 131.174  1.00  0.00     0.293 HD
ENDBRANCH   2  22
BRANCH   6  24
ATOM     24  O   UNL     1      46.614   7.486 126.044  1.00  0.00    -0.507 OA
ATOM     25  H   UNL     1      47.351   7.951 126.553  1.00  0.00     0.293 HD
ENDBRANCH   6  24
BRANCH   8  26
ATOM     26  O   UNL     1      42.433   5.180 125.559  1.00  0.00    -0.508 OA
ATOM     27  H   UNL     1      41.513   5.107 125.979  1.00  0.00     0.293 HD
ENDBRANCH   8  26
TORSDOF 6
ENDMDL
