MODEL 1
REMARK VINA RESULT:    -6.091      0.000      0.000
REMARK INTER + INTRA:          -9.464
REMARK INTER:                  -8.049
REMARK INTRA:                  -1.415
REMARK UNBOUND:                -1.415
REMARK SMILES CC[C@@H](C=C[C@H](C)[C@H]1CC[C@H]2[C@@H]3CC=C4C[C@H](O)CC[C@@]4(C)[C@@H]3CC[C@@]12C)C(C)C
REMARK SMILES IDX 6 1 7 2 5 3 4 4 3 5 2 6 1 7 28 8 29 9 30 10 8 11 9 12 26 13
REMARK SMILES IDX 10 14 11 15 25 16 27 17 12 18 24 19 23 20 13 21 21 22 14 23
REMARK SMILES IDX 15 24 20 25 22 26 16 27 19 28 17 29 18 30
REMARK H PARENT 18 31
REMARK Flexibility Score: inf
ROOT
ATOM      1  C   UNL     1      -9.814  33.139  57.884  1.00  0.00     0.012 C 
ATOM      2  C   UNL     1     -10.402  32.642  59.223  1.00  0.00     0.012 C 
ENDROOT
BRANCH   1   3
ATOM      3  C   UNL     1      -9.790  34.657  57.901  1.00  0.00    -0.028 C 
ATOM      4  C   UNL     1      -8.794  35.360  57.337  1.00  0.00    -0.027 C 
BRANCH   4   5
ATOM      5  C   UNL     1      -8.774  36.877  57.390  1.00  0.00     0.014 C 
BRANCH   5   6
ATOM      6  C   UNL     1     -10.189  37.507  57.216  1.00  0.00     0.004 C 
ATOM      7  C   UNL     1     -10.635  37.746  55.766  1.00  0.00     0.004 C 
ENDBRANCH   5   6
BRANCH   5   8
ATOM      8  C   UNL     1      -7.670  37.466  56.455  1.00  0.00    -0.011 C 
ATOM      9  C   UNL     1      -6.615  38.310  57.185  1.00  0.00     0.008 C 
ATOM     10  C   UNL     1      -6.985  36.377  55.613  1.00  0.00     0.008 C 
ENDBRANCH   5   8
ENDBRANCH   4   5
ENDBRANCH   1   3
BRANCH   1  11
ATOM     11  C   UNL     1      -8.387  32.574  57.537  1.00  0.00     0.002 C 
ATOM     12  C   UNL     1      -7.663  31.885  58.698  1.00  0.00     0.005 C 
ATOM     13  C   UNL     1      -8.216  31.632  56.279  1.00  0.00    -0.026 C 
ATOM     14  C   UNL     1      -6.599  31.040  58.032  1.00  0.00     0.005 C 
ATOM     15  C   UNL     1      -7.246  30.493  56.750  1.00  0.00    -0.001 C 
ATOM     16  C   UNL     1      -9.550  31.057  55.710  1.00  0.00     0.007 C 
ATOM     17  C   UNL     1      -7.523  32.446  55.147  1.00  0.00     0.012 C 
ATOM     18  C   UNL     1      -7.953  29.113  56.987  1.00  0.00     0.000 C 
ATOM     19  C   UNL     1      -9.311  29.800  54.874  1.00  0.00     0.005 C 
ATOM     20  C   UNL     1      -8.794  28.631  55.751  1.00  0.00     0.003 C 
ATOM     21  C   UNL     1      -6.958  28.040  57.509  1.00  0.00     0.031 C 
ATOM     22  C   UNL     1      -8.158  27.449  54.922  1.00  0.00    -0.008 C 
ATOM     23  C   UNL     1      -7.295  26.631  57.112  1.00  0.00    -0.027 C 
ATOM     24  C   UNL     1      -7.793  26.328  55.900  1.00  0.00    -0.065 C 
ATOM     25  C   UNL     1      -9.215  26.943  53.884  1.00  0.00     0.014 C 
ATOM     26  C   UNL     1      -6.873  27.879  54.168  1.00  0.00     0.016 C 
ATOM     27  C   UNL     1      -7.732  24.881  55.446  1.00  0.00     0.063 C 
ATOM     28  C   UNL     1      -8.917  25.551  53.323  1.00  0.00     0.033 C 
ATOM     29  C   UNL     1      -8.856  24.531  54.465  1.00  0.00     0.118 C 
BRANCH  29  30
ATOM     30  O   UNL     1      -8.687  23.229  53.962  1.00  0.00    -0.393 OA
ATOM     31  H   UNL     1      -7.928  22.812  54.448  1.00  0.00     0.210 HD
ENDBRANCH  29  30
ENDBRANCH   1  11
TORSDOF 6
ENDMDL
MODEL 2
REMARK VINA RESULT:    -5.715     12.785     14.787
REMARK INTER + INTRA:          -8.967
REMARK INTER:                  -7.615
REMARK INTRA:                  -1.352
REMARK UNBOUND:                -1.415
REMARK SMILES CC[C@@H](C=C[C@H](C)[C@H]1CC[C@H]2[C@@H]3CC=C4C[C@H](O)CC[C@@]4(C)[C@@H]3CC[C@@]12C)C(C)C
REMARK SMILES IDX 6 1 7 2 5 3 4 4 3 5 2 6 1 7 28 8 29 9 30 10 8 11 9 12 26 13
REMARK SMILES IDX 10 14 11 15 25 16 27 17 12 18 24 19 23 20 13 21 21 22 14 23
REMARK SMILES IDX 15 24 20 25 22 26 16 27 19 28 17 29 18 30
REMARK H PARENT 18 31
REMARK Flexibility Score: inf
ROOT
ATOM      1  C   UNL     1      -3.549  37.372  42.396  1.00  0.00     0.012 C 
ATOM      2  C   UNL     1      -2.681  38.499  41.794  1.00  0.00     0.012 C 
ENDROOT
BRANCH   1   3
ATOM      3  C   UNL     1      -4.962  37.899  42.582  1.00  0.00    -0.028 C 
ATOM      4  C   UNL     1      -5.489  38.108  43.800  1.00  0.00    -0.027 C 
BRANCH   4   5
ATOM      5  C   UNL     1      -6.912  38.608  43.964  1.00  0.00     0.014 C 
BRANCH   5   6
ATOM      6  C   UNL     1      -7.001  39.913  44.813  1.00  0.00     0.004 C 
ATOM      7  C   UNL     1      -5.866  40.125  45.825  1.00  0.00     0.004 C 
ENDBRANCH   5   6
BRANCH   5   8
ATOM      8  C   UNL     1      -7.871  37.461  44.417  1.00  0.00    -0.011 C 
ATOM      9  C   UNL     1      -7.151  36.177  44.855  1.00  0.00     0.008 C 
ATOM     10  C   UNL     1      -8.843  37.921  45.516  1.00  0.00     0.008 C 
ENDBRANCH   5   8
ENDBRANCH   4   5
ENDBRANCH   1   3
BRANCH   1  11
ATOM     11  C   UNL     1      -3.569  36.035  41.565  1.00  0.00     0.002 C 
ATOM     12  C   UNL     1      -2.400  35.861  40.591  1.00  0.00     0.005 C 
ATOM     13  C   UNL     1      -3.730  34.659  42.325  1.00  0.00    -0.026 C 
ATOM     14  C   UNL     1      -2.371  34.377  40.297  1.00  0.00     0.005 C 
ATOM     15  C   UNL     1      -2.720  33.684  41.624  1.00  0.00    -0.001 C 
ATOM     16  C   UNL     1      -3.489  34.732  43.864  1.00  0.00     0.007 C 
ATOM     17  C   UNL     1      -5.178  34.136  42.091  1.00  0.00     0.012 C 
ATOM     18  C   UNL     1      -1.445  33.368  42.479  1.00  0.00     0.000 C 
ATOM     19  C   UNL     1      -3.149  33.360  44.448  1.00  0.00     0.005 C 
ATOM     20  C   UNL     1      -1.784  32.848  43.923  1.00  0.00     0.003 C 
ATOM     21  C   UNL     1      -0.454  32.448  41.714  1.00  0.00     0.031 C 
ATOM     22  C   UNL     1      -1.553  31.306  44.157  1.00  0.00    -0.008 C 
ATOM     23  C   UNL     1       0.372  31.551  42.592  1.00  0.00    -0.027 C 
ATOM     24  C   UNL     1      -0.133  30.964  43.692  1.00  0.00    -0.065 C 
ATOM     25  C   UNL     1      -1.712  31.004  45.684  1.00  0.00     0.014 C 
ATOM     26  C   UNL     1      -2.554  30.429  43.360  1.00  0.00     0.016 C 
ATOM     27  C   UNL     1       0.625  29.790  44.284  1.00  0.00     0.063 C 
ATOM     28  C   UNL     1      -1.099  29.671  46.121  1.00  0.00     0.033 C 
ATOM     29  C   UNL     1       0.397  29.653  45.793  1.00  0.00     0.118 C 
BRANCH  29  30
ATOM     30  O   UNL     1       1.000  28.480  46.280  1.00  0.00    -0.393 OA
ATOM     31  H   UNL     1       1.496  28.059  45.529  1.00  0.00     0.210 HD
ENDBRANCH  29  30
ENDBRANCH   1  11
TORSDOF 6
ENDMDL
MODEL 3
REMARK VINA RESULT:    -5.556     11.252     12.969
REMARK INTER + INTRA:          -8.757
REMARK INTER:                  -7.446
REMARK INTRA:                  -1.311
REMARK UNBOUND:                -1.415
REMARK SMILES CC[C@@H](C=C[C@H](C)[C@H]1CC[C@H]2[C@@H]3CC=C4C[C@H](O)CC[C@@]4(C)[C@@H]3CC[C@@]12C)C(C)C
REMARK SMILES IDX 6 1 7 2 5 3 4 4 3 5 2 6 1 7 28 8 29 9 30 10 8 11 9 12 26 13
REMARK SMILES IDX 10 14 11 15 25 16 27 17 12 18 24 19 23 20 13 21 21 22 14 23
REMARK SMILES IDX 15 24 20 25 22 26 16 27 19 28 17 29 18 30
REMARK H PARENT 18 31
REMARK Flexibility Score: inf
ROOT
ATOM      1  C   UNL     1      -7.462  35.999  44.331  1.00  0.00     0.012 C 
ATOM      2  C   UNL     1      -8.122  37.114  45.172  1.00  0.00     0.012 C 
ENDROOT
BRANCH   1   3
ATOM      3  C   UNL     1      -6.212  36.563  43.679  1.00  0.00    -0.028 C 
ATOM      4  C   UNL     1      -5.130  35.803  43.438  1.00  0.00    -0.027 C 
BRANCH   4   5
ATOM      5  C   UNL     1      -3.880  36.392  42.811  1.00  0.00     0.014 C 
BRANCH   5   6
ATOM      6  C   UNL     1      -3.948  37.943  42.668  1.00  0.00     0.004 C 
ATOM      7  C   UNL     1      -3.016  38.737  43.596  1.00  0.00     0.004 C 
ENDBRANCH   5   6
BRANCH   5   8
ATOM      8  C   UNL     1      -3.479  35.627  41.510  1.00  0.00    -0.011 C 
ATOM      9  C   UNL     1      -3.999  34.184  41.446  1.00  0.00     0.008 C 
ATOM     10  C   UNL     1      -3.889  36.393  40.241  1.00  0.00     0.008 C 
ENDBRANCH   5   8
ENDBRANCH   4   5
ENDBRANCH   1   3
BRANCH   1  11
ATOM     11  C   UNL     1      -7.119  34.686  45.127  1.00  0.00     0.002 C 
ATOM     12  C   UNL     1      -7.601  34.664  46.581  1.00  0.00     0.005 C 
ATOM     13  C   UNL     1      -7.505  33.285  44.505  1.00  0.00    -0.026 C 
ATOM     14  C   UNL     1      -7.596  33.199  46.959  1.00  0.00     0.005 C 
ATOM     15  C   UNL     1      -8.067  32.445  45.704  1.00  0.00    -0.001 C 
ATOM     16  C   UNL     1      -8.520  33.355  43.323  1.00  0.00     0.007 C 
ATOM     17  C   UNL     1      -6.206  32.606  43.981  1.00  0.00     0.012 C 
ATOM     18  C   UNL     1      -9.623  32.259  45.676  1.00  0.00     0.000 C 
ATOM     19  C   UNL     1      -9.234  32.020  43.113  1.00  0.00     0.005 C 
ATOM     20  C   UNL     1     -10.150  31.676  44.316  1.00  0.00     0.003 C 
ATOM     21  C   UNL     1     -10.130  31.473  46.917  1.00  0.00     0.031 C 
ATOM     22  C   UNL     1     -10.601  30.165  44.358  1.00  0.00    -0.008 C 
ATOM     23  C   UNL     1     -11.369  30.658  46.677  1.00  0.00    -0.027 C 
ATOM     24  C   UNL     1     -11.579  29.997  45.525  1.00  0.00    -0.065 C 
ATOM     25  C   UNL     1     -11.305  29.818  43.004  1.00  0.00     0.014 C 
ATOM     26  C   UNL     1      -9.409  29.197  44.573  1.00  0.00     0.016 C 
ATOM     27  C   UNL     1     -12.633  28.904  45.513  1.00  0.00     0.063 C 
ATOM     28  C   UNL     1     -12.168  28.554  43.059  1.00  0.00     0.033 C 
ATOM     29  C   UNL     1     -13.256  28.713  44.126  1.00  0.00     0.118 C 
BRANCH  29  30
ATOM     30  O   UNL     1     -14.123  27.607  44.121  1.00  0.00    -0.393 OA
ATOM     31  H   UNL     1     -13.598  26.810  43.848  1.00  0.00     0.210 HD
ENDBRANCH  29  30
ENDBRANCH   1  11
TORSDOF 6
ENDMDL
MODEL 4
REMARK VINA RESULT:    -5.530     11.932     13.675
REMARK INTER + INTRA:          -8.723
REMARK INTER:                  -7.324
REMARK INTRA:                  -1.399
REMARK UNBOUND:                -1.415
REMARK SMILES CC[C@@H](C=C[C@H](C)[C@H]1CC[C@H]2[C@@H]3CC=C4C[C@H](O)CC[C@@]4(C)[C@@H]3CC[C@@]12C)C(C)C
REMARK SMILES IDX 6 1 7 2 5 3 4 4 3 5 2 6 1 7 28 8 29 9 30 10 8 11 9 12 26 13
REMARK SMILES IDX 10 14 11 15 25 16 27 17 12 18 24 19 23 20 13 21 21 22 14 23
REMARK SMILES IDX 15 24 20 25 22 26 16 27 19 28 17 29 18 30
REMARK H PARENT 18 31
REMARK Flexibility Score: inf
ROOT
ATOM      1  C   UNL     1      -7.245  34.127  43.711  1.00  0.00     0.012 C 
ATOM      2  C   UNL     1      -8.481  33.243  43.437  1.00  0.00     0.012 C 
ENDROOT
BRANCH   1   3
ATOM      3  C   UNL     1      -7.721  35.531  44.044  1.00  0.00    -0.028 C 
ATOM      4  C   UNL     1      -6.906  36.596  43.962  1.00  0.00    -0.027 C 
BRANCH   4   5
ATOM      5  C   UNL     1      -7.393  37.987  44.326  1.00  0.00     0.014 C 
BRANCH   5   6
ATOM      6  C   UNL     1      -6.586  39.116  43.615  1.00  0.00     0.004 C 
ATOM      7  C   UNL     1      -5.328  38.659  42.862  1.00  0.00     0.004 C 
ENDBRANCH   5   6
BRANCH   5   8
ATOM      8  C   UNL     1      -7.538  38.154  45.873  1.00  0.00    -0.011 C 
ATOM      9  C   UNL     1      -6.318  37.675  46.672  1.00  0.00     0.008 C 
ATOM     10  C   UNL     1      -7.894  39.598  46.266  1.00  0.00     0.008 C 
ENDBRANCH   5   8
ENDBRANCH   4   5
ENDBRANCH   1   3
BRANCH   1  11
ATOM     11  C   UNL     1      -6.286  33.594  44.839  1.00  0.00     0.002 C 
ATOM     12  C   UNL     1      -6.686  32.245  45.445  1.00  0.00     0.005 C 
ATOM     13  C   UNL     1      -4.733  33.516  44.556  1.00  0.00    -0.026 C 
ATOM     14  C   UNL     1      -5.422  31.738  46.105  1.00  0.00     0.005 C 
ATOM     15  C   UNL     1      -4.273  32.149  45.171  1.00  0.00    -0.001 C 
ATOM     16  C   UNL     1      -4.338  33.635  43.052  1.00  0.00     0.007 C 
ATOM     17  C   UNL     1      -4.035  34.674  45.327  1.00  0.00     0.012 C 
ATOM     18  C   UNL     1      -3.956  31.045  44.103  1.00  0.00     0.000 C 
ATOM     19  C   UNL     1      -2.950  33.053  42.785  1.00  0.00     0.005 C 
ATOM     20  C   UNL     1      -2.930  31.520  43.012  1.00  0.00     0.003 C 
ATOM     21  C   UNL     1      -3.564  29.697  44.768  1.00  0.00     0.031 C 
ATOM     22  C   UNL     1      -1.478  30.917  43.144  1.00  0.00    -0.008 C 
ATOM     23  C   UNL     1      -2.614  28.856  43.964  1.00  0.00    -0.027 C 
ATOM     24  C   UNL     1      -1.606  29.394  43.255  1.00  0.00    -0.065 C 
ATOM     25  C   UNL     1      -0.661  31.303  41.866  1.00  0.00     0.014 C 
ATOM     26  C   UNL     1      -0.732  31.439  44.400  1.00  0.00     0.016 C 
ATOM     27  C   UNL     1      -0.481  28.479  42.807  1.00  0.00     0.063 C 
ATOM     28  C   UNL     1       0.588  30.445  41.646  1.00  0.00     0.033 C 
ATOM     29  C   UNL     1       0.192  28.970  41.522  1.00  0.00     0.118 C 
BRANCH  29  30
ATOM     30  O   UNL     1       1.312  28.177  41.215  1.00  0.00    -0.393 OA
ATOM     31  H   UNL     1       1.266  27.947  40.251  1.00  0.00     0.210 HD
ENDBRANCH  29  30
ENDBRANCH   1  11
TORSDOF 6
ENDMDL
MODEL 5
REMARK VINA RESULT:    -5.441     12.519     15.143
REMARK INTER + INTRA:          -8.605
REMARK INTER:                  -7.306
REMARK INTRA:                  -1.299
REMARK UNBOUND:                -1.415
REMARK SMILES CC[C@@H](C=C[C@H](C)[C@H]1CC[C@H]2[C@@H]3CC=C4C[C@H](O)CC[C@@]4(C)[C@@H]3CC[C@@]12C)C(C)C
REMARK SMILES IDX 6 1 7 2 5 3 4 4 3 5 2 6 1 7 28 8 29 9 30 10 8 11 9 12 26 13
REMARK SMILES IDX 10 14 11 15 25 16 27 17 12 18 24 19 23 20 13 21 21 22 14 23
REMARK SMILES IDX 15 24 20 25 22 26 16 27 19 28 17 29 18 30
REMARK H PARENT 18 31
REMARK Flexibility Score: inf
ROOT
ATOM      1  C   UNL     1      -7.588  32.871  46.156  1.00  0.00     0.012 C 
ATOM      2  C   UNL     1      -7.272  33.315  47.602  1.00  0.00     0.012 C 
ENDROOT
BRANCH   1   3
ATOM      3  C   UNL     1      -8.820  31.984  46.183  1.00  0.00    -0.028 C 
ATOM      4  C   UNL     1      -9.704  31.963  45.170  1.00  0.00    -0.027 C 
BRANCH   4   5
ATOM      5  C   UNL     1     -10.944  31.091  45.228  1.00  0.00     0.014 C 
BRANCH   5   6
ATOM      6  C   UNL     1     -11.277  30.607  46.672  1.00  0.00     0.004 C 
ATOM      7  C   UNL     1     -12.373  31.398  47.402  1.00  0.00     0.004 C 
ENDBRANCH   5   6
BRANCH   5   8
ATOM      8  C   UNL     1     -10.900  29.963  44.148  1.00  0.00    -0.011 C 
ATOM      9  C   UNL     1     -12.277  29.571  43.594  1.00  0.00     0.008 C 
ATOM     10  C   UNL     1      -9.944  30.307  42.994  1.00  0.00     0.008 C 
ENDBRANCH   5   8
ENDBRANCH   4   5
ENDBRANCH   1   3
BRANCH   1  11
ATOM     11  C   UNL     1      -7.783  34.048  45.130  1.00  0.00     0.002 C 
ATOM     12  C   UNL     1      -7.549  35.450  45.700  1.00  0.00     0.005 C 
ATOM     13  C   UNL     1      -7.026  33.994  43.744  1.00  0.00    -0.026 C 
ATOM     14  C   UNL     1      -7.318  36.319  44.482  1.00  0.00     0.005 C 
ATOM     15  C   UNL     1      -6.508  35.455  43.503  1.00  0.00    -0.001 C 
ATOM     16  C   UNL     1      -5.867  32.952  43.674  1.00  0.00     0.007 C 
ATOM     17  C   UNL     1      -8.058  33.638  42.634  1.00  0.00     0.012 C 
ATOM     18  C   UNL     1      -4.962  35.623  43.706  1.00  0.00     0.000 C 
ATOM     19  C   UNL     1      -4.874  33.286  42.561  1.00  0.00     0.005 C 
ATOM     20  C   UNL     1      -4.115  34.604  42.862  1.00  0.00     0.003 C 
ATOM     21  C   UNL     1      -4.514  37.099  43.515  1.00  0.00     0.031 C 
ATOM     22  C   UNL     1      -3.380  35.213  41.607  1.00  0.00    -0.008 C 
ATOM     23  C   UNL     1      -3.114  37.265  42.998  1.00  0.00    -0.027 C 
ATOM     24  C   UNL     1      -2.591  36.442  42.071  1.00  0.00    -0.065 C 
ATOM     25  C   UNL     1      -2.411  34.132  41.024  1.00  0.00     0.014 C 
ATOM     26  C   UNL     1      -4.370  35.657  40.499  1.00  0.00     0.016 C 
ATOM     27  C   UNL     1      -1.350  36.902  41.328  1.00  0.00     0.063 C 
ATOM     28  C   UNL     1      -1.331  34.701  40.099  1.00  0.00     0.033 C 
ATOM     29  C   UNL     1      -0.485  35.729  40.857  1.00  0.00     0.118 C 
BRANCH  29  30
ATOM     30  O   UNL     1       0.578  36.187  40.058  1.00  0.00    -0.393 OA
ATOM     31  H   UNL     1       1.409  35.750  40.379  1.00  0.00     0.210 HD
ENDBRANCH  29  30
ENDBRANCH   1  11
TORSDOF 6
ENDMDL
MODEL 6
REMARK VINA RESULT:    -5.339     12.903     15.333
REMARK INTER + INTRA:          -8.470
REMARK INTER:                  -6.997
REMARK INTRA:                  -1.473
REMARK UNBOUND:                -1.415
REMARK SMILES CC[C@@H](C=C[C@H](C)[C@H]1CC[C@H]2[C@@H]3CC=C4C[C@H](O)CC[C@@]4(C)[C@@H]3CC[C@@]12C)C(C)C
REMARK SMILES IDX 6 1 7 2 5 3 4 4 3 5 2 6 1 7 28 8 29 9 30 10 8 11 9 12 26 13
REMARK SMILES IDX 10 14 11 15 25 16 27 17 12 18 24 19 23 20 13 21 21 22 14 23
REMARK SMILES IDX 15 24 20 25 22 26 16 27 19 28 17 29 18 30
REMARK H PARENT 18 31
REMARK Flexibility Score: inf
ROOT
ATOM      1  C   UNL     1       4.794  27.724  49.378  1.00  0.00     0.012 C 
ATOM      2  C   UNL     1       5.546  26.439  48.968  1.00  0.00     0.012 C 
ENDROOT
BRANCH   1   3
ATOM      3  C   UNL     1       5.190  28.082  50.799  1.00  0.00    -0.028 C 
ATOM      4  C   UNL     1       4.316  28.618  51.668  1.00  0.00    -0.027 C 
BRANCH   4   5
ATOM      5  C   UNL     1       4.738  28.995  53.076  1.00  0.00     0.014 C 
BRANCH   5   6
ATOM      6  C   UNL     1       3.934  28.234  54.173  1.00  0.00     0.004 C 
ATOM      7  C   UNL     1       4.518  28.302  55.592  1.00  0.00     0.004 C 
ENDBRANCH   5   6
BRANCH   5   8
ATOM      8  C   UNL     1       4.797  30.545  53.258  1.00  0.00    -0.011 C 
ATOM      9  C   UNL     1       6.080  31.192  52.718  1.00  0.00     0.008 C 
ATOM     10  C   UNL     1       3.563  31.244  52.663  1.00  0.00     0.008 C 
ENDBRANCH   5   8
ENDBRANCH   4   5
ENDBRANCH   1   3
BRANCH   1  11
ATOM     11  C   UNL     1       5.016  28.954  48.422  1.00  0.00     0.002 C 
ATOM     12  C   UNL     1       5.569  28.607  47.037  1.00  0.00     0.005 C 
ATOM     13  C   UNL     1       3.831  29.973  48.190  1.00  0.00    -0.026 C 
ATOM     14  C   UNL     1       5.244  29.815  46.186  1.00  0.00     0.005 C 
ATOM     15  C   UNL     1       3.859  30.291  46.654  1.00  0.00    -0.001 C 
ATOM     16  C   UNL     1       2.431  29.460  48.647  1.00  0.00     0.007 C 
ATOM     17  C   UNL     1       4.144  31.279  48.979  1.00  0.00     0.012 C 
ATOM     18  C   UNL     1       2.698  29.618  45.844  1.00  0.00     0.000 C 
ATOM     19  C   UNL     1       1.298  30.218  47.956  1.00  0.00     0.005 C 
ATOM     20  C   UNL     1       1.275  29.929  46.434  1.00  0.00     0.003 C 
ATOM     21  C   UNL     1       2.810  29.917  44.323  1.00  0.00     0.031 C 
ATOM     22  C   UNL     1       0.411  30.957  45.606  1.00  0.00    -0.008 C 
ATOM     23  C   UNL     1       1.496  29.959  43.596  1.00  0.00    -0.027 C 
ATOM     24  C   UNL     1       0.389  30.489  44.147  1.00  0.00    -0.065 C 
ATOM     25  C   UNL     1      -1.040  30.974  46.193  1.00  0.00     0.014 C 
ATOM     26  C   UNL     1       0.994  32.393  45.652  1.00  0.00     0.016 C 
ATOM     27  C   UNL     1      -0.763  30.847  43.226  1.00  0.00     0.063 C 
ATOM     28  C   UNL     1      -2.085  31.573  45.248  1.00  0.00     0.033 C 
ATOM     29  C   UNL     1      -2.118  30.779  43.938  1.00  0.00     0.118 C 
BRANCH  29  30
ATOM     30  O   UNL     1      -3.143  31.247  43.097  1.00  0.00    -0.393 OA
ATOM     31  H   UNL     1      -3.284  30.571  42.383  1.00  0.00     0.210 HD
ENDBRANCH  29  30
ENDBRANCH   1  11
TORSDOF 6
ENDMDL
MODEL 7
REMARK VINA RESULT:    -5.329      3.626      8.218
REMARK INTER + INTRA:          -8.457
REMARK INTER:                  -7.276
REMARK INTRA:                  -1.182
REMARK UNBOUND:                -1.415
REMARK SMILES CC[C@@H](C=C[C@H](C)[C@H]1CC[C@H]2[C@@H]3CC=C4C[C@H](O)CC[C@@]4(C)[C@@H]3CC[C@@]12C)C(C)C
REMARK SMILES IDX 6 1 7 2 5 3 4 4 3 5 2 6 1 7 28 8 29 9 30 10 8 11 9 12 26 13
REMARK SMILES IDX 10 14 11 15 25 16 27 17 12 18 24 19 23 20 13 21 21 22 14 23
REMARK SMILES IDX 15 24 20 25 22 26 16 27 19 28 17 29 18 30
REMARK H PARENT 18 31
REMARK Flexibility Score: inf
ROOT
ATOM      1  C   UNL     1      -9.865  29.650  55.382  1.00  0.00     0.012 C 
ATOM      2  C   UNL     1      -9.759  28.915  54.028  1.00  0.00     0.012 C 
ENDROOT
BRANCH   1   3
ATOM      3  C   UNL     1      -8.468  30.042  55.829  1.00  0.00    -0.028 C 
ATOM      4  C   UNL     1      -8.067  29.915  57.106  1.00  0.00    -0.027 C 
BRANCH   4   5
ATOM      5  C   UNL     1      -6.675  30.339  57.538  1.00  0.00     0.014 C 
BRANCH   5   6
ATOM      6  C   UNL     1      -5.834  29.158  58.110  1.00  0.00     0.004 C 
ATOM      7  C   UNL     1      -6.526  27.787  58.107  1.00  0.00     0.004 C 
ENDBRANCH   5   6
BRANCH   5   8
ATOM      8  C   UNL     1      -6.721  31.613  58.440  1.00  0.00    -0.011 C 
ATOM      9  C   UNL     1      -8.119  31.950  58.979  1.00  0.00     0.008 C 
ATOM     10  C   UNL     1      -5.714  31.536  59.599  1.00  0.00     0.008 C 
ENDBRANCH   5   8
ENDBRANCH   4   5
ENDBRANCH   1   3
BRANCH   1  11
ATOM     11  C   UNL     1     -10.811  30.908  55.380  1.00  0.00     0.002 C 
ATOM     12  C   UNL     1     -11.402  31.276  56.744  1.00  0.00     0.005 C 
ATOM     13  C   UNL     1     -10.299  32.256  54.734  1.00  0.00    -0.026 C 
ATOM     14  C   UNL     1     -11.843  32.715  56.590  1.00  0.00     0.005 C 
ATOM     15  C   UNL     1     -10.771  33.385  55.715  1.00  0.00    -0.001 C 
ATOM     16  C   UNL     1      -8.761  32.315  54.483  1.00  0.00     0.007 C 
ATOM     17  C   UNL     1     -11.015  32.448  53.365  1.00  0.00     0.012 C 
ATOM     18  C   UNL     1      -9.615  34.008  56.571  1.00  0.00     0.000 C 
ATOM     19  C   UNL     1      -8.264  33.755  54.359  1.00  0.00     0.005 C 
ATOM     20  C   UNL     1      -8.410  34.518  55.701  1.00  0.00     0.003 C 
ATOM     21  C   UNL     1     -10.148  35.077  57.565  1.00  0.00     0.031 C 
ATOM     22  C   UNL     1      -8.296  36.084  55.556  1.00  0.00    -0.008 C 
ATOM     23  C   UNL     1      -9.172  36.172  57.888  1.00  0.00    -0.027 C 
ATOM     24  C   UNL     1      -8.350  36.694  56.961  1.00  0.00    -0.065 C 
ATOM     25  C   UNL     1      -6.932  36.423  54.867  1.00  0.00     0.014 C 
ATOM     26  C   UNL     1      -9.452  36.686  54.716  1.00  0.00     0.016 C 
ATOM     27  C   UNL     1      -7.696  38.032  57.259  1.00  0.00     0.063 C 
ATOM     28  C   UNL     1      -6.489  37.877  55.051  1.00  0.00     0.033 C 
ATOM     29  C   UNL     1      -6.352  38.195  56.543  1.00  0.00     0.118 C 
BRANCH  29  30
ATOM     30  O   UNL     1      -5.844  39.492  56.732  1.00  0.00    -0.393 OA
ATOM     31  H   UNL     1      -6.321  40.099  56.107  1.00  0.00     0.210 HD
ENDBRANCH  29  30
ENDBRANCH   1  11
TORSDOF 6
ENDMDL
MODEL 8
REMARK VINA RESULT:    -5.307     10.904     14.829
REMARK INTER + INTRA:          -8.427
REMARK INTER:                  -7.239
REMARK INTRA:                  -1.188
REMARK UNBOUND:                -1.415
REMARK SMILES CC[C@@H](C=C[C@H](C)[C@H]1CC[C@H]2[C@@H]3CC=C4C[C@H](O)CC[C@@]4(C)[C@@H]3CC[C@@]12C)C(C)C
REMARK SMILES IDX 6 1 7 2 5 3 4 4 3 5 2 6 1 7 28 8 29 9 30 10 8 11 9 12 26 13
REMARK SMILES IDX 10 14 11 15 25 16 27 17 12 18 24 19 23 20 13 21 21 22 14 23
REMARK SMILES IDX 15 24 20 25 22 26 16 27 19 28 17 29 18 30
REMARK H PARENT 18 31
REMARK Flexibility Score: inf
ROOT
ATOM      1  C   UNL     1      -9.946  30.898  44.324  1.00  0.00     0.012 C 
ATOM      2  C   UNL     1     -11.121  31.873  44.555  1.00  0.00     0.012 C 
ENDROOT
BRANCH   1   3
ATOM      3  C   UNL     1     -10.416  29.786  43.402  1.00  0.00    -0.028 C 
ATOM      4  C   UNL     1      -9.558  29.070  42.656  1.00  0.00    -0.027 C 
BRANCH   4   5
ATOM      5  C   UNL     1     -10.051  27.982  41.719  1.00  0.00     0.014 C 
BRANCH   5   6
ATOM      6  C   UNL     1      -9.836  26.548  42.292  1.00  0.00     0.004 C 
ATOM      7  C   UNL     1      -8.946  26.458  43.540  1.00  0.00     0.004 C 
ENDBRANCH   5   6
BRANCH   5   8
ATOM      8  C   UNL     1      -9.520  28.197  40.266  1.00  0.00    -0.011 C 
ATOM      9  C   UNL     1      -9.344  29.672  39.875  1.00  0.00     0.008 C 
ATOM     10  C   UNL     1      -8.218  27.422  40.006  1.00  0.00     0.008 C 
ENDBRANCH   5   8
ENDBRANCH   4   5
ENDBRANCH   1   3
BRANCH   1  11
ATOM     11  C   UNL     1      -8.636  31.562  43.757  1.00  0.00     0.002 C 
ATOM     12  C   UNL     1      -8.861  32.586  42.641  1.00  0.00     0.005 C 
ATOM     13  C   UNL     1      -7.605  32.210  44.762  1.00  0.00    -0.026 C 
ATOM     14  C   UNL     1      -7.584  33.398  42.611  1.00  0.00     0.005 C 
ATOM     15  C   UNL     1      -7.155  33.549  44.079  1.00  0.00    -0.001 C 
ATOM     16  C   UNL     1      -8.160  32.454  46.199  1.00  0.00     0.007 C 
ATOM     17  C   UNL     1      -6.372  31.267  44.878  1.00  0.00     0.012 C 
ATOM     18  C   UNL     1      -7.758  34.836  44.743  1.00  0.00     0.000 C 
ATOM     19  C   UNL     1      -7.348  33.512  46.947  1.00  0.00     0.005 C 
ATOM     20  C   UNL     1      -7.504  34.907  46.291  1.00  0.00     0.003 C 
ATOM     21  C   UNL     1      -7.328  36.125  43.990  1.00  0.00     0.031 C 
ATOM     22  C   UNL     1      -6.411  35.948  46.749  1.00  0.00    -0.008 C 
ATOM     23  C   UNL     1      -7.227  37.349  44.855  1.00  0.00    -0.027 C 
ATOM     24  C   UNL     1      -6.750  37.300  46.112  1.00  0.00    -0.065 C 
ATOM     25  C   UNL     1      -6.449  36.058  48.309  1.00  0.00     0.014 C 
ATOM     26  C   UNL     1      -4.982  35.541  46.304  1.00  0.00     0.016 C 
ATOM     27  C   UNL     1      -6.317  38.603  46.761  1.00  0.00     0.063 C 
ATOM     28  C   UNL     1      -5.773  37.316  48.860  1.00  0.00     0.033 C 
ATOM     29  C   UNL     1      -6.451  38.565  48.287  1.00  0.00     0.118 C 
BRANCH  29  30
ATOM     30  O   UNL     1      -5.914  39.731  48.860  1.00  0.00    -0.393 OA
ATOM     31  H   UNL     1      -4.981  39.533  49.134  1.00  0.00     0.210 HD
ENDBRANCH  29  30
ENDBRANCH   1  11
TORSDOF 6
ENDMDL
MODEL 9
REMARK VINA RESULT:    -5.303     14.244     16.024
REMARK INTER + INTRA:          -8.422
REMARK INTER:                  -7.320
REMARK INTRA:                  -1.102
REMARK UNBOUND:                -1.415
REMARK SMILES CC[C@@H](C=C[C@H](C)[C@H]1CC[C@H]2[C@@H]3CC=C4C[C@H](O)CC[C@@]4(C)[C@@H]3CC[C@@]12C)C(C)C
REMARK SMILES IDX 6 1 7 2 5 3 4 4 3 5 2 6 1 7 28 8 29 9 30 10 8 11 9 12 26 13
REMARK SMILES IDX 10 14 11 15 25 16 27 17 12 18 24 19 23 20 13 21 21 22 14 23
REMARK SMILES IDX 15 24 20 25 22 26 16 27 19 28 17 29 18 30
REMARK H PARENT 18 31
REMARK Flexibility Score: inf
ROOT
ATOM      1  C   UNL     1      -0.413  32.572  43.785  1.00  0.00     0.012 C 
ATOM      2  C   UNL     1      -0.745  33.651  44.839  1.00  0.00     0.012 C 
ENDROOT
BRANCH   1   3
ATOM      3  C   UNL     1      -1.063  32.967  42.471  1.00  0.00    -0.028 C 
ATOM      4  C   UNL     1      -1.404  34.238  42.198  1.00  0.00    -0.027 C 
BRANCH   4   5
ATOM      5  C   UNL     1      -2.079  34.608  40.891  1.00  0.00     0.014 C 
BRANCH   5   6
ATOM      6  C   UNL     1      -1.113  35.310  39.888  1.00  0.00     0.004 C 
ATOM      7  C   UNL     1       0.099  36.013  40.517  1.00  0.00     0.004 C 
ENDBRANCH   5   6
BRANCH   5   8
ATOM      8  C   UNL     1      -3.430  35.353  41.136  1.00  0.00    -0.011 C 
ATOM      9  C   UNL     1      -3.873  36.248  39.970  1.00  0.00     0.008 C 
ATOM     10  C   UNL     1      -4.562  34.385  41.520  1.00  0.00     0.008 C 
ENDBRANCH   5   8
ENDBRANCH   4   5
ENDBRANCH   1   3
BRANCH   1  11
ATOM     11  C   UNL     1       1.123  32.302  43.576  1.00  0.00     0.002 C 
ATOM     12  C   UNL     1       2.045  33.459  43.972  1.00  0.00     0.005 C 
ATOM     13  C   UNL     1       1.763  30.990  44.180  1.00  0.00    -0.026 C 
ATOM     14  C   UNL     1       3.405  32.817  44.142  1.00  0.00     0.005 C 
ATOM     15  C   UNL     1       3.139  31.444  44.780  1.00  0.00    -0.001 C 
ATOM     16  C   UNL     1       0.881  30.265  45.244  1.00  0.00     0.007 C 
ATOM     17  C   UNL     1       2.028  29.990  43.016  1.00  0.00     0.012 C 
ATOM     18  C   UNL     1       3.161  31.507  46.347  1.00  0.00     0.000 C 
ATOM     19  C   UNL     1       1.716  29.351  46.141  1.00  0.00     0.005 C 
ATOM     20  C   UNL     1       2.692  30.169  47.024  1.00  0.00     0.003 C 
ATOM     21  C   UNL     1       4.526  32.020  46.883  1.00  0.00     0.031 C 
ATOM     22  C   UNL     1       3.841  29.301  47.670  1.00  0.00    -0.008 C 
ATOM     23  C   UNL     1       4.910  31.482  48.231  1.00  0.00    -0.027 C 
ATOM     24  C   UNL     1       4.657  30.211  48.594  1.00  0.00    -0.065 C 
ATOM     25  C   UNL     1       3.186  28.140  48.491  1.00  0.00     0.014 C 
ATOM     26  C   UNL     1       4.795  28.697  46.608  1.00  0.00     0.016 C 
ATOM     27  C   UNL     1       5.412  29.646  49.784  1.00  0.00     0.063 C 
ATOM     28  C   UNL     1       4.127  27.493  49.510  1.00  0.00     0.033 C 
ATOM     29  C   UNL     1       4.623  28.548  50.504  1.00  0.00     0.118 C 
BRANCH  29  30
ATOM     30  O   UNL     1       5.405  27.956  51.511  1.00  0.00    -0.393 OA
ATOM     31  H   UNL     1       6.356  28.170  51.322  1.00  0.00     0.210 HD
ENDBRANCH  29  30
ENDBRANCH   1  11
TORSDOF 6
ENDMDL
