MODEL 1
REMARK VINA RESULT:    -6.409      0.000      0.000
REMARK INTER + INTRA:          -6.597
REMARK INTER:                  -6.597
REMARK INTRA:                   0.000
REMARK UNBOUND:                 0.000
REMARK SMILES CC1(C)CC[C@@]2(C)CC[C@]3(C)C(=CC[C@H]4[C@]5(C)CC[C@@H](O)C(C)(C)[C@@H]5CC[C@@]43C)[C@H]2C1
REMARK SMILES IDX 1 1 2 2 4 3 5 4 6 5 8 6 9 7 10 8 12 9 13 10 14 11 15 12
REMARK SMILES IDX 28 13 27 14 26 15 25 16 16 17 18 18 19 19 20 20 22 21 23 22
REMARK SMILES IDX 24 23 17 24 29 25 30 26 31 27 11 28 7 29 3 30 21 31
REMARK H PARENT 21 32
REMARK Flexibility Score: inf
ROOT
ATOM      1  C   UNL     1      44.692 -39.760  -3.704  1.00  0.00     0.011 C 
ATOM      2  C   UNL     1      43.173 -39.534  -3.896  1.00  0.00    -0.035 C 
ATOM      3  C   UNL     1      42.970 -38.109  -4.445  1.00  0.00     0.007 C 
ATOM      4  C   UNL     1      41.491 -37.743  -4.568  1.00  0.00     0.008 C 
ATOM      5  C   UNL     1      40.731 -37.742  -3.210  1.00  0.00    -0.026 C 
ATOM      6  C   UNL     1      39.203 -37.702  -3.556  1.00  0.00     0.008 C 
ATOM      7  C   UNL     1      38.237 -38.024  -2.388  1.00  0.00     0.012 C 
ATOM      8  C   UNL     1      38.602 -39.299  -1.514  1.00  0.00    -0.006 C 
ATOM      9  C   UNL     1      39.855 -39.925  -2.169  1.00  0.00    -0.064 C 
ATOM     10  C   UNL     1      39.764 -41.029  -2.936  1.00  0.00    -0.027 C 
ATOM     11  C   UNL     1      38.534 -41.868  -3.080  1.00  0.00     0.032 C 
ATOM     12  C   UNL     1      37.212 -41.148  -2.702  1.00  0.00     0.006 C 
ATOM     13  C   UNL     1      37.399 -40.377  -1.369  1.00  0.00    -0.020 C 
ATOM     14  C   UNL     1      36.052 -39.672  -1.077  1.00  0.00     0.008 C 
ATOM     15  C   UNL     1      34.899 -40.615  -0.797  1.00  0.00     0.005 C 
ATOM     16  C   UNL     1      34.758 -41.879  -1.713  1.00  0.00     0.003 C 
ATOM     17  C   UNL     1      35.888 -42.074  -2.849  1.00  0.00    -0.025 C 
ATOM     18  C   UNL     1      35.277 -41.793  -4.268  1.00  0.00     0.010 C 
ATOM     19  C   UNL     1      34.221 -40.686  -4.246  1.00  0.00     0.033 C 
ATOM     20  C   UNL     1      32.975 -41.040  -3.399  1.00  0.00     0.120 C 
ATOM     21  C   UNL     1      33.257 -42.056  -2.232  1.00  0.00    -0.006 C 
ATOM     22  C   UNL     1      32.978 -43.525  -2.680  1.00  0.00     0.014 C 
ATOM     23  C   UNL     1      32.223 -41.820  -1.081  1.00  0.00     0.014 C 
ATOM     24  C   UNL     1      36.296 -43.586  -2.835  1.00  0.00     0.012 C 
ATOM     25  C   UNL     1      37.720 -41.382  -0.215  1.00  0.00     0.012 C 
ATOM     26  C   UNL     1      41.074 -38.998  -2.311  1.00  0.00     0.022 C 
ATOM     27  C   UNL     1      42.470 -39.684  -2.514  1.00  0.00     0.015 C 
ATOM     28  C   UNL     1      38.992 -38.788  -0.084  1.00  0.00     0.017 C 
ATOM     29  C   UNL     1      41.094 -36.436  -2.453  1.00  0.00     0.012 C 
ATOM     30  C   UNL     1      42.688 -40.596  -4.911  1.00  0.00     0.011 C 
ENDROOT
BRANCH  20  31
ATOM     31  O   UNL     1      31.959 -41.510  -4.250  1.00  0.00    -0.393 OA
ATOM     32  H   UNL     1      31.140 -41.607  -3.697  1.00  0.00     0.210 HD
ENDBRANCH  20  31
TORSDOF 1
ENDMDL
MODEL 2
REMARK VINA RESULT:    -6.339      4.333      5.831
REMARK INTER + INTRA:          -6.524
REMARK INTER:                  -6.524
REMARK INTRA:                   0.000
REMARK UNBOUND:                 0.000
REMARK SMILES CC1(C)CC[C@@]2(C)CC[C@]3(C)C(=CC[C@H]4[C@]5(C)CC[C@@H](O)C(C)(C)[C@@H]5CC[C@@]43C)[C@H]2C1
REMARK SMILES IDX 1 1 2 2 4 3 5 4 6 5 8 6 9 7 10 8 12 9 13 10 14 11 15 12
REMARK SMILES IDX 28 13 27 14 26 15 25 16 16 17 18 18 19 19 20 20 22 21 23 22
REMARK SMILES IDX 24 23 17 24 29 25 30 26 31 27 11 28 7 29 3 30 21 31
REMARK H PARENT 21 32
REMARK Flexibility Score: inf
ROOT
ATOM      1  C   UNL     1      40.300 -39.588  -3.866  1.00  0.00     0.011 C 
ATOM      2  C   UNL     1      39.309 -38.854  -2.930  1.00  0.00    -0.035 C 
ATOM      3  C   UNL     1      39.459 -37.339  -3.173  1.00  0.00     0.007 C 
ATOM      4  C   UNL     1      38.600 -36.513  -2.216  1.00  0.00     0.008 C 
ATOM      5  C   UNL     1      38.974 -36.700  -0.717  1.00  0.00    -0.026 C 
ATOM      6  C   UNL     1      37.799 -36.082   0.115  1.00  0.00     0.008 C 
ATOM      7  C   UNL     1      37.781 -36.435   1.623  1.00  0.00     0.012 C 
ATOM      8  C   UNL     1      38.006 -37.965   1.983  1.00  0.00    -0.006 C 
ATOM      9  C   UNL     1      38.115 -38.713   0.634  1.00  0.00    -0.064 C 
ATOM     10  C   UNL     1      37.086 -39.437   0.152  1.00  0.00    -0.027 C 
ATOM     11  C   UNL     1      35.842 -39.764   0.915  1.00  0.00     0.032 C 
ATOM     12  C   UNL     1      35.555 -38.825   2.117  1.00  0.00     0.006 C 
ATOM     13  C   UNL     1      36.857 -38.605   2.932  1.00  0.00    -0.020 C 
ATOM     14  C   UNL     1      36.493 -37.645   4.090  1.00  0.00     0.008 C 
ATOM     15  C   UNL     1      35.521 -38.222   5.100  1.00  0.00     0.005 C 
ATOM     16  C   UNL     1      34.296 -39.027   4.547  1.00  0.00     0.003 C 
ATOM     17  C   UNL     1      34.211 -39.199   2.945  1.00  0.00    -0.025 C 
ATOM     18  C   UNL     1      33.047 -38.315   2.370  1.00  0.00     0.010 C 
ATOM     19  C   UNL     1      32.875 -37.000   3.133  1.00  0.00     0.033 C 
ATOM     20  C   UNL     1      32.461 -37.195   4.611  1.00  0.00     0.120 C 
ATOM     21  C   UNL     1      32.933 -38.559   5.238  1.00  0.00    -0.006 C 
ATOM     22  C   UNL     1      31.825 -39.652   5.114  1.00  0.00     0.014 C 
ATOM     23  C   UNL     1      33.105 -38.385   6.783  1.00  0.00     0.014 C 
ATOM     24  C   UNL     1      33.814 -40.688   2.663  1.00  0.00     0.012 C 
ATOM     25  C   UNL     1      37.350 -39.967   3.522  1.00  0.00     0.012 C 
ATOM     26  C   UNL     1      39.209 -38.214  -0.325  1.00  0.00     0.022 C 
ATOM     27  C   UNL     1      39.669 -39.200  -1.455  1.00  0.00     0.015 C 
ATOM     28  C   UNL     1      39.384 -38.074   2.723  1.00  0.00     0.017 C 
ATOM     29  C   UNL     1      40.259 -35.876  -0.433  1.00  0.00     0.012 C 
ATOM     30  C   UNL     1      37.890 -39.340  -3.310  1.00  0.00     0.011 C 
ENDROOT
BRANCH  20  31
ATOM     31  O   UNL     1      31.068 -37.036   4.723  1.00  0.00    -0.393 OA
ATOM     32  H   UNL     1      30.881 -36.773   5.662  1.00  0.00     0.210 HD
ENDBRANCH  20  31
TORSDOF 1
ENDMDL
MODEL 3
REMARK VINA RESULT:    -6.086      9.530     12.882
REMARK INTER + INTRA:          -6.264
REMARK INTER:                  -6.264
REMARK INTRA:                   0.000
REMARK UNBOUND:                 0.000
REMARK SMILES CC1(C)CC[C@@]2(C)CC[C@]3(C)C(=CC[C@H]4[C@]5(C)CC[C@@H](O)C(C)(C)[C@@H]5CC[C@@]43C)[C@H]2C1
REMARK SMILES IDX 1 1 2 2 4 3 5 4 6 5 8 6 9 7 10 8 12 9 13 10 14 11 15 12
REMARK SMILES IDX 28 13 27 14 26 15 25 16 16 17 18 18 19 19 20 20 22 21 23 22
REMARK SMILES IDX 24 23 17 24 29 25 30 26 31 27 11 28 7 29 3 30 21 31
REMARK H PARENT 21 32
REMARK Flexibility Score: inf
ROOT
ATOM      1  C   UNL     1      34.998 -39.764  14.497  1.00  0.00     0.011 C 
ATOM      2  C   UNL     1      34.318 -39.548  13.124  1.00  0.00    -0.035 C 
ATOM      3  C   UNL     1      32.841 -39.972  13.253  1.00  0.00     0.007 C 
ATOM      4  C   UNL     1      32.102 -39.902  11.918  1.00  0.00     0.008 C 
ATOM      5  C   UNL     1      32.680 -40.853  10.830  1.00  0.00    -0.026 C 
ATOM      6  C   UNL     1      32.053 -40.402   9.467  1.00  0.00     0.008 C 
ATOM      7  C   UNL     1      32.720 -40.979   8.193  1.00  0.00     0.012 C 
ATOM      8  C   UNL     1      34.306 -40.923   8.151  1.00  0.00    -0.006 C 
ATOM      9  C   UNL     1      34.746 -40.199   9.445  1.00  0.00    -0.064 C 
ATOM     10  C   UNL     1      35.143 -38.911   9.423  1.00  0.00    -0.027 C 
ATOM     11  C   UNL     1      35.393 -38.116   8.182  1.00  0.00     0.032 C 
ATOM     12  C   UNL     1      34.705 -38.673   6.907  1.00  0.00     0.006 C 
ATOM     13  C   UNL     1      34.915 -40.209   6.828  1.00  0.00    -0.020 C 
ATOM     14  C   UNL     1      34.183 -40.687   5.551  1.00  0.00     0.008 C 
ATOM     15  C   UNL     1      34.777 -40.167   4.256  1.00  0.00     0.005 C 
ATOM     16  C   UNL     1      35.200 -38.660   4.208  1.00  0.00     0.003 C 
ATOM     17  C   UNL     1      34.997 -37.811   5.565  1.00  0.00    -0.025 C 
ATOM     18  C   UNL     1      33.807 -36.799   5.393  1.00  0.00     0.010 C 
ATOM     19  C   UNL     1      32.684 -37.355   4.515  1.00  0.00     0.033 C 
ATOM     20  C   UNL     1      33.120 -37.625   3.055  1.00  0.00     0.120 C 
ATOM     21  C   UNL     1      34.651 -37.944   2.888  1.00  0.00    -0.006 C 
ATOM     22  C   UNL     1      35.465 -36.654   2.557  1.00  0.00     0.014 C 
ATOM     23  C   UNL     1      34.856 -38.843   1.624  1.00  0.00     0.014 C 
ATOM     24  C   UNL     1      36.287 -36.945   5.763  1.00  0.00     0.012 C 
ATOM     25  C   UNL     1      36.441 -40.530   6.703  1.00  0.00     0.012 C 
ATOM     26  C   UNL     1      34.260 -40.824  10.763  1.00  0.00     0.022 C 
ATOM     27  C   UNL     1      35.041 -40.433  12.066  1.00  0.00     0.015 C 
ATOM     28  C   UNL     1      34.828 -42.400   8.207  1.00  0.00     0.017 C 
ATOM     29  C   UNL     1      32.191 -42.294  11.139  1.00  0.00     0.012 C 
ATOM     30  C   UNL     1      34.437 -38.041  12.798  1.00  0.00     0.011 C 
ENDROOT
BRANCH  20  31
ATOM     31  O   UNL     1      32.734 -36.538   2.252  1.00  0.00    -0.393 OA
ATOM     32  H   UNL     1      32.118 -36.894   1.559  1.00  0.00     0.210 HD
ENDBRANCH  20  31
TORSDOF 1
ENDMDL
MODEL 4
REMARK VINA RESULT:    -6.069      4.956      7.365
REMARK INTER + INTRA:          -6.246
REMARK INTER:                  -6.246
REMARK INTRA:                   0.000
REMARK UNBOUND:                 0.000
REMARK SMILES CC1(C)CC[C@@]2(C)CC[C@]3(C)C(=CC[C@H]4[C@]5(C)CC[C@@H](O)C(C)(C)[C@@H]5CC[C@@]43C)[C@H]2C1
REMARK SMILES IDX 1 1 2 2 4 3 5 4 6 5 8 6 9 7 10 8 12 9 13 10 14 11 15 12
REMARK SMILES IDX 28 13 27 14 26 15 25 16 16 17 18 18 19 19 20 20 22 21 23 22
REMARK SMILES IDX 24 23 17 24 29 25 30 26 31 27 11 28 7 29 3 30 21 31
REMARK H PARENT 21 32
REMARK Flexibility Score: inf
ROOT
ATOM      1  C   UNL     1      37.143 -38.887   7.447  1.00  0.00     0.011 C 
ATOM      2  C   UNL     1      36.623 -38.712   6.000  1.00  0.00    -0.035 C 
ATOM      3  C   UNL     1      36.261 -37.227   5.801  1.00  0.00     0.007 C 
ATOM      4  C   UNL     1      35.630 -36.965   4.434  1.00  0.00     0.008 C 
ATOM      5  C   UNL     1      34.289 -37.721   4.206  1.00  0.00    -0.026 C 
ATOM      6  C   UNL     1      33.980 -37.625   2.673  1.00  0.00     0.008 C 
ATOM      7  C   UNL     1      32.875 -38.575   2.146  1.00  0.00     0.012 C 
ATOM      8  C   UNL     1      32.966 -40.085   2.629  1.00  0.00    -0.006 C 
ATOM      9  C   UNL     1      34.253 -40.188   3.481  1.00  0.00    -0.064 C 
ATOM     10  C   UNL     1      35.375 -40.744   2.984  1.00  0.00    -0.027 C 
ATOM     11  C   UNL     1      35.460 -41.481   1.686  1.00  0.00     0.032 C 
ATOM     12  C   UNL     1      34.318 -41.161   0.685  1.00  0.00     0.006 C 
ATOM     13  C   UNL     1      32.954 -41.173   1.426  1.00  0.00    -0.020 C 
ATOM     14  C   UNL     1      31.878 -40.824   0.370  1.00  0.00     0.008 C 
ATOM     15  C   UNL     1      31.711 -41.863  -0.722  1.00  0.00     0.005 C 
ATOM     16  C   UNL     1      33.012 -42.482  -1.336  1.00  0.00     0.003 C 
ATOM     17  C   UNL     1      34.413 -41.978  -0.713  1.00  0.00    -0.025 C 
ATOM     18  C   UNL     1      35.159 -41.056  -1.743  1.00  0.00     0.010 C 
ATOM     19  C   UNL     1      34.197 -40.202  -2.572  1.00  0.00     0.033 C 
ATOM     20  C   UNL     1      33.256 -41.036  -3.475  1.00  0.00     0.120 C 
ATOM     21  C   UNL     1      32.957 -42.482  -2.934  1.00  0.00    -0.006 C 
ATOM     22  C   UNL     1      33.946 -43.528  -3.539  1.00  0.00     0.014 C 
ATOM     23  C   UNL     1      31.560 -42.951  -3.457  1.00  0.00     0.014 C 
ATOM     24  C   UNL     1      35.314 -43.246  -0.524  1.00  0.00     0.012 C 
ATOM     25  C   UNL     1      32.675 -42.600   2.001  1.00  0.00     0.012 C 
ATOM     26  C   UNL     1      34.344 -39.229   4.679  1.00  0.00     0.022 C 
ATOM     27  C   UNL     1      35.359 -39.604   5.815  1.00  0.00     0.015 C 
ATOM     28  C   UNL     1      31.732 -40.354   3.559  1.00  0.00     0.017 C 
ATOM     29  C   UNL     1      33.172 -36.966   4.977  1.00  0.00     0.012 C 
ATOM     30  C   UNL     1      37.774 -39.134   5.057  1.00  0.00     0.011 C 
ENDROOT
BRANCH  20  31
ATOM     31  O   UNL     1      33.786 -41.077  -4.777  1.00  0.00    -0.393 OA
ATOM     32  H   UNL     1      33.248 -40.451  -5.329  1.00  0.00     0.210 HD
ENDBRANCH  20  31
TORSDOF 1
ENDMDL
MODEL 5
REMARK VINA RESULT:    -5.998      3.512      8.296
REMARK INTER + INTRA:          -6.173
REMARK INTER:                  -6.173
REMARK INTRA:                   0.000
REMARK UNBOUND:                 0.000
REMARK SMILES CC1(C)CC[C@@]2(C)CC[C@]3(C)C(=CC[C@H]4[C@]5(C)CC[C@@H](O)C(C)(C)[C@@H]5CC[C@@]43C)[C@H]2C1
REMARK SMILES IDX 1 1 2 2 4 3 5 4 6 5 8 6 9 7 10 8 12 9 13 10 14 11 15 12
REMARK SMILES IDX 28 13 27 14 26 15 25 16 16 17 18 18 19 19 20 20 22 21 23 22
REMARK SMILES IDX 24 23 17 24 29 25 30 26 31 27 11 28 7 29 3 30 21 31
REMARK H PARENT 21 32
REMARK Flexibility Score: inf
ROOT
ATOM      1  C   UNL     1      32.510 -40.475   2.161  1.00  0.00     0.011 C 
ATOM      2  C   UNL     1      34.047 -40.389   2.006  1.00  0.00    -0.035 C 
ATOM      3  C   UNL     1      34.685 -40.807   3.346  1.00  0.00     0.007 C 
ATOM      4  C   UNL     1      36.205 -40.650   3.336  1.00  0.00     0.008 C 
ATOM      5  C   UNL     1      36.683 -39.184   3.124  1.00  0.00    -0.026 C 
ATOM      6  C   UNL     1      38.212 -39.259   2.790  1.00  0.00     0.008 C 
ATOM      7  C   UNL     1      38.842 -37.964   2.219  1.00  0.00     0.012 C 
ATOM      8  C   UNL     1      38.028 -37.245   1.060  1.00  0.00    -0.006 C 
ATOM      9  C   UNL     1      36.801 -38.143   0.776  1.00  0.00    -0.064 C 
ATOM     10  C   UNL     1      36.762 -38.949  -0.304  1.00  0.00    -0.027 C 
ATOM     11  C   UNL     1      37.758 -38.931  -1.419  1.00  0.00     0.032 C 
ATOM     12  C   UNL     1      39.123 -38.287  -1.056  1.00  0.00     0.006 C 
ATOM     13  C   UNL     1      38.889 -36.962  -0.285  1.00  0.00    -0.020 C 
ATOM     14  C   UNL     1      40.289 -36.399   0.059  1.00  0.00     0.008 C 
ATOM     15  C   UNL     1      41.110 -35.983  -1.146  1.00  0.00     0.005 C 
ATOM     16  C   UNL     1      41.106 -36.936  -2.389  1.00  0.00     0.003 C 
ATOM     17  C   UNL     1      40.189 -38.260  -2.279  1.00  0.00    -0.025 C 
ATOM     18  C   UNL     1      41.098 -39.533  -2.134  1.00  0.00     0.010 C 
ATOM     19  C   UNL     1      42.367 -39.261  -1.324  1.00  0.00     0.033 C 
ATOM     20  C   UNL     1      43.315 -38.235  -1.991  1.00  0.00     0.120 C 
ATOM     21  C   UNL     1      42.590 -37.199  -2.925  1.00  0.00    -0.006 C 
ATOM     22  C   UNL     1      42.583 -37.681  -4.409  1.00  0.00     0.014 C 
ATOM     23  C   UNL     1      43.422 -35.875  -2.972  1.00  0.00     0.014 C 
ATOM     24  C   UNL     1      39.434 -38.409  -3.643  1.00  0.00     0.012 C 
ATOM     25  C   UNL     1      38.130 -35.943  -1.198  1.00  0.00     0.012 C 
ATOM     26  C   UNL     1      35.889 -38.436   1.978  1.00  0.00     0.022 C 
ATOM     27  C   UNL     1      34.430 -38.918   1.664  1.00  0.00     0.015 C 
ATOM     28  C   UNL     1      37.519 -35.875   1.627  1.00  0.00     0.017 C 
ATOM     29  C   UNL     1      36.514 -38.422   4.467  1.00  0.00     0.012 C 
ATOM     30  C   UNL     1      34.439 -41.369   0.875  1.00  0.00     0.011 C 
ENDROOT
BRANCH  20  31
ATOM     31  O   UNL     1      44.326 -38.926  -2.684  1.00  0.00    -0.393 OA
ATOM     32  H   UNL     1      45.166 -38.802  -2.170  1.00  0.00     0.210 HD
ENDBRANCH  20  31
TORSDOF 1
ENDMDL
MODEL 6
REMARK VINA RESULT:    -5.850      2.140      3.213
REMARK INTER + INTRA:          -6.020
REMARK INTER:                  -6.020
REMARK INTRA:                   0.000
REMARK UNBOUND:                 0.000
REMARK SMILES CC1(C)CC[C@@]2(C)CC[C@]3(C)C(=CC[C@H]4[C@]5(C)CC[C@@H](O)C(C)(C)[C@@H]5CC[C@@]43C)[C@H]2C1
REMARK SMILES IDX 1 1 2 2 4 3 5 4 6 5 8 6 9 7 10 8 12 9 13 10 14 11 15 12
REMARK SMILES IDX 28 13 27 14 26 15 25 16 16 17 18 18 19 19 20 20 22 21 23 22
REMARK SMILES IDX 24 23 17 24 29 25 30 26 31 27 11 28 7 29 3 30 21 31
REMARK H PARENT 21 32
REMARK Flexibility Score: inf
ROOT
ATOM      1  C   UNL     1      45.282 -36.688   0.675  1.00  0.00     0.011 C 
ATOM      2  C   UNL     1      44.366 -37.443  -0.318  1.00  0.00    -0.035 C 
ATOM      3  C   UNL     1      44.944 -37.255  -1.734  1.00  0.00     0.007 C 
ATOM      4  C   UNL     1      44.050 -37.871  -2.809  1.00  0.00     0.008 C 
ATOM      5  C   UNL     1      42.631 -37.236  -2.886  1.00  0.00    -0.026 C 
ATOM      6  C   UNL     1      41.760 -38.197  -3.763  1.00  0.00     0.008 C 
ATOM      7  C   UNL     1      40.230 -37.955  -3.716  1.00  0.00     0.012 C 
ATOM      8  C   UNL     1      39.601 -37.754  -2.272  1.00  0.00    -0.006 C 
ATOM      9  C   UNL     1      40.762 -37.941  -1.267  1.00  0.00    -0.064 C 
ATOM     10  C   UNL     1      40.897 -39.083  -0.563  1.00  0.00    -0.027 C 
ATOM     11  C   UNL     1      39.882 -40.179  -0.511  1.00  0.00     0.032 C 
ATOM     12  C   UNL     1      38.873 -40.183  -1.691  1.00  0.00     0.006 C 
ATOM     13  C   UNL     1      38.357 -38.741  -1.942  1.00  0.00    -0.020 C 
ATOM     14  C   UNL     1      37.381 -38.827  -3.141  1.00  0.00     0.008 C 
ATOM     15  C   UNL     1      36.122 -39.625  -2.868  1.00  0.00     0.005 C 
ATOM     16  C   UNL     1      36.276 -40.976  -2.089  1.00  0.00     0.003 C 
ATOM     17  C   UNL     1      37.768 -41.368  -1.614  1.00  0.00    -0.025 C 
ATOM     18  C   UNL     1      38.308 -42.566  -2.474  1.00  0.00     0.010 C 
ATOM     19  C   UNL     1      37.821 -42.517  -3.924  1.00  0.00     0.033 C 
ATOM     20  C   UNL     1      36.285 -42.658  -4.062  1.00  0.00     0.120 C 
ATOM     21  C   UNL     1      35.477 -42.157  -2.810  1.00  0.00    -0.006 C 
ATOM     22  C   UNL     1      35.177 -43.330  -1.824  1.00  0.00     0.014 C 
ATOM     23  C   UNL     1      34.055 -41.690  -3.267  1.00  0.00     0.014 C 
ATOM     24  C   UNL     1      37.658 -41.895  -0.143  1.00  0.00     0.012 C 
ATOM     25  C   UNL     1      37.587 -38.226  -0.682  1.00  0.00     0.012 C 
ATOM     26  C   UNL     1      41.975 -37.018  -1.463  1.00  0.00     0.022 C 
ATOM     27  C   UNL     1      42.935 -36.835  -0.235  1.00  0.00     0.015 C 
ATOM     28  C   UNL     1      39.101 -36.271  -2.181  1.00  0.00     0.017 C 
ATOM     29  C   UNL     1      42.751 -35.875  -3.625  1.00  0.00     0.012 C 
ATOM     30  C   UNL     1      44.388 -38.933   0.097  1.00  0.00     0.011 C 
ENDROOT
BRANCH  20  31
ATOM     31  O   UNL     1      35.973 -43.994  -4.371  1.00  0.00    -0.393 OA
ATOM     32  H   UNL     1      35.199 -44.250  -3.804  1.00  0.00     0.210 HD
ENDBRANCH  20  31
TORSDOF 1
ENDMDL
MODEL 7
REMARK VINA RESULT:    -5.785      9.335     12.510
REMARK INTER + INTRA:          -5.955
REMARK INTER:                  -5.955
REMARK INTRA:                   0.000
REMARK UNBOUND:                 0.000
REMARK SMILES CC1(C)CC[C@@]2(C)CC[C@]3(C)C(=CC[C@H]4[C@]5(C)CC[C@@H](O)C(C)(C)[C@@H]5CC[C@@]43C)[C@H]2C1
REMARK SMILES IDX 1 1 2 2 4 3 5 4 6 5 8 6 9 7 10 8 12 9 13 10 14 11 15 12
REMARK SMILES IDX 28 13 27 14 26 15 25 16 16 17 18 18 19 19 20 20 22 21 23 22
REMARK SMILES IDX 24 23 17 24 29 25 30 26 31 27 11 28 7 29 3 30 21 31
REMARK H PARENT 21 32
REMARK Flexibility Score: inf
ROOT
ATOM      1  C   UNL     1      33.526 -40.294  13.846  1.00  0.00     0.011 C 
ATOM      2  C   UNL     1      33.855 -39.539  12.536  1.00  0.00    -0.035 C 
ATOM      3  C   UNL     1      34.047 -38.049  12.881  1.00  0.00     0.007 C 
ATOM      4  C   UNL     1      34.268 -37.192  11.636  1.00  0.00     0.008 C 
ATOM      5  C   UNL     1      33.068 -37.204  10.645  1.00  0.00    -0.026 C 
ATOM      6  C   UNL     1      33.592 -36.586   9.304  1.00  0.00     0.008 C 
ATOM      7  C   UNL     1      32.683 -36.789   8.066  1.00  0.00     0.012 C 
ATOM      8  C   UNL     1      32.119 -38.258   7.849  1.00  0.00    -0.006 C 
ATOM      9  C   UNL     1      32.739 -39.126   8.968  1.00  0.00    -0.064 C 
ATOM     10  C   UNL     1      33.766 -39.961   8.715  1.00  0.00    -0.027 C 
ATOM     11  C   UNL     1      34.280 -40.293   7.351  1.00  0.00     0.032 C 
ATOM     12  C   UNL     1      33.911 -39.261   6.252  1.00  0.00     0.006 C 
ATOM     13  C   UNL     1      32.413 -38.875   6.378  1.00  0.00    -0.020 C 
ATOM     14  C   UNL     1      32.133 -37.832   5.270  1.00  0.00     0.008 C 
ATOM     15  C   UNL     1      32.257 -38.369   3.858  1.00  0.00     0.005 C 
ATOM     16  C   UNL     1      33.473 -39.305   3.543  1.00  0.00     0.003 C 
ATOM     17  C   UNL     1      34.461 -39.640   4.774  1.00  0.00    -0.025 C 
ATOM     18  C   UNL     1      35.831 -38.896   4.582  1.00  0.00     0.010 C 
ATOM     19  C   UNL     1      35.669 -37.526   3.919  1.00  0.00     0.033 C 
ATOM     20  C   UNL     1      35.113 -37.602   2.477  1.00  0.00     0.120 C 
ATOM     21  C   UNL     1      34.214 -38.862   2.198  1.00  0.00    -0.006 C 
ATOM     22  C   UNL     1      35.053 -40.033   1.596  1.00  0.00     0.014 C 
ATOM     23  C   UNL     1      33.189 -38.525   1.065  1.00  0.00     0.014 C 
ATOM     24  C   UNL     1      34.778 -41.172   4.705  1.00  0.00     0.012 C 
ATOM     25  C   UNL     1      31.519 -40.137   6.141  1.00  0.00     0.012 C 
ATOM     26  C   UNL     1      32.479 -38.653  10.408  1.00  0.00     0.022 C 
ATOM     27  C   UNL     1      32.662 -39.713  11.549  1.00  0.00     0.015 C 
ATOM     28  C   UNL     1      30.567 -38.200   8.067  1.00  0.00     0.017 C 
ATOM     29  C   UNL     1      31.963 -36.272  11.212  1.00  0.00     0.012 C 
ATOM     30  C   UNL     1      35.161 -40.154  11.980  1.00  0.00     0.011 C 
ENDROOT
BRANCH  20  31
ATOM     31  O   UNL     1      36.182 -37.525   1.567  1.00  0.00    -0.393 OA
ATOM     32  H   UNL     1      35.786 -37.444   0.660  1.00  0.00     0.210 HD
ENDBRANCH  20  31
TORSDOF 1
ENDMDL
MODEL 8
REMARK VINA RESULT:    -5.753      4.217      8.408
REMARK INTER + INTRA:          -5.921
REMARK INTER:                  -5.921
REMARK INTRA:                   0.000
REMARK UNBOUND:                 0.000
REMARK SMILES CC1(C)CC[C@@]2(C)CC[C@]3(C)C(=CC[C@H]4[C@]5(C)CC[C@@H](O)C(C)(C)[C@@H]5CC[C@@]43C)[C@H]2C1
REMARK SMILES IDX 1 1 2 2 4 3 5 4 6 5 8 6 9 7 10 8 12 9 13 10 14 11 15 12
REMARK SMILES IDX 28 13 27 14 26 15 25 16 16 17 18 18 19 19 20 20 22 21 23 22
REMARK SMILES IDX 24 23 17 24 29 25 30 26 31 27 11 28 7 29 3 30 21 31
REMARK H PARENT 21 32
REMARK Flexibility Score: inf
ROOT
ATOM      1  C   UNL     1      33.737 -36.539   6.565  1.00  0.00     0.011 C 
ATOM      2  C   UNL     1      34.314 -37.394   5.411  1.00  0.00    -0.035 C 
ATOM      3  C   UNL     1      34.029 -38.875   5.727  1.00  0.00     0.007 C 
ATOM      4  C   UNL     1      34.657 -39.816   4.700  1.00  0.00     0.008 C 
ATOM      5  C   UNL     1      36.209 -39.730   4.637  1.00  0.00    -0.026 C 
ATOM      6  C   UNL     1      36.643 -40.470   3.326  1.00  0.00     0.008 C 
ATOM      7  C   UNL     1      38.106 -40.239   2.872  1.00  0.00     0.012 C 
ATOM      8  C   UNL     1      38.608 -38.732   2.883  1.00  0.00    -0.006 C 
ATOM      9  C   UNL     1      37.391 -37.876   3.303  1.00  0.00    -0.064 C 
ATOM     10  C   UNL     1      36.689 -37.169   2.395  1.00  0.00    -0.027 C 
ATOM     11  C   UNL     1      37.096 -36.967   0.971  1.00  0.00     0.032 C 
ATOM     12  C   UNL     1      38.110 -38.011   0.433  1.00  0.00     0.006 C 
ATOM     13  C   UNL     1      39.239 -38.229   1.476  1.00  0.00    -0.020 C 
ATOM     14  C   UNL     1      40.190 -39.294   0.878  1.00  0.00     0.008 C 
ATOM     15  C   UNL     1      40.924 -38.849  -0.371  1.00  0.00     0.005 C 
ATOM     16  C   UNL     1      40.104 -38.066  -1.452  1.00  0.00     0.003 C 
ATOM     17  C   UNL     1      38.555 -37.772  -1.108  1.00  0.00    -0.025 C 
ATOM     18  C   UNL     1      37.626 -38.665  -2.006  1.00  0.00     0.010 C 
ATOM     19  C   UNL     1      38.228 -40.044  -2.286  1.00  0.00     0.033 C 
ATOM     20  C   UNL     1      39.543 -39.987  -3.101  1.00  0.00     0.120 C 
ATOM     21  C   UNL     1      40.359 -38.656  -2.916  1.00  0.00    -0.006 C 
ATOM     22  C   UNL     1      40.001 -37.614  -4.022  1.00  0.00     0.014 C 
ATOM     23  C   UNL     1      41.878 -38.942  -3.159  1.00  0.00     0.014 C 
ATOM     24  C   UNL     1      38.267 -36.287  -1.517  1.00  0.00     0.012 C 
ATOM     25  C   UNL     1      40.026 -36.894   1.692  1.00  0.00     0.012 C 
ATOM     26  C   UNL     1      36.745 -38.242   4.649  1.00  0.00     0.022 C 
ATOM     27  C   UNL     1      35.850 -37.147   5.329  1.00  0.00     0.015 C 
ATOM     28  C   UNL     1      39.707 -38.614   3.995  1.00  0.00     0.017 C 
ATOM     29  C   UNL     1      36.786 -40.508   5.851  1.00  0.00     0.012 C 
ATOM     30  C   UNL     1      33.587 -36.951   4.119  1.00  0.00     0.011 C 
ENDROOT
BRANCH  20  31
ATOM     31  O   UNL     1      39.255 -40.225  -4.457  1.00  0.00    -0.393 OA
ATOM     32  H   UNL     1      39.051 -39.344  -4.868  1.00  0.00     0.210 HD
ENDBRANCH  20  31
TORSDOF 1
ENDMDL
