MODEL 1
REMARK VINA RESULT:     0.055      0.000      0.000
REMARK INTER + INTRA:           0.008
REMARK INTER:                   0.090
REMARK INTRA:                  -0.082
REMARK UNBOUND:                -0.082
REMARK SMILES C[C@@H]1O[C@H](OC[C@@H]2O[C@H](Oc3c(-c4ccc(O)c(O)c4)oc4cc(O)cc(O)c4c3=O)[C@H](O)[C@@H](O)[C@@H]2O)[C@H](O)[C@@H](O)[C@@H]1O
REMARK SMILES IDX 7 1 36 2 34 3 32 4 9 5 8 6 6 7 5 8 4 9 1 10 2 11 42 12 3 13
REMARK SMILES IDX 40 14 38 15 43 16 41 18 39 20 37 22 35 24 10 26 11 27 12 28
REMARK SMILES IDX 30 29 21 30 29 31 31 32 22 33 27 34 23 35 26 36 24 37 13 38
REMARK SMILES IDX 20 39 14 40 18 41 15 42 16 43 19 44 17 46 28 48 25 50 33 52
REMARK H PARENT 43 17 41 19 39 21 37 23 35 25 19 45 17 47 28 49 25 51 33 53
REMARK Flexibility Score: inf
ROOT
ATOM      1  C   UNL     1       9.244  -1.316  13.669  1.00  0.00     0.180 C 
ATOM      2  C   UNL     1       9.610  -2.732  13.146  1.00  0.00     0.177 C 
ATOM      3  C   UNL     1       9.176  -3.772  14.182  1.00  0.00     0.180 C 
ATOM      4  C   UNL     1       9.720  -3.393  15.596  1.00  0.00     0.214 C 
ATOM      5  C   UNL     1       9.426  -1.906  15.916  1.00  0.00     0.339 C 
ATOM      6  O   UNL     1       9.916  -1.054  14.887  1.00  0.00    -0.332 OA
ENDROOT
BRANCH   1   7
ATOM      7  C   UNL     1       9.584  -0.243  12.595  1.00  0.00     0.198 C 
BRANCH   7   8
ATOM      8  O   UNL     1       8.624   0.807  12.573  1.00  0.00    -0.347 OA
BRANCH   8   9
ATOM      9  C   UNL     1       8.802   1.691  11.463  1.00  0.00     0.281 C 
ATOM     10  C   UNL     1       5.922   1.907   9.633  1.00  0.00     0.041 C 
ATOM     11  C   UNL     1       7.453   2.059   9.446  1.00  0.00     0.150 C 
ATOM     12  C   UNL     1       7.937   3.512   9.508  1.00  0.00     0.174 C 
ATOM     13  O   UNL     1       8.097   1.176  10.334  1.00  0.00    -0.344 OA
ATOM     14  C   UNL     1       7.718   4.049  10.921  1.00  0.00     0.179 C 
ATOM     15  C   UNL     1       8.466   3.158  11.931  1.00  0.00     0.202 C 
BRANCH  12  16
ATOM     16  O   UNL     1       7.288   4.279   8.510  1.00  0.00    -0.388 OA
ATOM     17  H   UNL     1       6.670   3.708   7.990  1.00  0.00     0.211 HD
ENDBRANCH  12  16
BRANCH  14  18
ATOM     18  O   UNL     1       8.210   5.365  10.980  1.00  0.00    -0.387 OA
ATOM     19  H   UNL     1       8.471   5.525  11.928  1.00  0.00     0.211 HD
ENDBRANCH  14  18
BRANCH  15  20
ATOM     20  O   UNL     1       7.751   3.146  13.150  1.00  0.00    -0.385 OA
ATOM     21  H   UNL     1       8.348   2.735  13.839  1.00  0.00     0.211 HD
ENDBRANCH  15  20
ENDBRANCH   8   9
ENDBRANCH   7   8
ENDBRANCH   1   7
BRANCH   2  22
ATOM     22  O   UNL     1      10.987  -2.847  12.854  1.00  0.00    -0.387 OA
ATOM     23  H   UNL     1      11.102  -3.208  11.938  1.00  0.00     0.211 HD
ENDBRANCH   2  22
BRANCH   3  24
ATOM     24  O   UNL     1       7.768  -3.891  14.139  1.00  0.00    -0.387 OA
ATOM     25  H   UNL     1       7.501  -4.430  13.355  1.00  0.00     0.211 HD
ENDBRANCH   3  24
BRANCH   5  26
ATOM     26  O   UNL     1      10.065  -1.579  17.154  1.00  0.00    -0.454 OA
BRANCH  26  27
ATOM     27  C   UNL     1       9.754  -0.414  17.860  1.00  0.00     0.214 A 
ATOM     28  C   UNL     1      10.697   0.208  18.710  1.00  0.00     0.180 A 
ATOM     29  C   UNL     1       8.492   0.174  17.703  1.00  0.00     0.239 A 
ATOM     30  O   UNL     1      10.413   1.386  19.254  1.00  0.00    -0.452 OA
ATOM     31  C   UNL     1       8.211   1.400  18.330  1.00  0.00     0.111 A 
ATOM     32  O   UNL     1       7.622  -0.409  16.990  1.00  0.00    -0.285 OA
ATOM     33  C   UNL     1       9.246   1.996  19.101  1.00  0.00     0.146 A 
ATOM     34  C   UNL     1       6.967   2.069  18.204  1.00  0.00     0.134 A 
ATOM     35  C   UNL     1       9.039   3.236  19.712  1.00  0.00     0.094 A 
ATOM     36  C   UNL     1       6.790   3.327  18.807  1.00  0.00     0.093 A 
ATOM     37  C   UNL     1       7.822   3.910  19.551  1.00  0.00     0.123 A 
BRANCH  28  38
ATOM     38  C   UNL     1      12.010  -0.417  18.994  1.00  0.00     0.025 A 
ATOM     39  C   UNL     1      12.271  -1.715  18.529  1.00  0.00     0.062 A 
ATOM     40  C   UNL     1      12.995   0.252  19.743  1.00  0.00     0.016 A 
ATOM     41  C   UNL     1      13.496  -2.341  18.827  1.00  0.00     0.158 A 
ATOM     42  C   UNL     1      14.210  -0.361  20.021  1.00  0.00     0.051 A 
ATOM     43  C   UNL     1      14.469  -1.661  19.572  1.00  0.00     0.157 A 
BRANCH  41  44
ATOM     44  O   UNL     1      13.718  -3.641  18.367  1.00  0.00    -0.504 OA
ATOM     45  H   UNL     1      14.583  -4.129  18.536  1.00  0.00     0.293 HD
ENDBRANCH  41  44
BRANCH  43  46
ATOM     46  O   UNL     1      15.699  -2.263  19.838  1.00  0.00    -0.504 OA
ATOM     47  H   UNL     1      15.805  -2.922  20.598  1.00  0.00     0.293 HD
ENDBRANCH  43  46
ENDBRANCH  28  38
BRANCH  34  48
ATOM     48  O   UNL     1       5.921   1.505  17.475  1.00  0.00    -0.507 OA
ATOM     49  H   UNL     1       6.098   0.938  16.652  1.00  0.00     0.293 HD
ENDBRANCH  34  48
BRANCH  37  50
ATOM     50  O   UNL     1       7.617   5.167  20.125  1.00  0.00    -0.508 OA
ATOM     51  H   UNL     1       6.872   5.772  19.798  1.00  0.00     0.293 HD
ENDBRANCH  37  50
ENDBRANCH  26  27
ENDBRANCH   5  26
BRANCH   4  52
ATOM     52  O   UNL     1      11.110  -3.629  15.684  1.00  0.00    -0.384 OA
ATOM     53  H   UNL     1      11.362  -3.502  16.633  1.00  0.00     0.211 HD
ENDBRANCH   4  52
TORSDOF 16
ENDMDL
MODEL 2
REMARK VINA RESULT:     0.240      2.914      6.044
REMARK INTER + INTRA:           0.313
REMARK INTER:                   0.622
REMARK INTRA:                  -0.309
REMARK UNBOUND:                -0.082
REMARK SMILES C[C@@H]1O[C@H](OC[C@@H]2O[C@H](Oc3c(-c4ccc(O)c(O)c4)oc4cc(O)cc(O)c4c3=O)[C@H](O)[C@@H](O)[C@@H]2O)[C@H](O)[C@@H](O)[C@@H]1O
REMARK SMILES IDX 7 1 36 2 34 3 32 4 9 5 8 6 6 7 5 8 4 9 1 10 2 11 42 12 3 13
REMARK SMILES IDX 40 14 38 15 43 16 41 18 39 20 37 22 35 24 10 26 11 27 12 28
REMARK SMILES IDX 30 29 21 30 29 31 31 32 22 33 27 34 23 35 26 36 24 37 13 38
REMARK SMILES IDX 20 39 14 40 18 41 15 42 16 43 19 44 17 46 28 48 25 50 33 52
REMARK H PARENT 43 17 41 19 39 21 37 23 35 25 19 45 17 47 28 49 25 51 33 53
REMARK Flexibility Score: inf
ROOT
ATOM      1  C   UNL     1       8.692  -1.216  16.516  1.00  0.00     0.180 C 
ATOM      2  C   UNL     1       7.140  -1.188  16.528  1.00  0.00     0.177 C 
ATOM      3  C   UNL     1       6.664  -0.511  17.817  1.00  0.00     0.180 C 
ATOM      4  C   UNL     1       7.356  -1.159  19.059  1.00  0.00     0.214 C 
ATOM      5  C   UNL     1       8.884  -1.272  18.837  1.00  0.00     0.339 C 
ATOM      6  O   UNL     1       9.178  -1.953  17.623  1.00  0.00    -0.332 OA
ENDROOT
BRANCH   1   7
ATOM      7  C   UNL     1       9.208  -1.810  15.174  1.00  0.00     0.198 C 
BRANCH   7   8
ATOM      8  O   UNL     1       9.833  -0.821  14.362  1.00  0.00    -0.347 OA
BRANCH   8   9
ATOM      9  C   UNL     1       9.212  -0.690  13.081  1.00  0.00     0.281 C 
ATOM     10  C   UNL     1       8.933   2.608  12.222  1.00  0.00     0.041 C 
ATOM     11  C   UNL     1       8.237   1.252  11.940  1.00  0.00     0.150 C 
ATOM     12  C   UNL     1       8.693   0.589  10.636  1.00  0.00     0.174 C 
ATOM     13  O   UNL     1       8.351   0.448  13.091  1.00  0.00    -0.344 OA
ATOM     14  C   UNL     1      10.162   0.190  10.767  1.00  0.00     0.179 C 
ATOM     15  C   UNL     1      10.331  -0.754  11.973  1.00  0.00     0.202 C 
BRANCH  12  16
ATOM     16  O   UNL     1       8.443   1.453   9.542  1.00  0.00    -0.388 OA
ATOM     17  H   UNL     1       8.215   0.925   8.737  1.00  0.00     0.211 HD
ENDBRANCH  12  16
BRANCH  14  18
ATOM     18  O   UNL     1      10.555  -0.461   9.584  1.00  0.00    -0.387 OA
ATOM     19  H   UNL     1      11.363  -0.997   9.814  1.00  0.00     0.211 HD
ENDBRANCH  14  18
BRANCH  15  20
ATOM     20  O   UNL     1      11.611  -0.551  12.538  1.00  0.00    -0.385 OA
ATOM     21  H   UNL     1      11.608  -0.983  13.440  1.00  0.00     0.211 HD
ENDBRANCH  15  20
ENDBRANCH   8   9
ENDBRANCH   7   8
ENDBRANCH   1   7
BRANCH   2  22
ATOM     22  O   UNL     1       6.587  -2.480  16.397  1.00  0.00    -0.387 OA
ATOM     23  H   UNL     1       6.243  -2.601  15.476  1.00  0.00     0.211 HD
ENDBRANCH   2  22
BRANCH   3  24
ATOM     24  O   UNL     1       6.898   0.878  17.710  1.00  0.00    -0.387 OA
ATOM     25  H   UNL     1       6.784   1.166  16.772  1.00  0.00     0.211 HD
ENDBRANCH   3  24
BRANCH   5  26
ATOM     26  O   UNL     1       9.444  -1.995  19.939  1.00  0.00    -0.454 OA
BRANCH  26  27
ATOM     27  C   UNL     1      10.785  -2.387  19.960  1.00  0.00     0.214 A 
ATOM     28  C   UNL     1      11.158  -3.748  19.900  1.00  0.00     0.180 A 
ATOM     29  C   UNL     1      11.790  -1.411  20.011  1.00  0.00     0.239 A 
ATOM     30  O   UNL     1      12.441  -4.073  19.783  1.00  0.00    -0.452 OA
ATOM     31  C   UNL     1      13.139  -1.794  19.929  1.00  0.00     0.111 A 
ATOM     32  O   UNL     1      11.464  -0.192  20.124  1.00  0.00    -0.285 OA
ATOM     33  C   UNL     1      13.421  -3.180  19.789  1.00  0.00     0.146 A 
ATOM     34  C   UNL     1      14.212  -0.868  19.952  1.00  0.00     0.134 A 
ATOM     35  C   UNL     1      14.742  -3.618  19.659  1.00  0.00     0.094 A 
ATOM     36  C   UNL     1      15.532  -1.327  19.795  1.00  0.00     0.093 A 
ATOM     37  C   UNL     1      15.795  -2.693  19.643  1.00  0.00     0.123 A 
BRANCH  28  38
ATOM     38  C   UNL     1      10.145  -4.828  19.946  1.00  0.00     0.025 A 
ATOM     39  C   UNL     1      10.565  -6.166  19.988  1.00  0.00     0.062 A 
ATOM     40  C   UNL     1       8.767  -4.544  19.923  1.00  0.00     0.016 A 
ATOM     41  C   UNL     1       9.617  -7.207  19.988  1.00  0.00     0.158 A 
ATOM     42  C   UNL     1       7.833  -5.572  19.940  1.00  0.00     0.051 A 
ATOM     43  C   UNL     1       8.247  -6.908  19.966  1.00  0.00     0.157 A 
BRANCH  41  44
ATOM     44  O   UNL     1      10.066  -8.528  20.010  1.00  0.00    -0.504 OA
ATOM     45  H   UNL     1       9.461  -9.305  19.794  1.00  0.00     0.293 HD
ENDBRANCH  41  44
BRANCH  43  46
ATOM     46  O   UNL     1       7.303  -7.935  20.004  1.00  0.00    -0.504 OA
ATOM     47  H   UNL     1       6.392  -7.822  19.580  1.00  0.00     0.293 HD
ENDBRANCH  43  46
ENDBRANCH  28  38
BRANCH  34  48
ATOM     48  O   UNL     1      13.977   0.497  20.110  1.00  0.00    -0.507 OA
ATOM     49  H   UNL     1      14.676   1.108  20.522  1.00  0.00     0.293 HD
ENDBRANCH  34  48
BRANCH  37  50
ATOM     50  O   UNL     1      17.116  -3.115  19.475  1.00  0.00    -0.508 OA
ATOM     51  H   UNL     1      17.437  -3.988  19.877  1.00  0.00     0.293 HD
ENDBRANCH  37  50
ENDBRANCH  26  27
ENDBRANCH   5  26
BRANCH   4  52
ATOM     52  O   UNL     1       6.821  -2.439  19.326  1.00  0.00    -0.384 OA
ATOM     53  H   UNL     1       7.364  -3.088  18.812  1.00  0.00     0.211 HD
ENDBRANCH   4  52
TORSDOF 16
ENDMDL
MODEL 3
REMARK VINA RESULT:     0.407      1.753      5.578
REMARK INTER + INTRA:           0.587
REMARK INTER:                   0.635
REMARK INTRA:                  -0.049
REMARK UNBOUND:                -0.082
REMARK SMILES C[C@@H]1O[C@H](OC[C@@H]2O[C@H](Oc3c(-c4ccc(O)c(O)c4)oc4cc(O)cc(O)c4c3=O)[C@H](O)[C@@H](O)[C@@H]2O)[C@H](O)[C@@H](O)[C@@H]1O
REMARK SMILES IDX 7 1 36 2 34 3 32 4 9 5 8 6 6 7 5 8 4 9 1 10 2 11 42 12 3 13
REMARK SMILES IDX 40 14 38 15 43 16 41 18 39 20 37 22 35 24 10 26 11 27 12 28
REMARK SMILES IDX 30 29 21 30 29 31 31 32 22 33 27 34 23 35 26 36 24 37 13 38
REMARK SMILES IDX 20 39 14 40 18 41 15 42 16 43 19 44 17 46 28 48 25 50 33 52
REMARK H PARENT 43 17 41 19 39 21 37 23 35 25 19 45 17 47 28 49 25 51 33 53
REMARK Flexibility Score: inf
ROOT
ATOM      1  C   UNL     1       8.718  -1.954  15.802  1.00  0.00     0.180 C 
ATOM      2  C   UNL     1       7.586  -3.004  15.643  1.00  0.00     0.177 C 
ATOM      3  C   UNL     1       6.662  -2.928  16.862  1.00  0.00     0.180 C 
ATOM      4  C   UNL     1       7.494  -3.000  18.182  1.00  0.00     0.214 C 
ATOM      5  C   UNL     1       8.687  -2.013  18.131  1.00  0.00     0.339 C 
ATOM      6  O   UNL     1       9.477  -2.223  16.967  1.00  0.00    -0.332 OA
ENDROOT
BRANCH   1   7
ATOM      7  C   UNL     1       9.618  -1.937  14.534  1.00  0.00     0.198 C 
BRANCH   7   8
ATOM      8  O   UNL     1       9.813  -0.618  14.038  1.00  0.00    -0.347 OA
BRANCH   8   9
ATOM      9  C   UNL     1       9.216  -0.420  12.754  1.00  0.00     0.281 C 
ATOM     10  C   UNL     1       8.855   2.919  12.107  1.00  0.00     0.041 C 
ATOM     11  C   UNL     1       8.206   1.565  11.720  1.00  0.00     0.150 C 
ATOM     12  C   UNL     1       8.709   1.003  10.386  1.00  0.00     0.174 C 
ATOM     13  O   UNL     1       8.320   0.690  12.818  1.00  0.00    -0.344 OA
ATOM     14  C   UNL     1      10.187   0.639  10.525  1.00  0.00     0.179 C 
ATOM     15  C   UNL     1      10.359  -0.377  11.670  1.00  0.00     0.202 C 
BRANCH  12  16
ATOM     16  O   UNL     1       8.457   1.930   9.346  1.00  0.00    -0.388 OA
ATOM     17  H   UNL     1       9.035   2.726   9.453  1.00  0.00     0.211 HD
ENDBRANCH  12  16
BRANCH  14  18
ATOM     18  O   UNL     1      10.625   0.079   9.311  1.00  0.00    -0.387 OA
ATOM     19  H   UNL     1      10.050  -0.718   9.146  1.00  0.00     0.211 HD
ENDBRANCH  14  18
BRANCH  15  20
ATOM     20  O   UNL     1      11.620  -0.176  12.277  1.00  0.00    -0.385 OA
ATOM     21  H   UNL     1      11.524   0.592  12.911  1.00  0.00     0.211 HD
ENDBRANCH  15  20
ENDBRANCH   8   9
ENDBRANCH   7   8
ENDBRANCH   1   7
BRANCH   2  22
ATOM     22  O   UNL     1       8.097  -4.309  15.471  1.00  0.00    -0.387 OA
ATOM     23  H   UNL     1       9.062  -4.260  15.252  1.00  0.00     0.211 HD
ENDBRANCH   2  22
BRANCH   3  24
ATOM     24  O   UNL     1       5.876  -1.758  16.761  1.00  0.00    -0.387 OA
ATOM     25  H   UNL     1       6.458  -0.960  16.790  1.00  0.00     0.211 HD
ENDBRANCH   3  24
BRANCH   5  26
ATOM     26  O   UNL     1       9.490  -2.220  19.298  1.00  0.00    -0.454 OA
BRANCH  26  27
ATOM     27  C   UNL     1      10.858  -1.939  19.313  1.00  0.00     0.214 A 
ATOM     28  C   UNL     1      11.339  -0.612  19.390  1.00  0.00     0.180 A 
ATOM     29  C   UNL     1      11.781  -2.993  19.283  1.00  0.00     0.239 A 
ATOM     30  O   UNL     1      12.641  -0.393  19.542  1.00  0.00    -0.452 OA
ATOM     31  C   UNL     1      13.155  -2.721  19.401  1.00  0.00     0.111 A 
ATOM     32  O   UNL     1      11.360  -4.181  19.154  1.00  0.00    -0.285 OA
ATOM     33  C   UNL     1      13.545  -1.362  19.556  1.00  0.00     0.146 A 
ATOM     34  C   UNL     1      14.149  -3.731  19.401  1.00  0.00     0.134 A 
ATOM     35  C   UNL     1      14.893  -1.034  19.722  1.00  0.00     0.094 A 
ATOM     36  C   UNL     1      15.497  -3.381  19.594  1.00  0.00     0.093 A 
ATOM     37  C   UNL     1      15.867  -2.042  19.761  1.00  0.00     0.123 A 
BRANCH  28  38
ATOM     38  C   UNL     1      10.418   0.547  19.324  1.00  0.00     0.025 A 
ATOM     39  C   UNL     1       9.340   0.521  18.427  1.00  0.00     0.062 A 
ATOM     40  C   UNL     1      10.615   1.687  20.125  1.00  0.00     0.016 A 
ATOM     41  C   UNL     1       8.480   1.631  18.320  1.00  0.00     0.158 A 
ATOM     42  C   UNL     1       9.755   2.774  20.030  1.00  0.00     0.051 A 
ATOM     43  C   UNL     1       8.687   2.759  19.126  1.00  0.00     0.157 A 
BRANCH  41  44
ATOM     44  O   UNL     1       7.428   1.583  17.404  1.00  0.00    -0.504 OA
ATOM     45  H   UNL     1       7.531   1.893  16.451  1.00  0.00     0.293 HD
ENDBRANCH  41  44
BRANCH  43  46
ATOM     46  O   UNL     1       7.816   3.846  19.050  1.00  0.00    -0.504 OA
ATOM     47  H   UNL     1       8.162   4.796  19.085  1.00  0.00     0.293 HD
ENDBRANCH  43  46
ENDBRANCH  28  38
BRANCH  34  48
ATOM     48  O   UNL     1      13.808  -5.072  19.229  1.00  0.00    -0.507 OA
ATOM     49  H   UNL     1      14.407  -5.706  18.710  1.00  0.00     0.293 HD
ENDBRANCH  34  48
BRANCH  37  50
ATOM     50  O   UNL     1      17.213  -1.730  19.964  1.00  0.00    -0.508 OA
ATOM     51  H   UNL     1      17.575  -0.814  19.725  1.00  0.00     0.293 HD
ENDBRANCH  37  50
ENDBRANCH  26  27
ENDBRANCH   5  26
BRANCH   4  52
ATOM     52  O   UNL     1       7.974  -4.309  18.407  1.00  0.00    -0.384 OA
ATOM     53  H   UNL     1       8.239  -4.673  17.525  1.00  0.00     0.211 HD
ENDBRANCH   4  52
TORSDOF 16
ENDMDL
MODEL 4
REMARK VINA RESULT:     0.456      2.132      5.819
REMARK INTER + INTRA:           0.667
REMARK INTER:                   0.424
REMARK INTRA:                   0.243
REMARK UNBOUND:                -0.082
REMARK SMILES C[C@@H]1O[C@H](OC[C@@H]2O[C@H](Oc3c(-c4ccc(O)c(O)c4)oc4cc(O)cc(O)c4c3=O)[C@H](O)[C@@H](O)[C@@H]2O)[C@H](O)[C@@H](O)[C@@H]1O
REMARK SMILES IDX 7 1 36 2 34 3 32 4 9 5 8 6 6 7 5 8 4 9 1 10 2 11 42 12 3 13
REMARK SMILES IDX 40 14 38 15 43 16 41 18 39 20 37 22 35 24 10 26 11 27 12 28
REMARK SMILES IDX 30 29 21 30 29 31 31 32 22 33 27 34 23 35 26 36 24 37 13 38
REMARK SMILES IDX 20 39 14 40 18 41 15 42 16 43 19 44 17 46 28 48 25 50 33 52
REMARK H PARENT 43 17 41 19 39 21 37 23 35 25 19 45 17 47 28 49 25 51 33 53
REMARK Flexibility Score: inf
ROOT
ATOM      1  C   UNL     1       8.901  -1.844  16.210  1.00  0.00     0.180 C 
ATOM      2  C   UNL     1       7.709  -2.820  16.015  1.00  0.00     0.177 C 
ATOM      3  C   UNL     1       6.865  -2.836  17.292  1.00  0.00     0.180 C 
ATOM      4  C   UNL     1       7.770  -3.089  18.540  1.00  0.00     0.214 C 
ATOM      5  C   UNL     1       9.007  -2.157  18.517  1.00  0.00     0.339 C 
ATOM      6  O   UNL     1       9.714  -2.273  17.288  1.00  0.00    -0.332 OA
ENDROOT
BRANCH   1   7
ATOM      7  C   UNL     1       9.723  -1.730  14.895  1.00  0.00     0.198 C 
BRANCH   7   8
ATOM      8  O   UNL     1       9.052  -0.945  13.916  1.00  0.00    -0.347 OA
BRANCH   8   9
ATOM      9  C   UNL     1       9.957  -0.275  13.035  1.00  0.00     0.281 C 
ATOM     10  C   UNL     1      10.359  -2.065  10.149  1.00  0.00     0.041 C 
ATOM     11  C   UNL     1      11.132  -1.044  11.021  1.00  0.00     0.150 C 
ATOM     12  C   UNL     1      11.015   0.401  10.523  1.00  0.00     0.174 C 
ATOM     13  O   UNL     1      10.766  -1.243  12.367  1.00  0.00    -0.344 OA
ATOM     14  C   UNL     1       9.566   0.863  10.671  1.00  0.00     0.179 C 
ATOM     15  C   UNL     1       9.136   0.734  12.145  1.00  0.00     0.202 C 
BRANCH  12  16
ATOM     16  O   UNL     1      11.499   0.493   9.195  1.00  0.00    -0.388 OA
ATOM     17  H   UNL     1      12.242  -0.146   9.059  1.00  0.00     0.211 HD
ENDBRANCH  12  16
BRANCH  14  18
ATOM     18  O   UNL     1       9.480   2.204  10.257  1.00  0.00    -0.387 OA
ATOM     19  H   UNL     1       9.493   2.755  11.087  1.00  0.00     0.211 HD
ENDBRANCH  14  18
BRANCH  15  20
ATOM     20  O   UNL     1       7.754   0.440  12.195  1.00  0.00    -0.385 OA
ATOM     21  H   UNL     1       7.466   0.533  13.149  1.00  0.00     0.211 HD
ENDBRANCH  15  20
ENDBRANCH   8   9
ENDBRANCH   7   8
ENDBRANCH   1   7
BRANCH   2  22
ATOM     22  O   UNL     1       8.141  -4.119  15.672  1.00  0.00    -0.387 OA
ATOM     23  H   UNL     1       8.904  -4.059  15.043  1.00  0.00     0.211 HD
ENDBRANCH   2  22
BRANCH   3  24
ATOM     24  O   UNL     1       6.136  -1.628  17.367  1.00  0.00    -0.387 OA
ATOM     25  H   UNL     1       6.136  -1.293  18.297  1.00  0.00     0.211 HD
ENDBRANCH   3  24
BRANCH   5  26
ATOM     26  O   UNL     1       9.866  -2.526  19.600  1.00  0.00    -0.454 OA
BRANCH  26  27
ATOM     27  C   UNL     1      11.242  -2.283  19.568  1.00  0.00     0.214 A 
ATOM     28  C   UNL     1      11.759  -0.970  19.497  1.00  0.00     0.180 A 
ATOM     29  C   UNL     1      12.136  -3.361  19.639  1.00  0.00     0.239 A 
ATOM     30  O   UNL     1      13.068  -0.773  19.608  1.00  0.00    -0.452 OA
ATOM     31  C   UNL     1      13.518  -3.117  19.710  1.00  0.00     0.111 A 
ATOM     32  O   UNL     1      11.681  -4.543  19.643  1.00  0.00    -0.285 OA
ATOM     33  C   UNL     1      13.946  -1.761  19.715  1.00  0.00     0.146 A 
ATOM     34  C   UNL     1      14.485  -4.149  19.805  1.00  0.00     0.134 A 
ATOM     35  C   UNL     1      15.306  -1.456  19.828  1.00  0.00     0.094 A 
ATOM     36  C   UNL     1      15.844  -3.819  19.943  1.00  0.00     0.093 A 
ATOM     37  C   UNL     1      16.252  -2.480  19.961  1.00  0.00     0.123 A 
BRANCH  28  38
ATOM     38  C   UNL     1      10.869   0.201  19.319  1.00  0.00     0.025 A 
ATOM     39  C   UNL     1       9.560   0.155  19.824  1.00  0.00     0.062 A 
ATOM     40  C   UNL     1      11.298   1.352  18.634  1.00  0.00     0.016 A 
ATOM     41  C   UNL     1       8.687   1.241  19.627  1.00  0.00     0.158 A 
ATOM     42  C   UNL     1      10.440   2.429  18.455  1.00  0.00     0.051 A 
ATOM     43  C   UNL     1       9.129   2.382  18.943  1.00  0.00     0.157 A 
BRANCH  41  44
ATOM     44  O   UNL     1       7.385   1.157  20.123  1.00  0.00    -0.504 OA
ATOM     45  H   UNL     1       7.043   0.338  20.600  1.00  0.00     0.293 HD
ENDBRANCH  41  44
BRANCH  43  46
ATOM     46  O   UNL     1       8.279   3.476  18.778  1.00  0.00    -0.504 OA
ATOM     47  H   UNL     1       8.519   4.385  19.153  1.00  0.00     0.293 HD
ENDBRANCH  43  46
ENDBRANCH  28  38
BRANCH  34  48
ATOM     48  O   UNL     1      14.105  -5.490  19.781  1.00  0.00    -0.507 OA
ATOM     49  H   UNL     1      14.626  -6.195  20.294  1.00  0.00     0.293 HD
ENDBRANCH  34  48
BRANCH  37  50
ATOM     50  O   UNL     1      17.609  -2.187  20.113  1.00  0.00    -0.508 OA
ATOM     51  H   UNL     1      18.140  -2.574  20.884  1.00  0.00     0.293 HD
ENDBRANCH  37  50
ENDBRANCH  26  27
ENDBRANCH   5  26
BRANCH   4  52
ATOM     52  O   UNL     1       8.194  -4.435  18.593  1.00  0.00    -0.384 OA
ATOM     53  H   UNL     1       8.947  -4.523  17.956  1.00  0.00     0.211 HD
ENDBRANCH   4  52
TORSDOF 16
ENDMDL
MODEL 5
REMARK VINA RESULT:     0.938      2.926      5.736
REMARK INTER + INTRA:           1.460
REMARK INTER:                   0.866
REMARK INTRA:                   0.594
REMARK UNBOUND:                -0.082
REMARK SMILES C[C@@H]1O[C@H](OC[C@@H]2O[C@H](Oc3c(-c4ccc(O)c(O)c4)oc4cc(O)cc(O)c4c3=O)[C@H](O)[C@@H](O)[C@@H]2O)[C@H](O)[C@@H](O)[C@@H]1O
REMARK SMILES IDX 7 1 36 2 34 3 32 4 9 5 8 6 6 7 5 8 4 9 1 10 2 11 42 12 3 13
REMARK SMILES IDX 40 14 38 15 43 16 41 18 39 20 37 22 35 24 10 26 11 27 12 28
REMARK SMILES IDX 30 29 21 30 29 31 31 32 22 33 27 34 23 35 26 36 24 37 13 38
REMARK SMILES IDX 20 39 14 40 18 41 15 42 16 43 19 44 17 46 28 48 25 50 33 52
REMARK H PARENT 43 17 41 19 39 21 37 23 35 25 19 45 17 47 28 49 25 51 33 53
REMARK Flexibility Score: inf
ROOT
ATOM      1  C   UNL     1       9.420  -0.535  16.840  1.00  0.00     0.180 C 
ATOM      2  C   UNL     1       8.087   0.188  17.172  1.00  0.00     0.177 C 
ATOM      3  C   UNL     1       8.284   1.045  18.426  1.00  0.00     0.180 C 
ATOM      4  C   UNL     1       8.916   0.194  19.573  1.00  0.00     0.214 C 
ATOM      5  C   UNL     1      10.140  -0.601  19.055  1.00  0.00     0.339 C 
ATOM      6  O   UNL     1       9.802  -1.378  17.912  1.00  0.00    -0.332 OA
ENDROOT
BRANCH   1   7
ATOM      7  C   UNL     1       9.281  -1.338  15.515  1.00  0.00     0.198 C 
BRANCH   7   8
ATOM      8  O   UNL     1      10.072  -0.780  14.471  1.00  0.00    -0.347 OA
BRANCH   8   9
ATOM      9  C   UNL     1       9.372  -0.714  13.226  1.00  0.00     0.281 C 
ATOM     10  C   UNL     1       9.008   2.537  12.231  1.00  0.00     0.041 C 
ATOM     11  C   UNL     1       8.308   1.164  12.058  1.00  0.00     0.150 C 
ATOM     12  C   UNL     1       8.688   0.442  10.760  1.00  0.00     0.174 C 
ATOM     13  O   UNL     1       8.501   0.417  13.236  1.00  0.00    -0.344 OA
ATOM     14  C   UNL     1      10.167   0.060  10.818  1.00  0.00     0.179 C 
ATOM     15  C   UNL     1      10.420  -0.824  12.055  1.00  0.00     0.202 C 
BRANCH  12  16
ATOM     16  O   UNL     1       8.363   1.252   9.645  1.00  0.00    -0.388 OA
ATOM     17  H   UNL     1       7.671   1.913   9.895  1.00  0.00     0.211 HD
ENDBRANCH  12  16
BRANCH  14  18
ATOM     18  O   UNL     1      10.492  -0.644   9.645  1.00  0.00    -0.387 OA
ATOM     19  H   UNL     1       9.688  -0.600   9.059  1.00  0.00     0.211 HD
ENDBRANCH  14  18
BRANCH  15  20
ATOM     20  O   UNL     1      11.731  -0.585  12.528  1.00  0.00    -0.385 OA
ATOM     21  H   UNL     1      11.647  -0.094  13.395  1.00  0.00     0.211 HD
ENDBRANCH  15  20
ENDBRANCH   8   9
ENDBRANCH   7   8
ENDBRANCH   1   7
BRANCH   2  22
ATOM     22  O   UNL     1       7.021  -0.722  17.339  1.00  0.00    -0.387 OA
ATOM     23  H   UNL     1       6.285  -0.488  16.717  1.00  0.00     0.211 HD
ENDBRANCH   2  22
BRANCH   3  24
ATOM     24  O   UNL     1       9.056   2.177  18.081  1.00  0.00    -0.387 OA
ATOM     25  H   UNL     1       8.841   2.462  17.160  1.00  0.00     0.211 HD
ENDBRANCH   3  24
BRANCH   5  26
ATOM     26  O   UNL     1      10.591  -1.464  20.104  1.00  0.00    -0.454 OA
BRANCH  26  27
ATOM     27  C   UNL     1      10.614  -2.853  19.960  1.00  0.00     0.214 A 
ATOM     28  C   UNL     1      11.830  -3.566  19.863  1.00  0.00     0.180 A 
ATOM     29  C   UNL     1       9.407  -3.566  19.941  1.00  0.00     0.239 A 
ATOM     30  O   UNL     1      11.814  -4.895  19.867  1.00  0.00    -0.452 OA
ATOM     31  C   UNL     1       9.427  -4.971  19.898  1.00  0.00     0.111 A 
ATOM     32  O   UNL     1       8.312  -2.930  19.967  1.00  0.00    -0.285 OA
ATOM     33  C   UNL     1      10.697  -5.609  19.886  1.00  0.00     0.146 A 
ATOM     34  C   UNL     1       8.252  -5.764  19.898  1.00  0.00     0.134 A 
ATOM     35  C   UNL     1      10.781  -7.005  19.888  1.00  0.00     0.094 A 
ATOM     36  C   UNL     1       8.360  -7.166  19.926  1.00  0.00     0.093 A 
ATOM     37  C   UNL     1       9.616  -7.783  19.928  1.00  0.00     0.123 A 
BRANCH  28  38
ATOM     38  C   UNL     1      13.131  -2.864  19.778  1.00  0.00     0.025 A 
ATOM     39  C   UNL     1      14.319  -3.589  19.956  1.00  0.00     0.062 A 
ATOM     40  C   UNL     1      13.204  -1.478  19.546  1.00  0.00     0.016 A 
ATOM     41  C   UNL     1      15.563  -2.930  19.920  1.00  0.00     0.158 A 
ATOM     42  C   UNL     1      14.433  -0.833  19.495  1.00  0.00     0.051 A 
ATOM     43  C   UNL     1      15.620  -1.549  19.687  1.00  0.00     0.157 A 
BRANCH  41  44
ATOM     44  O   UNL     1      16.726  -3.675  20.121  1.00  0.00    -0.504 OA
ATOM     45  H   UNL     1      17.451  -3.379  20.755  1.00  0.00     0.293 HD
ENDBRANCH  41  44
BRANCH  43  46
ATOM     46  O   UNL     1      16.852  -0.899  19.614  1.00  0.00    -0.504 OA
ATOM     47  H   UNL     1      16.958   0.056  19.932  1.00  0.00     0.293 HD
ENDBRANCH  43  46
ENDBRANCH  28  38
BRANCH  34  48
ATOM     48  O   UNL     1       6.990  -5.174  19.888  1.00  0.00    -0.507 OA
ATOM     49  H   UNL     1       6.378  -5.224  20.697  1.00  0.00     0.293 HD
ENDBRANCH  34  48
BRANCH  37  50
ATOM     50  O   UNL     1       9.687  -9.177  19.969  1.00  0.00    -0.508 OA
ATOM     51  H   UNL     1      10.407  -9.675  19.459  1.00  0.00     0.293 HD
ENDBRANCH  37  50
ENDBRANCH  26  27
ENDBRANCH   5  26
BRANCH   4  52
ATOM     52  O   UNL     1       7.969  -0.701  20.120  1.00  0.00    -0.384 OA
ATOM     53  H   UNL     1       7.266  -0.827  19.435  1.00  0.00     0.211 HD
ENDBRANCH   4  52
TORSDOF 16
ENDMDL
