MODEL 1
REMARK VINA RESULT:    -8.630      0.000      0.000
REMARK INTER + INTRA:         -10.409
REMARK INTER:                 -10.144
REMARK INTRA:                  -0.265
REMARK UNBOUND:                -0.265
REMARK SMILES O=c1cc(-c2ccc(O)c(O)c2)oc2cc(O)cc(O)c12
REMARK SMILES IDX 4 1 3 2 2 3 1 4 21 5 19 6 18 7 16 8 15 9 14 10 13 11 5 12
REMARK SMILES IDX 6 13 7 14 8 15 12 16 10 17 9 18 11 20 20 22 17 24
REMARK H PARENT 9 19 11 21 20 23 17 25
REMARK Flexibility Score: inf
ROOT
ATOM      1  C   UNL     1       1.520  -5.852  -8.493  1.00  0.00     0.138 A 
ATOM      2  C   UNL     1       1.057  -4.566  -8.800  1.00  0.00     0.100 A 
ATOM      3  C   UNL     1      -0.210  -4.168  -8.372  1.00  0.00     0.197 A 
ATOM      4  O   UNL     1      -0.620  -3.028  -8.712  1.00  0.00    -0.289 OA
ATOM      5  C   UNL     1      -1.004  -5.052  -7.602  1.00  0.00     0.107 A 
ATOM      6  C   UNL     1      -2.297  -4.743  -7.082  1.00  0.00     0.134 A 
ATOM      7  C   UNL     1      -3.028  -5.735  -6.416  1.00  0.00     0.093 A 
ATOM      8  C   UNL     1      -2.489  -7.006  -6.201  1.00  0.00     0.123 A 
ATOM      9  C   UNL     1      -1.208  -7.301  -6.660  1.00  0.00     0.094 A 
ATOM     10  C   UNL     1      -0.467  -6.345  -7.358  1.00  0.00     0.146 A 
ATOM     11  O   UNL     1       0.744  -6.674  -7.795  1.00  0.00    -0.456 OA
ENDROOT
BRANCH   1  12
ATOM     12  C   UNL     1       2.860  -6.327  -8.919  1.00  0.00     0.021 A 
ATOM     13  C   UNL     1       3.027  -6.855 -10.211  1.00  0.00     0.016 A 
ATOM     14  C   UNL     1       4.278  -7.303 -10.640  1.00  0.00     0.051 A 
ATOM     15  C   UNL     1       5.387  -7.223  -9.793  1.00  0.00     0.157 A 
ATOM     16  C   UNL     1       3.984  -6.236  -8.074  1.00  0.00     0.062 A 
ATOM     17  C   UNL     1       5.242  -6.683  -8.506  1.00  0.00     0.158 A 
BRANCH  15  18
ATOM     18  O   UNL     1       6.623  -7.679 -10.250  1.00  0.00    -0.504 OA
ATOM     19  H   UNL     1       7.426  -7.066 -10.333  1.00  0.00     0.293 HD
ENDBRANCH  15  18
BRANCH  17  20
ATOM     20  O   UNL     1       6.345  -6.590  -7.660  1.00  0.00    -0.504 OA
ATOM     21  H   UNL     1       7.152  -6.025  -7.898  1.00  0.00     0.293 HD
ENDBRANCH  17  20
ENDBRANCH   1  12
BRANCH   6  22
ATOM     22  O   UNL     1      -2.897  -3.483  -7.171  1.00  0.00    -0.507 OA
ATOM     23  H   UNL     1      -3.789  -3.236  -6.769  1.00  0.00     0.293 HD
ENDBRANCH   6  22
BRANCH   8  24
ATOM     24  O   UNL     1      -3.217  -7.981  -5.523  1.00  0.00    -0.508 OA
ATOM     25  H   UNL     1      -3.456  -8.864  -5.959  1.00  0.00     0.293 HD
ENDBRANCH   8  24
TORSDOF 5
ENDMDL
MODEL 2
REMARK VINA RESULT:    -8.471      1.264      1.570
REMARK INTER + INTRA:         -10.222
REMARK INTER:                  -9.955
REMARK INTRA:                  -0.267
REMARK UNBOUND:                -0.265
REMARK SMILES O=c1cc(-c2ccc(O)c(O)c2)oc2cc(O)cc(O)c12
REMARK SMILES IDX 4 1 3 2 2 3 1 4 21 5 19 6 18 7 16 8 15 9 14 10 13 11 5 12
REMARK SMILES IDX 6 13 7 14 8 15 12 16 10 17 9 18 11 20 20 22 17 24
REMARK H PARENT 9 19 11 21 20 23 17 25
REMARK Flexibility Score: inf
ROOT
ATOM      1  C   UNL     1       1.643  -6.743  -8.202  1.00  0.00     0.138 A 
ATOM      2  C   UNL     1       0.835  -5.601  -8.289  1.00  0.00     0.100 A 
ATOM      3  C   UNL     1      -0.430  -5.604  -7.700  1.00  0.00     0.197 A 
ATOM      4  O   UNL     1      -1.153  -4.584  -7.843  1.00  0.00    -0.289 OA
ATOM      5  C   UNL     1      -0.873  -6.745  -6.989  1.00  0.00     0.107 A 
ATOM      6  C   UNL     1      -2.130  -6.850  -6.319  1.00  0.00     0.134 A 
ATOM      7  C   UNL     1      -2.499  -8.066  -5.732  1.00  0.00     0.093 A 
ATOM      8  C   UNL     1      -1.633  -9.163  -5.740  1.00  0.00     0.123 A 
ATOM      9  C   UNL     1      -0.384  -9.055  -6.348  1.00  0.00     0.094 A 
ATOM     10  C   UNL     1      -0.001  -7.866  -6.972  1.00  0.00     0.146 A 
ATOM     11  O   UNL     1       1.192  -7.812  -7.555  1.00  0.00    -0.456 OA
ENDROOT
BRANCH   1  12
ATOM     12  C   UNL     1       2.998  -6.794  -8.807  1.00  0.00     0.021 A 
ATOM     13  C   UNL     1       3.129  -6.986 -10.193  1.00  0.00     0.016 A 
ATOM     14  C   UNL     1       4.391  -7.032 -10.789  1.00  0.00     0.051 A 
ATOM     15  C   UNL     1       5.544  -6.877 -10.015  1.00  0.00     0.157 A 
ATOM     16  C   UNL     1       4.163  -6.625  -8.033  1.00  0.00     0.062 A 
ATOM     17  C   UNL     1       5.432  -6.668  -8.631  1.00  0.00     0.158 A 
BRANCH  15  18
ATOM     18  O   UNL     1       6.791  -6.928 -10.638  1.00  0.00    -0.504 OA
ATOM     19  H   UNL     1       6.887  -7.070 -11.637  1.00  0.00     0.293 HD
ENDBRANCH  15  18
BRANCH  17  20
ATOM     20  O   UNL     1       6.577  -6.500  -7.855  1.00  0.00    -0.504 OA
ATOM     21  H   UNL     1       7.499  -6.446  -8.273  1.00  0.00     0.293 HD
ENDBRANCH  17  20
ENDBRANCH   1  12
BRANCH   6  22
ATOM     22  O   UNL     1      -3.036  -5.794  -6.182  1.00  0.00    -0.507 OA
ATOM     23  H   UNL     1      -3.679  -5.678  -5.413  1.00  0.00     0.293 HD
ENDBRANCH   6  22
BRANCH   8  24
ATOM     24  O   UNL     1      -2.003 -10.365  -5.139  1.00  0.00    -0.508 OA
ATOM     25  H   UNL     1      -2.174 -10.428  -4.142  1.00  0.00     0.293 HD
ENDBRANCH   8  24
TORSDOF 5
ENDMDL
MODEL 3
REMARK VINA RESULT:    -8.388      3.469      9.468
REMARK INTER + INTRA:         -10.124
REMARK INTER:                  -9.824
REMARK INTRA:                  -0.301
REMARK UNBOUND:                -0.265
REMARK SMILES O=c1cc(-c2ccc(O)c(O)c2)oc2cc(O)cc(O)c12
REMARK SMILES IDX 4 1 3 2 2 3 1 4 21 5 19 6 18 7 16 8 15 9 14 10 13 11 5 12
REMARK SMILES IDX 6 13 7 14 8 15 12 16 10 17 9 18 11 20 20 22 17 24
REMARK H PARENT 9 19 11 21 20 23 17 25
REMARK Flexibility Score: inf
ROOT
ATOM      1  C   UNL     1       6.394  -6.686  -9.828  1.00  0.00     0.138 A 
ATOM      2  C   UNL     1       6.760  -8.034  -9.954  1.00  0.00     0.100 A 
ATOM      3  C   UNL     1       8.042  -8.362 -10.397  1.00  0.00     0.197 A 
ATOM      4  O   UNL     1       8.322  -9.578 -10.553  1.00  0.00    -0.289 OA
ATOM      5  C   UNL     1       8.974  -7.335 -10.682  1.00  0.00     0.107 A 
ATOM      6  C   UNL     1      10.319  -7.550 -11.109  1.00  0.00     0.134 A 
ATOM      7  C   UNL     1      11.117  -6.453 -11.455  1.00  0.00     0.093 A 
ATOM      8  C   UNL     1      10.637  -5.146 -11.336  1.00  0.00     0.123 A 
ATOM      9  C   UNL     1       9.343  -4.923 -10.874  1.00  0.00     0.094 A 
ATOM     10  C   UNL     1       8.510  -5.998 -10.552  1.00  0.00     0.146 A 
ATOM     11  O   UNL     1       7.276  -5.741 -10.132  1.00  0.00    -0.456 OA
ENDROOT
BRANCH   1  12
ATOM     12  C   UNL     1       5.045  -6.280  -9.359  1.00  0.00     0.021 A 
ATOM     13  C   UNL     1       3.927  -7.049  -9.723  1.00  0.00     0.016 A 
ATOM     14  C   UNL     1       2.648  -6.693  -9.290  1.00  0.00     0.051 A 
ATOM     15  C   UNL     1       2.463  -5.570  -8.478  1.00  0.00     0.157 A 
ATOM     16  C   UNL     1       4.856  -5.157  -8.529  1.00  0.00     0.062 A 
ATOM     17  C   UNL     1       3.571  -4.801  -8.091  1.00  0.00     0.158 A 
BRANCH  15  18
ATOM     18  O   UNL     1       1.174  -5.239  -8.062  1.00  0.00    -0.504 OA
ATOM     19  H   UNL     1       0.835  -4.285  -8.068  1.00  0.00     0.293 HD
ENDBRANCH  15  18
BRANCH  17  20
ATOM     20  O   UNL     1       3.396  -3.687  -7.272  1.00  0.00    -0.504 OA
ATOM     21  H   UNL     1       2.511  -3.195  -7.226  1.00  0.00     0.293 HD
ENDBRANCH  17  20
ENDBRANCH   1  12
BRANCH   6  22
ATOM     22  O   UNL     1      10.925  -8.808 -11.188  1.00  0.00    -0.507 OA
ATOM     23  H   UNL     1      11.236  -9.352 -10.397  1.00  0.00     0.293 HD
ENDBRANCH   6  22
BRANCH   8  24
ATOM     24  O   UNL     1      11.444  -4.060 -11.669  1.00  0.00    -0.508 OA
ATOM     25  H   UNL     1      12.221  -3.777 -11.083  1.00  0.00     0.293 HD
ENDBRANCH   8  24
TORSDOF 5
ENDMDL
MODEL 4
REMARK VINA RESULT:    -8.354      4.577     10.628
REMARK INTER + INTRA:         -10.084
REMARK INTER:                  -9.821
REMARK INTRA:                  -0.264
REMARK UNBOUND:                -0.265
REMARK SMILES O=c1cc(-c2ccc(O)c(O)c2)oc2cc(O)cc(O)c12
REMARK SMILES IDX 4 1 3 2 2 3 1 4 21 5 19 6 18 7 16 8 15 9 14 10 13 11 5 12
REMARK SMILES IDX 6 13 7 14 8 15 12 16 10 17 9 18 11 20 20 22 17 24
REMARK H PARENT 9 19 11 21 20 23 17 25
REMARK Flexibility Score: inf
ROOT
ATOM      1  C   UNL     1       8.046  -6.953 -10.323  1.00  0.00     0.138 A 
ATOM      2  C   UNL     1       8.627  -8.175 -10.692  1.00  0.00     0.100 A 
ATOM      3  C   UNL     1       9.888  -8.186 -11.290  1.00  0.00     0.197 A 
ATOM      4  O   UNL     1      10.358  -9.293 -11.660  1.00  0.00    -0.289 OA
ATOM      5  C   UNL     1      10.586  -6.971 -11.486  1.00  0.00     0.107 A 
ATOM      6  C   UNL     1      11.891  -6.863 -12.055  1.00  0.00     0.134 A 
ATOM      7  C   UNL     1      12.440  -5.596 -12.289  1.00  0.00     0.093 A 
ATOM      8  C   UNL     1      11.754  -4.435 -11.923  1.00  0.00     0.123 A 
ATOM      9  C   UNL     1      10.501  -4.530 -11.322  1.00  0.00     0.094 A 
ATOM     10  C   UNL     1       9.913  -5.778 -11.106  1.00  0.00     0.146 A 
ATOM     11  O   UNL     1       8.708  -5.824 -10.547  1.00  0.00    -0.456 OA
ENDROOT
BRANCH   1  12
ATOM     12  C   UNL     1       6.709  -6.882  -9.681  1.00  0.00     0.021 A 
ATOM     13  C   UNL     1       6.615  -6.571  -8.314  1.00  0.00     0.016 A 
ATOM     14  C   UNL     1       5.370  -6.491  -7.687  1.00  0.00     0.051 A 
ATOM     15  C   UNL     1       4.197  -6.710  -8.414  1.00  0.00     0.157 A 
ATOM     16  C   UNL     1       5.523  -7.089 -10.413  1.00  0.00     0.062 A 
ATOM     17  C   UNL     1       4.272  -7.006  -9.784  1.00  0.00     0.158 A 
BRANCH  15  18
ATOM     18  O   UNL     1       2.968  -6.624  -7.760  1.00  0.00    -0.504 OA
ATOM     19  H   UNL     1       2.244  -5.981  -8.057  1.00  0.00     0.293 HD
ENDBRANCH  15  18
BRANCH  17  20
ATOM     20  O   UNL     1       3.105  -7.214 -10.518  1.00  0.00    -0.504 OA
ATOM     21  H   UNL     1       2.584  -8.081 -10.454  1.00  0.00     0.293 HD
ENDBRANCH  17  20
ENDBRANCH   1  12
BRANCH   6  22
ATOM     22  O   UNL     1      12.696  -7.958 -12.384  1.00  0.00    -0.507 OA
ATOM     23  H   UNL     1      12.858  -8.299 -13.320  1.00  0.00     0.293 HD
ENDBRANCH   6  22
BRANCH   8  24
ATOM     24  O   UNL     1      12.315  -3.179 -12.146  1.00  0.00    -0.508 OA
ATOM     25  H   UNL     1      12.472  -2.827 -13.083  1.00  0.00     0.293 HD
ENDBRANCH   8  24
TORSDOF 5
ENDMDL
MODEL 5
REMARK VINA RESULT:    -8.307      1.195      2.622
REMARK INTER + INTRA:         -10.029
REMARK INTER:                  -9.763
REMARK INTRA:                  -0.266
REMARK UNBOUND:                -0.265
REMARK SMILES O=c1cc(-c2ccc(O)c(O)c2)oc2cc(O)cc(O)c12
REMARK SMILES IDX 4 1 3 2 2 3 1 4 21 5 19 6 18 7 16 8 15 9 14 10 13 11 5 12
REMARK SMILES IDX 6 13 7 14 8 15 12 16 10 17 9 18 11 20 20 22 17 24
REMARK H PARENT 9 19 11 21 20 23 17 25
REMARK Flexibility Score: inf
ROOT
ATOM      1  C   UNL     1       1.538  -6.338  -8.155  1.00  0.00     0.138 A 
ATOM      2  C   UNL     1       0.714  -7.400  -7.758  1.00  0.00     0.100 A 
ATOM      3  C   UNL     1      -0.537  -7.131  -7.200  1.00  0.00     0.197 A 
ATOM      4  O   UNL     1      -1.230  -8.102  -6.803  1.00  0.00    -0.289 OA
ATOM      5  C   UNL     1      -0.978  -5.792  -7.072  1.00  0.00     0.107 A 
ATOM      6  C   UNL     1      -2.247  -5.398  -6.549  1.00  0.00     0.134 A 
ATOM      7  C   UNL     1      -2.532  -4.038  -6.380  1.00  0.00     0.093 A 
ATOM      8  C   UNL     1      -1.617  -3.056  -6.768  1.00  0.00     0.123 A 
ATOM      9  C   UNL     1      -0.396  -3.428  -7.326  1.00  0.00     0.094 A 
ATOM     10  C   UNL     1      -0.068  -4.778  -7.476  1.00  0.00     0.146 A 
ATOM     11  O   UNL     1       1.114  -5.089  -7.996  1.00  0.00    -0.456 OA
ENDROOT
BRANCH   1  12
ATOM     12  C   UNL     1       2.876  -6.566  -8.757  1.00  0.00     0.021 A 
ATOM     13  C   UNL     1       2.976  -6.856 -10.129  1.00  0.00     0.016 A 
ATOM     14  C   UNL     1       4.222  -7.068 -10.722  1.00  0.00     0.051 A 
ATOM     15  C   UNL     1       5.391  -6.986  -9.960  1.00  0.00     0.157 A 
ATOM     16  C   UNL     1       4.058  -6.471  -7.997  1.00  0.00     0.062 A 
ATOM     17  C   UNL     1       5.311  -6.681  -8.592  1.00  0.00     0.158 A 
BRANCH  15  18
ATOM     18  O   UNL     1       6.621  -7.204 -10.581  1.00  0.00    -0.504 OA
ATOM     19  H   UNL     1       6.800  -8.025 -11.146  1.00  0.00     0.293 HD
ENDBRANCH  15  18
BRANCH  17  20
ATOM     20  O   UNL     1       6.473  -6.586  -7.829  1.00  0.00    -0.504 OA
ATOM     21  H   UNL     1       6.549  -5.938  -7.053  1.00  0.00     0.293 HD
ENDBRANCH  17  20
ENDBRANCH   1  12
BRANCH   6  22
ATOM     22  O   UNL     1      -3.264  -6.293  -6.203  1.00  0.00    -0.507 OA
ATOM     23  H   UNL     1      -4.248  -6.071  -6.177  1.00  0.00     0.293 HD
ENDBRANCH   6  22
BRANCH   8  24
ATOM     24  O   UNL     1      -1.916  -1.704  -6.611  1.00  0.00    -0.508 OA
ATOM     25  H   UNL     1      -2.767  -1.399  -6.152  1.00  0.00     0.293 HD
ENDBRANCH   8  24
TORSDOF 5
ENDMDL
MODEL 6
REMARK VINA RESULT:    -7.997      0.818      1.531
REMARK INTER + INTRA:          -9.665
REMARK INTER:                  -9.398
REMARK INTRA:                  -0.266
REMARK UNBOUND:                -0.265
REMARK SMILES O=c1cc(-c2ccc(O)c(O)c2)oc2cc(O)cc(O)c12
REMARK SMILES IDX 4 1 3 2 2 3 1 4 21 5 19 6 18 7 16 8 15 9 14 10 13 11 5 12
REMARK SMILES IDX 6 13 7 14 8 15 12 16 10 17 9 18 11 20 20 22 17 24
REMARK H PARENT 9 19 11 21 20 23 17 25
REMARK Flexibility Score: inf
ROOT
ATOM      1  C   UNL     1       1.490  -5.568  -8.564  1.00  0.00     0.138 A 
ATOM      2  C   UNL     1       0.956  -4.472  -9.257  1.00  0.00     0.100 A 
ATOM      3  C   UNL     1      -0.384  -4.128  -9.078  1.00  0.00     0.197 A 
ATOM      4  O   UNL     1      -0.847  -3.175  -9.756  1.00  0.00    -0.289 OA
ATOM      5  C   UNL     1      -1.185  -4.864  -8.172  1.00  0.00     0.107 A 
ATOM      6  C   UNL     1      -2.555  -4.584  -7.883  1.00  0.00     0.134 A 
ATOM      7  C   UNL     1      -3.273  -5.443  -7.042  1.00  0.00     0.093 A 
ATOM      8  C   UNL     1      -2.654  -6.539  -6.434  1.00  0.00     0.123 A 
ATOM      9  C   UNL     1      -1.305  -6.792  -6.670  1.00  0.00     0.094 A 
ATOM     10  C   UNL     1      -0.571  -5.973  -7.531  1.00  0.00     0.146 A 
ATOM     11  O   UNL     1       0.709  -6.261  -7.743  1.00  0.00    -0.456 OA
ENDROOT
BRANCH   1  12
ATOM     12  C   UNL     1       2.909  -5.976  -8.714  1.00  0.00     0.021 A 
ATOM     13  C   UNL     1       3.830  -5.659  -7.701  1.00  0.00     0.016 A 
ATOM     14  C   UNL     1       5.169  -6.038  -7.814  1.00  0.00     0.051 A 
ATOM     15  C   UNL     1       5.612  -6.747  -8.934  1.00  0.00     0.157 A 
ATOM     16  C   UNL     1       3.357  -6.703  -9.835  1.00  0.00     0.062 A 
ATOM     17  C   UNL     1       4.702  -7.085  -9.947  1.00  0.00     0.158 A 
BRANCH  15  18
ATOM     18  O   UNL     1       6.956  -7.110  -9.018  1.00  0.00    -0.504 OA
ATOM     19  H   UNL     1       7.594  -6.665  -9.668  1.00  0.00     0.293 HD
ENDBRANCH  15  18
BRANCH  17  20
ATOM     20  O   UNL     1       5.135  -7.803 -11.062  1.00  0.00    -0.504 OA
ATOM     21  H   UNL     1       4.772  -7.615 -11.989  1.00  0.00     0.293 HD
ENDBRANCH  17  20
ENDBRANCH   1  12
BRANCH   6  22
ATOM     22  O   UNL     1      -3.248  -3.473  -8.373  1.00  0.00    -0.507 OA
ATOM     23  H   UNL     1      -4.236  -3.306  -8.252  1.00  0.00     0.293 HD
ENDBRANCH   6  22
BRANCH   8  24
ATOM     24  O   UNL     1      -3.372  -7.379  -5.586  1.00  0.00    -0.508 OA
ATOM     25  H   UNL     1      -4.238  -7.817  -5.880  1.00  0.00     0.293 HD
ENDBRANCH   8  24
TORSDOF 5
ENDMDL
MODEL 7
REMARK VINA RESULT:    -7.776      6.760     10.758
REMARK INTER + INTRA:          -9.405
REMARK INTER:                  -9.114
REMARK INTRA:                  -0.291
REMARK UNBOUND:                -0.265
REMARK SMILES O=c1cc(-c2ccc(O)c(O)c2)oc2cc(O)cc(O)c12
REMARK SMILES IDX 4 1 3 2 2 3 1 4 21 5 19 6 18 7 16 8 15 9 14 10 13 11 5 12
REMARK SMILES IDX 6 13 7 14 8 15 12 16 10 17 9 18 11 20 20 22 17 24
REMARK H PARENT 9 19 11 21 20 23 17 25
REMARK Flexibility Score: inf
ROOT
ATOM      1  C   UNL     1      11.131  -6.097 -11.854  1.00  0.00     0.138 A 
ATOM      2  C   UNL     1      11.296  -7.489 -11.850  1.00  0.00     0.100 A 
ATOM      3  C   UNL     1      10.291  -8.302 -11.325  1.00  0.00     0.197 A 
ATOM      4  O   UNL     1      10.492  -9.543 -11.286  1.00  0.00    -0.289 OA
ATOM      5  C   UNL     1       9.098  -7.718 -10.834  1.00  0.00     0.107 A 
ATOM      6  C   UNL     1       7.991  -8.449 -10.306  1.00  0.00     0.134 A 
ATOM      7  C   UNL     1       6.904  -7.756  -9.759  1.00  0.00     0.093 A 
ATOM      8  C   UNL     1       6.860  -6.359  -9.772  1.00  0.00     0.123 A 
ATOM      9  C   UNL     1       7.913  -5.638 -10.329  1.00  0.00     0.094 A 
ATOM     10  C   UNL     1       9.026  -6.299 -10.853  1.00  0.00     0.146 A 
ATOM     11  O   UNL     1      10.016  -5.572 -11.358  1.00  0.00    -0.456 OA
ENDROOT
BRANCH   1  12
ATOM     12  C   UNL     1      12.167  -5.185 -12.402  1.00  0.00     0.021 A 
ATOM     13  C   UNL     1      12.207  -3.848 -11.973  1.00  0.00     0.016 A 
ATOM     14  C   UNL     1      13.175  -2.971 -12.467  1.00  0.00     0.051 A 
ATOM     15  C   UNL     1      14.125  -3.414 -13.392  1.00  0.00     0.157 A 
ATOM     16  C   UNL     1      13.135  -5.631 -13.324  1.00  0.00     0.062 A 
ATOM     17  C   UNL     1      14.109  -4.751 -13.820  1.00  0.00     0.158 A 
BRANCH  15  18
ATOM     18  O   UNL     1      15.077  -2.514 -13.869  1.00  0.00    -0.504 OA
ATOM     19  H   UNL     1      15.423  -2.551 -14.820  1.00  0.00     0.293 HD
ENDBRANCH  15  18
BRANCH  17  20
ATOM     20  O   UNL     1      15.060  -5.202 -14.733  1.00  0.00    -0.504 OA
ATOM     21  H   UNL     1      15.958  -4.744 -14.835  1.00  0.00     0.293 HD
ENDBRANCH  17  20
ENDBRANCH   1  12
BRANCH   6  22
ATOM     22  O   UNL     1       7.896  -9.844 -10.315  1.00  0.00    -0.507 OA
ATOM     23  H   UNL     1       8.560 -10.467 -10.751  1.00  0.00     0.293 HD
ENDBRANCH   6  22
BRANCH   8  24
ATOM     24  O   UNL     1       5.767  -5.678  -9.239  1.00  0.00    -0.508 OA
ATOM     25  H   UNL     1       5.269  -6.027  -8.428  1.00  0.00     0.293 HD
ENDBRANCH   8  24
TORSDOF 5
ENDMDL
MODEL 8
REMARK VINA RESULT:    -7.661      1.353      3.088
REMARK INTER + INTRA:          -9.270
REMARK INTER:                  -9.005
REMARK INTRA:                  -0.264
REMARK UNBOUND:                -0.265
REMARK SMILES O=c1cc(-c2ccc(O)c(O)c2)oc2cc(O)cc(O)c12
REMARK SMILES IDX 4 1 3 2 2 3 1 4 21 5 19 6 18 7 16 8 15 9 14 10 13 11 5 12
REMARK SMILES IDX 6 13 7 14 8 15 12 16 10 17 9 18 11 20 20 22 17 24
REMARK H PARENT 9 19 11 21 20 23 17 25
REMARK Flexibility Score: inf
ROOT
ATOM      1  C   UNL     1       2.168  -6.504  -8.363  1.00  0.00     0.138 A 
ATOM      2  C   UNL     1       1.525  -7.522  -7.645  1.00  0.00     0.100 A 
ATOM      3  C   UNL     1       0.174  -7.390  -7.321  1.00  0.00     0.197 A 
ATOM      4  O   UNL     1      -0.360  -8.294  -6.629  1.00  0.00    -0.289 OA
ATOM      5  C   UNL     1      -0.545  -6.248  -7.749  1.00  0.00     0.107 A 
ATOM      6  C   UNL     1      -1.933  -6.021  -7.506  1.00  0.00     0.134 A 
ATOM      7  C   UNL     1      -2.512  -4.807  -7.894  1.00  0.00     0.093 A 
ATOM      8  C   UNL     1      -1.767  -3.835  -8.567  1.00  0.00     0.123 A 
ATOM      9  C   UNL     1      -0.424  -4.067  -8.853  1.00  0.00     0.094 A 
ATOM     10  C   UNL     1       0.191  -5.254  -8.449  1.00  0.00     0.146 A 
ATOM     11  O   UNL     1       1.479  -5.428  -8.726  1.00  0.00    -0.456 OA
ENDROOT
BRANCH   1  12
ATOM     12  C   UNL     1       3.602  -6.593  -8.737  1.00  0.00     0.021 A 
ATOM     13  C   UNL     1       4.581  -6.140  -7.836  1.00  0.00     0.016 A 
ATOM     14  C   UNL     1       5.937  -6.218  -8.160  1.00  0.00     0.051 A 
ATOM     15  C   UNL     1       6.342  -6.758  -9.384  1.00  0.00     0.157 A 
ATOM     16  C   UNL     1       4.016  -7.148  -9.964  1.00  0.00     0.062 A 
ATOM     17  C   UNL     1       5.378  -7.229 -10.290  1.00  0.00     0.158 A 
BRANCH  15  18
ATOM     18  O   UNL     1       7.703  -6.821  -9.680  1.00  0.00    -0.504 OA
ATOM     19  H   UNL     1       8.386  -6.250  -9.196  1.00  0.00     0.293 HD
ENDBRANCH  15  18
BRANCH  17  20
ATOM     20  O   UNL     1       5.775  -7.779 -11.507  1.00  0.00    -0.504 OA
ATOM     21  H   UNL     1       5.848  -7.215 -12.347  1.00  0.00     0.293 HD
ENDBRANCH  17  20
ENDBRANCH   1  12
BRANCH   6  22
ATOM     22  O   UNL     1      -2.788  -6.955  -6.914  1.00  0.00    -0.507 OA
ATOM     23  H   UNL     1      -3.535  -7.441  -7.388  1.00  0.00     0.293 HD
ENDBRANCH   6  22
BRANCH   8  24
ATOM     24  O   UNL     1      -2.356  -2.636  -8.964  1.00  0.00    -0.508 OA
ATOM     25  H   UNL     1      -1.860  -1.755  -8.901  1.00  0.00     0.293 HD
ENDBRANCH   8  24
TORSDOF 5
ENDMDL
MODEL 9
REMARK VINA RESULT:    -7.267      4.445     10.304
REMARK INTER + INTRA:          -8.806
REMARK INTER:                  -8.534
REMARK INTRA:                  -0.272
REMARK UNBOUND:                -0.265
REMARK SMILES O=c1cc(-c2ccc(O)c(O)c2)oc2cc(O)cc(O)c12
REMARK SMILES IDX 4 1 3 2 2 3 1 4 21 5 19 6 18 7 16 8 15 9 14 10 13 11 5 12
REMARK SMILES IDX 6 13 7 14 8 15 12 16 10 17 9 18 11 20 20 22 17 24
REMARK H PARENT 9 19 11 21 20 23 17 25
REMARK Flexibility Score: inf
ROOT
ATOM      1  C   UNL     1       7.918  -6.898 -10.273  1.00  0.00     0.138 A 
ATOM      2  C   UNL     1       8.714  -5.757 -10.444  1.00  0.00     0.100 A 
ATOM      3  C   UNL     1       9.958  -5.871 -11.065  1.00  0.00     0.197 A 
ATOM      4  O   UNL     1      10.672  -4.839 -11.153  1.00  0.00    -0.289 OA
ATOM      5  C   UNL     1      10.392  -7.128 -11.549  1.00  0.00     0.107 A 
ATOM      6  C   UNL     1      11.627  -7.358 -12.228  1.00  0.00     0.134 A 
ATOM      7  C   UNL     1      11.992  -8.665 -12.574  1.00  0.00     0.093 A 
ATOM      8  C   UNL     1      11.141  -9.743 -12.316  1.00  0.00     0.123 A 
ATOM      9  C   UNL     1       9.912  -9.523 -11.698  1.00  0.00     0.094 A 
ATOM     10  C   UNL     1       9.534  -8.236 -11.311  1.00  0.00     0.146 A 
ATOM     11  O   UNL     1       8.361  -8.073 -10.708  1.00  0.00    -0.456 OA
ENDROOT
BRANCH   1  12
ATOM     12  C   UNL     1       6.585  -6.836  -9.622  1.00  0.00     0.021 A 
ATOM     13  C   UNL     1       6.494  -6.468  -8.269  1.00  0.00     0.016 A 
ATOM     14  C   UNL     1       5.252  -6.395  -7.634  1.00  0.00     0.051 A 
ATOM     15  C   UNL     1       4.079  -6.677  -8.340  1.00  0.00     0.157 A 
ATOM     16  C   UNL     1       5.399  -7.106 -10.333  1.00  0.00     0.062 A 
ATOM     17  C   UNL     1       4.151  -7.030  -9.697  1.00  0.00     0.158 A 
BRANCH  15  18
ATOM     18  O   UNL     1       2.854  -6.596  -7.678  1.00  0.00    -0.504 OA
ATOM     19  H   UNL     1       2.665  -7.118  -6.831  1.00  0.00     0.293 HD
ENDBRANCH  15  18
BRANCH  17  20
ATOM     20  O   UNL     1       2.984  -7.301 -10.410  1.00  0.00    -0.504 OA
ATOM     21  H   UNL     1       2.441  -8.140 -10.242  1.00  0.00     0.293 HD
ENDBRANCH  17  20
ENDBRANCH   1  12
BRANCH   6  22
ATOM     22  O   UNL     1      12.514  -6.346 -12.605  1.00  0.00    -0.507 OA
ATOM     23  H   UNL     1      13.356  -6.483 -13.144  1.00  0.00     0.293 HD
ENDBRANCH   6  22
BRANCH   8  24
ATOM     24  O   UNL     1      11.506 -11.038 -12.678  1.00  0.00    -0.508 OA
ATOM     25  H   UNL     1      10.860 -11.815 -12.593  1.00  0.00     0.293 HD
ENDBRANCH   8  24
TORSDOF 5
ENDMDL
