MODEL 1
REMARK VINA RESULT:    -7.220      0.000      0.000
REMARK INTER + INTRA:          -8.757
REMARK INTER:                  -8.486
REMARK INTRA:                  -0.271
REMARK UNBOUND:                -0.271
REMARK SMILES O=c1c(O)c(-c2ccc(O)cc2)oc2cc(O)cc(O)c12
REMARK SMILES IDX 5 1 3 2 2 3 1 4 21 5 19 6 18 7 16 8 15 9 14 10 13 11 6 12
REMARK SMILES IDX 7 13 8 14 9 15 12 16 11 17 10 18 4 20 20 22 17 24
REMARK H PARENT 10 19 4 21 20 23 17 25
REMARK Flexibility Score: inf
ROOT
ATOM      1  C   UNL     1      -2.109  -2.006   5.569  1.00  0.00     0.180 A 
ATOM      2  C   UNL     1      -1.577  -1.505   6.771  1.00  0.00     0.208 A 
ATOM      3  C   UNL     1      -1.127  -0.175   6.813  1.00  0.00     0.238 A 
ATOM      4  O   UNL     1      -0.602   0.252   7.874  1.00  0.00    -0.285 OA
ATOM      5  C   UNL     1      -1.228   0.640   5.660  1.00  0.00     0.111 A 
ATOM      6  C   UNL     1      -0.841   2.013   5.601  1.00  0.00     0.134 A 
ATOM      7  C   UNL     1      -0.863   2.684   4.372  1.00  0.00     0.093 A 
ATOM      8  C   UNL     1      -1.321   2.052   3.214  1.00  0.00     0.123 A 
ATOM      9  C   UNL     1      -1.759   0.732   3.274  1.00  0.00     0.094 A 
ATOM     10  C   UNL     1      -1.714   0.023   4.477  1.00  0.00     0.146 A 
ATOM     11  O   UNL     1      -2.130  -1.237   4.487  1.00  0.00    -0.452 OA
ENDROOT
BRANCH   1  12
ATOM     12  C   UNL     1      -2.627  -3.389   5.454  1.00  0.00     0.021 A 
ATOM     13  C   UNL     1      -1.859  -4.363   4.796  1.00  0.00     0.016 A 
ATOM     14  C   UNL     1      -2.339  -5.669   4.656  1.00  0.00     0.047 A 
ATOM     15  C   UNL     1      -3.600  -6.012   5.159  1.00  0.00     0.115 A 
ATOM     16  C   UNL     1      -3.902  -3.737   5.939  1.00  0.00     0.016 A 
ATOM     17  C   UNL     1      -4.380  -5.043   5.797  1.00  0.00     0.047 A 
BRANCH  15  18
ATOM     18  O   UNL     1      -4.088  -7.310   5.027  1.00  0.00    -0.508 OA
ATOM     19  H   UNL     1      -3.506  -8.117   5.217  1.00  0.00     0.293 HD
ENDBRANCH  15  18
ENDBRANCH   1  12
BRANCH   2  20
ATOM     20  O   UNL     1      -1.467  -2.333   7.891  1.00  0.00    -0.502 OA
ATOM     21  H   UNL     1      -2.275  -2.710   8.370  1.00  0.00     0.293 HD
ENDBRANCH   2  20
BRANCH   6  22
ATOM     22  O   UNL     1      -0.454   2.762   6.716  1.00  0.00    -0.507 OA
ATOM     23  H   UNL     1      -0.902   3.613   7.020  1.00  0.00     0.293 HD
ENDBRANCH   6  22
BRANCH   8  24
ATOM     24  O   UNL     1      -1.356   2.733   2.000  1.00  0.00    -0.508 OA
ATOM     25  H   UNL     1      -0.980   2.324   1.152  1.00  0.00     0.293 HD
ENDBRANCH   8  24
TORSDOF 5
ENDMDL
MODEL 2
REMARK VINA RESULT:    -7.199      1.893      3.827
REMARK INTER + INTRA:          -8.733
REMARK INTER:                  -9.132
REMARK INTRA:                   0.400
REMARK UNBOUND:                -0.271
REMARK SMILES O=c1c(O)c(-c2ccc(O)cc2)oc2cc(O)cc(O)c12
REMARK SMILES IDX 5 1 3 2 2 3 1 4 21 5 19 6 18 7 16 8 15 9 14 10 13 11 6 12
REMARK SMILES IDX 7 13 8 14 9 15 12 16 11 17 10 18 4 20 20 22 17 24
REMARK H PARENT 10 19 4 21 20 23 17 25
REMARK Flexibility Score: inf
ROOT
ATOM      1  C   UNL     1      -1.455   0.128   4.448  1.00  0.00     0.180 A 
ATOM      2  C   UNL     1      -1.365   0.758   3.194  1.00  0.00     0.208 A 
ATOM      3  C   UNL     1      -1.186   2.150   3.144  1.00  0.00     0.238 A 
ATOM      4  O   UNL     1      -1.161   2.716   2.020  1.00  0.00    -0.285 OA
ATOM      5  C   UNL     1      -1.085   2.892   4.346  1.00  0.00     0.111 A 
ATOM      6  C   UNL     1      -0.863   4.300   4.413  1.00  0.00     0.134 A 
ATOM      7  C   UNL     1      -0.912   4.949   5.653  1.00  0.00     0.093 A 
ATOM      8  C   UNL     1      -1.108   4.229   6.835  1.00  0.00     0.123 A 
ATOM      9  C   UNL     1      -1.264   2.846   6.784  1.00  0.00     0.094 A 
ATOM     10  C   UNL     1      -1.258   2.175   5.559  1.00  0.00     0.146 A 
ATOM     11  O   UNL     1      -1.423   0.859   5.556  1.00  0.00    -0.452 OA
ENDROOT
BRANCH   1  12
ATOM     12  C   UNL     1      -1.618  -1.338   4.582  1.00  0.00     0.021 A 
ATOM     13  C   UNL     1      -1.189  -1.977   5.757  1.00  0.00     0.016 A 
ATOM     14  C   UNL     1      -1.312  -3.362   5.896  1.00  0.00     0.047 A 
ATOM     15  C   UNL     1      -1.852  -4.129   4.855  1.00  0.00     0.115 A 
ATOM     16  C   UNL     1      -2.142  -2.117   3.534  1.00  0.00     0.016 A 
ATOM     17  C   UNL     1      -2.263  -3.502   3.675  1.00  0.00     0.047 A 
BRANCH  15  18
ATOM     18  O   UNL     1      -1.981  -5.510   4.983  1.00  0.00    -0.508 OA
ATOM     19  H   UNL     1      -1.378  -6.147   4.475  1.00  0.00     0.293 HD
ENDBRANCH  15  18
ENDBRANCH   1  12
BRANCH   2  20
ATOM     20  O   UNL     1      -1.489   0.010   2.020  1.00  0.00    -0.502 OA
ATOM     21  H   UNL     1      -0.889   0.156   1.217  1.00  0.00     0.293 HD
ENDBRANCH   2  20
BRANCH   6  22
ATOM     22  O   UNL     1      -0.568   5.097   3.303  1.00  0.00    -0.507 OA
ATOM     23  H   UNL     1       0.286   5.621   3.182  1.00  0.00     0.293 HD
ENDBRANCH   6  22
BRANCH   8  24
ATOM     24  O   UNL     1      -1.137   4.879   8.066  1.00  0.00    -0.508 OA
ATOM     25  H   UNL     1      -1.729   4.555   8.823  1.00  0.00     0.293 HD
ENDBRANCH   8  24
TORSDOF 5
ENDMDL
MODEL 3
REMARK VINA RESULT:    -7.103      2.244      2.639
REMARK INTER + INTRA:          -8.619
REMARK INTER:                  -8.331
REMARK INTRA:                  -0.289
REMARK UNBOUND:                -0.271
REMARK SMILES O=c1c(O)c(-c2ccc(O)cc2)oc2cc(O)cc(O)c12
REMARK SMILES IDX 5 1 3 2 2 3 1 4 21 5 19 6 18 7 16 8 15 9 14 10 13 11 6 12
REMARK SMILES IDX 7 13 8 14 9 15 12 16 11 17 10 18 4 20 20 22 17 24
REMARK H PARENT 10 19 4 21 20 23 17 25
REMARK Flexibility Score: inf
ROOT
ATOM      1  C   UNL     1      -2.468  -3.338   5.606  1.00  0.00     0.180 A 
ATOM      2  C   UNL     1      -3.417  -2.679   6.408  1.00  0.00     0.208 A 
ATOM      3  C   UNL     1      -3.720  -1.334   6.138  1.00  0.00     0.238 A 
ATOM      4  O   UNL     1      -4.529  -0.734   6.893  1.00  0.00    -0.285 OA
ATOM      5  C   UNL     1      -3.085  -0.671   5.061  1.00  0.00     0.111 A 
ATOM      6  C   UNL     1      -3.346   0.677   4.672  1.00  0.00     0.134 A 
ATOM      7  C   UNL     1      -2.564   1.272   3.675  1.00  0.00     0.093 A 
ATOM      8  C   UNL     1      -1.574   0.546   3.006  1.00  0.00     0.123 A 
ATOM      9  C   UNL     1      -1.354  -0.788   3.338  1.00  0.00     0.094 A 
ATOM     10  C   UNL     1      -2.092  -1.399   4.354  1.00  0.00     0.146 A 
ATOM     11  O   UNL     1      -1.841  -2.669   4.645  1.00  0.00    -0.452 OA
ENDROOT
BRANCH   1  12
ATOM     12  C   UNL     1      -2.114  -4.760   5.812  1.00  0.00     0.021 A 
ATOM     13  C   UNL     1      -2.848  -5.759   5.151  1.00  0.00     0.016 A 
ATOM     14  C   UNL     1      -2.545  -7.109   5.349  1.00  0.00     0.047 A 
ATOM     15  C   UNL     1      -1.515  -7.479   6.223  1.00  0.00     0.115 A 
ATOM     16  C   UNL     1      -1.093  -5.140   6.703  1.00  0.00     0.016 A 
ATOM     17  C   UNL     1      -0.793  -6.492   6.900  1.00  0.00     0.047 A 
BRANCH  15  18
ATOM     18  O   UNL     1      -1.203  -8.821   6.427  1.00  0.00    -0.508 OA
ATOM     19  H   UNL     1      -1.844  -9.560   6.160  1.00  0.00     0.293 HD
ENDBRANCH  15  18
ENDBRANCH   1  12
BRANCH   2  20
ATOM     20  O   UNL     1      -4.016  -3.346   7.480  1.00  0.00    -0.502 OA
ATOM     21  H   UNL     1      -4.087  -2.937   8.404  1.00  0.00     0.293 HD
ENDBRANCH   2  20
BRANCH   6  22
ATOM     22  O   UNL     1      -4.371   1.460   5.212  1.00  0.00    -0.507 OA
ATOM     23  H   UNL     1      -4.851   2.197   4.719  1.00  0.00     0.293 HD
ENDBRANCH   6  22
BRANCH   8  24
ATOM     24  O   UNL     1      -0.812   1.140   2.004  1.00  0.00    -0.508 OA
ATOM     25  H   UNL     1      -0.624   0.664   1.128  1.00  0.00     0.293 HD
ENDBRANCH   8  24
TORSDOF 5
ENDMDL
MODEL 4
REMARK VINA RESULT:    -7.094     13.243     15.900
REMARK INTER + INTRA:          -8.609
REMARK INTER:                  -8.396
REMARK INTRA:                  -0.212
REMARK UNBOUND:                -0.271
REMARK SMILES O=c1c(O)c(-c2ccc(O)cc2)oc2cc(O)cc(O)c12
REMARK SMILES IDX 5 1 3 2 2 3 1 4 21 5 19 6 18 7 16 8 15 9 14 10 13 11 6 12
REMARK SMILES IDX 7 13 8 14 9 15 12 16 11 17 10 18 4 20 20 22 17 24
REMARK H PARENT 10 19 4 21 20 23 17 25
REMARK Flexibility Score: inf
ROOT
ATOM      1  C   UNL     1       1.784   6.687  -6.349  1.00  0.00     0.180 A 
ATOM      2  C   UNL     1       2.103   6.657  -7.718  1.00  0.00     0.208 A 
ATOM      3  C   UNL     1       1.292   5.913  -8.590  1.00  0.00     0.238 A 
ATOM      4  O   UNL     1       1.613   5.845  -9.804  1.00  0.00    -0.285 OA
ATOM      5  C   UNL     1       0.163   5.223  -8.085  1.00  0.00     0.111 A 
ATOM      6  C   UNL     1      -0.751   4.472  -8.884  1.00  0.00     0.134 A 
ATOM      7  C   UNL     1      -1.756   3.722  -8.262  1.00  0.00     0.093 A 
ATOM      8  C   UNL     1      -1.921   3.749  -6.875  1.00  0.00     0.123 A 
ATOM      9  C   UNL     1      -1.071   4.527  -6.093  1.00  0.00     0.094 A 
ATOM     10  C   UNL     1      -0.035   5.257  -6.680  1.00  0.00     0.146 A 
ATOM     11  O   UNL     1       0.758   5.976  -5.897  1.00  0.00    -0.452 OA
ENDROOT
BRANCH   1  12
ATOM     12  C   UNL     1       2.577   7.469  -5.372  1.00  0.00     0.021 A 
ATOM     13  C   UNL     1       2.068   8.683  -4.882  1.00  0.00     0.016 A 
ATOM     14  C   UNL     1       2.810   9.448  -3.977  1.00  0.00     0.047 A 
ATOM     15  C   UNL     1       4.075   9.016  -3.562  1.00  0.00     0.115 A 
ATOM     16  C   UNL     1       3.857   7.051  -4.965  1.00  0.00     0.016 A 
ATOM     17  C   UNL     1       4.597   7.819  -4.060  1.00  0.00     0.047 A 
BRANCH  15  18
ATOM     18  O   UNL     1       4.823   9.769  -2.659  1.00  0.00    -0.508 OA
ATOM     19  H   UNL     1       4.663  10.763  -2.539  1.00  0.00     0.293 HD
ENDBRANCH  15  18
ENDBRANCH   1  12
BRANCH   2  20
ATOM     20  O   UNL     1       3.234   7.328  -8.191  1.00  0.00    -0.502 OA
ATOM     21  H   UNL     1       4.034   6.841  -8.578  1.00  0.00     0.293 HD
ENDBRANCH   2  20
BRANCH   6  22
ATOM     22  O   UNL     1      -0.730   4.451 -10.281  1.00  0.00    -0.507 OA
ATOM     23  H   UNL     1      -0.032   4.901 -10.853  1.00  0.00     0.293 HD
ENDBRANCH   6  22
BRANCH   8  24
ATOM     24  O   UNL     1      -2.934   3.013  -6.265  1.00  0.00    -0.508 OA
ATOM     25  H   UNL     1      -2.780   2.064  -5.943  1.00  0.00     0.293 HD
ENDBRANCH   8  24
TORSDOF 5
ENDMDL
MODEL 5
REMARK VINA RESULT:    -7.092      2.420      3.621
REMARK INTER + INTRA:          -8.607
REMARK INTER:                  -8.346
REMARK INTRA:                  -0.261
REMARK UNBOUND:                -0.271
REMARK SMILES O=c1c(O)c(-c2ccc(O)cc2)oc2cc(O)cc(O)c12
REMARK SMILES IDX 5 1 3 2 2 3 1 4 21 5 19 6 18 7 16 8 15 9 14 10 13 11 6 12
REMARK SMILES IDX 7 13 8 14 9 15 12 16 11 17 10 18 4 20 20 22 17 24
REMARK H PARENT 10 19 4 21 20 23 17 25
REMARK Flexibility Score: inf
ROOT
ATOM      1  C   UNL     1      -2.507  -0.549   4.341  1.00  0.00     0.180 A 
ATOM      2  C   UNL     1      -1.782   0.240   3.431  1.00  0.00     0.208 A 
ATOM      3  C   UNL     1      -1.953   1.634   3.453  1.00  0.00     0.238 A 
ATOM      4  O   UNL     1      -1.344   2.331   2.601  1.00  0.00    -0.285 OA
ATOM      5  C   UNL     1      -2.832   2.222   4.394  1.00  0.00     0.111 A 
ATOM      6  C   UNL     1      -3.051   3.625   4.532  1.00  0.00     0.134 A 
ATOM      7  C   UNL     1      -4.042   4.087   5.408  1.00  0.00     0.093 A 
ATOM      8  C   UNL     1      -4.775   3.199   6.199  1.00  0.00     0.123 A 
ATOM      9  C   UNL     1      -4.526   1.831   6.114  1.00  0.00     0.094 A 
ATOM     10  C   UNL     1      -3.570   1.337   5.223  1.00  0.00     0.146 A 
ATOM     11  O   UNL     1      -3.373   0.026   5.167  1.00  0.00    -0.452 OA
ENDROOT
BRANCH   1  12
ATOM     12  C   UNL     1      -2.362  -2.022   4.396  1.00  0.00     0.021 A 
ATOM     13  C   UNL     1      -3.063  -2.821   3.478  1.00  0.00     0.016 A 
ATOM     14  C   UNL     1      -2.958  -4.214   3.527  1.00  0.00     0.047 A 
ATOM     15  C   UNL     1      -2.162  -4.827   4.503  1.00  0.00     0.115 A 
ATOM     16  C   UNL     1      -1.579  -2.646   5.386  1.00  0.00     0.016 A 
ATOM     17  C   UNL     1      -1.477  -4.039   5.433  1.00  0.00     0.047 A 
BRANCH  15  18
ATOM     18  O   UNL     1      -2.049  -6.214   4.560  1.00  0.00    -0.508 OA
ATOM     19  H   UNL     1      -1.626  -6.742   3.805  1.00  0.00     0.293 HD
ENDBRANCH  15  18
ENDBRANCH   1  12
BRANCH   2  20
ATOM     20  O   UNL     1      -0.936  -0.362   2.496  1.00  0.00    -0.502 OA
ATOM     21  H   UNL     1      -1.268  -1.034   1.815  1.00  0.00     0.293 HD
ENDBRANCH   2  20
BRANCH   6  22
ATOM     22  O   UNL     1      -2.310   4.600   3.858  1.00  0.00    -0.507 OA
ATOM     23  H   UNL     1      -1.347   4.828   4.053  1.00  0.00     0.293 HD
ENDBRANCH   6  22
BRANCH   8  24
ATOM     24  O   UNL     1      -5.746   3.667   7.079  1.00  0.00    -0.508 OA
ATOM     25  H   UNL     1      -5.498   4.092   7.966  1.00  0.00     0.293 HD
ENDBRANCH   8  24
TORSDOF 5
ENDMDL
MODEL 6
REMARK VINA RESULT:    -6.998      1.915      7.072
REMARK INTER + INTRA:          -8.497
REMARK INTER:                  -8.208
REMARK INTRA:                  -0.288
REMARK UNBOUND:                -0.271
REMARK SMILES O=c1c(O)c(-c2ccc(O)cc2)oc2cc(O)cc(O)c12
REMARK SMILES IDX 5 1 3 2 2 3 1 4 21 5 19 6 18 7 16 8 15 9 14 10 13 11 6 12
REMARK SMILES IDX 7 13 8 14 9 15 12 16 11 17 10 18 4 20 20 22 17 24
REMARK H PARENT 10 19 4 21 20 23 17 25
REMARK Flexibility Score: inf
ROOT
ATOM      1  C   UNL     1      -2.634  -0.897   4.714  1.00  0.00     0.180 A 
ATOM      2  C   UNL     1      -2.225  -1.808   3.723  1.00  0.00     0.208 A 
ATOM      3  C   UNL     1      -2.491  -3.175   3.903  1.00  0.00     0.238 A 
ATOM      4  O   UNL     1      -2.076  -3.990   3.039  1.00  0.00    -0.285 OA
ATOM      5  C   UNL     1      -3.175  -3.613   5.063  1.00  0.00     0.111 A 
ATOM      6  C   UNL     1      -3.532  -4.969   5.329  1.00  0.00     0.134 A 
ATOM      7  C   UNL     1      -4.090  -5.305   6.569  1.00  0.00     0.093 A 
ATOM      8  C   UNL     1      -4.365  -4.324   7.525  1.00  0.00     0.123 A 
ATOM      9  C   UNL     1      -4.075  -2.990   7.250  1.00  0.00     0.094 A 
ATOM     10  C   UNL     1      -3.483  -2.628   6.037  1.00  0.00     0.146 A 
ATOM     11  O   UNL     1      -3.214  -1.347   5.821  1.00  0.00    -0.452 OA
ENDROOT
BRANCH   1  12
ATOM     12  C   UNL     1      -2.412   0.561   4.584  1.00  0.00     0.021 A 
ATOM     13  C   UNL     1      -3.356   1.346   3.902  1.00  0.00     0.016 A 
ATOM     14  C   UNL     1      -3.155   2.721   3.748  1.00  0.00     0.047 A 
ATOM     15  C   UNL     1      -2.001   3.325   4.261  1.00  0.00     0.115 A 
ATOM     16  C   UNL     1      -1.245   1.172   5.080  1.00  0.00     0.016 A 
ATOM     17  C   UNL     1      -1.047   2.547   4.923  1.00  0.00     0.047 A 
BRANCH  15  18
ATOM     18  O   UNL     1      -1.790   4.694   4.114  1.00  0.00    -0.508 OA
ATOM     19  H   UNL     1      -1.335   5.241   4.837  1.00  0.00     0.293 HD
ENDBRANCH  15  18
ENDBRANCH   1  12
BRANCH   2  20
ATOM     20  O   UNL     1      -1.533  -1.356   2.596  1.00  0.00    -0.502 OA
ATOM     21  H   UNL     1      -0.710  -1.827   2.239  1.00  0.00     0.293 HD
ENDBRANCH   2  20
BRANCH   6  22
ATOM     22  O   UNL     1      -3.385  -6.009   4.407  1.00  0.00    -0.507 OA
ATOM     23  H   UNL     1      -3.754  -6.003   3.469  1.00  0.00     0.293 HD
ENDBRANCH   6  22
BRANCH   8  24
ATOM     24  O   UNL     1      -4.935  -4.665   8.749  1.00  0.00    -0.508 OA
ATOM     25  H   UNL     1      -5.938  -4.776   8.853  1.00  0.00     0.293 HD
ENDBRANCH   8  24
TORSDOF 5
ENDMDL
MODEL 7
REMARK VINA RESULT:    -6.941     12.428     14.046
REMARK INTER + INTRA:          -8.429
REMARK INTER:                  -8.243
REMARK INTRA:                  -0.186
REMARK UNBOUND:                -0.271
REMARK SMILES O=c1c(O)c(-c2ccc(O)cc2)oc2cc(O)cc(O)c12
REMARK SMILES IDX 5 1 3 2 2 3 1 4 21 5 19 6 18 7 16 8 15 9 14 10 13 11 6 12
REMARK SMILES IDX 7 13 8 14 9 15 12 16 11 17 10 18 4 20 20 22 17 24
REMARK H PARENT 10 19 4 21 20 23 17 25
REMARK Flexibility Score: inf
ROOT
ATOM      1  C   UNL     1      -4.160   1.137  -7.971  1.00  0.00     0.180 A 
ATOM      2  C   UNL     1      -3.955   1.360  -9.345  1.00  0.00     0.208 A 
ATOM      3  C   UNL     1      -3.015   2.324  -9.745  1.00  0.00     0.238 A 
ATOM      4  O   UNL     1      -2.875   2.558 -10.973  1.00  0.00    -0.285 OA
ATOM      5  C   UNL     1      -2.282   3.041  -8.769  1.00  0.00     0.111 A 
ATOM      6  C   UNL     1      -1.277   4.011  -9.062  1.00  0.00     0.134 A 
ATOM      7  C   UNL     1      -0.709   4.754  -8.019  1.00  0.00     0.093 A 
ATOM      8  C   UNL     1      -1.063   4.514  -6.688  1.00  0.00     0.123 A 
ATOM      9  C   UNL     1      -1.999   3.527  -6.389  1.00  0.00     0.094 A 
ATOM     10  C   UNL     1      -2.610   2.795  -7.410  1.00  0.00     0.146 A 
ATOM     11  O   UNL     1      -3.505   1.872  -7.081  1.00  0.00    -0.452 OA
ENDROOT
BRANCH   1  12
ATOM     12  C   UNL     1      -5.114   0.121  -7.472  1.00  0.00     0.021 A 
ATOM     13  C   UNL     1      -6.241   0.530  -6.740  1.00  0.00     0.016 A 
ATOM     14  C   UNL     1      -7.142  -0.415  -6.240  1.00  0.00     0.047 A 
ATOM     15  C   UNL     1      -6.920  -1.781  -6.453  1.00  0.00     0.115 A 
ATOM     16  C   UNL     1      -4.888  -1.255  -7.666  1.00  0.00     0.016 A 
ATOM     17  C   UNL     1      -5.790  -2.197  -7.164  1.00  0.00     0.047 A 
BRANCH  15  18
ATOM     18  O   UNL     1      -7.812  -2.732  -5.961  1.00  0.00    -0.508 OA
ATOM     19  H   UNL     1      -7.626  -3.725  -6.043  1.00  0.00     0.293 HD
ENDBRANCH  15  18
ENDBRANCH   1  12
BRANCH   2  20
ATOM     20  O   UNL     1      -4.705   0.656 -10.291  1.00  0.00    -0.502 OA
ATOM     21  H   UNL     1      -4.891   1.021 -11.217  1.00  0.00     0.293 HD
ENDBRANCH   2  20
BRANCH   6  22
ATOM     22  O   UNL     1      -0.787   4.263 -10.346  1.00  0.00    -0.507 OA
ATOM     23  H   UNL     1      -1.353   4.539 -11.134  1.00  0.00     0.293 HD
ENDBRANCH   6  22
BRANCH   8  24
ATOM     24  O   UNL     1      -0.481   5.245  -5.656  1.00  0.00    -0.508 OA
ATOM     25  H   UNL     1      -1.044   5.700  -4.946  1.00  0.00     0.293 HD
ENDBRANCH   8  24
TORSDOF 5
ENDMDL
MODEL 8
REMARK VINA RESULT:    -6.830      1.872      6.690
REMARK INTER + INTRA:          -8.299
REMARK INTER:                  -8.482
REMARK INTRA:                   0.183
REMARK UNBOUND:                -0.271
REMARK SMILES O=c1c(O)c(-c2ccc(O)cc2)oc2cc(O)cc(O)c12
REMARK SMILES IDX 5 1 3 2 2 3 1 4 21 5 19 6 18 7 16 8 15 9 14 10 13 11 6 12
REMARK SMILES IDX 7 13 8 14 9 15 12 16 11 17 10 18 4 20 20 22 17 24
REMARK H PARENT 10 19 4 21 20 23 17 25
REMARK Flexibility Score: inf
ROOT
ATOM      1  C   UNL     1      -2.616  -0.539   4.969  1.00  0.00     0.180 A 
ATOM      2  C   UNL     1      -3.583  -0.583   5.990  1.00  0.00     0.208 A 
ATOM      3  C   UNL     1      -4.096  -1.828   6.387  1.00  0.00     0.238 A 
ATOM      4  O   UNL     1      -5.000  -1.858   7.262  1.00  0.00    -0.285 OA
ATOM      5  C   UNL     1      -3.626  -3.014   5.772  1.00  0.00     0.111 A 
ATOM      6  C   UNL     1      -4.047  -4.331   6.125  1.00  0.00     0.134 A 
ATOM      7  C   UNL     1      -3.614  -5.422   5.361  1.00  0.00     0.093 A 
ATOM      8  C   UNL     1      -2.722  -5.249   4.298  1.00  0.00     0.123 A 
ATOM      9  C   UNL     1      -2.260  -3.973   3.986  1.00  0.00     0.094 A 
ATOM     10  C   UNL     1      -2.702  -2.861   4.705  1.00  0.00     0.146 A 
ATOM     11  O   UNL     1      -2.244  -1.662   4.367  1.00  0.00    -0.452 OA
ENDROOT
BRANCH   1  12
ATOM     12  C   UNL     1      -2.010   0.732   4.513  1.00  0.00     0.021 A 
ATOM     13  C   UNL     1      -1.666   1.713   5.458  1.00  0.00     0.016 A 
ATOM     14  C   UNL     1      -1.113   2.930   5.048  1.00  0.00     0.047 A 
ATOM     15  C   UNL     1      -0.911   3.187   3.686  1.00  0.00     0.115 A 
ATOM     16  C   UNL     1      -1.822   1.006   3.146  1.00  0.00     0.016 A 
ATOM     17  C   UNL     1      -1.270   2.224   2.738  1.00  0.00     0.047 A 
BRANCH  15  18
ATOM     18  O   UNL     1      -0.360   4.395   3.265  1.00  0.00    -0.508 OA
ATOM     19  H   UNL     1      -0.372   4.672   2.290  1.00  0.00     0.293 HD
ENDBRANCH  15  18
ENDBRANCH   1  12
BRANCH   2  20
ATOM     20  O   UNL     1      -4.049   0.601   6.568  1.00  0.00    -0.502 OA
ATOM     21  H   UNL     1      -5.036   0.795   6.689  1.00  0.00     0.293 HD
ENDBRANCH   2  20
BRANCH   6  22
ATOM     22  O   UNL     1      -4.862  -4.622   7.222  1.00  0.00    -0.507 OA
ATOM     23  H   UNL     1      -4.621  -5.264   7.963  1.00  0.00     0.293 HD
ENDBRANCH   6  22
BRANCH   8  24
ATOM     24  O   UNL     1      -2.283  -6.341   3.554  1.00  0.00    -0.508 OA
ATOM     25  H   UNL     1      -2.845  -6.735   2.808  1.00  0.00     0.293 HD
ENDBRANCH   8  24
TORSDOF 5
ENDMDL
MODEL 9
REMARK VINA RESULT:    -6.795      1.669      3.160
REMARK INTER + INTRA:          -8.257
REMARK INTER:                  -8.000
REMARK INTRA:                  -0.257
REMARK UNBOUND:                -0.271
REMARK SMILES O=c1c(O)c(-c2ccc(O)cc2)oc2cc(O)cc(O)c12
REMARK SMILES IDX 5 1 3 2 2 3 1 4 21 5 19 6 18 7 16 8 15 9 14 10 13 11 6 12
REMARK SMILES IDX 7 13 8 14 9 15 12 16 11 17 10 18 4 20 20 22 17 24
REMARK H PARENT 10 19 4 21 20 23 17 25
REMARK Flexibility Score: inf
ROOT
ATOM      1  C   UNL     1      -2.145  -0.990   5.016  1.00  0.00     0.180 A 
ATOM      2  C   UNL     1      -1.742  -0.739   3.692  1.00  0.00     0.208 A 
ATOM      3  C   UNL     1      -1.401   0.572   3.321  1.00  0.00     0.238 A 
ATOM      4  O   UNL     1      -1.094   0.800   2.123  1.00  0.00    -0.285 OA
ATOM      5  C   UNL     1      -1.451   1.611   4.282  1.00  0.00     0.111 A 
ATOM      6  C   UNL     1      -1.088   2.967   4.027  1.00  0.00     0.134 A 
ATOM      7  C   UNL     1      -1.301   3.937   5.015  1.00  0.00     0.093 A 
ATOM      8  C   UNL     1      -1.803   3.586   6.271  1.00  0.00     0.123 A 
ATOM      9  C   UNL     1      -2.103   2.255   6.548  1.00  0.00     0.094 A 
ATOM     10  C   UNL     1      -1.936   1.271   5.572  1.00  0.00     0.146 A 
ATOM     11  O   UNL     1      -2.244   0.017   5.875  1.00  0.00    -0.452 OA
ENDROOT
BRANCH   1  12
ATOM     12  C   UNL     1      -2.496  -2.349   5.488  1.00  0.00     0.021 A 
ATOM     13  C   UNL     1      -3.843  -2.678   5.709  1.00  0.00     0.016 A 
ATOM     14  C   UNL     1      -4.194  -3.948   6.177  1.00  0.00     0.047 A 
ATOM     15  C   UNL     1      -3.202  -4.900   6.443  1.00  0.00     0.115 A 
ATOM     16  C   UNL     1      -1.503  -3.305   5.776  1.00  0.00     0.016 A 
ATOM     17  C   UNL     1      -1.857  -4.573   6.244  1.00  0.00     0.047 A 
BRANCH  15  18
ATOM     18  O   UNL     1      -3.540  -6.169   6.907  1.00  0.00    -0.508 OA
ATOM     19  H   UNL     1      -4.010  -6.300   7.796  1.00  0.00     0.293 HD
ENDBRANCH  15  18
ENDBRANCH   1  12
BRANCH   2  20
ATOM     20  O   UNL     1      -1.721  -1.776   2.755  1.00  0.00    -0.502 OA
ATOM     21  H   UNL     1      -2.565  -2.226   2.422  1.00  0.00     0.293 HD
ENDBRANCH   2  20
BRANCH   6  22
ATOM     22  O   UNL     1      -0.495   3.406   2.840  1.00  0.00    -0.507 OA
ATOM     23  H   UNL     1      -0.690   4.288   2.390  1.00  0.00     0.293 HD
ENDBRANCH   6  22
BRANCH   8  24
ATOM     24  O   UNL     1      -1.996   4.554   7.254  1.00  0.00    -0.508 OA
ATOM     25  H   UNL     1      -2.616   4.394   8.040  1.00  0.00     0.293 HD
ENDBRANCH   8  24
TORSDOF 5
ENDMDL
