MODEL 1
REMARK VINA RESULT:    -4.474      0.000      0.000
REMARK INTER + INTRA:         -14.361
REMARK INTER:                 -10.228
REMARK INTRA:                  -4.133
REMARK UNBOUND:                -4.133
REMARK SMILES CCCCCCCCCCCCCCCCCCCCCCCC(=O)[O-]
REMARK SMILES IDX 13 1 14 2 15 3 16 4 17 5 18 6 19 7 20 8 21 9 22 10 23 11
REMARK SMILES IDX 24 12 25 13 26 14 12 15 11 16 10 17 9 18 8 19 7 20 6 21 5 22
REMARK SMILES IDX 4 23 3 24 2 25 1 26
REMARK H PARENT
REMARK Flexibility Score: inf
ROOT
ATOM      1  C   UNL     1      15.137 -13.137  38.867  1.00  0.00     0.000 C 
ENDROOT
BRANCH   1   2
ATOM      2  C   UNL     1      15.600 -14.301  39.758  1.00  0.00     0.000 C 
BRANCH   2   3
ATOM      3  C   UNL     1      14.542 -15.415  39.885  1.00  0.00     0.000 C 
BRANCH   3   4
ATOM      4  C   UNL     1      15.106 -16.850  39.945  1.00  0.00     0.000 C 
BRANCH   4   5
ATOM      5  C   UNL     1      15.021 -17.647  38.628  1.00  0.00     0.000 C 
BRANCH   5   6
ATOM      6  C   UNL     1      13.858 -17.237  37.705  1.00  0.00     0.000 C 
BRANCH   6   7
ATOM      7  C   UNL     1      14.331 -16.901  36.278  1.00  0.00     0.000 C 
BRANCH   7   8
ATOM      8  C   UNL     1      15.833 -17.158  36.082  1.00  0.00     0.000 C 
BRANCH   8   9
ATOM      9  C   UNL     1      16.618 -15.853  35.860  1.00  0.00     0.000 C 
BRANCH   9  10
ATOM     10  C   UNL     1      17.468 -15.458  37.080  1.00  0.00     0.006 C 
BRANCH  10  11
ATOM     11  C   UNL     1      18.420 -14.288  36.791  1.00  0.00     0.053 C 
BRANCH  11  12
ATOM     12  C   UNL     1      17.934 -13.495  35.619  1.00  0.00     0.041 C 
ATOM     13  O   UNL     1      16.892 -12.794  35.717  1.00  0.00    -0.550 OA
ATOM     14  O   UNL     1      18.650 -13.504  34.429  1.00  0.00    -0.550 OA
ENDBRANCH  11  12
ENDBRANCH  10  11
ENDBRANCH   9  10
ENDBRANCH   8   9
ENDBRANCH   7   8
ENDBRANCH   6   7
ENDBRANCH   5   6
ENDBRANCH   4   5
ENDBRANCH   3   4
ENDBRANCH   2   3
ENDBRANCH   1   2
BRANCH   1  15
ATOM     15  C   UNL     1      14.145 -13.612  37.799  1.00  0.00     0.000 C 
BRANCH  15  16
ATOM     16  C   UNL     1      12.876 -12.746  37.802  1.00  0.00     0.000 C 
BRANCH  16  17
ATOM     17  C   UNL     1      11.792 -13.258  38.765  1.00  0.00     0.000 C 
BRANCH  17  18
ATOM     18  C   UNL     1      11.229 -14.650  38.402  1.00  0.00    -0.000 C 
BRANCH  18  19
ATOM     19  C   UNL     1      10.801 -15.516  39.607  1.00  0.00    -0.000 C 
BRANCH  19  20
ATOM     20  C   UNL     1      10.907 -17.041  39.409  1.00  0.00    -0.000 C 
BRANCH  20  21
ATOM     21  C   UNL     1      11.158 -17.810  40.716  1.00  0.00    -0.000 C 
BRANCH  21  22
ATOM     22  C   UNL     1      11.494 -19.279  40.431  1.00  0.00    -0.000 C 
BRANCH  22  23
ATOM     23  C   UNL     1      12.874 -19.647  40.989  1.00  0.00    -0.000 C 
BRANCH  23  24
ATOM     24  C   UNL     1      13.536 -20.743  40.138  1.00  0.00    -0.000 C 
BRANCH  24  25
ATOM     25  C   UNL     1      13.030 -20.754  38.688  1.00  0.00    -0.003 C 
ATOM     26  C   UNL     1      12.625 -22.149  38.211  1.00  0.00     0.004 C 
ENDBRANCH  24  25
ENDBRANCH  23  24
ENDBRANCH  22  23
ENDBRANCH  21  22
ENDBRANCH  20  21
ENDBRANCH  19  20
ENDBRANCH  18  19
ENDBRANCH  17  18
ENDBRANCH  16  17
ENDBRANCH  15  16
ENDBRANCH   1  15
TORSDOF 22
ENDMDL
MODEL 2
REMARK VINA RESULT:    -4.377      3.764      6.120
REMARK INTER + INTRA:         -14.140
REMARK INTER:                  -9.794
REMARK INTRA:                  -4.346
REMARK UNBOUND:                -4.133
REMARK SMILES CCCCCCCCCCCCCCCCCCCCCCCC(=O)[O-]
REMARK SMILES IDX 13 1 14 2 15 3 16 4 17 5 18 6 19 7 20 8 21 9 22 10 23 11
REMARK SMILES IDX 24 12 25 13 26 14 12 15 11 16 10 17 9 18 8 19 7 20 6 21 5 22
REMARK SMILES IDX 4 23 3 24 2 25 1 26
REMARK H PARENT
REMARK Flexibility Score: inf
ROOT
ATOM      1  C   UNL     1      15.553 -15.385  35.816  1.00  0.00     0.000 C 
ENDROOT
BRANCH   1   2
ATOM      2  C   UNL     1      15.612 -16.893  36.106  1.00  0.00     0.000 C 
BRANCH   2   3
ATOM      3  C   UNL     1      16.861 -17.299  36.913  1.00  0.00     0.000 C 
BRANCH   3   4
ATOM      4  C   UNL     1      16.573 -18.045  38.233  1.00  0.00     0.000 C 
BRANCH   4   5
ATOM      5  C   UNL     1      15.087 -18.351  38.506  1.00  0.00     0.000 C 
BRANCH   5   6
ATOM      6  C   UNL     1      14.729 -18.516  39.994  1.00  0.00     0.000 C 
BRANCH   6   7
ATOM      7  C   UNL     1      13.436 -19.326  40.202  1.00  0.00     0.000 C 
BRANCH   7   8
ATOM      8  C   UNL     1      13.700 -20.701  40.834  1.00  0.00     0.000 C 
BRANCH   8   9
ATOM      9  C   UNL     1      13.486 -21.849  39.832  1.00  0.00     0.000 C 
BRANCH   9  10
ATOM     10  C   UNL     1      14.681 -22.037  38.882  1.00  0.00     0.006 C 
BRANCH  10  11
ATOM     11  C   UNL     1      14.534 -23.267  37.975  1.00  0.00     0.053 C 
BRANCH  11  12
ATOM     12  C   UNL     1      15.645 -24.238  38.224  1.00  0.00     0.041 C 
ATOM     13  O   UNL     1      16.438 -24.545  37.295  1.00  0.00    -0.550 OA
ATOM     14  O   UNL     1      15.823 -24.780  39.490  1.00  0.00    -0.550 OA
ENDBRANCH  11  12
ENDBRANCH  10  11
ENDBRANCH   9  10
ENDBRANCH   8   9
ENDBRANCH   7   8
ENDBRANCH   6   7
ENDBRANCH   5   6
ENDBRANCH   4   5
ENDBRANCH   3   4
ENDBRANCH   2   3
ENDBRANCH   1   2
BRANCH   1  15
ATOM     15  C   UNL     1      16.959 -14.777  35.738  1.00  0.00     0.000 C 
BRANCH  15  16
ATOM     16  C   UNL     1      17.084 -13.559  36.666  1.00  0.00     0.000 C 
BRANCH  16  17
ATOM     17  C   UNL     1      15.931 -13.444  37.676  1.00  0.00     0.000 C 
BRANCH  17  18
ATOM     18  C   UNL     1      16.281 -13.939  39.098  1.00  0.00    -0.000 C 
BRANCH  18  19
ATOM     19  C   UNL     1      15.198 -14.806  39.774  1.00  0.00    -0.000 C 
BRANCH  19  20
ATOM     20  C   UNL     1      13.881 -14.968  38.988  1.00  0.00    -0.000 C 
BRANCH  20  21
ATOM     21  C   UNL     1      12.730 -15.532  39.837  1.00  0.00    -0.000 C 
BRANCH  21  22
ATOM     22  C   UNL     1      11.772 -16.365  38.975  1.00  0.00    -0.000 C 
BRANCH  22  23
ATOM     23  C   UNL     1      12.110 -16.228  37.486  1.00  0.00    -0.000 C 
BRANCH  23  24
ATOM     24  C   UNL     1      11.329 -17.253  36.649  1.00  0.00    -0.000 C 
BRANCH  24  25
ATOM     25  C   UNL     1      11.448 -18.682  37.200  1.00  0.00    -0.003 C 
ATOM     26  C   UNL     1      12.437 -19.542  36.412  1.00  0.00     0.004 C 
ENDBRANCH  24  25
ENDBRANCH  23  24
ENDBRANCH  22  23
ENDBRANCH  21  22
ENDBRANCH  20  21
ENDBRANCH  19  20
ENDBRANCH  18  19
ENDBRANCH  17  18
ENDBRANCH  16  17
ENDBRANCH  15  16
ENDBRANCH   1  15
TORSDOF 22
ENDMDL
MODEL 3
REMARK VINA RESULT:    -4.347      2.597      5.026
REMARK INTER + INTRA:         -14.071
REMARK INTER:                  -9.676
REMARK INTRA:                  -4.395
REMARK UNBOUND:                -4.133
REMARK SMILES CCCCCCCCCCCCCCCCCCCCCCCC(=O)[O-]
REMARK SMILES IDX 13 1 14 2 15 3 16 4 17 5 18 6 19 7 20 8 21 9 22 10 23 11
REMARK SMILES IDX 24 12 25 13 26 14 12 15 11 16 10 17 9 18 8 19 7 20 6 21 5 22
REMARK SMILES IDX 4 23 3 24 2 25 1 26
REMARK H PARENT
REMARK Flexibility Score: inf
ROOT
ATOM      1  C   UNL     1      14.491 -16.865  35.895  1.00  0.00     0.000 C 
ENDROOT
BRANCH   1   2
ATOM      2  C   UNL     1      15.594 -17.241  36.897  1.00  0.00     0.000 C 
BRANCH   2   3
ATOM      3  C   UNL     1      16.934 -16.539  36.602  1.00  0.00     0.000 C 
BRANCH   3   4
ATOM      4  C   UNL     1      16.820 -15.201  35.843  1.00  0.00     0.000 C 
BRANCH   4   5
ATOM      5  C   UNL     1      16.980 -13.936  36.710  1.00  0.00     0.000 C 
BRANCH   5   6
ATOM      6  C   UNL     1      17.127 -14.207  38.219  1.00  0.00     0.000 C 
BRANCH   6   7
ATOM      7  C   UNL     1      15.908 -13.724  39.024  1.00  0.00     0.000 C 
BRANCH   7   8
ATOM      8  C   UNL     1      15.207 -14.870  39.772  1.00  0.00     0.000 C 
BRANCH   8   9
ATOM      9  C   UNL     1      13.730 -15.008  39.364  1.00  0.00     0.000 C 
BRANCH   9  10
ATOM     10  C   UNL     1      13.330 -14.031  38.245  1.00  0.00     0.006 C 
BRANCH  10  11
ATOM     11  C   UNL     1      11.830 -14.080  37.918  1.00  0.00     0.053 C 
BRANCH  11  12
ATOM     12  C   UNL     1      11.028 -13.538  39.059  1.00  0.00     0.041 C 
ATOM     13  O   UNL     1      10.267 -14.298  39.715  1.00  0.00    -0.550 OA
ATOM     14  O   UNL     1      11.144 -12.201  39.418  1.00  0.00    -0.550 OA
ENDBRANCH  11  12
ENDBRANCH  10  11
ENDBRANCH   9  10
ENDBRANCH   8   9
ENDBRANCH   7   8
ENDBRANCH   6   7
ENDBRANCH   5   6
ENDBRANCH   4   5
ENDBRANCH   3   4
ENDBRANCH   2   3
ENDBRANCH   1   2
BRANCH   1  15
ATOM     15  C   UNL     1      13.104 -17.254  36.421  1.00  0.00     0.000 C 
BRANCH  15  16
ATOM     16  C   UNL     1      13.200 -18.419  37.418  1.00  0.00     0.000 C 
BRANCH  16  17
ATOM     17  C   UNL     1      12.181 -18.321  38.566  1.00  0.00     0.000 C 
BRANCH  17  18
ATOM     18  C   UNL     1      12.805 -18.407  39.977  1.00  0.00    -0.000 C 
BRANCH  18  19
ATOM     19  C   UNL     1      14.335 -18.618  40.002  1.00  0.00    -0.000 C 
BRANCH  19  20
ATOM     20  C   UNL     1      14.809 -20.083  40.090  1.00  0.00    -0.000 C 
BRANCH  20  21
ATOM     21  C   UNL     1      13.804 -21.009  40.794  1.00  0.00    -0.000 C 
BRANCH  21  22
ATOM     22  C   UNL     1      13.336 -22.125  39.851  1.00  0.00    -0.000 C 
BRANCH  22  23
ATOM     23  C   UNL     1      14.169 -22.146  38.564  1.00  0.00    -0.000 C 
BRANCH  23  24
ATOM     24  C   UNL     1      13.277 -22.386  37.337  1.00  0.00    -0.000 C 
BRANCH  24  25
ATOM     25  C   UNL     1      11.786 -22.159  37.634  1.00  0.00    -0.003 C 
ATOM     26  C   UNL     1      11.096 -21.294  36.579  1.00  0.00     0.004 C 
ENDBRANCH  24  25
ENDBRANCH  23  24
ENDBRANCH  22  23
ENDBRANCH  21  22
ENDBRANCH  20  21
ENDBRANCH  19  20
ENDBRANCH  18  19
ENDBRANCH  17  18
ENDBRANCH  16  17
ENDBRANCH  15  16
ENDBRANCH   1  15
TORSDOF 22
ENDMDL
MODEL 4
REMARK VINA RESULT:    -4.285      2.340      4.789
REMARK INTER + INTRA:         -13.929
REMARK INTER:                  -9.563
REMARK INTRA:                  -4.366
REMARK UNBOUND:                -4.133
REMARK SMILES CCCCCCCCCCCCCCCCCCCCCCCC(=O)[O-]
REMARK SMILES IDX 13 1 14 2 15 3 16 4 17 5 18 6 19 7 20 8 21 9 22 10 23 11
REMARK SMILES IDX 24 12 25 13 26 14 12 15 11 16 10 17 9 18 8 19 7 20 6 21 5 22
REMARK SMILES IDX 4 23 3 24 2 25 1 26
REMARK H PARENT
REMARK Flexibility Score: inf
ROOT
ATOM      1  C   UNL     1      14.824 -16.627  36.022  1.00  0.00     0.000 C 
ENDROOT
BRANCH   1   2
ATOM      2  C   UNL     1      16.193 -16.904  36.664  1.00  0.00     0.000 C 
BRANCH   2   3
ATOM      3  C   UNL     1      17.189 -15.743  36.476  1.00  0.00     0.000 C 
BRANCH   3   4
ATOM      4  C   UNL     1      16.639 -14.529  35.697  1.00  0.00     0.000 C 
BRANCH   4   5
ATOM      5  C   UNL     1      16.452 -13.244  36.528  1.00  0.00     0.000 C 
BRANCH   5   6
ATOM      6  C   UNL     1      15.090 -13.133  37.239  1.00  0.00     0.000 C 
BRANCH   6   7
ATOM      7  C   UNL     1      15.232 -12.783  38.731  1.00  0.00     0.000 C 
BRANCH   7   8
ATOM      8  C   UNL     1      15.564 -14.011  39.593  1.00  0.00     0.000 C 
BRANCH   8   9
ATOM      9  C   UNL     1      14.654 -15.209  39.268  1.00  0.00     0.000 C 
BRANCH   9  10
ATOM     10  C   UNL     1      13.213 -15.012  39.771  1.00  0.00     0.006 C 
BRANCH  10  11
ATOM     11  C   UNL     1      12.200 -14.848  38.629  1.00  0.00     0.053 C 
BRANCH  11  12
ATOM     12  C   UNL     1      11.326 -13.658  38.870  1.00  0.00     0.041 C 
ATOM     13  O   UNL     1      11.812 -12.497  38.828  1.00  0.00    -0.550 OA
ATOM     14  O   UNL     1       9.969 -13.829  39.111  1.00  0.00    -0.550 OA
ENDBRANCH  11  12
ENDBRANCH  10  11
ENDBRANCH   9  10
ENDBRANCH   8   9
ENDBRANCH   7   8
ENDBRANCH   6   7
ENDBRANCH   5   6
ENDBRANCH   4   5
ENDBRANCH   3   4
ENDBRANCH   2   3
ENDBRANCH   1   2
BRANCH   1  15
ATOM     15  C   UNL     1      14.038 -17.925  35.803  1.00  0.00     0.000 C 
BRANCH  15  16
ATOM     16  C   UNL     1      12.782 -17.964  36.687  1.00  0.00     0.000 C 
BRANCH  16  17
ATOM     17  C   UNL     1      12.151 -19.363  36.783  1.00  0.00     0.000 C 
BRANCH  17  18
ATOM     18  C   UNL     1      11.269 -19.576  38.034  1.00  0.00    -0.000 C 
BRANCH  18  19
ATOM     19  C   UNL     1      11.017 -18.308  38.879  1.00  0.00    -0.000 C 
BRANCH  19  20
ATOM     20  C   UNL     1      11.605 -18.323  40.304  1.00  0.00    -0.000 C 
BRANCH  20  21
ATOM     21  C   UNL     1      12.726 -19.359  40.491  1.00  0.00    -0.000 C 
BRANCH  21  22
ATOM     22  C   UNL     1      14.089 -18.764  40.116  1.00  0.00    -0.000 C 
BRANCH  22  23
ATOM     23  C   UNL     1      14.980 -19.811  39.439  1.00  0.00    -0.000 C 
BRANCH  23  24
ATOM     24  C   UNL     1      14.513 -21.234  39.782  1.00  0.00    -0.000 C 
BRANCH  24  25
ATOM     25  C   UNL     1      14.521 -22.171  38.564  1.00  0.00    -0.003 C 
ATOM     26  C   UNL     1      13.130 -22.699  38.213  1.00  0.00     0.004 C 
ENDBRANCH  24  25
ENDBRANCH  23  24
ENDBRANCH  22  23
ENDBRANCH  21  22
ENDBRANCH  20  21
ENDBRANCH  19  20
ENDBRANCH  18  19
ENDBRANCH  17  18
ENDBRANCH  16  17
ENDBRANCH  15  16
ENDBRANCH   1  15
TORSDOF 22
ENDMDL
MODEL 5
REMARK VINA RESULT:    -4.240      1.555      4.116
REMARK INTER + INTRA:         -13.825
REMARK INTER:                  -9.701
REMARK INTRA:                  -4.125
REMARK UNBOUND:                -4.133
REMARK SMILES CCCCCCCCCCCCCCCCCCCCCCCC(=O)[O-]
REMARK SMILES IDX 13 1 14 2 15 3 16 4 17 5 18 6 19 7 20 8 21 9 22 10 23 11
REMARK SMILES IDX 24 12 25 13 26 14 12 15 11 16 10 17 9 18 8 19 7 20 6 21 5 22
REMARK SMILES IDX 4 23 3 24 2 25 1 26
REMARK H PARENT
REMARK Flexibility Score: inf
ROOT
ATOM      1  C   UNL     1      15.700 -17.224  37.422  1.00  0.00     0.000 C 
ENDROOT
BRANCH   1   2
ATOM      2  C   UNL     1      14.279 -17.597  36.973  1.00  0.00     0.000 C 
BRANCH   2   3
ATOM      3  C   UNL     1      13.290 -16.419  37.073  1.00  0.00     0.000 C 
BRANCH   3   4
ATOM      4  C   UNL     1      12.188 -16.577  38.141  1.00  0.00     0.000 C 
BRANCH   4   5
ATOM      5  C   UNL     1      12.603 -16.201  39.577  1.00  0.00     0.000 C 
BRANCH   5   6
ATOM      6  C   UNL     1      13.355 -14.863  39.697  1.00  0.00     0.000 C 
BRANCH   6   7
ATOM      7  C   UNL     1      14.839 -15.052  40.062  1.00  0.00     0.000 C 
BRANCH   7   8
ATOM      8  C   UNL     1      15.756 -14.068  39.319  1.00  0.00     0.000 C 
BRANCH   8   9
ATOM      9  C   UNL     1      14.992 -13.253  38.260  1.00  0.00     0.000 C 
BRANCH   9  10
ATOM     10  C   UNL     1      15.885 -12.828  37.082  1.00  0.00     0.006 C 
BRANCH  10  11
ATOM     11  C   UNL     1      15.955 -13.889  35.973  1.00  0.00     0.053 C 
BRANCH  11  12
ATOM     12  C   UNL     1      17.378 -14.231  35.665  1.00  0.00     0.041 C 
ATOM     13  O   UNL     1      18.236 -14.261  36.587  1.00  0.00    -0.550 OA
ATOM     14  O   UNL     1      17.751 -14.549  34.365  1.00  0.00    -0.550 OA
ENDBRANCH  11  12
ENDBRANCH  10  11
ENDBRANCH   9  10
ENDBRANCH   8   9
ENDBRANCH   7   8
ENDBRANCH   6   7
ENDBRANCH   5   6
ENDBRANCH   4   5
ENDBRANCH   3   4
ENDBRANCH   2   3
ENDBRANCH   1   2
BRANCH   1  15
ATOM     15  C   UNL     1      16.265 -18.257  38.405  1.00  0.00     0.000 C 
BRANCH  15  16
ATOM     16  C   UNL     1      15.260 -18.556  39.527  1.00  0.00     0.000 C 
BRANCH  16  17
ATOM     17  C   UNL     1      14.890 -20.045  39.631  1.00  0.00     0.000 C 
BRANCH  17  18
ATOM     18  C   UNL     1      13.893 -20.374  40.765  1.00  0.00    -0.000 C 
BRANCH  18  19
ATOM     19  C   UNL     1      12.440 -19.916  40.511  1.00  0.00    -0.000 C 
BRANCH  19  20
ATOM     20  C   UNL     1      11.969 -19.963  39.044  1.00  0.00    -0.000 C 
BRANCH  20  21
ATOM     21  C   UNL     1      10.853 -20.990  38.795  1.00  0.00    -0.000 C 
BRANCH  21  22
ATOM     22  C   UNL     1      11.394 -22.212  38.041  1.00  0.00    -0.000 C 
BRANCH  22  23
ATOM     23  C   UNL     1      12.676 -21.865  37.275  1.00  0.00    -0.000 C 
BRANCH  23  24
ATOM     24  C   UNL     1      13.671 -23.035  37.311  1.00  0.00    -0.000 C 
BRANCH  24  25
ATOM     25  C   UNL     1      13.820 -23.644  38.714  1.00  0.00    -0.003 C 
ATOM     26  C   UNL     1      15.275 -23.720  39.177  1.00  0.00     0.004 C 
ENDBRANCH  24  25
ENDBRANCH  23  24
ENDBRANCH  22  23
ENDBRANCH  21  22
ENDBRANCH  20  21
ENDBRANCH  19  20
ENDBRANCH  18  19
ENDBRANCH  17  18
ENDBRANCH  16  17
ENDBRANCH  15  16
ENDBRANCH   1  15
TORSDOF 22
ENDMDL
MODEL 6
REMARK VINA RESULT:    -4.239      1.238      4.672
REMARK INTER + INTRA:         -13.823
REMARK INTER:                  -9.463
REMARK INTRA:                  -4.360
REMARK UNBOUND:                -4.133
REMARK SMILES CCCCCCCCCCCCCCCCCCCCCCCC(=O)[O-]
REMARK SMILES IDX 13 1 14 2 15 3 16 4 17 5 18 6 19 7 20 8 21 9 22 10 23 11
REMARK SMILES IDX 24 12 25 13 26 14 12 15 11 16 10 17 9 18 8 19 7 20 6 21 5 22
REMARK SMILES IDX 4 23 3 24 2 25 1 26
REMARK H PARENT
REMARK Flexibility Score: inf
ROOT
ATOM      1  C   UNL     1      15.157 -19.212  39.404  1.00  0.00     0.000 C 
ENDROOT
BRANCH   1   2
ATOM      2  C   UNL     1      14.189 -20.402  39.502  1.00  0.00     0.000 C 
BRANCH   2   3
ATOM      3  C   UNL     1      12.742 -19.973  39.814  1.00  0.00     0.000 C 
BRANCH   3   4
ATOM      4  C   UNL     1      11.803 -19.896  38.592  1.00  0.00     0.000 C 
BRANCH   4   5
ATOM      5  C   UNL     1      12.476 -20.149  37.228  1.00  0.00     0.000 C 
BRANCH   5   6
ATOM      6  C   UNL     1      12.407 -18.962  36.249  1.00  0.00     0.000 C 
BRANCH   6   7
ATOM      7  C   UNL     1      12.414 -17.603  36.971  1.00  0.00     0.000 C 
BRANCH   7   8
ATOM      8  C   UNL     1      13.630 -16.743  36.591  1.00  0.00     0.000 C 
BRANCH   8   9
ATOM      9  C   UNL     1      14.757 -17.581  35.964  1.00  0.00     0.000 C 
BRANCH   9  10
ATOM     10  C   UNL     1      16.106 -16.842  35.949  1.00  0.00     0.006 C 
BRANCH  10  11
ATOM     11  C   UNL     1      15.951 -15.318  35.833  1.00  0.00     0.053 C 
BRANCH  11  12
ATOM     12  C   UNL     1      17.266 -14.639  36.049  1.00  0.00     0.041 C 
ATOM     13  O   UNL     1      17.811 -14.001  35.111  1.00  0.00    -0.550 OA
ATOM     14  O   UNL     1      17.875 -14.685  37.297  1.00  0.00    -0.550 OA
ENDBRANCH  11  12
ENDBRANCH  10  11
ENDBRANCH   9  10
ENDBRANCH   8   9
ENDBRANCH   7   8
ENDBRANCH   6   7
ENDBRANCH   5   6
ENDBRANCH   4   5
ENDBRANCH   3   4
ENDBRANCH   2   3
ENDBRANCH   1   2
BRANCH   1  15
ATOM     15  C   UNL     1      14.533 -17.937  39.985  1.00  0.00     0.000 C 
BRANCH  15  16
ATOM     16  C   UNL     1      15.410 -16.711  39.690  1.00  0.00     0.000 C 
BRANCH  16  17
ATOM     17  C   UNL     1      14.699 -15.376  39.963  1.00  0.00     0.000 C 
BRANCH  17  18
ATOM     18  C   UNL     1      15.576 -14.128  39.716  1.00  0.00    -0.000 C 
BRANCH  18  19
ATOM     19  C   UNL     1      14.914 -13.021  38.867  1.00  0.00    -0.000 C 
BRANCH  19  20
ATOM     20  C   UNL     1      14.003 -13.508  37.723  1.00  0.00    -0.000 C 
BRANCH  20  21
ATOM     21  C   UNL     1      12.651 -12.779  37.668  1.00  0.00    -0.000 C 
BRANCH  21  22
ATOM     22  C   UNL     1      12.107 -12.528  39.080  1.00  0.00    -0.000 C 
BRANCH  22  23
ATOM     23  C   UNL     1      10.785 -13.272  39.302  1.00  0.00    -0.000 C 
BRANCH  23  24
ATOM     24  C   UNL     1      10.949 -14.381  40.353  1.00  0.00    -0.000 C 
BRANCH  24  25
ATOM     25  C   UNL     1      11.227 -15.756  39.725  1.00  0.00    -0.003 C 
ATOM     26  C   UNL     1      10.877 -16.916  40.657  1.00  0.00     0.004 C 
ENDBRANCH  24  25
ENDBRANCH  23  24
ENDBRANCH  22  23
ENDBRANCH  21  22
ENDBRANCH  20  21
ENDBRANCH  19  20
ENDBRANCH  18  19
ENDBRANCH  17  18
ENDBRANCH  16  17
ENDBRANCH  15  16
ENDBRANCH   1  15
TORSDOF 22
ENDMDL
MODEL 7
REMARK VINA RESULT:    -4.214      3.664      6.996
REMARK INTER + INTRA:         -13.766
REMARK INTER:                  -9.322
REMARK INTRA:                  -4.444
REMARK UNBOUND:                -4.133
REMARK SMILES CCCCCCCCCCCCCCCCCCCCCCCC(=O)[O-]
REMARK SMILES IDX 13 1 14 2 15 3 16 4 17 5 18 6 19 7 20 8 21 9 22 10 23 11
REMARK SMILES IDX 24 12 25 13 26 14 12 15 11 16 10 17 9 18 8 19 7 20 6 21 5 22
REMARK SMILES IDX 4 23 3 24 2 25 1 26
REMARK H PARENT
REMARK Flexibility Score: inf
ROOT
ATOM      1  C   UNL     1      15.917 -18.055  38.498  1.00  0.00     0.000 C 
ENDROOT
BRANCH   1   2
ATOM      2  C   UNL     1      14.892 -18.440  39.576  1.00  0.00     0.000 C 
BRANCH   2   3
ATOM      3  C   UNL     1      14.827 -19.960  39.824  1.00  0.00     0.000 C 
BRANCH   3   4
ATOM      4  C   UNL     1      13.704 -20.420  40.778  1.00  0.00     0.000 C 
BRANCH   4   5
ATOM      5  C   UNL     1      12.487 -19.477  40.866  1.00  0.00     0.000 C 
BRANCH   5   6
ATOM      6  C   UNL     1      11.188 -20.050  40.270  1.00  0.00     0.000 C 
BRANCH   6   7
ATOM      7  C   UNL     1      11.065 -19.779  38.760  1.00  0.00     0.000 C 
BRANCH   7   8
ATOM      8  C   UNL     1      11.189 -21.062  37.922  1.00  0.00     0.000 C 
BRANCH   8   9
ATOM      9  C   UNL     1      12.510 -21.113  37.135  1.00  0.00     0.000 C 
BRANCH   9  10
ATOM     10  C   UNL     1      13.189 -22.492  37.205  1.00  0.00     0.006 C 
BRANCH  10  11
ATOM     11  C   UNL     1      12.996 -23.184  38.562  1.00  0.00     0.053 C 
BRANCH  11  12
ATOM     12  C   UNL     1      14.193 -24.015  38.901  1.00  0.00     0.041 C 
ATOM     13  O   UNL     1      15.153 -23.511  39.542  1.00  0.00    -0.550 OA
ATOM     14  O   UNL     1      14.234 -25.355  38.537  1.00  0.00    -0.550 OA
ENDBRANCH  11  12
ENDBRANCH  10  11
ENDBRANCH   9  10
ENDBRANCH   8   9
ENDBRANCH   7   8
ENDBRANCH   6   7
ENDBRANCH   5   6
ENDBRANCH   4   5
ENDBRANCH   3   4
ENDBRANCH   2   3
ENDBRANCH   1   2
BRANCH   1  15
ATOM     15  C   UNL     1      15.264 -17.246  37.371  1.00  0.00     0.000 C 
BRANCH  15  16
ATOM     16  C   UNL     1      13.783 -17.621  37.211  1.00  0.00     0.000 C 
BRANCH  16  17
ATOM     17  C   UNL     1      12.836 -16.413  37.310  1.00  0.00     0.000 C 
BRANCH  17  18
ATOM     18  C   UNL     1      11.888 -16.449  38.529  1.00  0.00    -0.000 C 
BRANCH  18  19
ATOM     19  C   UNL     1      12.444 -15.790  39.810  1.00  0.00    -0.000 C 
BRANCH  19  20
ATOM     20  C   UNL     1      13.420 -14.617  39.591  1.00  0.00    -0.000 C 
BRANCH  20  21
ATOM     21  C   UNL     1      14.838 -14.896  40.116  1.00  0.00    -0.000 C 
BRANCH  21  22
ATOM     22  C   UNL     1      15.889 -14.168  39.268  1.00  0.00    -0.000 C 
BRANCH  22  23
ATOM     23  C   UNL     1      15.261 -13.004  38.492  1.00  0.00    -0.000 C 
BRANCH  23  24
ATOM     24  C   UNL     1      15.647 -13.064  37.006  1.00  0.00    -0.000 C 
BRANCH  24  25
ATOM     25  C   UNL     1      16.958 -13.828  36.765  1.00  0.00    -0.003 C 
ATOM     26  C   UNL     1      16.984 -14.551  35.418  1.00  0.00     0.004 C 
ENDBRANCH  24  25
ENDBRANCH  23  24
ENDBRANCH  22  23
ENDBRANCH  21  22
ENDBRANCH  20  21
ENDBRANCH  19  20
ENDBRANCH  18  19
ENDBRANCH  17  18
ENDBRANCH  16  17
ENDBRANCH  15  16
ENDBRANCH   1  15
TORSDOF 22
ENDMDL
MODEL 8
REMARK VINA RESULT:    -4.192      3.760      6.828
REMARK INTER + INTRA:         -13.716
REMARK INTER:                 -10.173
REMARK INTRA:                  -3.542
REMARK UNBOUND:                -4.133
REMARK SMILES CCCCCCCCCCCCCCCCCCCCCCCC(=O)[O-]
REMARK SMILES IDX 13 1 14 2 15 3 16 4 17 5 18 6 19 7 20 8 21 9 22 10 23 11
REMARK SMILES IDX 24 12 25 13 26 14 12 15 11 16 10 17 9 18 8 19 7 20 6 21 5 22
REMARK SMILES IDX 4 23 3 24 2 25 1 26
REMARK H PARENT
REMARK Flexibility Score: inf
ROOT
ATOM      1  C   UNL     1      13.497 -16.829  38.039  1.00  0.00     0.000 C 
ENDROOT
BRANCH   1   2
ATOM      2  C   UNL     1      14.434 -16.913  39.254  1.00  0.00     0.000 C 
BRANCH   2   3
ATOM      3  C   UNL     1      15.525 -17.990  39.095  1.00  0.00     0.000 C 
BRANCH   3   4
ATOM      4  C   UNL     1      15.130 -19.399  39.585  1.00  0.00     0.000 C 
BRANCH   4   5
ATOM      5  C   UNL     1      13.815 -19.473  40.387  1.00  0.00     0.000 C 
BRANCH   5   6
ATOM      6  C   UNL     1      12.666 -20.205  39.668  1.00  0.00     0.000 C 
BRANCH   6   7
ATOM      7  C   UNL     1      13.018 -20.565  38.213  1.00  0.00     0.000 C 
BRANCH   7   8
ATOM      8  C   UNL     1      12.498 -21.955  37.811  1.00  0.00     0.000 C 
BRANCH   8   9
ATOM      9  C   UNL     1      13.639 -22.903  37.402  1.00  0.00     0.000 C 
BRANCH   9  10
ATOM     10  C   UNL     1      14.821 -22.866  38.386  1.00  0.00     0.006 C 
BRANCH  10  11
ATOM     11  C   UNL     1      15.064 -24.215  39.077  1.00  0.00     0.053 C 
BRANCH  11  12
ATOM     12  C   UNL     1      16.452 -24.702  38.801  1.00  0.00     0.041 C 
ATOM     13  O   UNL     1      16.867 -24.794  37.616  1.00  0.00    -0.550 OA
ATOM     14  O   UNL     1      17.297 -25.025  39.855  1.00  0.00    -0.550 OA
ENDBRANCH  11  12
ENDBRANCH  10  11
ENDBRANCH   9  10
ENDBRANCH   8   9
ENDBRANCH   7   8
ENDBRANCH   6   7
ENDBRANCH   5   6
ENDBRANCH   4   5
ENDBRANCH   3   4
ENDBRANCH   2   3
ENDBRANCH   1   2
BRANCH   1  15
ATOM     15  C   UNL     1      12.045 -16.585  38.471  1.00  0.00     0.000 C 
BRANCH  15  16
ATOM     16  C   UNL     1      11.971 -16.191  39.954  1.00  0.00     0.000 C 
BRANCH  16  17
ATOM     17  C   UNL     1      11.352 -14.802  40.183  1.00  0.00     0.000 C 
BRANCH  17  18
ATOM     18  C   UNL     1      11.045 -14.022  38.885  1.00  0.00    -0.000 C 
BRANCH  18  19
ATOM     19  C   UNL     1      11.965 -12.811  38.617  1.00  0.00    -0.000 C 
BRANCH  19  20
ATOM     20  C   UNL     1      13.236 -13.103  37.794  1.00  0.00    -0.000 C 
BRANCH  20  21
ATOM     21  C   UNL     1      14.501 -13.245  38.655  1.00  0.00    -0.000 C 
BRANCH  21  22
ATOM     22  C   UNL     1      15.765 -13.100  37.798  1.00  0.00    -0.000 C 
BRANCH  22  23
ATOM     23  C   UNL     1      16.789 -14.190  38.136  1.00  0.00    -0.000 C 
BRANCH  23  24
ATOM     24  C   UNL     1      17.766 -14.406  36.971  1.00  0.00    -0.000 C 
BRANCH  24  25
ATOM     25  C   UNL     1      17.065 -14.887  35.691  1.00  0.00    -0.003 C 
ATOM     26  C   UNL     1      16.401 -16.254  35.856  1.00  0.00     0.004 C 
ENDBRANCH  24  25
ENDBRANCH  23  24
ENDBRANCH  22  23
ENDBRANCH  21  22
ENDBRANCH  20  21
ENDBRANCH  19  20
ENDBRANCH  18  19
ENDBRANCH  17  18
ENDBRANCH  16  17
ENDBRANCH  15  16
ENDBRANCH   1  15
TORSDOF 22
ENDMDL
MODEL 9
REMARK VINA RESULT:    -4.186      2.076      6.265
REMARK INTER + INTRA:         -13.703
REMARK INTER:                  -9.930
REMARK INTRA:                  -3.773
REMARK UNBOUND:                -4.133
REMARK SMILES CCCCCCCCCCCCCCCCCCCCCCCC(=O)[O-]
REMARK SMILES IDX 13 1 14 2 15 3 16 4 17 5 18 6 19 7 20 8 21 9 22 10 23 11
REMARK SMILES IDX 24 12 25 13 26 14 12 15 11 16 10 17 9 18 8 19 7 20 6 21 5 22
REMARK SMILES IDX 4 23 3 24 2 25 1 26
REMARK H PARENT
REMARK Flexibility Score: inf
ROOT
ATOM      1  C   UNL     1      12.552 -19.514  36.283  1.00  0.00     0.000 C 
ENDROOT
BRANCH   1   2
ATOM      2  C   UNL     1      12.432 -20.734  37.209  1.00  0.00     0.000 C 
BRANCH   2   3
ATOM      3  C   UNL     1      10.974 -21.187  37.418  1.00  0.00     0.000 C 
BRANCH   3   4
ATOM      4  C   UNL     1      10.594 -21.521  38.876  1.00  0.00     0.000 C 
BRANCH   4   5
ATOM      5  C   UNL     1      10.384 -20.304  39.798  1.00  0.00     0.000 C 
BRANCH   5   6
ATOM      6  C   UNL     1      11.375 -20.211  40.974  1.00  0.00     0.000 C 
BRANCH   6   7
ATOM      7  C   UNL     1      12.501 -21.256  40.877  1.00  0.00     0.000 C 
BRANCH   7   8
ATOM      8  C   UNL     1      13.896 -20.633  41.048  1.00  0.00     0.000 C 
BRANCH   8   9
ATOM      9  C   UNL     1      14.018 -19.281  40.323  1.00  0.00     0.000 C 
BRANCH   9  10
ATOM     10  C   UNL     1      15.203 -19.239  39.344  1.00  0.00     0.006 C 
BRANCH  10  11
ATOM     11  C   UNL     1      15.721 -17.815  39.095  1.00  0.00     0.053 C 
BRANCH  11  12
ATOM     12  C   UNL     1      16.330 -17.709  37.733  1.00  0.00     0.041 C 
ATOM     13  O   UNL     1      17.528 -18.050  37.546  1.00  0.00    -0.550 OA
ATOM     14  O   UNL     1      15.564 -17.264  36.663  1.00  0.00    -0.550 OA
ENDBRANCH  11  12
ENDBRANCH  10  11
ENDBRANCH   9  10
ENDBRANCH   8   9
ENDBRANCH   7   8
ENDBRANCH   6   7
ENDBRANCH   5   6
ENDBRANCH   4   5
ENDBRANCH   3   4
ENDBRANCH   2   3
ENDBRANCH   1   2
BRANCH   1  15
ATOM     15  C   UNL     1      11.594 -18.394  36.709  1.00  0.00     0.000 C 
BRANCH  15  16
ATOM     16  C   UNL     1      12.230 -17.508  37.791  1.00  0.00     0.000 C 
BRANCH  16  17
ATOM     17  C   UNL     1      11.208 -16.936  38.786  1.00  0.00     0.000 C 
BRANCH  17  18
ATOM     18  C   UNL     1      11.824 -16.040  39.884  1.00  0.00    -0.000 C 
BRANCH  18  19
ATOM     19  C   UNL     1      13.160 -15.365  39.503  1.00  0.00    -0.000 C 
BRANCH  19  20
ATOM     20  C   UNL     1      13.061 -14.205  38.493  1.00  0.00    -0.000 C 
BRANCH  20  21
ATOM     21  C   UNL     1      14.315 -13.317  38.460  1.00  0.00    -0.000 C 
BRANCH  21  22
ATOM     22  C   UNL     1      15.333 -13.844  37.439  1.00  0.00    -0.000 C 
BRANCH  22  23
ATOM     23  C   UNL     1      16.685 -14.124  38.104  1.00  0.00    -0.000 C 
BRANCH  23  24
ATOM     24  C   UNL     1      17.796 -14.265  37.051  1.00  0.00    -0.000 C 
BRANCH  24  25
ATOM     25  C   UNL     1      17.355 -13.790  35.658  1.00  0.00    -0.003 C 
ATOM     26  C   UNL     1      18.534 -13.512  34.725  1.00  0.00     0.004 C 
ENDBRANCH  24  25
ENDBRANCH  23  24
ENDBRANCH  22  23
ENDBRANCH  21  22
ENDBRANCH  20  21
ENDBRANCH  19  20
ENDBRANCH  18  19
ENDBRANCH  17  18
ENDBRANCH  16  17
ENDBRANCH  15  16
ENDBRANCH   1  15
TORSDOF 22
ENDMDL
