MODEL 1
REMARK VINA RESULT:    -6.074      0.000      0.000
REMARK INTER + INTRA:          -7.543
REMARK INTER:                  -7.317
REMARK INTRA:                  -0.226
REMARK UNBOUND:                -0.226
REMARK SMILES Oc1cc(O)c2cc(O)c(-c3ccc(O)c(O)c3)[o+]c2c1
REMARK SMILES IDX 10 1 19 2 20 3 21 4 2 5 3 6 4 7 6 8 7 9 8 10 11 11 12 12
REMARK SMILES IDX 13 13 14 14 18 15 16 16 15 17 17 19 9 21 1 23 5 25
REMARK H PARENT 15 18 17 20 9 22 1 24 5 26
REMARK Flexibility Score: inf
ROOT
ATOM      1  C   UNL     1      55.881 -40.671 -25.920  1.00  0.00     0.402 A 
ATOM      2  O   UNL     1      55.848 -39.979 -27.055  1.00  0.00    -0.202 OA
ATOM      3  C   UNL     1      56.057 -40.524 -28.249  1.00  0.00     0.368 A 
ATOM      4  C   UNL     1      55.999 -39.714 -29.387  1.00  0.00     0.162 A 
ATOM      5  C   UNL     1      56.211 -40.263 -30.654  1.00  0.00     0.128 A 
ATOM      6  C   UNL     1      56.484 -41.626 -30.786  1.00  0.00     0.093 A 
ATOM      7  C   UNL     1      56.547 -42.459 -29.662  1.00  0.00     0.136 A 
ATOM      8  C   UNL     1      56.334 -41.907 -28.372  1.00  0.00     0.125 A 
ATOM      9  C   UNL     1      56.392 -42.662 -27.190  1.00  0.00     0.078 A 
ATOM     10  C   UNL     1      56.176 -42.047 -25.953  1.00  0.00     0.223 A 
ENDROOT
BRANCH   1  11
ATOM     11  C   UNL     1      55.621 -39.951 -24.652  1.00  0.00     0.087 A 
ATOM     12  C   UNL     1      56.531 -39.010 -24.145  1.00  0.00     0.022 A 
ATOM     13  C   UNL     1      56.274 -38.361 -22.937  1.00  0.00     0.051 A 
ATOM     14  C   UNL     1      55.116 -38.644 -22.205  1.00  0.00     0.157 A 
ATOM     15  C   UNL     1      54.469 -40.252 -23.910  1.00  0.00     0.068 A 
ATOM     16  C   UNL     1      54.202 -39.606 -22.696  1.00  0.00     0.158 A 
BRANCH  14  17
ATOM     17  O   UNL     1      54.917 -37.956 -21.006  1.00  0.00    -0.504 OA
ATOM     18  H   UNL     1      55.056 -36.962 -20.896  1.00  0.00     0.293 HD
ENDBRANCH  14  17
BRANCH  16  19
ATOM     19  O   UNL     1      53.031 -39.947 -22.019  1.00  0.00    -0.504 OA
ATOM     20  H   UNL     1      52.494 -40.781 -22.204  1.00  0.00     0.293 HD
ENDBRANCH  16  19
ENDBRANCH   1  11
BRANCH  10  21
ATOM     21  O   UNL     1      56.282 -42.786 -24.775  1.00  0.00    -0.500 OA
ATOM     22  H   UNL     1      56.131 -42.364 -23.866  1.00  0.00     0.294 HD
ENDBRANCH  10  21
BRANCH   5  23
ATOM     23  O   UNL     1      56.156 -39.461 -31.793  1.00  0.00    -0.507 OA
ATOM     24  H   UNL     1      56.996 -39.183 -32.287  1.00  0.00     0.293 HD
ENDBRANCH   5  23
BRANCH   7  25
ATOM     25  O   UNL     1      56.822 -43.813 -29.879  1.00  0.00    -0.507 OA
ATOM     26  H   UNL     1      57.236 -44.183 -30.721  1.00  0.00     0.293 HD
ENDBRANCH   7  25
TORSDOF 6
ENDMDL
MODEL 2
REMARK VINA RESULT:    -5.899     13.249     15.219
REMARK INTER + INTRA:          -7.332
REMARK INTER:                  -6.992
REMARK INTRA:                  -0.339
REMARK UNBOUND:                -0.226
REMARK SMILES Oc1cc(O)c2cc(O)c(-c3ccc(O)c(O)c3)[o+]c2c1
REMARK SMILES IDX 10 1 19 2 20 3 21 4 2 5 3 6 4 7 6 8 7 9 8 10 11 11 12 12
REMARK SMILES IDX 13 13 14 14 18 15 16 16 15 17 17 19 9 21 1 23 5 25
REMARK H PARENT 15 18 17 20 9 22 1 24 5 26
REMARK Flexibility Score: inf
ROOT
ATOM      1  C   UNL     1      52.017 -27.908 -30.995  1.00  0.00     0.402 A 
ATOM      2  O   UNL     1      51.442 -27.053 -30.155  1.00  0.00    -0.202 OA
ATOM      3  C   UNL     1      50.199 -26.607 -30.304  1.00  0.00     0.368 A 
ATOM      4  C   UNL     1      49.680 -25.710 -29.367  1.00  0.00     0.162 A 
ATOM      5  C   UNL     1      48.374 -25.229 -29.499  1.00  0.00     0.128 A 
ATOM      6  C   UNL     1      47.584 -25.645 -30.572  1.00  0.00     0.093 A 
ATOM      7  C   UNL     1      48.081 -26.543 -31.525  1.00  0.00     0.136 A 
ATOM      8  C   UNL     1      49.406 -27.034 -31.398  1.00  0.00     0.125 A 
ATOM      9  C   UNL     1      49.992 -27.925 -32.311  1.00  0.00     0.078 A 
ATOM     10  C   UNL     1      51.307 -28.361 -32.121  1.00  0.00     0.223 A 
ENDROOT
BRANCH   1  11
ATOM     11  C   UNL     1      53.407 -28.339 -30.713  1.00  0.00     0.087 A 
ATOM     12  C   UNL     1      54.508 -27.579 -31.137  1.00  0.00     0.022 A 
ATOM     13  C   UNL     1      55.808 -28.017 -30.880  1.00  0.00     0.051 A 
ATOM     14  C   UNL     1      56.036 -29.223 -30.209  1.00  0.00     0.157 A 
ATOM     15  C   UNL     1      53.632 -29.559 -30.059  1.00  0.00     0.068 A 
ATOM     16  C   UNL     1      54.933 -30.008 -29.796  1.00  0.00     0.158 A 
BRANCH  14  17
ATOM     17  O   UNL     1      57.361 -29.602 -29.979  1.00  0.00    -0.504 OA
ATOM     18  H   UNL     1      58.161 -29.093 -30.325  1.00  0.00     0.293 HD
ENDBRANCH  14  17
BRANCH  16  19
ATOM     19  O   UNL     1      55.082 -31.225 -29.130  1.00  0.00    -0.504 OA
ATOM     20  H   UNL     1      54.891 -31.359 -28.149  1.00  0.00     0.293 HD
ENDBRANCH  16  19
ENDBRANCH   1  11
BRANCH  10  21
ATOM     21  O   UNL     1      51.906 -29.207 -33.055  1.00  0.00    -0.500 OA
ATOM     22  H   UNL     1      51.534 -30.128 -33.255  1.00  0.00     0.294 HD
ENDBRANCH  10  21
BRANCH   5  23
ATOM     23  O   UNL     1      47.850 -24.334 -28.568  1.00  0.00    -0.507 OA
ATOM     24  H   UNL     1      46.864 -24.098 -28.556  1.00  0.00     0.293 HD
ENDBRANCH   5  23
BRANCH   7  25
ATOM     25  O   UNL     1      47.226 -26.914 -32.568  1.00  0.00    -0.507 OA
ATOM     26  H   UNL     1      47.204 -26.466 -33.473  1.00  0.00     0.293 HD
ENDBRANCH   7  25
TORSDOF 6
ENDMDL
MODEL 3
REMARK VINA RESULT:    -5.838     15.066     16.776
REMARK INTER + INTRA:          -7.258
REMARK INTER:                  -7.375
REMARK INTRA:                   0.117
REMARK UNBOUND:                -0.226
REMARK SMILES Oc1cc(O)c2cc(O)c(-c3ccc(O)c(O)c3)[o+]c2c1
REMARK SMILES IDX 10 1 19 2 20 3 21 4 2 5 3 6 4 7 6 8 7 9 8 10 11 11 12 12
REMARK SMILES IDX 13 13 14 14 18 15 16 16 15 17 17 19 9 21 1 23 5 25
REMARK H PARENT 15 18 17 20 9 22 1 24 5 26
REMARK Flexibility Score: inf
ROOT
ATOM      1  C   UNL     1      46.221 -29.452 -30.382  1.00  0.00     0.402 A 
ATOM      2  O   UNL     1      45.157 -28.723 -30.705  1.00  0.00    -0.202 OA
ATOM      3  C   UNL     1      43.932 -28.984 -30.261  1.00  0.00     0.368 A 
ATOM      4  C   UNL     1      42.875 -28.158 -30.653  1.00  0.00     0.162 A 
ATOM      5  C   UNL     1      41.578 -28.408 -30.198  1.00  0.00     0.128 A 
ATOM      6  C   UNL     1      41.335 -29.489 -29.347  1.00  0.00     0.093 A 
ATOM      7  C   UNL     1      42.377 -30.331 -28.939  1.00  0.00     0.136 A 
ATOM      8  C   UNL     1      43.696 -30.083 -29.400  1.00  0.00     0.125 A 
ATOM      9  C   UNL     1      44.798 -30.881 -29.054  1.00  0.00     0.078 A 
ATOM     10  C   UNL     1      46.068 -30.577 -29.552  1.00  0.00     0.223 A 
ENDROOT
BRANCH   1  11
ATOM     11  C   UNL     1      47.537 -29.052 -30.934  1.00  0.00     0.087 A 
ATOM     12  C   UNL     1      48.718 -29.201 -30.191  1.00  0.00     0.022 A 
ATOM     13  C   UNL     1      49.943 -28.795 -30.724  1.00  0.00     0.051 A 
ATOM     14  C   UNL     1      50.013 -28.225 -31.999  1.00  0.00     0.157 A 
ATOM     15  C   UNL     1      47.602 -28.461 -32.205  1.00  0.00     0.068 A 
ATOM     16  C   UNL     1      48.826 -28.051 -32.749  1.00  0.00     0.158 A 
BRANCH  14  17
ATOM     17  O   UNL     1      51.270 -27.844 -32.476  1.00  0.00    -0.504 OA
ATOM     18  H   UNL     1      52.123 -27.920 -31.941  1.00  0.00     0.293 HD
ENDBRANCH  14  17
BRANCH  16  19
ATOM     19  O   UNL     1      48.816 -27.481 -34.024  1.00  0.00    -0.504 OA
ATOM     20  H   UNL     1      48.251 -27.819 -34.788  1.00  0.00     0.293 HD
ENDBRANCH  16  19
ENDBRANCH   1  11
BRANCH  10  21
ATOM     21  O   UNL     1      47.154 -31.399 -29.250  1.00  0.00    -0.500 OA
ATOM     22  H   UNL     1      48.051 -31.285 -29.707  1.00  0.00     0.294 HD
ENDBRANCH  10  21
BRANCH   5  23
ATOM     23  O   UNL     1      40.519 -27.589 -30.586  1.00  0.00    -0.507 OA
ATOM     24  H   UNL     1      39.664 -27.975 -30.969  1.00  0.00     0.293 HD
ENDBRANCH   5  23
BRANCH   7  25
ATOM     25  O   UNL     1      42.052 -31.389 -28.083  1.00  0.00    -0.507 OA
ATOM     26  H   UNL     1      41.142 -31.822 -28.033  1.00  0.00     0.293 HD
ENDBRANCH   7  25
TORSDOF 6
ENDMDL
MODEL 4
REMARK VINA RESULT:    -5.783     15.655     16.960
REMARK INTER + INTRA:          -7.192
REMARK INTER:                  -6.927
REMARK INTRA:                  -0.265
REMARK UNBOUND:                -0.226
REMARK SMILES Oc1cc(O)c2cc(O)c(-c3ccc(O)c(O)c3)[o+]c2c1
REMARK SMILES IDX 10 1 19 2 20 3 21 4 2 5 3 6 4 7 6 8 7 9 8 10 11 11 12 12
REMARK SMILES IDX 13 13 14 14 18 15 16 16 15 17 17 19 9 21 1 23 5 25
REMARK H PARENT 15 18 17 20 9 22 1 24 5 26
REMARK Flexibility Score: inf
ROOT
ATOM      1  C   UNL     1      45.502 -28.108 -30.328  1.00  0.00     0.402 A 
ATOM      2  O   UNL     1      46.268 -28.460 -31.356  1.00  0.00    -0.202 OA
ATOM      3  C   UNL     1      47.517 -28.035 -31.515  1.00  0.00     0.368 A 
ATOM      4  C   UNL     1      48.245 -28.463 -32.629  1.00  0.00     0.162 A 
ATOM      5  C   UNL     1      49.562 -28.033 -32.818  1.00  0.00     0.128 A 
ATOM      6  C   UNL     1      50.153 -27.172 -31.891  1.00  0.00     0.093 A 
ATOM      7  C   UNL     1      49.445 -26.728 -30.767  1.00  0.00     0.136 A 
ATOM      8  C   UNL     1      48.107 -27.160 -30.571  1.00  0.00     0.125 A 
ATOM      9  C   UNL     1      47.317 -26.757 -29.483  1.00  0.00     0.078 A 
ATOM     10  C   UNL     1      46.004 -27.220 -29.359  1.00  0.00     0.223 A 
ENDROOT
BRANCH   1  11
ATOM     11  C   UNL     1      44.128 -28.658 -30.258  1.00  0.00     0.087 A 
ATOM     12  C   UNL     1      43.115 -28.208 -31.118  1.00  0.00     0.022 A 
ATOM     13  C   UNL     1      41.822 -28.725 -31.017  1.00  0.00     0.051 A 
ATOM     14  C   UNL     1      41.512 -29.689 -30.051  1.00  0.00     0.157 A 
ATOM     15  C   UNL     1      43.815 -29.609 -29.275  1.00  0.00     0.068 A 
ATOM     16  C   UNL     1      42.521 -30.135 -29.165  1.00  0.00     0.158 A 
BRANCH  14  17
ATOM     17  O   UNL     1      40.201 -30.169 -30.006  1.00  0.00    -0.504 OA
ATOM     18  H   UNL     1      39.789 -30.752 -30.719  1.00  0.00     0.293 HD
ENDBRANCH  14  17
BRANCH  16  19
ATOM     19  O   UNL     1      42.285 -31.086 -28.171  1.00  0.00    -0.504 OA
ATOM     20  H   UNL     1      42.703 -31.059 -27.253  1.00  0.00     0.293 HD
ENDBRANCH  16  19
ENDBRANCH   1  11
BRANCH  10  21
ATOM     21  O   UNL     1      45.202 -26.781 -28.305  1.00  0.00    -0.500 OA
ATOM     22  H   UNL     1      44.894 -25.818 -28.236  1.00  0.00     0.294 HD
ENDBRANCH  10  21
BRANCH   5  23
ATOM     23  O   UNL     1      50.294 -28.455 -33.926  1.00  0.00    -0.507 OA
ATOM     24  H   UNL     1      50.375 -29.437 -34.165  1.00  0.00     0.293 HD
ENDBRANCH   5  23
BRANCH   7  25
ATOM     25  O   UNL     1      50.108 -25.870 -29.885  1.00  0.00    -0.507 OA
ATOM     26  H   UNL     1      50.672 -25.083 -30.172  1.00  0.00     0.293 HD
ENDBRANCH   7  25
TORSDOF 6
ENDMDL
MODEL 5
REMARK VINA RESULT:    -5.636     13.330     14.880
REMARK INTER + INTRA:          -7.014
REMARK INTER:                  -6.898
REMARK INTRA:                  -0.117
REMARK UNBOUND:                -0.226
REMARK SMILES Oc1cc(O)c2cc(O)c(-c3ccc(O)c(O)c3)[o+]c2c1
REMARK SMILES IDX 10 1 19 2 20 3 21 4 2 5 3 6 4 7 6 8 7 9 8 10 11 11 12 12
REMARK SMILES IDX 13 13 14 14 18 15 16 16 15 17 17 19 9 21 1 23 5 25
REMARK H PARENT 15 18 17 20 9 22 1 24 5 26
REMARK Flexibility Score: inf
ROOT
ATOM      1  C   UNL     1      51.090 -28.351 -30.905  1.00  0.00     0.402 A 
ATOM      2  O   UNL     1      51.621 -28.076 -29.717  1.00  0.00    -0.202 OA
ATOM      3  C   UNL     1      52.930 -27.974 -29.509  1.00  0.00     0.368 A 
ATOM      4  C   UNL     1      53.394 -27.678 -28.224  1.00  0.00     0.162 A 
ATOM      5  C   UNL     1      54.765 -27.561 -27.979  1.00  0.00     0.128 A 
ATOM      6  C   UNL     1      55.676 -27.741 -29.021  1.00  0.00     0.093 A 
ATOM      7  C   UNL     1      55.237 -28.038 -30.318  1.00  0.00     0.136 A 
ATOM      8  C   UNL     1      53.846 -28.160 -30.572  1.00  0.00     0.125 A 
ATOM      9  C   UNL     1      53.316 -28.468 -31.835  1.00  0.00     0.078 A 
ATOM     10  C   UNL     1      51.933 -28.577 -32.008  1.00  0.00     0.223 A 
ENDROOT
BRANCH   1  11
ATOM     11  C   UNL     1      49.615 -28.429 -31.011  1.00  0.00     0.087 A 
ATOM     12  C   UNL     1      48.873 -29.345 -30.249  1.00  0.00     0.022 A 
ATOM     13  C   UNL     1      47.485 -29.415 -30.384  1.00  0.00     0.051 A 
ATOM     14  C   UNL     1      46.813 -28.584 -31.286  1.00  0.00     0.157 A 
ATOM     15  C   UNL     1      48.944 -27.609 -31.932  1.00  0.00     0.068 A 
ATOM     16  C   UNL     1      47.552 -27.671 -32.074  1.00  0.00     0.158 A 
BRANCH  14  17
ATOM     17  O   UNL     1      45.423 -28.701 -31.369  1.00  0.00    -0.504 OA
ATOM     18  H   UNL     1      44.864 -29.246 -30.730  1.00  0.00     0.293 HD
ENDBRANCH  14  17
BRANCH  16  19
ATOM     19  O   UNL     1      46.952 -26.817 -33.001  1.00  0.00    -0.504 OA
ATOM     20  H   UNL     1      47.428 -26.051 -33.454  1.00  0.00     0.293 HD
ENDBRANCH  16  19
ENDBRANCH   1  11
BRANCH  10  21
ATOM     21  O   UNL     1      51.409 -28.932 -33.251  1.00  0.00    -0.500 OA
ATOM     22  H   UNL     1      50.953 -29.825 -33.401  1.00  0.00     0.294 HD
ENDBRANCH  10  21
BRANCH   5  23
ATOM     23  O   UNL     1      55.234 -27.267 -26.700  1.00  0.00    -0.507 OA
ATOM     24  H   UNL     1      56.185 -26.952 -26.544  1.00  0.00     0.293 HD
ENDBRANCH   5  23
BRANCH   7  25
ATOM     25  O   UNL     1      56.212 -28.201 -31.306  1.00  0.00    -0.507 OA
ATOM     26  H   UNL     1      56.077 -28.720 -32.161  1.00  0.00     0.293 HD
ENDBRANCH   7  25
TORSDOF 6
ENDMDL
MODEL 6
REMARK VINA RESULT:    -5.598     13.969     15.350
REMARK INTER + INTRA:          -6.969
REMARK INTER:                  -6.695
REMARK INTRA:                  -0.274
REMARK UNBOUND:                -0.226
REMARK SMILES Oc1cc(O)c2cc(O)c(-c3ccc(O)c(O)c3)[o+]c2c1
REMARK SMILES IDX 10 1 19 2 20 3 21 4 2 5 3 6 4 7 6 8 7 9 8 10 11 11 12 12
REMARK SMILES IDX 13 13 14 14 18 15 16 16 15 17 17 19 9 21 1 23 5 25
REMARK H PARENT 15 18 17 20 9 22 1 24 5 26
REMARK Flexibility Score: inf
ROOT
ATOM      1  C   UNL     1      47.404 -28.573 -30.538  1.00  0.00     0.402 A 
ATOM      2  O   UNL     1      48.326 -29.251 -29.861  1.00  0.00    -0.202 OA
ATOM      3  C   UNL     1      49.601 -29.318 -30.231  1.00  0.00     0.368 A 
ATOM      4  C   UNL     1      50.498 -30.054 -29.452  1.00  0.00     0.162 A 
ATOM      5  C   UNL     1      51.844 -30.139 -29.817  1.00  0.00     0.128 A 
ATOM      6  C   UNL     1      52.296 -29.485 -30.965  1.00  0.00     0.093 A 
ATOM      7  C   UNL     1      51.418 -28.741 -31.763  1.00  0.00     0.136 A 
ATOM      8  C   UNL     1      50.049 -28.654 -31.399  1.00  0.00     0.125 A 
ATOM      9  C   UNL     1      49.095 -27.943 -32.144  1.00  0.00     0.078 A 
ATOM     10  C   UNL     1      47.762 -27.906 -31.724  1.00  0.00     0.223 A 
ENDROOT
BRANCH   1  11
ATOM     11  C   UNL     1      46.017 -28.566 -30.017  1.00  0.00     0.087 A 
ATOM     12  C   UNL     1      45.444 -27.403 -29.481  1.00  0.00     0.022 A 
ATOM     13  C   UNL     1      44.143 -27.426 -28.975  1.00  0.00     0.051 A 
ATOM     14  C   UNL     1      43.395 -28.609 -28.982  1.00  0.00     0.157 A 
ATOM     15  C   UNL     1      45.277 -29.758 -30.006  1.00  0.00     0.068 A 
ATOM     16  C   UNL     1      43.971 -29.792 -29.501  1.00  0.00     0.158 A 
BRANCH  14  17
ATOM     17  O   UNL     1      42.098 -28.564 -28.464  1.00  0.00    -0.504 OA
ATOM     18  H   UNL     1      41.268 -28.463 -29.030  1.00  0.00     0.293 HD
ENDBRANCH  14  17
BRANCH  16  19
ATOM     19  O   UNL     1      43.290 -31.010 -29.533  1.00  0.00    -0.504 OA
ATOM     20  H   UNL     1      43.611 -31.848 -29.072  1.00  0.00     0.293 HD
ENDBRANCH  16  19
ENDBRANCH   1  11
BRANCH  10  21
ATOM     21  O   UNL     1      46.805 -27.242 -32.491  1.00  0.00    -0.500 OA
ATOM     22  H   UNL     1      45.855 -27.586 -32.571  1.00  0.00     0.294 HD
ENDBRANCH  10  21
BRANCH   5  23
ATOM     23  O   UNL     1      52.744 -30.871 -29.045  1.00  0.00    -0.507 OA
ATOM     24  H   UNL     1      53.146 -30.491 -28.196  1.00  0.00     0.293 HD
ENDBRANCH   5  23
BRANCH   7  25
ATOM     25  O   UNL     1      51.950 -28.114 -32.894  1.00  0.00    -0.507 OA
ATOM     26  H   UNL     1      51.616 -27.239 -33.270  1.00  0.00     0.293 HD
ENDBRANCH   7  25
TORSDOF 6
ENDMDL
MODEL 7
REMARK VINA RESULT:    -5.588      1.896      7.482
REMARK INTER + INTRA:          -6.956
REMARK INTER:                  -6.666
REMARK INTRA:                  -0.290
REMARK UNBOUND:                -0.226
REMARK SMILES Oc1cc(O)c2cc(O)c(-c3ccc(O)c(O)c3)[o+]c2c1
REMARK SMILES IDX 10 1 19 2 20 3 21 4 2 5 3 6 4 7 6 8 7 9 8 10 11 11 12 12
REMARK SMILES IDX 13 13 14 14 18 15 16 16 15 17 17 19 9 21 1 23 5 25
REMARK H PARENT 15 18 17 20 9 22 1 24 5 26
REMARK Flexibility Score: inf
ROOT
ATOM      1  C   UNL     1      55.355 -40.309 -24.153  1.00  0.00     0.402 A 
ATOM      2  O   UNL     1      54.157 -40.398 -23.582  1.00  0.00    -0.202 OA
ATOM      3  C   UNL     1      53.755 -39.597 -22.601  1.00  0.00     0.368 A 
ATOM      4  C   UNL     1      52.475 -39.766 -22.066  1.00  0.00     0.162 A 
ATOM      5  C   UNL     1      52.026 -38.935 -21.036  1.00  0.00     0.128 A 
ATOM      6  C   UNL     1      52.859 -37.930 -20.539  1.00  0.00     0.093 A 
ATOM      7  C   UNL     1      54.145 -37.739 -21.059  1.00  0.00     0.136 A 
ATOM      8  C   UNL     1      54.608 -38.582 -22.103  1.00  0.00     0.125 A 
ATOM      9  C   UNL     1      55.885 -38.474 -22.675  1.00  0.00     0.078 A 
ATOM     10  C   UNL     1      56.272 -39.344 -23.698  1.00  0.00     0.223 A 
ENDROOT
BRANCH   1  11
ATOM     11  C   UNL     1      55.682 -41.255 -25.245  1.00  0.00     0.087 A 
ATOM     12  C   UNL     1      56.009 -42.594 -24.980  1.00  0.00     0.022 A 
ATOM     13  C   UNL     1      56.336 -43.460 -26.025  1.00  0.00     0.051 A 
ATOM     14  C   UNL     1      56.357 -43.008 -27.349  1.00  0.00     0.157 A 
ATOM     15  C   UNL     1      55.723 -40.793 -26.570  1.00  0.00     0.068 A 
ATOM     16  C   UNL     1      56.049 -41.655 -27.625  1.00  0.00     0.158 A 
BRANCH  14  17
ATOM     17  O   UNL     1      56.688 -43.926 -28.347  1.00  0.00    -0.504 OA
ATOM     18  H   UNL     1      56.163 -44.768 -28.536  1.00  0.00     0.293 HD
ENDBRANCH  14  17
BRANCH  16  19
ATOM     19  O   UNL     1      56.058 -41.129 -28.918  1.00  0.00    -0.504 OA
ATOM     20  H   UNL     1      55.995 -40.144 -29.128  1.00  0.00     0.293 HD
ENDBRANCH  16  19
ENDBRANCH   1  11
BRANCH  10  21
ATOM     21  O   UNL     1      57.559 -39.270 -24.232  1.00  0.00    -0.500 OA
ATOM     22  H   UNL     1      57.739 -38.831 -25.127  1.00  0.00     0.294 HD
ENDBRANCH  10  21
BRANCH   5  23
ATOM     23  O   UNL     1      50.751 -39.098 -20.497  1.00  0.00    -0.507 OA
ATOM     24  H   UNL     1      49.934 -39.197 -21.089  1.00  0.00     0.293 HD
ENDBRANCH   5  23
BRANCH   7  25
ATOM     25  O   UNL     1      54.916 -36.710 -20.509  1.00  0.00    -0.507 OA
ATOM     26  H   UNL     1      55.756 -36.853 -19.968  1.00  0.00     0.293 HD
ENDBRANCH   7  25
TORSDOF 6
ENDMDL
MODEL 8
REMARK VINA RESULT:    -5.566     12.424     13.756
REMARK INTER + INTRA:          -6.931
REMARK INTER:                  -6.632
REMARK INTRA:                  -0.298
REMARK UNBOUND:                -0.226
REMARK SMILES Oc1cc(O)c2cc(O)c(-c3ccc(O)c(O)c3)[o+]c2c1
REMARK SMILES IDX 10 1 19 2 20 3 21 4 2 5 3 6 4 7 6 8 7 9 8 10 11 11 12 12
REMARK SMILES IDX 13 13 14 14 18 15 16 16 15 17 17 19 9 21 1 23 5 25
REMARK H PARENT 15 18 17 20 9 22 1 24 5 26
REMARK Flexibility Score: inf
ROOT
ATOM      1  C   UNL     1      47.384 -30.807 -29.233  1.00  0.00     0.402 A 
ATOM      2  O   UNL     1      48.623 -30.450 -29.557  1.00  0.00    -0.202 OA
ATOM      3  C   UNL     1      48.901 -29.479 -30.421  1.00  0.00     0.368 A 
ATOM      4  C   UNL     1      50.236 -29.173 -30.695  1.00  0.00     0.162 A 
ATOM      5  C   UNL     1      50.556 -28.154 -31.597  1.00  0.00     0.128 A 
ATOM      6  C   UNL     1      49.536 -27.438 -32.228  1.00  0.00     0.093 A 
ATOM      7  C   UNL     1      48.190 -27.725 -31.970  1.00  0.00     0.136 A 
ATOM      8  C   UNL     1      47.860 -28.760 -31.057  1.00  0.00     0.125 A 
ATOM      9  C   UNL     1      46.540 -29.125 -30.748  1.00  0.00     0.078 A 
ATOM     10  C   UNL     1      46.292 -30.160 -29.841  1.00  0.00     0.223 A 
ENDROOT
BRANCH   1  11
ATOM     11  C   UNL     1      47.205 -31.899 -28.248  1.00  0.00     0.087 A 
ATOM     12  C   UNL     1      47.405 -31.686 -26.875  1.00  0.00     0.022 A 
ATOM     13  C   UNL     1      47.253 -32.737 -25.969  1.00  0.00     0.051 A 
ATOM     14  C   UNL     1      46.911 -34.019 -26.412  1.00  0.00     0.157 A 
ATOM     15  C   UNL     1      46.883 -33.189 -28.697  1.00  0.00     0.068 A 
ATOM     16  C   UNL     1      46.727 -34.250 -27.796  1.00  0.00     0.158 A 
BRANCH  14  17
ATOM     17  O   UNL     1      46.770 -35.025 -25.453  1.00  0.00    -0.504 OA
ATOM     18  H   UNL     1      47.522 -35.352 -24.864  1.00  0.00     0.293 HD
ENDBRANCH  14  17
BRANCH  16  19
ATOM     19  O   UNL     1      46.394 -35.503 -28.313  1.00  0.00    -0.504 OA
ATOM     20  H   UNL     1      45.709 -35.650 -29.038  1.00  0.00     0.293 HD
ENDBRANCH  16  19
ENDBRANCH   1  11
BRANCH  10  21
ATOM     21  O   UNL     1      44.982 -30.557 -29.571  1.00  0.00    -0.500 OA
ATOM     22  H   UNL     1      44.592 -30.505 -28.638  1.00  0.00     0.294 HD
ENDBRANCH  10  21
BRANCH   5  23
ATOM     23  O   UNL     1      51.886 -27.844 -31.876  1.00  0.00    -0.507 OA
ATOM     24  H   UNL     1      52.244 -27.854 -32.824  1.00  0.00     0.293 HD
ENDBRANCH   5  23
BRANCH   7  25
ATOM     25  O   UNL     1      47.229 -26.961 -32.639  1.00  0.00    -0.507 OA
ATOM     26  H   UNL     1      47.279 -26.709 -33.616  1.00  0.00     0.293 HD
ENDBRANCH   7  25
TORSDOF 6
ENDMDL
MODEL 9
REMARK VINA RESULT:    -5.546      4.992      6.143
REMARK INTER + INTRA:          -6.906
REMARK INTER:                  -6.570
REMARK INTRA:                  -0.336
REMARK UNBOUND:                -0.226
REMARK SMILES Oc1cc(O)c2cc(O)c(-c3ccc(O)c(O)c3)[o+]c2c1
REMARK SMILES IDX 10 1 19 2 20 3 21 4 2 5 3 6 4 7 6 8 7 9 8 10 11 11 12 12
REMARK SMILES IDX 13 13 14 14 18 15 16 16 15 17 17 19 9 21 1 23 5 25
REMARK H PARENT 15 18 17 20 9 22 1 24 5 26
REMARK Flexibility Score: inf
ROOT
ATOM      1  C   UNL     1      52.113 -41.799 -29.304  1.00  0.00     0.402 A 
ATOM      2  O   UNL     1      52.163 -41.453 -30.587  1.00  0.00    -0.202 OA
ATOM      3  C   UNL     1      53.289 -41.123 -31.210  1.00  0.00     0.368 A 
ATOM      4  C   UNL     1      53.242 -40.775 -32.563  1.00  0.00     0.162 A 
ATOM      5  C   UNL     1      54.412 -40.428 -33.244  1.00  0.00     0.128 A 
ATOM      6  C   UNL     1      55.635 -40.428 -32.569  1.00  0.00     0.093 A 
ATOM      7  C   UNL     1      55.710 -40.773 -31.214  1.00  0.00     0.136 A 
ATOM      8  C   UNL     1      54.524 -41.124 -30.518  1.00  0.00     0.125 A 
ATOM      9  C   UNL     1      54.501 -41.470 -29.157  1.00  0.00     0.078 A 
ATOM     10  C   UNL     1      53.292 -41.801 -28.537  1.00  0.00     0.223 A 
ENDROOT
BRANCH   1  11
ATOM     11  C   UNL     1      50.796 -42.156 -28.726  1.00  0.00     0.087 A 
ATOM     12  C   UNL     1      50.417 -43.495 -28.540  1.00  0.00     0.022 A 
ATOM     13  C   UNL     1      49.162 -43.806 -28.014  1.00  0.00     0.051 A 
ATOM     14  C   UNL     1      48.257 -42.793 -27.678  1.00  0.00     0.157 A 
ATOM     15  C   UNL     1      49.883 -41.139 -28.409  1.00  0.00     0.068 A 
ATOM     16  C   UNL     1      48.621 -41.441 -27.881  1.00  0.00     0.158 A 
BRANCH  14  17
ATOM     17  O   UNL     1      47.019 -43.172 -27.153  1.00  0.00    -0.504 OA
ATOM     18  H   UNL     1      46.747 -43.029 -26.191  1.00  0.00     0.293 HD
ENDBRANCH  14  17
BRANCH  16  19
ATOM     19  O   UNL     1      47.769 -40.378 -27.578  1.00  0.00    -0.504 OA
ATOM     20  H   UNL     1      48.067 -39.416 -27.516  1.00  0.00     0.293 HD
ENDBRANCH  16  19
ENDBRANCH   1  11
BRANCH  10  21
ATOM     21  O   UNL     1      53.262 -42.096 -27.174  1.00  0.00    -0.500 OA
ATOM     22  H   UNL     1      53.424 -43.034 -26.829  1.00  0.00     0.294 HD
ENDBRANCH  10  21
BRANCH   5  23
ATOM     23  O   UNL     1      54.372 -40.079 -34.592  1.00  0.00    -0.507 OA
ATOM     24  H   UNL     1      53.557 -39.637 -35.001  1.00  0.00     0.293 HD
ENDBRANCH   5  23
BRANCH   7  25
ATOM     25  O   UNL     1      56.972 -40.751 -30.613  1.00  0.00    -0.507 OA
ATOM     26  H   UNL     1      57.403 -41.546 -30.164  1.00  0.00     0.293 HD
ENDBRANCH   7  25
TORSDOF 6
ENDMDL
