MODEL 1
REMARK VINA RESULT:    -4.921      0.000      0.000
REMARK INTER + INTRA:         -10.651
REMARK INTER:                  -8.949
REMARK INTRA:                  -1.702
REMARK UNBOUND:                -1.702
REMARK SMILES CCCCCCCCCCCCCCCC(=O)[O-]
REMARK SMILES IDX 9 1 10 2 11 3 12 4 13 5 14 6 15 7 16 8 17 9 18 10 8 11 7 12
REMARK SMILES IDX 6 13 5 14 4 15 3 16 2 17 1 18
REMARK H PARENT
REMARK Flexibility Score: inf
ROOT
ATOM      1  C   UNL     1      15.146  16.529  60.283  1.00  0.00     0.000 C 
ENDROOT
BRANCH   1   2
ATOM      2  C   UNL     1      15.202  15.511  59.128  1.00  0.00     0.000 C 
BRANCH   2   3
ATOM      3  C   UNL     1      16.469  14.638  59.079  1.00  0.00     0.000 C 
BRANCH   3   4
ATOM      4  C   UNL     1      17.482  15.109  58.021  1.00  0.00     0.000 C 
BRANCH   4   5
ATOM      5  C   UNL     1      18.321  16.305  58.500  1.00  0.00     0.000 C 
BRANCH   5   6
ATOM      6  C   UNL     1      19.061  16.021  59.818  1.00  0.00     0.006 C 
BRANCH   6   7
ATOM      7  C   UNL     1      19.438  17.326  60.525  1.00  0.00     0.053 C 
BRANCH   7   8
ATOM      8  C   UNL     1      19.240  17.198  62.003  1.00  0.00     0.041 C 
ATOM      9  O   UNL     1      19.143  18.227  62.721  1.00  0.00    -0.550 OA
ATOM     10  O   UNL     1      19.213  15.941  62.593  1.00  0.00    -0.550 OA
ENDBRANCH   7   8
ENDBRANCH   6   7
ENDBRANCH   5   6
ENDBRANCH   4   5
ENDBRANCH   3   4
ENDBRANCH   2   3
ENDBRANCH   1   2
BRANCH   1  11
ATOM     11  C   UNL     1      15.705  15.971  61.602  1.00  0.00     0.000 C 
BRANCH  11  12
ATOM     12  C   UNL     1      15.603  16.974  62.766  1.00  0.00    -0.000 C 
BRANCH  12  13
ATOM     13  C   UNL     1      14.168  17.367  63.170  1.00  0.00    -0.000 C 
BRANCH  13  14
ATOM     14  C   UNL     1      13.179  16.192  63.310  1.00  0.00    -0.000 C 
BRANCH  14  15
ATOM     15  C   UNL     1      13.156  15.521  64.697  1.00  0.00    -0.000 C 
BRANCH  15  16
ATOM     16  C   UNL     1      14.085  14.299  64.783  1.00  0.00    -0.000 C 
BRANCH  16  17
ATOM     17  C   UNL     1      13.926  13.355  63.581  1.00  0.00    -0.003 C 
ATOM     18  C   UNL     1      13.619  11.914  63.994  1.00  0.00     0.004 C 
ENDBRANCH  16  17
ENDBRANCH  15  16
ENDBRANCH  14  15
ENDBRANCH  13  14
ENDBRANCH  12  13
ENDBRANCH  11  12
ENDBRANCH   1  11
TORSDOF 14
ENDMDL
MODEL 2
REMARK VINA RESULT:    -4.918      2.454      6.488
REMARK INTER + INTRA:         -10.646
REMARK INTER:                  -9.080
REMARK INTRA:                  -1.566
REMARK UNBOUND:                -1.702
REMARK SMILES CCCCCCCCCCCCCCCC(=O)[O-]
REMARK SMILES IDX 9 1 10 2 11 3 12 4 13 5 14 6 15 7 16 8 17 9 18 10 8 11 7 12
REMARK SMILES IDX 6 13 5 14 4 15 3 16 2 17 1 18
REMARK H PARENT
REMARK Flexibility Score: inf
ROOT
ATOM      1  C   UNL     1      15.412  17.205  62.547  1.00  0.00     0.000 C 
ENDROOT
BRANCH   1   2
ATOM      2  C   UNL     1      14.235  17.351  63.531  1.00  0.00     0.000 C 
BRANCH   2   3
ATOM      3  C   UNL     1      12.995  16.498  63.208  1.00  0.00     0.000 C 
BRANCH   3   4
ATOM      4  C   UNL     1      12.510  15.665  64.406  1.00  0.00     0.000 C 
BRANCH   4   5
ATOM      5  C   UNL     1      13.671  15.092  65.235  1.00  0.00     0.000 C 
BRANCH   5   6
ATOM      6  C   UNL     1      14.475  14.025  64.474  1.00  0.00     0.006 C 
BRANCH   6   7
ATOM      7  C   UNL     1      13.555  12.922  63.944  1.00  0.00     0.053 C 
BRANCH   7   8
ATOM      8  C   UNL     1      14.298  11.628  63.832  1.00  0.00     0.041 C 
ATOM      9  O   UNL     1      13.802  10.570  64.299  1.00  0.00    -0.550 OA
ATOM     10  O   UNL     1      15.561  11.601  63.254  1.00  0.00    -0.550 OA
ENDBRANCH   7   8
ENDBRANCH   6   7
ENDBRANCH   5   6
ENDBRANCH   4   5
ENDBRANCH   3   4
ENDBRANCH   2   3
ENDBRANCH   1   2
BRANCH   1  11
ATOM     11  C   UNL     1      15.373  15.887  61.758  1.00  0.00     0.000 C 
BRANCH  11  12
ATOM     12  C   UNL     1      15.186  16.102  60.245  1.00  0.00    -0.000 C 
BRANCH  12  13
ATOM     13  C   UNL     1      15.907  17.333  59.661  1.00  0.00    -0.000 C 
BRANCH  13  14
ATOM     14  C   UNL     1      17.281  17.049  59.022  1.00  0.00    -0.000 C 
BRANCH  14  15
ATOM     15  C   UNL     1      18.492  17.298  59.941  1.00  0.00    -0.000 C 
BRANCH  15  16
ATOM     16  C   UNL     1      18.966  16.023  60.658  1.00  0.00    -0.000 C 
BRANCH  16  17
ATOM     17  C   UNL     1      19.177  16.240  62.165  1.00  0.00    -0.003 C 
ATOM     18  C   UNL     1      19.866  17.568  62.483  1.00  0.00     0.004 C 
ENDBRANCH  16  17
ENDBRANCH  15  16
ENDBRANCH  14  15
ENDBRANCH  13  14
ENDBRANCH  12  13
ENDBRANCH  11  12
ENDBRANCH   1  11
TORSDOF 14
ENDMDL
MODEL 3
REMARK VINA RESULT:    -4.632     11.598     13.380
REMARK INTER + INTRA:         -10.126
REMARK INTER:                  -9.223
REMARK INTRA:                  -0.903
REMARK UNBOUND:                -1.702
REMARK SMILES CCCCCCCCCCCCCCCC(=O)[O-]
REMARK SMILES IDX 9 1 10 2 11 3 12 4 13 5 14 6 15 7 16 8 17 9 18 10 8 11 7 12
REMARK SMILES IDX 6 13 5 14 4 15 3 16 2 17 1 18
REMARK H PARENT
REMARK Flexibility Score: inf
ROOT
ATOM      1  C   UNL     1      18.137  26.504  70.629  1.00  0.00     0.000 C 
ENDROOT
BRANCH   1   2
ATOM      2  C   UNL     1      19.490  27.083  71.085  1.00  0.00     0.000 C 
BRANCH   2   3
ATOM      3  C   UNL     1      19.652  28.603  70.906  1.00  0.00     0.000 C 
BRANCH   3   4
ATOM      4  C   UNL     1      18.820  29.162  69.739  1.00  0.00     0.000 C 
BRANCH   4   5
ATOM      5  C   UNL     1      19.653  30.038  68.788  1.00  0.00     0.000 C 
BRANCH   5   6
ATOM      6  C   UNL     1      19.348  29.762  67.306  1.00  0.00     0.006 C 
BRANCH   6   7
ATOM      7  C   UNL     1      18.707  28.383  67.128  1.00  0.00     0.053 C 
BRANCH   7   8
ATOM      8  C   UNL     1      17.590  28.448  66.135  1.00  0.00     0.041 C 
ATOM      9  O   UNL     1      16.781  29.413  66.154  1.00  0.00    -0.550 OA
ATOM     10  O   UNL     1      17.411  27.419  65.220  1.00  0.00    -0.550 OA
ENDBRANCH   7   8
ENDBRANCH   6   7
ENDBRANCH   5   6
ENDBRANCH   4   5
ENDBRANCH   3   4
ENDBRANCH   2   3
ENDBRANCH   1   2
BRANCH   1  11
ATOM     11  C   UNL     1      18.107  24.967  70.641  1.00  0.00     0.000 C 
BRANCH  11  12
ATOM     12  C   UNL     1      17.297  24.394  71.818  1.00  0.00    -0.000 C 
BRANCH  12  13
ATOM     13  C   UNL     1      17.444  22.876  72.040  1.00  0.00    -0.000 C 
BRANCH  13  14
ATOM     14  C   UNL     1      18.301  22.138  70.991  1.00  0.00    -0.000 C 
BRANCH  14  15
ATOM     15  C   UNL     1      17.728  20.790  70.513  1.00  0.00    -0.000 C 
BRANCH  15  16
ATOM     16  C   UNL     1      16.305  20.529  71.034  1.00  0.00    -0.000 C 
BRANCH  16  17
ATOM     17  C   UNL     1      16.040  19.038  71.295  1.00  0.00    -0.003 C 
ATOM     18  C   UNL     1      16.040  18.202  70.015  1.00  0.00     0.004 C 
ENDBRANCH  16  17
ENDBRANCH  15  16
ENDBRANCH  14  15
ENDBRANCH  13  14
ENDBRANCH  12  13
ENDBRANCH  11  12
ENDBRANCH   1  11
TORSDOF 14
ENDMDL
MODEL 4
REMARK VINA RESULT:    -4.619      2.266      6.427
REMARK INTER + INTRA:         -10.102
REMARK INTER:                  -8.360
REMARK INTRA:                  -1.742
REMARK UNBOUND:                -1.702
REMARK SMILES CCCCCCCCCCCCCCCC(=O)[O-]
REMARK SMILES IDX 9 1 10 2 11 3 12 4 13 5 14 6 15 7 16 8 17 9 18 10 8 11 7 12
REMARK SMILES IDX 6 13 5 14 4 15 3 16 2 17 1 18
REMARK H PARENT
REMARK Flexibility Score: inf
ROOT
ATOM      1  C   UNL     1      14.977  15.966  60.727  1.00  0.00     0.000 C 
ENDROOT
BRANCH   1   2
ATOM      2  C   UNL     1      15.421  17.178  61.569  1.00  0.00     0.000 C 
BRANCH   2   3
ATOM      3  C   UNL     1      15.072  17.104  63.067  1.00  0.00     0.000 C 
BRANCH   3   4
ATOM      4  C   UNL     1      13.729  17.774  63.404  1.00  0.00     0.000 C 
BRANCH   4   5
ATOM      5  C   UNL     1      12.574  16.764  63.505  1.00  0.00     0.000 C 
BRANCH   5   6
ATOM      6  C   UNL     1      12.913  15.563  64.403  1.00  0.00     0.006 C 
BRANCH   6   7
ATOM      7  C   UNL     1      12.983  14.270  63.585  1.00  0.00     0.053 C 
BRANCH   7   8
ATOM      8  C   UNL     1      13.919  13.294  64.226  1.00  0.00     0.041 C 
ATOM      9  O   UNL     1      13.686  12.059  64.163  1.00  0.00    -0.550 OA
ATOM     10  O   UNL     1      15.022  13.752  64.933  1.00  0.00    -0.550 OA
ENDBRANCH   7   8
ENDBRANCH   6   7
ENDBRANCH   5   6
ENDBRANCH   4   5
ENDBRANCH   3   4
ENDBRANCH   2   3
ENDBRANCH   1   2
BRANCH   1  11
ATOM     11  C   UNL     1      15.796  14.699  61.022  1.00  0.00     0.000 C 
BRANCH  11  12
ATOM     12  C   UNL     1      17.287  14.856  60.672  1.00  0.00    -0.000 C 
BRANCH  12  13
ATOM     13  C   UNL     1      17.586  15.157  59.190  1.00  0.00    -0.000 C 
BRANCH  13  14
ATOM     14  C   UNL     1      18.396  16.444  58.931  1.00  0.00    -0.000 C 
BRANCH  14  15
ATOM     15  C   UNL     1      18.762  17.248  60.193  1.00  0.00    -0.000 C 
BRANCH  15  16
ATOM     16  C   UNL     1      20.185  16.951  60.695  1.00  0.00    -0.000 C 
BRANCH  16  17
ATOM     17  C   UNL     1      20.354  17.253  62.193  1.00  0.00    -0.003 C 
ATOM     18  C   UNL     1      19.165  18.012  62.783  1.00  0.00     0.004 C 
ENDBRANCH  16  17
ENDBRANCH  15  16
ENDBRANCH  14  15
ENDBRANCH  13  14
ENDBRANCH  12  13
ENDBRANCH  11  12
ENDBRANCH   1  11
TORSDOF 14
ENDMDL
MODEL 5
REMARK VINA RESULT:    -4.611      2.170      6.012
REMARK INTER + INTRA:         -10.087
REMARK INTER:                  -8.698
REMARK INTRA:                  -1.389
REMARK UNBOUND:                -1.702
REMARK SMILES CCCCCCCCCCCCCCCC(=O)[O-]
REMARK SMILES IDX 9 1 10 2 11 3 12 4 13 5 14 6 15 7 16 8 17 9 18 10 8 11 7 12
REMARK SMILES IDX 6 13 5 14 4 15 3 16 2 17 1 18
REMARK H PARENT
REMARK Flexibility Score: inf
ROOT
ATOM      1  C   UNL     1      14.399  16.815  62.801  1.00  0.00     0.000 C 
ENDROOT
BRANCH   1   2
ATOM      2  C   UNL     1      14.119  16.035  64.100  1.00  0.00     0.000 C 
BRANCH   2   3
ATOM      3  C   UNL     1      13.246  14.778  63.940  1.00  0.00     0.000 C 
BRANCH   3   4
ATOM      4  C   UNL     1      13.966  13.488  64.371  1.00  0.00     0.000 C 
BRANCH   4   5
ATOM      5  C   UNL     1      14.157  12.503  63.206  1.00  0.00     0.000 C 
BRANCH   5   6
ATOM      6  C   UNL     1      14.681  13.184  61.931  1.00  0.00     0.006 C 
BRANCH   6   7
ATOM      7  C   UNL     1      15.156  12.146  60.911  1.00  0.00     0.053 C 
BRANCH   7   8
ATOM      8  C   UNL     1      16.628  12.278  60.675  1.00  0.00     0.041 C 
ATOM      9  O   UNL     1      17.059  13.051  59.780  1.00  0.00    -0.550 OA
ATOM     10  O   UNL     1      17.521  11.510  61.411  1.00  0.00    -0.550 OA
ENDBRANCH   7   8
ENDBRANCH   6   7
ENDBRANCH   5   6
ENDBRANCH   4   5
ENDBRANCH   3   4
ENDBRANCH   2   3
ENDBRANCH   1   2
BRANCH   1  11
ATOM     11  C   UNL     1      15.858  16.692  62.332  1.00  0.00     0.000 C 
BRANCH  11  12
ATOM     12  C   UNL     1      15.984  16.063  60.932  1.00  0.00    -0.000 C 
BRANCH  12  13
ATOM     13  C   UNL     1      16.322  17.049  59.796  1.00  0.00    -0.000 C 
BRANCH  13  14
ATOM     14  C   UNL     1      17.668  16.799  59.087  1.00  0.00    -0.000 C 
BRANCH  14  15
ATOM     15  C   UNL     1      18.793  16.264  59.993  1.00  0.00    -0.000 C 
BRANCH  15  16
ATOM     16  C   UNL     1      19.725  17.375  60.505  1.00  0.00    -0.000 C 
BRANCH  16  17
ATOM     17  C   UNL     1      20.168  17.148  61.959  1.00  0.00    -0.003 C 
ATOM     18  C   UNL     1      19.357  17.970  62.962  1.00  0.00     0.004 C 
ENDBRANCH  16  17
ENDBRANCH  15  16
ENDBRANCH  14  15
ENDBRANCH  13  14
ENDBRANCH  12  13
ENDBRANCH  11  12
ENDBRANCH   1  11
TORSDOF 14
ENDMDL
MODEL 6
REMARK VINA RESULT:    -4.599     10.822     12.321
REMARK INTER + INTRA:         -10.066
REMARK INTER:                  -9.258
REMARK INTRA:                  -0.808
REMARK UNBOUND:                -1.702
REMARK SMILES CCCCCCCCCCCCCCCC(=O)[O-]
REMARK SMILES IDX 9 1 10 2 11 3 12 4 13 5 14 6 15 7 16 8 17 9 18 10 8 11 7 12
REMARK SMILES IDX 6 13 5 14 4 15 3 16 2 17 1 18
REMARK H PARENT
REMARK Flexibility Score: inf
ROOT
ATOM      1  C   UNL     1      10.805  25.285  60.342  1.00  0.00     0.000 C 
ENDROOT
BRANCH   1   2
ATOM      2  C   UNL     1      10.097  26.062  59.215  1.00  0.00     0.000 C 
BRANCH   2   3
ATOM      3  C   UNL     1      10.595  27.501  58.993  1.00  0.00     0.000 C 
BRANCH   3   4
ATOM      4  C   UNL     1      10.209  28.064  57.614  1.00  0.00     0.000 C 
BRANCH   4   5
ATOM      5  C   UNL     1      11.009  29.325  57.246  1.00  0.00     0.000 C 
BRANCH   5   6
ATOM      6  C   UNL     1      11.090  29.555  55.728  1.00  0.00     0.006 C 
BRANCH   6   7
ATOM      7  C   UNL     1      10.902  28.240  54.965  1.00  0.00     0.053 C 
BRANCH   7   8
ATOM      8  C   UNL     1      11.334  28.395  53.541  1.00  0.00     0.041 C 
ATOM      9  O   UNL     1      12.037  27.506  52.992  1.00  0.00    -0.550 OA
ATOM     10  O   UNL     1      11.002  29.543  52.835  1.00  0.00    -0.550 OA
ENDBRANCH   7   8
ENDBRANCH   6   7
ENDBRANCH   5   6
ENDBRANCH   4   5
ENDBRANCH   3   4
ENDBRANCH   2   3
ENDBRANCH   1   2
BRANCH   1  11
ATOM     11  C   UNL     1      12.016  24.479  59.846  1.00  0.00     0.000 C 
BRANCH  11  12
ATOM     12  C   UNL     1      13.144  24.391  60.890  1.00  0.00    -0.000 C 
BRANCH  12  13
ATOM     13  C   UNL     1      13.743  22.985  61.093  1.00  0.00    -0.000 C 
BRANCH  13  14
ATOM     14  C   UNL     1      12.824  21.814  60.691  1.00  0.00    -0.000 C 
BRANCH  14  15
ATOM     15  C   UNL     1      11.876  21.319  61.800  1.00  0.00    -0.000 C 
BRANCH  15  16
ATOM     16  C   UNL     1      10.401  21.639  61.508  1.00  0.00    -0.000 C 
BRANCH  16  17
ATOM     17  C   UNL     1       9.476  20.442  61.779  1.00  0.00    -0.003 C 
ATOM     18  C   UNL     1       8.495  20.179  60.635  1.00  0.00     0.004 C 
ENDBRANCH  16  17
ENDBRANCH  15  16
ENDBRANCH  14  15
ENDBRANCH  13  14
ENDBRANCH  12  13
ENDBRANCH  11  12
ENDBRANCH   1  11
TORSDOF 14
ENDMDL
MODEL 7
REMARK VINA RESULT:    -4.571      1.275      2.852
REMARK INTER + INTRA:         -10.015
REMARK INTER:                  -8.595
REMARK INTRA:                  -1.420
REMARK UNBOUND:                -1.702
REMARK SMILES CCCCCCCCCCCCCCCC(=O)[O-]
REMARK SMILES IDX 9 1 10 2 11 3 12 4 13 5 14 6 15 7 16 8 17 9 18 10 8 11 7 12
REMARK SMILES IDX 6 13 5 14 4 15 3 16 2 17 1 18
REMARK H PARENT
REMARK Flexibility Score: inf
ROOT
ATOM      1  C   UNL     1      14.602  13.057  60.889  1.00  0.00     0.000 C 
ENDROOT
BRANCH   1   2
ATOM      2  C   UNL     1      15.492  14.301  60.702  1.00  0.00     0.000 C 
BRANCH   2   3
ATOM      3  C   UNL     1      15.286  15.068  59.385  1.00  0.00     0.000 C 
BRANCH   3   4
ATOM      4  C   UNL     1      16.607  15.522  58.740  1.00  0.00     0.000 C 
BRANCH   4   5
ATOM      5  C   UNL     1      17.162  16.809  59.375  1.00  0.00     0.000 C 
BRANCH   5   6
ATOM      6  C   UNL     1      18.638  16.681  59.783  1.00  0.00     0.006 C 
BRANCH   6   7
ATOM      7  C   UNL     1      18.767  16.337  61.269  1.00  0.00     0.053 C 
BRANCH   7   8
ATOM      8  C   UNL     1      19.653  17.324  61.961  1.00  0.00     0.041 C 
ATOM      9  O   UNL     1      20.900  17.283  61.793  1.00  0.00    -0.550 OA
ATOM     10  O   UNL     1      19.106  18.259  62.830  1.00  0.00    -0.550 OA
ENDBRANCH   7   8
ENDBRANCH   6   7
ENDBRANCH   5   6
ENDBRANCH   4   5
ENDBRANCH   3   4
ENDBRANCH   2   3
ENDBRANCH   1   2
BRANCH   1  11
ATOM     11  C   UNL     1      14.668  12.481  62.312  1.00  0.00     0.000 C 
BRANCH  11  12
ATOM     12  C   UNL     1      13.536  12.999  63.219  1.00  0.00    -0.000 C 
BRANCH  12  13
ATOM     13  C   UNL     1      13.996  13.641  64.542  1.00  0.00    -0.000 C 
BRANCH  13  14
ATOM     14  C   UNL     1      13.131  14.819  65.037  1.00  0.00    -0.000 C 
BRANCH  14  15
ATOM     15  C   UNL     1      12.348  15.559  63.936  1.00  0.00    -0.000 C 
BRANCH  15  16
ATOM     16  C   UNL     1      13.234  16.504  63.107  1.00  0.00    -0.000 C 
BRANCH  16  17
ATOM     17  C   UNL     1      14.668  16.594  63.652  1.00  0.00    -0.003 C 
ATOM     18  C   UNL     1      15.592  17.418  62.756  1.00  0.00     0.004 C 
ENDBRANCH  16  17
ENDBRANCH  15  16
ENDBRANCH  14  15
ENDBRANCH  13  14
ENDBRANCH  12  13
ENDBRANCH  11  12
ENDBRANCH   1  11
TORSDOF 14
ENDMDL
MODEL 8
REMARK VINA RESULT:    -4.520      1.705      3.614
REMARK INTER + INTRA:          -9.922
REMARK INTER:                  -8.235
REMARK INTRA:                  -1.687
REMARK UNBOUND:                -1.702
REMARK SMILES CCCCCCCCCCCCCCCC(=O)[O-]
REMARK SMILES IDX 9 1 10 2 11 3 12 4 13 5 14 6 15 7 16 8 17 9 18 10 8 11 7 12
REMARK SMILES IDX 6 13 5 14 4 15 3 16 2 17 1 18
REMARK H PARENT
REMARK Flexibility Score: inf
ROOT
ATOM      1  C   UNL     1      13.679  16.181  63.647  1.00  0.00     0.000 C 
ENDROOT
BRANCH   1   2
ATOM      2  C   UNL     1      14.686  17.184  63.052  1.00  0.00     0.000 C 
BRANCH   2   3
ATOM      3  C   UNL     1      15.848  16.561  62.258  1.00  0.00     0.000 C 
BRANCH   3   4
ATOM      4  C   UNL     1      15.692  16.724  60.736  1.00  0.00     0.000 C 
BRANCH   4   5
ATOM      5  C   UNL     1      16.693  15.866  59.946  1.00  0.00     0.000 C 
BRANCH   5   6
ATOM      6  C   UNL     1      18.044  15.717  60.664  1.00  0.00     0.006 C 
BRANCH   6   7
ATOM      7  C   UNL     1      19.029  16.796  60.204  1.00  0.00     0.053 C 
BRANCH   7   8
ATOM      8  C   UNL     1      19.787  17.346  61.372  1.00  0.00     0.041 C 
ATOM      9  O   UNL     1      21.043  17.268  61.405  1.00  0.00    -0.550 OA
ATOM     10  O   UNL     1      19.102  17.899  62.446  1.00  0.00    -0.550 OA
ENDBRANCH   7   8
ENDBRANCH   6   7
ENDBRANCH   5   6
ENDBRANCH   4   5
ENDBRANCH   3   4
ENDBRANCH   2   3
ENDBRANCH   1   2
BRANCH   1  11
ATOM     11  C   UNL     1      14.216  15.460  64.894  1.00  0.00     0.000 C 
BRANCH  11  12
ATOM     12  C   UNL     1      13.843  13.967  64.928  1.00  0.00    -0.000 C 
BRANCH  12  13
ATOM     13  C   UNL     1      13.308  13.392  63.602  1.00  0.00    -0.000 C 
BRANCH  13  14
ATOM     14  C   UNL     1      14.315  12.544  62.799  1.00  0.00    -0.000 C 
BRANCH  14  15
ATOM     15  C   UNL     1      14.787  13.173  61.474  1.00  0.00    -0.000 C 
BRANCH  15  16
ATOM     16  C   UNL     1      15.779  12.280  60.711  1.00  0.00    -0.000 C 
BRANCH  16  17
ATOM     17  C   UNL     1      15.558  12.323  59.190  1.00  0.00    -0.003 C 
ATOM     18  C   UNL     1      14.857  11.073  58.657  1.00  0.00     0.004 C 
ENDBRANCH  16  17
ENDBRANCH  15  16
ENDBRANCH  14  15
ENDBRANCH  13  14
ENDBRANCH  12  13
ENDBRANCH  11  12
ENDBRANCH   1  11
TORSDOF 14
ENDMDL
MODEL 9
REMARK VINA RESULT:    -4.397     10.853     12.425
REMARK INTER + INTRA:          -9.698
REMARK INTER:                  -8.777
REMARK INTRA:                  -0.921
REMARK UNBOUND:                -1.702
REMARK SMILES CCCCCCCCCCCCCCCC(=O)[O-]
REMARK SMILES IDX 9 1 10 2 11 3 12 4 13 5 14 6 15 7 16 8 17 9 18 10 8 11 7 12
REMARK SMILES IDX 6 13 5 14 4 15 3 16 2 17 1 18
REMARK H PARENT
REMARK Flexibility Score: inf
ROOT
ATOM      1  C   UNL     1      11.266  25.541  58.610  1.00  0.00     0.000 C 
ENDROOT
BRANCH   1   2
ATOM      2  C   UNL     1      10.420  26.820  58.469  1.00  0.00     0.000 C 
BRANCH   2   3
ATOM      3  C   UNL     1      10.922  28.035  59.270  1.00  0.00     0.000 C 
BRANCH   3   4
ATOM      4  C   UNL     1      11.219  29.258  58.384  1.00  0.00     0.000 C 
BRANCH   4   5
ATOM      5  C   UNL     1      10.242  29.382  57.203  1.00  0.00     0.000 C 
BRANCH   5   6
ATOM      6  C   UNL     1      10.959  29.534  55.852  1.00  0.00     0.006 C 
BRANCH   6   7
ATOM      7  C   UNL     1      10.896  28.230  55.050  1.00  0.00     0.053 C 
BRANCH   7   8
ATOM      8  C   UNL     1      11.366  28.454  53.647  1.00  0.00     0.041 C 
ATOM      9  O   UNL     1      11.992  27.549  53.037  1.00  0.00    -0.550 OA
ATOM     10  O   UNL     1      11.155  29.681  53.032  1.00  0.00    -0.550 OA
ENDBRANCH   7   8
ENDBRANCH   6   7
ENDBRANCH   5   6
ENDBRANCH   4   5
ENDBRANCH   3   4
ENDBRANCH   2   3
ENDBRANCH   1   2
BRANCH   1  11
ATOM     11  C   UNL     1      11.311  25.008  60.051  1.00  0.00     0.000 C 
BRANCH  11  12
ATOM     12  C   UNL     1      12.566  24.162  60.337  1.00  0.00    -0.000 C 
BRANCH  12  13
ATOM     13  C   UNL     1      12.308  22.660  60.566  1.00  0.00    -0.000 C 
BRANCH  13  14
ATOM     14  C   UNL     1      13.573  21.794  60.737  1.00  0.00    -0.000 C 
BRANCH  14  15
ATOM     15  C   UNL     1      13.792  21.234  62.156  1.00  0.00    -0.000 C 
BRANCH  15  16
ATOM     16  C   UNL     1      12.478  20.831  62.846  1.00  0.00    -0.000 C 
BRANCH  16  17
ATOM     17  C   UNL     1      12.415  21.301  64.309  1.00  0.00    -0.003 C 
ATOM     18  C   UNL     1      12.821  22.766  64.479  1.00  0.00     0.004 C 
ENDBRANCH  16  17
ENDBRANCH  15  16
ENDBRANCH  14  15
ENDBRANCH  13  14
ENDBRANCH  12  13
ENDBRANCH  11  12
ENDBRANCH   1  11
TORSDOF 14
ENDMDL
