MODEL 1
REMARK VINA RESULT:    -4.524      0.000      0.000
REMARK INTER + INTRA:          -8.543
REMARK INTER:                  -7.698
REMARK INTRA:                  -0.845
REMARK UNBOUND:                -0.845
REMARK SMILES CCCCCCCCCCCCCC(=O)[O-]
REMARK SMILES IDX 8 1 9 2 10 3 11 4 12 5 13 6 14 7 15 8 16 9 7 10 6 11 5 12
REMARK SMILES IDX 4 13 3 14 2 15 1 16
REMARK H PARENT
REMARK Flexibility Score: inf
ROOT
ATOM      1  C   UNL     1     -19.129 -12.884 -21.914  1.00  0.00     0.000 C 
ENDROOT
BRANCH   1   2
ATOM      2  C   UNL     1     -19.658 -12.702 -23.344  1.00  0.00     0.000 C 
BRANCH   2   3
ATOM      3  C   UNL     1     -18.912 -13.614 -24.326  1.00  0.00     0.000 C 
BRANCH   3   4
ATOM      4  C   UNL     1     -18.981 -13.057 -25.756  1.00  0.00     0.000 C 
BRANCH   4   5
ATOM      5  C   UNL     1     -17.756 -12.202 -26.117  1.00  0.00     0.006 C 
BRANCH   5   6
ATOM      6  C   UNL     1     -16.671 -12.234 -25.033  1.00  0.00     0.053 C 
BRANCH   6   7
ATOM      7  C   UNL     1     -15.425 -12.872 -25.558  1.00  0.00     0.041 C 
ATOM      8  O   UNL     1     -15.468 -13.584 -26.597  1.00  0.00    -0.550 OA
ATOM      9  O   UNL     1     -14.226 -12.724 -24.874  1.00  0.00    -0.550 OA
ENDBRANCH   6   7
ENDBRANCH   5   6
ENDBRANCH   4   5
ENDBRANCH   3   4
ENDBRANCH   2   3
ENDBRANCH   1   2
BRANCH   1  10
ATOM     10  C   UNL     1     -18.096 -14.015 -21.801  1.00  0.00     0.000 C 
BRANCH  10  11
ATOM     11  C   UNL     1     -17.271 -13.937 -20.505  1.00  0.00    -0.000 C 
BRANCH  11  12
ATOM     12  C   UNL     1     -17.053 -12.490 -20.032  1.00  0.00    -0.000 C 
BRANCH  12  13
ATOM     13  C   UNL     1     -16.801 -12.396 -18.517  1.00  0.00    -0.000 C 
BRANCH  13  14
ATOM     14  C   UNL     1     -16.573 -13.770 -17.862  1.00  0.00    -0.000 C 
BRANCH  14  15
ATOM     15  C   UNL     1     -17.527 -14.102 -16.701  1.00  0.00    -0.003 C 
ATOM     16  C   UNL     1     -16.957 -13.729 -15.333  1.00  0.00     0.004 C 
ENDBRANCH  14  15
ENDBRANCH  13  14
ENDBRANCH  12  13
ENDBRANCH  11  12
ENDBRANCH  10  11
ENDBRANCH   1  10
TORSDOF 12
ENDMDL
MODEL 2
REMARK VINA RESULT:    -4.096      3.813      7.304
REMARK INTER + INTRA:          -7.815
REMARK INTER:                  -6.781
REMARK INTRA:                  -1.034
REMARK UNBOUND:                -0.845
REMARK SMILES CCCCCCCCCCCCCC(=O)[O-]
REMARK SMILES IDX 8 1 9 2 10 3 11 4 12 5 13 6 14 7 15 8 16 9 7 10 6 11 5 12
REMARK SMILES IDX 4 13 3 14 2 15 1 16
REMARK H PARENT
REMARK Flexibility Score: inf
ROOT
ATOM      1  C   UNL     1     -18.529 -12.568 -21.211  1.00  0.00     0.000 C 
ENDROOT
BRANCH   1   2
ATOM      2  C   UNL     1     -17.062 -12.786 -21.612  1.00  0.00     0.000 C 
BRANCH   2   3
ATOM      3  C   UNL     1     -16.118 -12.408 -20.463  1.00  0.00     0.000 C 
BRANCH   3   4
ATOM      4  C   UNL     1     -15.689 -13.654 -19.673  1.00  0.00     0.000 C 
BRANCH   4   5
ATOM      5  C   UNL     1     -16.725 -14.069 -18.616  1.00  0.00     0.006 C 
BRANCH   5   6
ATOM      6  C   UNL     1     -16.977 -12.974 -17.572  1.00  0.00     0.053 C 
BRANCH   6   7
ATOM      7  C   UNL     1     -17.298 -13.582 -16.244  1.00  0.00     0.041 C 
ATOM      8  O   UNL     1     -18.418 -14.125 -16.050  1.00  0.00    -0.550 OA
ATOM      9  O   UNL     1     -16.381 -13.506 -15.204  1.00  0.00    -0.550 OA
ENDBRANCH   6   7
ENDBRANCH   5   6
ENDBRANCH   4   5
ENDBRANCH   3   4
ENDBRANCH   2   3
ENDBRANCH   1   2
BRANCH   1  10
ATOM     10  C   UNL     1     -19.509 -12.873 -22.354  1.00  0.00     0.000 C 
BRANCH  10  11
ATOM     11  C   UNL     1     -19.088 -14.098 -23.184  1.00  0.00    -0.000 C 
BRANCH  11  12
ATOM     12  C   UNL     1     -19.036 -13.798 -24.692  1.00  0.00    -0.000 C 
BRANCH  12  13
ATOM     13  C   UNL     1     -18.542 -12.373 -24.993  1.00  0.00    -0.000 C 
BRANCH  13  14
ATOM     14  C   UNL     1     -17.556 -12.319 -26.173  1.00  0.00    -0.000 C 
BRANCH  14  15
ATOM     15  C   UNL     1     -16.301 -13.197 -26.012  1.00  0.00    -0.003 C 
ATOM     16  C   UNL     1     -15.344 -12.682 -24.938  1.00  0.00     0.004 C 
ENDBRANCH  14  15
ENDBRANCH  13  14
ENDBRANCH  12  13
ENDBRANCH  11  12
ENDBRANCH  10  11
ENDBRANCH   1  10
TORSDOF 12
ENDMDL
MODEL 3
REMARK VINA RESULT:    -4.085      9.575     11.446
REMARK INTER + INTRA:          -7.795
REMARK INTER:                  -7.218
REMARK INTRA:                  -0.577
REMARK UNBOUND:                -0.845
REMARK SMILES CCCCCCCCCCCCCC(=O)[O-]
REMARK SMILES IDX 8 1 9 2 10 3 11 4 12 5 13 6 14 7 15 8 16 9 7 10 6 11 5 12
REMARK SMILES IDX 4 13 3 14 2 15 1 16
REMARK H PARENT
REMARK Flexibility Score: inf
ROOT
ATOM      1  C   UNL     1     -14.546  -3.883 -15.546  1.00  0.00     0.000 C 
ENDROOT
BRANCH   1   2
ATOM      2  C   UNL     1     -14.393  -4.373 -16.994  1.00  0.00     0.000 C 
BRANCH   2   3
ATOM      3  C   UNL     1     -14.036  -5.864 -17.033  1.00  0.00     0.000 C 
BRANCH   3   4
ATOM      4  C   UNL     1     -13.810  -6.338 -18.477  1.00  0.00     0.000 C 
BRANCH   4   5
ATOM      5  C   UNL     1     -14.505  -5.437 -19.510  1.00  0.00     0.006 C 
BRANCH   5   6
ATOM      6  C   UNL     1     -15.478  -6.210 -20.410  1.00  0.00     0.053 C 
BRANCH   6   7
ATOM      7  C   UNL     1     -16.736  -5.427 -20.613  1.00  0.00     0.041 C 
ATOM      8  O   UNL     1     -17.206  -4.729 -19.677  1.00  0.00    -0.550 OA
ATOM      9  O   UNL     1     -17.417  -5.507 -21.821  1.00  0.00    -0.550 OA
ENDBRANCH   6   7
ENDBRANCH   5   6
ENDBRANCH   4   5
ENDBRANCH   3   4
ENDBRANCH   2   3
ENDBRANCH   1   2
BRANCH   1  10
ATOM     10  C   UNL     1     -14.023  -2.452 -15.344  1.00  0.00     0.000 C 
BRANCH  10  11
ATOM     11  C   UNL     1     -13.292  -2.273 -14.002  1.00  0.00    -0.000 C 
BRANCH  11  12
ATOM     12  C   UNL     1     -13.457  -3.490 -13.075  1.00  0.00    -0.000 C 
BRANCH  12  13
ATOM     13  C   UNL     1     -12.966  -3.211 -11.644  1.00  0.00    -0.000 C 
BRANCH  13  14
ATOM     14  C   UNL     1     -13.998  -3.601 -10.571  1.00  0.00    -0.000 C 
BRANCH  14  15
ATOM     15  C   UNL     1     -13.423  -4.363  -9.364  1.00  0.00    -0.003 C 
ATOM     16  C   UNL     1     -13.983  -5.779  -9.227  1.00  0.00     0.004 C 
ENDBRANCH  14  15
ENDBRANCH  13  14
ENDBRANCH  12  13
ENDBRANCH  11  12
ENDBRANCH  10  11
ENDBRANCH   1  10
TORSDOF 12
ENDMDL
MODEL 4
REMARK VINA RESULT:    -3.960      1.915      2.288
REMARK INTER + INTRA:          -7.584
REMARK INTER:                  -7.222
REMARK INTRA:                  -0.362
REMARK UNBOUND:                -0.845
REMARK SMILES CCCCCCCCCCCCCC(=O)[O-]
REMARK SMILES IDX 8 1 9 2 10 3 11 4 12 5 13 6 14 7 15 8 16 9 7 10 6 11 5 12
REMARK SMILES IDX 4 13 3 14 2 15 1 16
REMARK H PARENT
REMARK Flexibility Score: inf
ROOT
ATOM      1  C   UNL     1     -18.660 -12.287 -21.655  1.00  0.00     0.000 C 
ENDROOT
BRANCH   1   2
ATOM      2  C   UNL     1     -18.868 -13.797 -21.841  1.00  0.00     0.000 C 
BRANCH   2   3
ATOM      3  C   UNL     1     -19.238 -14.125 -23.294  1.00  0.00     0.000 C 
BRANCH   3   4
ATOM      4  C   UNL     1     -18.741 -13.028 -24.248  1.00  0.00     0.000 C 
BRANCH   4   5
ATOM      5  C   UNL     1     -17.512 -13.466 -25.062  1.00  0.00     0.006 C 
BRANCH   5   6
ATOM      6  C   UNL     1     -17.032 -12.384 -26.038  1.00  0.00     0.053 C 
BRANCH   6   7
ATOM      7  C   UNL     1     -18.165 -11.913 -26.893  1.00  0.00     0.041 C 
ATOM      8  O   UNL     1     -18.091 -10.805 -27.488  1.00  0.00    -0.550 OA
ATOM      9  O   UNL     1     -19.322 -12.673 -26.995  1.00  0.00    -0.550 OA
ENDBRANCH   6   7
ENDBRANCH   5   6
ENDBRANCH   4   5
ENDBRANCH   3   4
ENDBRANCH   2   3
ENDBRANCH   1   2
BRANCH   1  10
ATOM     10  C   UNL     1     -17.676 -11.957 -20.522  1.00  0.00     0.000 C 
BRANCH  10  11
ATOM     11  C   UNL     1     -16.276 -12.546 -20.764  1.00  0.00    -0.000 C 
BRANCH  11  12
ATOM     12  C   UNL     1     -15.859 -13.543 -19.670  1.00  0.00    -0.000 C 
BRANCH  12  13
ATOM     13  C   UNL     1     -17.015 -13.885 -18.713  1.00  0.00    -0.000 C 
BRANCH  13  14
ATOM     14  C   UNL     1     -16.580 -13.916 -17.237  1.00  0.00    -0.000 C 
BRANCH  14  15
ATOM     15  C   UNL     1     -17.735 -13.993 -16.222  1.00  0.00    -0.003 C 
ATOM     16  C   UNL     1     -17.254 -14.110 -14.776  1.00  0.00     0.004 C 
ENDBRANCH  14  15
ENDBRANCH  13  14
ENDBRANCH  12  13
ENDBRANCH  11  12
ENDBRANCH  10  11
ENDBRANCH   1  10
TORSDOF 12
ENDMDL
MODEL 5
REMARK VINA RESULT:    -3.808     10.492     13.530
REMARK INTER + INTRA:          -7.324
REMARK INTER:                  -6.903
REMARK INTRA:                  -0.421
REMARK UNBOUND:                -0.845
REMARK SMILES CCCCCCCCCCCCCC(=O)[O-]
REMARK SMILES IDX 8 1 9 2 10 3 11 4 12 5 13 6 14 7 15 8 16 9 7 10 6 11 5 12
REMARK SMILES IDX 4 13 3 14 2 15 1 16
REMARK H PARENT
REMARK Flexibility Score: inf
ROOT
ATOM      1  C   UNL     1     -14.402  -4.496 -16.830  1.00  0.00     0.000 C 
ENDROOT
BRANCH   1   2
ATOM      2  C   UNL     1     -14.417  -4.110 -15.343  1.00  0.00     0.000 C 
BRANCH   2   3
ATOM      3  C   UNL     1     -14.265  -2.594 -15.168  1.00  0.00     0.000 C 
BRANCH   3   4
ATOM      4  C   UNL     1     -13.360  -2.267 -13.970  1.00  0.00     0.000 C 
BRANCH   4   5
ATOM      5  C   UNL     1     -13.234  -3.441 -12.987  1.00  0.00     0.006 C 
BRANCH   5   6
ATOM      6  C   UNL     1     -14.352  -3.458 -11.937  1.00  0.00     0.053 C 
BRANCH   6   7
ATOM      7  C   UNL     1     -13.793  -3.755 -10.583  1.00  0.00     0.041 C 
ATOM      8  O   UNL     1     -14.098  -4.824  -9.991  1.00  0.00    -0.550 OA
ATOM      9  O   UNL     1     -12.974  -2.828  -9.951  1.00  0.00    -0.550 OA
ENDBRANCH   6   7
ENDBRANCH   5   6
ENDBRANCH   4   5
ENDBRANCH   3   4
ENDBRANCH   2   3
ENDBRANCH   1   2
BRANCH   1  10
ATOM     10  C   UNL     1     -13.768  -5.873 -17.081  1.00  0.00     0.000 C 
BRANCH  10  11
ATOM     11  C   UNL     1     -14.094  -6.429 -18.477  1.00  0.00    -0.000 C 
BRANCH  11  12
ATOM     12  C   UNL     1     -14.661  -5.356 -19.421  1.00  0.00    -0.000 C 
BRANCH  12  13
ATOM     13  C   UNL     1     -15.694  -5.925 -20.410  1.00  0.00    -0.000 C 
BRANCH  13  14
ATOM     14  C   UNL     1     -16.616  -4.843 -21.000  1.00  0.00    -0.000 C 
BRANCH  14  15
ATOM     15  C   UNL     1     -17.686  -5.365 -21.976  1.00  0.00    -0.003 C 
ATOM     16  C   UNL     1     -17.598  -4.723 -23.360  1.00  0.00     0.004 C 
ENDBRANCH  14  15
ENDBRANCH  13  14
ENDBRANCH  12  13
ENDBRANCH  11  12
ENDBRANCH  10  11
ENDBRANCH   1  10
TORSDOF 12
ENDMDL
MODEL 6
REMARK VINA RESULT:    -3.687      4.912      7.394
REMARK INTER + INTRA:          -7.118
REMARK INTER:                  -6.538
REMARK INTRA:                  -0.581
REMARK UNBOUND:                -0.845
REMARK SMILES CCCCCCCCCCCCCC(=O)[O-]
REMARK SMILES IDX 8 1 9 2 10 3 11 4 12 5 13 6 14 7 15 8 16 9 7 10 6 11 5 12
REMARK SMILES IDX 4 13 3 14 2 15 1 16
REMARK H PARENT
REMARK Flexibility Score: inf
ROOT
ATOM      1  C   UNL     1     -16.991 -10.782 -19.631  1.00  0.00     0.000 C 
ENDROOT
BRANCH   1   2
ATOM      2  C   UNL     1     -15.874  -9.872 -20.161  1.00  0.00     0.000 C 
BRANCH   2   3
ATOM      3  C   UNL     1     -16.290  -8.397 -20.096  1.00  0.00     0.000 C 
BRANCH   3   4
ATOM      4  C   UNL     1     -15.060  -7.477 -20.114  1.00  0.00     0.000 C 
BRANCH   4   5
ATOM      5  C   UNL     1     -15.430  -5.999 -20.314  1.00  0.00     0.006 C 
BRANCH   5   6
ATOM      6  C   UNL     1     -16.895  -5.805 -20.725  1.00  0.00     0.053 C 
BRANCH   6   7
ATOM      7  C   UNL     1     -17.002  -4.791 -21.818  1.00  0.00     0.041 C 
ATOM      8  O   UNL     1     -16.711  -3.586 -21.595  1.00  0.00    -0.550 OA
ATOM      9  O   UNL     1     -17.470  -5.165 -23.071  1.00  0.00    -0.550 OA
ENDBRANCH   6   7
ENDBRANCH   5   6
ENDBRANCH   4   5
ENDBRANCH   3   4
ENDBRANCH   2   3
ENDBRANCH   1   2
BRANCH   1  10
ATOM     10  C   UNL     1     -16.916 -12.208 -20.197  1.00  0.00     0.000 C 
BRANCH  10  11
ATOM     11  C   UNL     1     -17.254 -12.268 -21.697  1.00  0.00    -0.000 C 
BRANCH  11  12
ATOM     12  C   UNL     1     -18.303 -13.344 -22.022  1.00  0.00    -0.000 C 
BRANCH  12  13
ATOM     13  C   UNL     1     -19.286 -12.897 -23.118  1.00  0.00    -0.000 C 
BRANCH  13  14
ATOM     14  C   UNL     1     -19.135 -13.701 -24.422  1.00  0.00    -0.000 C 
BRANCH  14  15
ATOM     15  C   UNL     1     -18.636 -12.889 -25.631  1.00  0.00    -0.003 C 
ATOM     16  C   UNL     1     -17.249 -12.285 -25.414  1.00  0.00     0.004 C 
ENDBRANCH  14  15
ENDBRANCH  13  14
ENDBRANCH  12  13
ENDBRANCH  11  12
ENDBRANCH  10  11
ENDBRANCH   1  10
TORSDOF 12
ENDMDL
MODEL 7
REMARK VINA RESULT:    -3.636      9.271     10.777
REMARK INTER + INTRA:          -7.031
REMARK INTER:                  -6.196
REMARK INTRA:                  -0.835
REMARK UNBOUND:                -0.845
REMARK SMILES CCCCCCCCCCCCCC(=O)[O-]
REMARK SMILES IDX 8 1 9 2 10 3 11 4 12 5 13 6 14 7 15 8 16 9 7 10 6 11 5 12
REMARK SMILES IDX 4 13 3 14 2 15 1 16
REMARK H PARENT
REMARK Flexibility Score: inf
ROOT
ATOM      1  C   UNL     1     -14.049  -5.773 -16.479  1.00  0.00     0.000 C 
ENDROOT
BRANCH   1   2
ATOM      2  C   UNL     1     -14.323  -5.299 -17.914  1.00  0.00     0.000 C 
BRANCH   2   3
ATOM      3  C   UNL     1     -14.033  -6.416 -18.925  1.00  0.00     0.000 C 
BRANCH   3   4
ATOM      4  C   UNL     1     -14.943  -6.291 -20.157  1.00  0.00     0.000 C 
BRANCH   4   5
ATOM      5  C   UNL     1     -16.115  -5.324 -19.931  1.00  0.00     0.006 C 
BRANCH   5   6
ATOM      6  C   UNL     1     -17.280  -5.567 -20.899  1.00  0.00     0.053 C 
BRANCH   6   7
ATOM      7  C   UNL     1     -17.206  -4.621 -22.054  1.00  0.00     0.041 C 
ATOM      8  O   UNL     1     -16.913  -3.410 -21.864  1.00  0.00    -0.550 OA
ATOM      9  O   UNL     1     -17.508  -5.062 -23.336  1.00  0.00    -0.550 OA
ENDBRANCH   6   7
ENDBRANCH   5   6
ENDBRANCH   4   5
ENDBRANCH   3   4
ENDBRANCH   2   3
ENDBRANCH   1   2
BRANCH   1  10
ATOM     10  C   UNL     1     -14.409  -4.714 -15.425  1.00  0.00     0.000 C 
BRANCH  10  11
ATOM     11  C   UNL     1     -14.429  -3.288 -16.001  1.00  0.00    -0.000 C 
BRANCH  11  12
ATOM     12  C   UNL     1     -14.327  -2.210 -14.909  1.00  0.00    -0.000 C 
BRANCH  12  13
ATOM     13  C   UNL     1     -12.910  -2.101 -14.318  1.00  0.00    -0.000 C 
BRANCH  13  14
ATOM     14  C   UNL     1     -12.893  -2.194 -12.782  1.00  0.00    -0.000 C 
BRANCH  14  15
ATOM     15  C   UNL     1     -13.183  -3.595 -12.214  1.00  0.00    -0.003 C 
ATOM     16  C   UNL     1     -14.420  -3.633 -11.317  1.00  0.00     0.004 C 
ENDBRANCH  14  15
ENDBRANCH  13  14
ENDBRANCH  12  13
ENDBRANCH  11  12
ENDBRANCH  10  11
ENDBRANCH   1  10
TORSDOF 12
ENDMDL
MODEL 8
REMARK VINA RESULT:    -3.555      4.325      6.047
REMARK INTER + INTRA:          -6.893
REMARK INTER:                  -6.389
REMARK INTRA:                  -0.505
REMARK UNBOUND:                -0.845
REMARK SMILES CCCCCCCCCCCCCC(=O)[O-]
REMARK SMILES IDX 8 1 9 2 10 3 11 4 12 5 13 6 14 7 15 8 16 9 7 10 6 11 5 12
REMARK SMILES IDX 4 13 3 14 2 15 1 16
REMARK H PARENT
REMARK Flexibility Score: inf
ROOT
ATOM      1  C   UNL     1     -17.085 -10.833 -19.763  1.00  0.00     0.000 C 
ENDROOT
BRANCH   1   2
ATOM      2  C   UNL     1     -16.676 -12.263 -19.378  1.00  0.00     0.000 C 
BRANCH   2   3
ATOM      3  C   UNL     1     -17.148 -13.271 -20.434  1.00  0.00     0.000 C 
BRANCH   3   4
ATOM      4  C   UNL     1     -17.809 -12.554 -21.621  1.00  0.00     0.000 C 
BRANCH   4   5
ATOM      5  C   UNL     1     -18.416 -13.532 -22.639  1.00  0.00     0.006 C 
BRANCH   5   6
ATOM      6  C   UNL     1     -19.235 -12.824 -23.726  1.00  0.00     0.053 C 
BRANCH   6   7
ATOM      7  C   UNL     1     -18.480 -12.800 -25.016  1.00  0.00     0.041 C 
ATOM      8  O   UNL     1     -19.099 -12.772 -26.113  1.00  0.00    -0.550 OA
ATOM      9  O   UNL     1     -17.092 -12.858 -25.011  1.00  0.00    -0.550 OA
ENDBRANCH   6   7
ENDBRANCH   5   6
ENDBRANCH   4   5
ENDBRANCH   3   4
ENDBRANCH   2   3
ENDBRANCH   1   2
BRANCH   1  10
ATOM     10  C   UNL     1     -15.883  -9.951 -20.136  1.00  0.00     0.000 C 
BRANCH  10  11
ATOM     11  C   UNL     1     -16.223  -8.450 -20.123  1.00  0.00    -0.000 C 
BRANCH  11  12
ATOM     12  C   UNL     1     -14.968  -7.562 -20.098  1.00  0.00    -0.000 C 
BRANCH  12  13
ATOM     13  C   UNL     1     -15.306  -6.062 -20.172  1.00  0.00    -0.000 C 
BRANCH  13  14
ATOM     14  C   UNL     1     -16.725  -5.794 -20.705  1.00  0.00    -0.000 C 
BRANCH  14  15
ATOM     15  C   UNL     1     -16.876  -4.499 -21.524  1.00  0.00    -0.003 C 
ATOM     16  C   UNL     1     -17.586  -4.716 -22.860  1.00  0.00     0.004 C 
ENDBRANCH  14  15
ENDBRANCH  13  14
ENDBRANCH  12  13
ENDBRANCH  11  12
ENDBRANCH  10  11
ENDBRANCH   1  10
TORSDOF 12
ENDMDL
MODEL 9
REMARK VINA RESULT:    -3.081      9.394     11.554
REMARK INTER + INTRA:          -6.087
REMARK INTER:                  -5.427
REMARK INTRA:                  -0.660
REMARK UNBOUND:                -0.845
REMARK SMILES CCCCCCCCCCCCCC(=O)[O-]
REMARK SMILES IDX 8 1 9 2 10 3 11 4 12 5 13 6 14 7 15 8 16 9 7 10 6 11 5 12
REMARK SMILES IDX 4 13 3 14 2 15 1 16
REMARK H PARENT
REMARK Flexibility Score: inf
ROOT
ATOM      1  C   UNL     1     -14.415  -4.226 -15.041  1.00  0.00     0.000 C 
ENDROOT
BRANCH   1   2
ATOM      2  C   UNL     1     -14.125  -5.709 -14.767  1.00  0.00     0.000 C 
BRANCH   2   3
ATOM      3  C   UNL     1     -14.036  -6.502 -16.077  1.00  0.00     0.000 C 
BRANCH   3   4
ATOM      4  C   UNL     1     -14.300  -5.594 -17.288  1.00  0.00     0.000 C 
BRANCH   4   5
ATOM      5  C   UNL     1     -14.027  -6.299 -18.626  1.00  0.00     0.006 C 
BRANCH   5   6
ATOM      6  C   UNL     1     -14.518  -5.488 -19.833  1.00  0.00     0.053 C 
BRANCH   6   7
ATOM      7  C   UNL     1     -15.779  -6.077 -20.380  1.00  0.00     0.041 C 
ATOM      8  O   UNL     1     -15.905  -7.326 -20.478  1.00  0.00    -0.550 OA
ATOM      9  O   UNL     1     -16.797  -5.245 -20.827  1.00  0.00    -0.550 OA
ENDBRANCH   6   7
ENDBRANCH   5   6
ENDBRANCH   4   5
ENDBRANCH   3   4
ENDBRANCH   2   3
ENDBRANCH   1   2
BRANCH   1  10
ATOM     10  C   UNL     1     -14.568  -3.402 -13.753  1.00  0.00     0.000 C 
BRANCH  10  11
ATOM     11  C   UNL     1     -13.236  -2.798 -13.275  1.00  0.00    -0.000 C 
BRANCH  11  12
ATOM     12  C   UNL     1     -12.875  -3.228 -11.843  1.00  0.00    -0.000 C 
BRANCH  12  13
ATOM     13  C   UNL     1     -14.090  -3.759 -11.063  1.00  0.00    -0.000 C 
BRANCH  13  14
ATOM     14  C   UNL     1     -13.908  -3.667  -9.537  1.00  0.00    -0.000 C 
BRANCH  14  15
ATOM     15  C   UNL     1     -13.269  -4.906  -8.884  1.00  0.00    -0.003 C 
ATOM     16  C   UNL     1     -14.045  -6.194  -9.157  1.00  0.00     0.004 C 
ENDBRANCH  14  15
ENDBRANCH  13  14
ENDBRANCH  12  13
ENDBRANCH  11  12
ENDBRANCH  10  11
ENDBRANCH   1  10
TORSDOF 12
ENDMDL
