MODEL 1
REMARK VINA RESULT:    15.193      0.000      0.000
REMARK INTER + INTRA:          26.924
REMARK INTER:                  27.627
REMARK INTRA:                  -0.703
REMARK UNBOUND:                -0.703
REMARK SMILES CCCCCCCCCCCCCCCC(=O)[O-]
REMARK SMILES IDX 9 1 10 2 11 3 12 4 13 5 14 6 15 7 16 8 17 9 18 10 8 11 7 12
REMARK SMILES IDX 6 13 5 14 4 15 3 16 2 17 1 18
REMARK H PARENT
REMARK Flexibility Score: inf
ROOT
ATOM      1  C   UNL     1     -15.591 -12.505 -22.498  1.00  0.00     0.000 C 
ENDROOT
BRANCH   1   2
ATOM      2  C   UNL     1     -16.486 -13.739 -22.735  1.00  0.00     0.000 C 
BRANCH   2   3
ATOM      3  C   UNL     1     -17.315 -13.614 -24.026  1.00  0.00     0.000 C 
BRANCH   3   4
ATOM      4  C   UNL     1     -18.711 -13.028 -23.771  1.00  0.00     0.000 C 
BRANCH   4   5
ATOM      5  C   UNL     1     -19.622 -13.123 -25.009  1.00  0.00     0.000 C 
BRANCH   5   6
ATOM      6  C   UNL     1     -21.114 -13.044 -24.647  1.00  0.00     0.006 C 
BRANCH   6   7
ATOM      7  C   UNL     1     -21.706 -14.419 -24.311  1.00  0.00     0.053 C 
BRANCH   7   8
ATOM      8  C   UNL     1     -22.157 -14.459 -22.885  1.00  0.00     0.041 C 
ATOM      9  O   UNL     1     -22.839 -15.430 -22.462  1.00  0.00    -0.550 OA
ATOM     10  O   UNL     1     -21.791 -13.443 -22.011  1.00  0.00    -0.550 OA
ENDBRANCH   7   8
ENDBRANCH   6   7
ENDBRANCH   5   6
ENDBRANCH   4   5
ENDBRANCH   3   4
ENDBRANCH   2   3
ENDBRANCH   1   2
BRANCH   1  11
ATOM     11  C   UNL     1     -14.630 -12.202 -23.666  1.00  0.00     0.000 C 
BRANCH  11  12
ATOM     12  C   UNL     1     -13.667 -11.026 -23.427  1.00  0.00    -0.000 C 
BRANCH  12  13
ATOM     13  C   UNL     1     -14.207  -9.694 -23.972  1.00  0.00    -0.000 C 
BRANCH  13  14
ATOM     14  C   UNL     1     -14.278  -8.595 -22.896  1.00  0.00    -0.000 C 
BRANCH  14  15
ATOM     15  C   UNL     1     -12.955  -8.327 -22.156  1.00  0.00    -0.000 C 
BRANCH  15  16
ATOM     16  C   UNL     1     -13.167  -7.782 -20.733  1.00  0.00    -0.000 C 
BRANCH  16  17
ATOM     17  C   UNL     1     -12.308  -8.510 -19.689  1.00  0.00    -0.003 C 
ATOM     18  C   UNL     1     -12.828  -8.322 -18.263  1.00  0.00     0.004 C 
ENDBRANCH  16  17
ENDBRANCH  15  16
ENDBRANCH  14  15
ENDBRANCH  13  14
ENDBRANCH  12  13
ENDBRANCH  11  12
ENDBRANCH   1  11
TORSDOF 14
ENDMDL
MODEL 2
REMARK VINA RESULT:    16.175      3.970      6.376
REMARK INTER + INTRA:          28.711
REMARK INTER:                  29.436
REMARK INTRA:                  -0.725
REMARK UNBOUND:                -0.703
REMARK SMILES CCCCCCCCCCCCCCCC(=O)[O-]
REMARK SMILES IDX 9 1 10 2 11 3 12 4 13 5 14 6 15 7 16 8 17 9 18 10 8 11 7 12
REMARK SMILES IDX 6 13 5 14 4 15 3 16 2 17 1 18
REMARK H PARENT
REMARK Flexibility Score: inf
ROOT
ATOM      1  C   UNL     1     -16.438 -13.103 -22.117  1.00  0.00     0.000 C 
ENDROOT
BRANCH   1   2
ATOM      2  C   UNL     1     -16.158 -13.501 -23.581  1.00  0.00     0.000 C 
BRANCH   2   3
ATOM      3  C   UNL     1     -17.433 -13.966 -24.309  1.00  0.00     0.000 C 
BRANCH   3   4
ATOM      4  C   UNL     1     -18.565 -12.930 -24.227  1.00  0.00     0.000 C 
BRANCH   4   5
ATOM      5  C   UNL     1     -19.796 -13.342 -25.055  1.00  0.00     0.000 C 
BRANCH   5   6
ATOM      6  C   UNL     1     -21.117 -13.052 -24.323  1.00  0.00     0.006 C 
BRANCH   6   7
ATOM      7  C   UNL     1     -21.970 -14.314 -24.136  1.00  0.00     0.053 C 
BRANCH   7   8
ATOM      8  C   UNL     1     -22.260 -14.538 -22.686  1.00  0.00     0.041 C 
ATOM      9  O   UNL     1     -22.824 -15.599 -22.308  1.00  0.00    -0.550 OA
ATOM     10  O   UNL     1     -21.872 -13.594 -21.745  1.00  0.00    -0.550 OA
ENDBRANCH   7   8
ENDBRANCH   6   7
ENDBRANCH   5   6
ENDBRANCH   4   5
ENDBRANCH   3   4
ENDBRANCH   2   3
ENDBRANCH   1   2
BRANCH   1  11
ATOM     11  C   UNL     1     -15.931 -14.133 -21.087  1.00  0.00     0.000 C 
BRANCH  11  12
ATOM     12  C   UNL     1     -17.030 -14.970 -20.408  1.00  0.00    -0.000 C 
BRANCH  12  13
ATOM     13  C   UNL     1     -16.544 -15.666 -19.128  1.00  0.00    -0.000 C 
BRANCH  13  14
ATOM     14  C   UNL     1     -17.680 -15.921 -18.120  1.00  0.00    -0.000 C 
BRANCH  14  15
ATOM     15  C   UNL     1     -17.260 -15.856 -16.641  1.00  0.00    -0.000 C 
BRANCH  15  16
ATOM     16  C   UNL     1     -18.213 -16.634 -15.716  1.00  0.00    -0.000 C 
BRANCH  16  17
ATOM     17  C   UNL     1     -19.164 -17.557 -16.492  1.00  0.00    -0.003 C 
ATOM     18  C   UNL     1     -20.499 -17.764 -15.776  1.00  0.00     0.004 C 
ENDBRANCH  16  17
ENDBRANCH  15  16
ENDBRANCH  14  15
ENDBRANCH  13  14
ENDBRANCH  12  13
ENDBRANCH  11  12
ENDBRANCH   1  11
TORSDOF 14
ENDMDL
MODEL 3
REMARK VINA RESULT:    16.410      4.020      8.747
REMARK INTER + INTRA:          29.138
REMARK INTER:                  29.935
REMARK INTRA:                  -0.796
REMARK UNBOUND:                -0.703
REMARK SMILES CCCCCCCCCCCCCCCC(=O)[O-]
REMARK SMILES IDX 9 1 10 2 11 3 12 4 13 5 14 6 15 7 16 8 17 9 18 10 8 11 7 12
REMARK SMILES IDX 6 13 5 14 4 15 3 16 2 17 1 18
REMARK H PARENT
REMARK Flexibility Score: inf
ROOT
ATOM      1  C   UNL     1     -15.749 -12.635 -22.494  1.00  0.00     0.000 C 
ENDROOT
BRANCH   1   2
ATOM      2  C   UNL     1     -14.689 -12.225 -23.538  1.00  0.00     0.000 C 
BRANCH   2   3
ATOM      3  C   UNL     1     -13.895 -10.981 -23.100  1.00  0.00     0.000 C 
BRANCH   3   4
ATOM      4  C   UNL     1     -14.209  -9.751 -23.964  1.00  0.00     0.000 C 
BRANCH   4   5
ATOM      5  C   UNL     1     -14.595  -8.523 -23.118  1.00  0.00     0.000 C 
BRANCH   5   6
ATOM      6  C   UNL     1     -13.368  -7.812 -22.524  1.00  0.00     0.006 C 
BRANCH   6   7
ATOM      7  C   UNL     1     -13.515  -7.553 -21.019  1.00  0.00     0.053 C 
BRANCH   7   8
ATOM      8  C   UNL     1     -12.581  -8.429 -20.245  1.00  0.00     0.041 C 
ATOM      9  O   UNL     1     -11.715  -9.120 -20.844  1.00  0.00    -0.550 OA
ATOM     10  O   UNL     1     -12.641  -8.453 -18.857  1.00  0.00    -0.550 OA
ENDBRANCH   7   8
ENDBRANCH   6   7
ENDBRANCH   5   6
ENDBRANCH   4   5
ENDBRANCH   3   4
ENDBRANCH   2   3
ENDBRANCH   1   2
BRANCH   1  11
ATOM     11  C   UNL     1     -16.639 -13.812 -22.942  1.00  0.00     0.000 C 
BRANCH  11  12
ATOM     12  C   UNL     1     -17.355 -13.608 -24.289  1.00  0.00    -0.000 C 
BRANCH  12  13
ATOM     13  C   UNL     1     -18.639 -12.773 -24.160  1.00  0.00    -0.000 C 
BRANCH  13  14
ATOM     14  C   UNL     1     -19.806 -13.345 -24.986  1.00  0.00    -0.000 C 
BRANCH  14  15
ATOM     15  C   UNL     1     -21.193 -13.201 -24.333  1.00  0.00    -0.000 C 
BRANCH  15  16
ATOM     16  C   UNL     1     -22.000 -14.511 -24.351  1.00  0.00    -0.000 C 
BRANCH  16  17
ATOM     17  C   UNL     1     -22.582 -14.863 -22.974  1.00  0.00    -0.003 C 
ATOM     18  C   UNL     1     -22.013 -13.993 -21.853  1.00  0.00     0.004 C 
ENDBRANCH  16  17
ENDBRANCH  15  16
ENDBRANCH  14  15
ENDBRANCH  13  14
ENDBRANCH  12  13
ENDBRANCH  11  12
ENDBRANCH   1  11
TORSDOF 14
ENDMDL
MODEL 4
REMARK VINA RESULT:    16.972      3.842      8.824
REMARK INTER + INTRA:          30.161
REMARK INTER:                  30.765
REMARK INTRA:                  -0.604
REMARK UNBOUND:                -0.703
REMARK SMILES CCCCCCCCCCCCCCCC(=O)[O-]
REMARK SMILES IDX 9 1 10 2 11 3 12 4 13 5 14 6 15 7 16 8 17 9 18 10 8 11 7 12
REMARK SMILES IDX 6 13 5 14 4 15 3 16 2 17 1 18
REMARK H PARENT
REMARK Flexibility Score: inf
ROOT
ATOM      1  C   UNL     1     -14.365 -11.707 -22.889  1.00  0.00     0.000 C 
ENDROOT
BRANCH   1   2
ATOM      2  C   UNL     1     -13.983 -10.471 -23.730  1.00  0.00     0.000 C 
BRANCH   2   3
ATOM      3  C   UNL     1     -14.816  -9.232 -23.351  1.00  0.00     0.000 C 
BRANCH   3   4
ATOM      4  C   UNL     1     -13.945  -7.986 -23.130  1.00  0.00     0.000 C 
BRANCH   4   5
ATOM      5  C   UNL     1     -12.786  -8.248 -22.150  1.00  0.00     0.000 C 
BRANCH   5   6
ATOM      6  C   UNL     1     -13.122  -7.811 -20.715  1.00  0.00     0.006 C 
BRANCH   6   7
ATOM      7  C   UNL     1     -12.150  -8.399 -19.683  1.00  0.00     0.053 C 
BRANCH   7   8
ATOM      8  C   UNL     1     -12.876  -8.753 -18.424  1.00  0.00     0.041 C 
ATOM      9  O   UNL     1     -12.828  -9.928 -17.971  1.00  0.00    -0.550 OA
ATOM     10  O   UNL     1     -13.577  -7.777 -17.727  1.00  0.00    -0.550 OA
ENDBRANCH   7   8
ENDBRANCH   6   7
ENDBRANCH   5   6
ENDBRANCH   4   5
ENDBRANCH   3   4
ENDBRANCH   2   3
ENDBRANCH   1   2
BRANCH   1  11
ATOM     11  C   UNL     1     -15.103 -12.798 -23.690  1.00  0.00     0.000 C 
BRANCH  11  12
ATOM     12  C   UNL     1     -16.459 -13.230 -23.105  1.00  0.00    -0.000 C 
BRANCH  12  13
ATOM     13  C   UNL     1     -17.452 -13.696 -24.182  1.00  0.00    -0.000 C 
BRANCH  13  14
ATOM     14  C   UNL     1     -18.640 -12.733 -24.353  1.00  0.00    -0.000 C 
BRANCH  14  15
ATOM     15  C   UNL     1     -19.907 -13.367 -24.954  1.00  0.00    -0.000 C 
BRANCH  15  16
ATOM     16  C   UNL     1     -21.161 -13.120 -24.097  1.00  0.00    -0.000 C 
BRANCH  16  17
ATOM     17  C   UNL     1     -22.105 -14.331 -24.069  1.00  0.00    -0.003 C 
ATOM     18  C   UNL     1     -22.354 -14.851 -22.653  1.00  0.00     0.004 C 
ENDBRANCH  16  17
ENDBRANCH  15  16
ENDBRANCH  14  15
ENDBRANCH  13  14
ENDBRANCH  12  13
ENDBRANCH  11  12
ENDBRANCH   1  11
TORSDOF 14
ENDMDL
MODEL 5
REMARK VINA RESULT:    17.894     14.714     16.794
REMARK INTER + INTRA:          31.836
REMARK INTER:                  32.258
REMARK INTRA:                  -0.422
REMARK UNBOUND:                -0.703
REMARK SMILES CCCCCCCCCCCCCCCC(=O)[O-]
REMARK SMILES IDX 9 1 10 2 11 3 12 4 13 5 14 6 15 7 16 8 17 9 18 10 8 11 7 12
REMARK SMILES IDX 6 13 5 14 4 15 3 16 2 17 1 18
REMARK H PARENT
REMARK Flexibility Score: inf
ROOT
ATOM      1  C   UNL     1     -25.173  -3.973 -14.353  1.00  0.00     0.000 C 
ENDROOT
BRANCH   1   2
ATOM      2  C   UNL     1     -24.394  -3.464 -13.122  1.00  0.00     0.000 C 
BRANCH   2   3
ATOM      3  C   UNL     1     -25.226  -3.557 -11.830  1.00  0.00     0.000 C 
BRANCH   3   4
ATOM      4  C   UNL     1     -25.913  -4.921 -11.673  1.00  0.00     0.000 C 
BRANCH   4   5
ATOM      5  C   UNL     1     -27.446  -4.799 -11.590  1.00  0.00     0.000 C 
BRANCH   5   6
ATOM      6  C   UNL     1     -27.898  -3.419 -11.085  1.00  0.00     0.006 C 
BRANCH   6   7
ATOM      7  C   UNL     1     -29.419  -3.331 -10.907  1.00  0.00     0.053 C 
BRANCH   7   8
ATOM      8  C   UNL     1     -29.907  -4.440 -10.029  1.00  0.00     0.041 C 
ATOM      9  O   UNL     1     -30.770  -5.254 -10.454  1.00  0.00    -0.550 OA
ATOM     10  O   UNL     1     -29.381  -4.600  -8.754  1.00  0.00    -0.550 OA
ENDBRANCH   7   8
ENDBRANCH   6   7
ENDBRANCH   5   6
ENDBRANCH   4   5
ENDBRANCH   3   4
ENDBRANCH   2   3
ENDBRANCH   1   2
BRANCH   1  11
ATOM     11  C   UNL     1     -24.899  -3.165 -15.638  1.00  0.00     0.000 C 
BRANCH  11  12
ATOM     12  C   UNL     1     -24.593  -4.013 -16.886  1.00  0.00    -0.000 C 
BRANCH  12  13
ATOM     13  C   UNL     1     -25.861  -4.574 -17.550  1.00  0.00    -0.000 C 
BRANCH  13  14
ATOM     14  C   UNL     1     -26.858  -5.156 -16.532  1.00  0.00    -0.000 C 
BRANCH  14  15
ATOM     15  C   UNL     1     -28.080  -5.857 -17.152  1.00  0.00    -0.000 C 
BRANCH  15  16
ATOM     16  C   UNL     1     -29.374  -5.036 -17.010  1.00  0.00    -0.000 C 
BRANCH  16  17
ATOM     17  C   UNL     1     -30.162  -4.946 -18.325  1.00  0.00    -0.003 C 
ATOM     18  C   UNL     1     -29.837  -3.682 -19.122  1.00  0.00     0.004 C 
ENDBRANCH  16  17
ENDBRANCH  15  16
ENDBRANCH  14  15
ENDBRANCH  13  14
ENDBRANCH  12  13
ENDBRANCH  11  12
ENDBRANCH   1  11
TORSDOF 14
ENDMDL
