MODEL 1
REMARK VINA RESULT:    20.125      0.000      0.000
REMARK INTER + INTRA:          52.309
REMARK INTER:                  53.067
REMARK INTRA:                  -0.758
REMARK UNBOUND:                -0.758
REMARK SMILES CCCCCCCCCCCCCCCCCCCCCCCCCCCCCC(=O)[O-]
REMARK SMILES IDX 16 1 17 2 18 3 19 4 20 5 21 6 22 7 23 8 24 9 25 10 26 11
REMARK SMILES IDX 27 12 28 13 29 14 30 15 31 16 32 17 15 18 14 19 13 20 12 21
REMARK SMILES IDX 11 22 10 23 9 24 8 25 7 26 6 27 5 28 4 29 3 30 2 31 1 32
REMARK H PARENT
REMARK Flexibility Score: inf
ROOT
ATOM      1  C   UNL     1      -9.471  25.567 -15.447  1.00  0.00     0.000 C 
ENDROOT
BRANCH   1   2
ATOM      2  C   UNL     1      -8.021  26.009 -15.712  1.00  0.00     0.000 C 
BRANCH   2   3
ATOM      3  C   UNL     1      -6.976  25.438 -14.735  1.00  0.00     0.000 C 
BRANCH   3   4
ATOM      4  C   UNL     1      -6.601  23.980 -15.045  1.00  0.00     0.000 C 
BRANCH   4   5
ATOM      5  C   UNL     1      -5.301  23.532 -14.350  1.00  0.00     0.000 C 
BRANCH   5   6
ATOM      6  C   UNL     1      -5.142  22.009 -14.172  1.00  0.00     0.000 C 
BRANCH   6   7
ATOM      7  C   UNL     1      -6.160  21.342 -13.227  1.00  0.00     0.000 C 
BRANCH   7   8
ATOM      8  C   UNL     1      -5.564  20.891 -11.876  1.00  0.00     0.000 C 
BRANCH   8   9
ATOM      9  C   UNL     1      -6.391  19.777 -11.207  1.00  0.00     0.000 C 
BRANCH   9  10
ATOM     10  C   UNL     1      -5.979  18.373 -11.682  1.00  0.00     0.000 C 
BRANCH  10  11
ATOM     11  C   UNL     1      -6.871  17.858 -12.825  1.00  0.00     0.000 C 
BRANCH  11  12
ATOM     12  C   UNL     1      -6.184  16.779 -13.677  1.00  0.00     0.000 C 
BRANCH  12  13
ATOM     13  C   UNL     1      -5.245  15.879 -12.859  1.00  0.00     0.006 C 
BRANCH  13  14
ATOM     14  C   UNL     1      -3.806  15.961 -13.385  1.00  0.00     0.053 C 
BRANCH  14  15
ATOM     15  C   UNL     1      -2.854  16.377 -12.304  1.00  0.00     0.041 C 
ATOM     16  O   UNL     1      -1.652  16.639 -12.578  1.00  0.00    -0.550 OA
ATOM     17  O   UNL     1      -3.282  16.425 -10.983  1.00  0.00    -0.550 OA
ENDBRANCH  14  15
ENDBRANCH  13  14
ENDBRANCH  12  13
ENDBRANCH  11  12
ENDBRANCH  10  11
ENDBRANCH   9  10
ENDBRANCH   8   9
ENDBRANCH   7   8
ENDBRANCH   6   7
ENDBRANCH   5   6
ENDBRANCH   4   5
ENDBRANCH   3   4
ENDBRANCH   2   3
ENDBRANCH   1   2
BRANCH   1  18
ATOM     18  C   UNL     1     -10.476  26.194 -16.430  1.00  0.00     0.000 C 
BRANCH  18  19
ATOM     19  C   UNL     1     -10.867  27.629 -16.043  1.00  0.00     0.000 C 
BRANCH  19  20
ATOM     20  C   UNL     1     -12.297  27.992 -16.477  1.00  0.00     0.000 C 
BRANCH  20  21
ATOM     21  C   UNL     1     -13.230  28.260 -15.286  1.00  0.00     0.000 C 
BRANCH  21  22
ATOM     22  C   UNL     1     -14.232  29.393 -15.551  1.00  0.00     0.000 C 
BRANCH  22  23
ATOM     23  C   UNL     1     -14.548  29.503 -17.050  1.00  0.00     0.000 C 
BRANCH  23  24
ATOM     24  C   UNL     1     -13.550  30.392 -17.811  1.00  0.00    -0.000 C 
BRANCH  24  25
ATOM     25  C   UNL     1     -14.168  31.267 -18.921  1.00  0.00    -0.000 C 
BRANCH  25  26
ATOM     26  C   UNL     1     -14.674  32.648 -18.459  1.00  0.00    -0.000 C 
BRANCH  26  27
ATOM     27  C   UNL     1     -15.394  33.472 -19.545  1.00  0.00    -0.000 C 
BRANCH  27  28
ATOM     28  C   UNL     1     -16.470  34.443 -19.020  1.00  0.00    -0.000 C 
BRANCH  28  29
ATOM     29  C   UNL     1     -17.908  33.895 -19.048  1.00  0.00    -0.000 C 
BRANCH  29  30
ATOM     30  C   UNL     1     -18.948  34.971 -19.397  1.00  0.00    -0.000 C 
BRANCH  30  31
ATOM     31  C   UNL     1     -19.784  35.349 -18.168  1.00  0.00    -0.003 C 
ATOM     32  C   UNL     1     -21.123  34.618 -18.168  1.00  0.00     0.004 C 
ENDBRANCH  30  31
ENDBRANCH  29  30
ENDBRANCH  28  29
ENDBRANCH  27  28
ENDBRANCH  26  27
ENDBRANCH  25  26
ENDBRANCH  24  25
ENDBRANCH  23  24
ENDBRANCH  22  23
ENDBRANCH  21  22
ENDBRANCH  20  21
ENDBRANCH  19  20
ENDBRANCH  18  19
ENDBRANCH   1  18
TORSDOF 28
ENDMDL
MODEL 2
REMARK VINA RESULT:    22.050      2.093      5.639
REMARK INTER + INTRA:          57.386
REMARK INTER:                  56.436
REMARK INTRA:                   0.950
REMARK UNBOUND:                -0.758
REMARK SMILES CCCCCCCCCCCCCCCCCCCCCCCCCCCCCC(=O)[O-]
REMARK SMILES IDX 16 1 17 2 18 3 19 4 20 5 21 6 22 7 23 8 24 9 25 10 26 11
REMARK SMILES IDX 27 12 28 13 29 14 30 15 31 16 32 17 15 18 14 19 13 20 12 21
REMARK SMILES IDX 11 22 10 23 9 24 8 25 7 26 6 27 5 28 4 29 3 30 2 31 1 32
REMARK H PARENT
REMARK Flexibility Score: inf
ROOT
ATOM      1  C   UNL     1     -13.764  29.861 -15.625  1.00  0.00     0.000 C 
ENDROOT
BRANCH   1   2
ATOM      2  C   UNL     1     -13.859  28.339 -15.837  1.00  0.00     0.000 C 
BRANCH   2   3
ATOM      3  C   UNL     1     -12.762  27.736 -16.734  1.00  0.00     0.000 C 
BRANCH   3   4
ATOM      4  C   UNL     1     -11.479  27.392 -15.959  1.00  0.00     0.000 C 
BRANCH   4   5
ATOM      5  C   UNL     1     -10.691  26.226 -16.587  1.00  0.00     0.000 C 
BRANCH   5   6
ATOM      6  C   UNL     1      -9.481  25.734 -15.769  1.00  0.00     0.000 C 
BRANCH   6   7
ATOM      7  C   UNL     1      -8.430  26.809 -15.428  1.00  0.00     0.000 C 
BRANCH   7   8
ATOM      8  C   UNL     1      -6.974  26.296 -15.448  1.00  0.00     0.000 C 
BRANCH   8   9
ATOM      9  C   UNL     1      -6.853  24.839 -14.963  1.00  0.00     0.000 C 
BRANCH   9  10
ATOM     10  C   UNL     1      -5.872  24.692 -13.787  1.00  0.00     0.000 C 
BRANCH  10  11
ATOM     11  C   UNL     1      -5.246  23.288 -13.722  1.00  0.00     0.000 C 
BRANCH  11  12
ATOM     12  C   UNL     1      -6.252  22.171 -14.042  1.00  0.00     0.000 C 
BRANCH  12  13
ATOM     13  C   UNL     1      -5.573  20.856 -14.457  1.00  0.00     0.006 C 
BRANCH  13  14
ATOM     14  C   UNL     1      -6.037  19.693 -13.568  1.00  0.00     0.053 C 
BRANCH  14  15
ATOM     15  C   UNL     1      -6.118  20.105 -12.129  1.00  0.00     0.041 C 
ATOM     16  O   UNL     1      -6.358  21.303 -11.820  1.00  0.00    -0.550 OA
ATOM     17  O   UNL     1      -5.874  19.175 -11.127  1.00  0.00    -0.550 OA
ENDBRANCH  14  15
ENDBRANCH  13  14
ENDBRANCH  12  13
ENDBRANCH  11  12
ENDBRANCH  10  11
ENDBRANCH   9  10
ENDBRANCH   8   9
ENDBRANCH   7   8
ENDBRANCH   6   7
ENDBRANCH   5   6
ENDBRANCH   4   5
ENDBRANCH   3   4
ENDBRANCH   2   3
ENDBRANCH   1   2
BRANCH   1  18
ATOM     18  C   UNL     1     -13.392  30.623 -16.910  1.00  0.00     0.000 C 
BRANCH  18  19
ATOM     19  C   UNL     1     -14.620  31.201 -17.631  1.00  0.00     0.000 C 
BRANCH  19  20
ATOM     20  C   UNL     1     -14.266  31.838 -18.986  1.00  0.00     0.000 C 
BRANCH  20  21
ATOM     21  C   UNL     1     -15.498  32.067 -19.874  1.00  0.00     0.000 C 
BRANCH  21  22
ATOM     22  C   UNL     1     -15.470  33.418 -20.605  1.00  0.00     0.000 C 
BRANCH  22  23
ATOM     23  C   UNL     1     -16.577  34.346 -20.080  1.00  0.00     0.000 C 
BRANCH  23  24
ATOM     24  C   UNL     1     -16.931  35.475 -21.063  1.00  0.00    -0.000 C 
BRANCH  24  25
ATOM     25  C   UNL     1     -18.418  35.882 -21.082  1.00  0.00    -0.000 C 
BRANCH  25  26
ATOM     26  C   UNL     1     -19.174  35.662 -19.757  1.00  0.00    -0.000 C 
BRANCH  26  27
ATOM     27  C   UNL     1     -18.319  35.834 -18.486  1.00  0.00    -0.000 C 
BRANCH  27  28
ATOM     28  C   UNL     1     -19.035  35.484 -17.167  1.00  0.00    -0.000 C 
BRANCH  28  29
ATOM     29  C   UNL     1     -20.445  36.083 -17.015  1.00  0.00    -0.000 C 
BRANCH  29  30
ATOM     30  C   UNL     1     -21.122  35.684 -15.695  1.00  0.00    -0.000 C 
BRANCH  30  31
ATOM     31  C   UNL     1     -20.085  35.272 -14.644  1.00  0.00    -0.003 C 
ATOM     32  C   UNL     1     -20.209  36.124 -13.385  1.00  0.00     0.004 C 
ENDBRANCH  30  31
ENDBRANCH  29  30
ENDBRANCH  28  29
ENDBRANCH  27  28
ENDBRANCH  26  27
ENDBRANCH  25  26
ENDBRANCH  24  25
ENDBRANCH  23  24
ENDBRANCH  22  23
ENDBRANCH  21  22
ENDBRANCH  20  21
ENDBRANCH  19  20
ENDBRANCH  18  19
ENDBRANCH   1  18
TORSDOF 28
ENDMDL
MODEL 3
REMARK VINA RESULT:    22.640      2.823      5.716
REMARK INTER + INTRA:          58.941
REMARK INTER:                  59.311
REMARK INTRA:                  -0.371
REMARK UNBOUND:                -0.758
REMARK SMILES CCCCCCCCCCCCCCCCCCCCCCCCCCCCCC(=O)[O-]
REMARK SMILES IDX 16 1 17 2 18 3 19 4 20 5 21 6 22 7 23 8 24 9 25 10 26 11
REMARK SMILES IDX 27 12 28 13 29 14 30 15 31 16 32 17 15 18 14 19 13 20 12 21
REMARK SMILES IDX 11 22 10 23 9 24 8 25 7 26 6 27 5 28 4 29 3 30 2 31 1 32
REMARK H PARENT
REMARK Flexibility Score: inf
ROOT
ATOM      1  C   UNL     1     -14.103  29.063 -16.089  1.00  0.00     0.000 C 
ENDROOT
BRANCH   1   2
ATOM      2  C   UNL     1     -12.611  28.994 -15.718  1.00  0.00     0.000 C 
BRANCH   2   3
ATOM      3  C   UNL     1     -12.061  27.574 -15.491  1.00  0.00     0.000 C 
BRANCH   3   4
ATOM      4  C   UNL     1     -10.731  27.324 -16.222  1.00  0.00     0.000 C 
BRANCH   4   5
ATOM      5  C   UNL     1     -10.419  25.827 -16.408  1.00  0.00     0.000 C 
BRANCH   5   6
ATOM      6  C   UNL     1      -9.002  25.393 -15.983  1.00  0.00     0.000 C 
BRANCH   6   7
ATOM      7  C   UNL     1      -8.477  26.027 -14.680  1.00  0.00     0.000 C 
BRANCH   7   8
ATOM      8  C   UNL     1      -6.941  26.164 -14.620  1.00  0.00     0.000 C 
BRANCH   8   9
ATOM      9  C   UNL     1      -6.214  24.932 -15.190  1.00  0.00     0.000 C 
BRANCH   9  10
ATOM     10  C   UNL     1      -6.189  23.755 -14.199  1.00  0.00     0.000 C 
BRANCH  10  11
ATOM     11  C   UNL     1      -5.499  22.511 -14.787  1.00  0.00     0.000 C 
BRANCH  11  12
ATOM     12  C   UNL     1      -6.204  21.201 -14.403  1.00  0.00     0.000 C 
BRANCH  12  13
ATOM     13  C   UNL     1      -5.722  19.998 -15.230  1.00  0.00     0.006 C 
BRANCH  13  14
ATOM     14  C   UNL     1      -4.964  20.459 -16.482  1.00  0.00     0.053 C 
BRANCH  14  15
ATOM     15  C   UNL     1      -4.921  19.379 -17.521  1.00  0.00     0.041 C 
ATOM     16  O   UNL     1      -3.820  18.997 -18.000  1.00  0.00    -0.550 OA
ATOM     17  O   UNL     1      -6.104  18.831 -18.001  1.00  0.00    -0.550 OA
ENDBRANCH  14  15
ENDBRANCH  13  14
ENDBRANCH  12  13
ENDBRANCH  11  12
ENDBRANCH  10  11
ENDBRANCH   9  10
ENDBRANCH   8   9
ENDBRANCH   7   8
ENDBRANCH   6   7
ENDBRANCH   5   6
ENDBRANCH   4   5
ENDBRANCH   3   4
ENDBRANCH   2   3
ENDBRANCH   1   2
BRANCH   1  18
ATOM     18  C   UNL     1     -14.523  30.444 -16.624  1.00  0.00     0.000 C 
BRANCH  18  19
ATOM     19  C   UNL     1     -14.724  30.452 -18.148  1.00  0.00     0.000 C 
BRANCH  19  20
ATOM     20  C   UNL     1     -14.552  31.852 -18.762  1.00  0.00     0.000 C 
BRANCH  20  21
ATOM     21  C   UNL     1     -15.894  32.537 -19.062  1.00  0.00     0.000 C 
BRANCH  21  22
ATOM     22  C   UNL     1     -15.915  33.244 -20.426  1.00  0.00     0.000 C 
BRANCH  22  23
ATOM     23  C   UNL     1     -16.991  34.341 -20.455  1.00  0.00     0.000 C 
BRANCH  23  24
ATOM     24  C   UNL     1     -18.302  33.880 -21.114  1.00  0.00    -0.000 C 
BRANCH  24  25
ATOM     25  C   UNL     1     -19.526  34.774 -20.830  1.00  0.00    -0.000 C 
BRANCH  25  26
ATOM     26  C   UNL     1     -20.120  34.641 -19.414  1.00  0.00    -0.000 C 
BRANCH  26  27
ATOM     27  C   UNL     1     -19.083  34.631 -18.273  1.00  0.00    -0.000 C 
BRANCH  27  28
ATOM     28  C   UNL     1     -18.112  35.828 -18.264  1.00  0.00    -0.000 C 
BRANCH  28  29
ATOM     29  C   UNL     1     -16.861  35.642 -17.387  1.00  0.00    -0.000 C 
BRANCH  29  30
ATOM     30  C   UNL     1     -15.574  36.123 -18.074  1.00  0.00    -0.000 C 
BRANCH  30  31
ATOM     31  C   UNL     1     -14.350  35.367 -17.547  1.00  0.00    -0.003 C 
ATOM     32  C   UNL     1     -13.440  34.927 -18.690  1.00  0.00     0.004 C 
ENDBRANCH  30  31
ENDBRANCH  29  30
ENDBRANCH  28  29
ENDBRANCH  27  28
ENDBRANCH  26  27
ENDBRANCH  25  26
ENDBRANCH  24  25
ENDBRANCH  23  24
ENDBRANCH  22  23
ENDBRANCH  21  22
ENDBRANCH  20  21
ENDBRANCH  19  20
ENDBRANCH  18  19
ENDBRANCH   1  18
TORSDOF 28
ENDMDL
MODEL 4
REMARK VINA RESULT:    23.045      7.795     10.041
REMARK INTER + INTRA:          60.009
REMARK INTER:                  50.032
REMARK INTRA:                   9.977
REMARK UNBOUND:                -0.758
REMARK SMILES CCCCCCCCCCCCCCCCCCCCCCCCCCCCCC(=O)[O-]
REMARK SMILES IDX 16 1 17 2 18 3 19 4 20 5 21 6 22 7 23 8 24 9 25 10 26 11
REMARK SMILES IDX 27 12 28 13 29 14 30 15 31 16 32 17 15 18 14 19 13 20 12 21
REMARK SMILES IDX 11 22 10 23 9 24 8 25 7 26 6 27 5 28 4 29 3 30 2 31 1 32
REMARK H PARENT
REMARK Flexibility Score: inf
ROOT
ATOM      1  C   UNL     1     -15.239  31.738 -20.175  1.00  0.00     0.000 C 
ENDROOT
BRANCH   1   2
ATOM      2  C   UNL     1     -14.197  30.940 -19.372  1.00  0.00     0.000 C 
BRANCH   2   3
ATOM      3  C   UNL     1     -14.757  30.161 -18.168  1.00  0.00     0.000 C 
BRANCH   3   4
ATOM      4  C   UNL     1     -13.715  29.943 -17.059  1.00  0.00     0.000 C 
BRANCH   4   5
ATOM      5  C   UNL     1     -14.099  28.812 -16.086  1.00  0.00     0.000 C 
BRANCH   5   6
ATOM      6  C   UNL     1     -12.929  28.206 -15.286  1.00  0.00     0.000 C 
BRANCH   6   7
ATOM      7  C   UNL     1     -12.558  26.755 -15.650  1.00  0.00     0.000 C 
BRANCH   7   8
ATOM      8  C   UNL     1     -12.469  26.489 -17.168  1.00  0.00     0.000 C 
BRANCH   8   9
ATOM      9  C   UNL     1     -11.970  27.714 -17.956  1.00  0.00     0.000 C 
BRANCH   9  10
ATOM     10  C   UNL     1     -11.012  27.329 -19.096  1.00  0.00     0.000 C 
BRANCH  10  11
ATOM     11  C   UNL     1     -11.722  26.551 -20.218  1.00  0.00     0.000 C 
BRANCH  11  12
ATOM     12  C   UNL     1     -12.326  25.224 -19.732  1.00  0.00     0.000 C 
BRANCH  12  13
ATOM     13  C   UNL     1     -13.721  24.953 -20.318  1.00  0.00     0.006 C 
BRANCH  13  14
ATOM     14  C   UNL     1     -13.894  23.467 -20.663  1.00  0.00     0.053 C 
BRANCH  14  15
ATOM     15  C   UNL     1     -14.089  22.640 -19.429  1.00  0.00     0.041 C 
ATOM     16  O   UNL     1     -14.213  21.389 -19.512  1.00  0.00    -0.550 OA
ATOM     17  O   UNL     1     -14.188  23.257 -18.188  1.00  0.00    -0.550 OA
ENDBRANCH  14  15
ENDBRANCH  13  14
ENDBRANCH  12  13
ENDBRANCH  11  12
ENDBRANCH  10  11
ENDBRANCH   9  10
ENDBRANCH   8   9
ENDBRANCH   7   8
ENDBRANCH   6   7
ENDBRANCH   5   6
ENDBRANCH   4   5
ENDBRANCH   3   4
ENDBRANCH   2   3
ENDBRANCH   1   2
BRANCH   1  18
ATOM     18  C   UNL     1     -15.785  32.954 -19.405  1.00  0.00     0.000 C 
BRANCH  18  19
ATOM     19  C   UNL     1     -16.783  33.780 -20.232  1.00  0.00     0.000 C 
BRANCH  19  20
ATOM     20  C   UNL     1     -18.026  34.192 -19.424  1.00  0.00     0.000 C 
BRANCH  20  21
ATOM     21  C   UNL     1     -19.137  34.784 -20.305  1.00  0.00     0.000 C 
BRANCH  21  22
ATOM     22  C   UNL     1     -19.911  33.717 -21.094  1.00  0.00     0.000 C 
BRANCH  22  23
ATOM     23  C   UNL     1     -20.689  32.794 -20.143  1.00  0.00     0.000 C 
BRANCH  23  24
ATOM     24  C   UNL     1     -21.012  33.456 -18.793  1.00  0.00    -0.000 C 
BRANCH  24  25
ATOM     25  C   UNL     1     -20.836  34.988 -18.757  1.00  0.00    -0.000 C 
BRANCH  25  26
ATOM     26  C   UNL     1     -21.002  35.634 -17.368  1.00  0.00    -0.000 C 
BRANCH  26  27
ATOM     27  C   UNL     1     -19.684  36.025 -16.672  1.00  0.00    -0.000 C 
BRANCH  27  28
ATOM     28  C   UNL     1     -18.459  36.125 -17.603  1.00  0.00    -0.000 C 
BRANCH  28  29
ATOM     29  C   UNL     1     -17.456  34.964 -17.481  1.00  0.00    -0.000 C 
BRANCH  29  30
ATOM     30  C   UNL     1     -16.142  35.232 -18.230  1.00  0.00    -0.000 C 
BRANCH  30  31
ATOM     31  C   UNL     1     -15.206  36.121 -17.403  1.00  0.00    -0.003 C 
ATOM     32  C   UNL     1     -14.256  35.280 -16.555  1.00  0.00     0.004 C 
ENDBRANCH  30  31
ENDBRANCH  29  30
ENDBRANCH  28  29
ENDBRANCH  27  28
ENDBRANCH  26  27
ENDBRANCH  25  26
ENDBRANCH  24  25
ENDBRANCH  23  24
ENDBRANCH  22  23
ENDBRANCH  21  22
ENDBRANCH  20  21
ENDBRANCH  19  20
ENDBRANCH  18  19
ENDBRANCH   1  18
TORSDOF 28
ENDMDL
