MODEL 1
REMARK VINA RESULT:    -5.509      0.000      0.000
REMARK INTER + INTRA:         -13.042
REMARK INTER:                 -10.340
REMARK INTRA:                  -2.703
REMARK UNBOUND:                -2.703
REMARK SMILES CCCCCCCCC=CCCCCCCCC(=O)[O-]
REMARK SMILES IDX 10 1 9 2 11 3 12 4 13 5 14 6 15 7 16 8 17 9 18 10 19 11
REMARK SMILES IDX 20 12 8 13 7 14 6 15 5 16 4 17 3 18 2 19 1 20
REMARK H PARENT
REMARK Flexibility Score: inf
ROOT
ATOM      1  C   UNL     1     -41.513  13.419  -1.966  1.00  0.00    -0.031 C 
ATOM      2  C   UNL     1     -40.353  13.643  -1.322  1.00  0.00    -0.031 C 
ENDROOT
BRANCH   1   3
ATOM      3  C   UNL     1     -42.494  14.495  -2.365  1.00  0.00     0.027 C 
BRANCH   3   4
ATOM      4  C   UNL     1     -43.707  14.544  -1.425  1.00  0.00     0.004 C 
BRANCH   4   5
ATOM      5  C   UNL     1     -44.320  13.153  -1.197  1.00  0.00     0.000 C 
BRANCH   5   6
ATOM      6  C   UNL     1     -44.595  12.913   0.295  1.00  0.00     0.000 C 
BRANCH   6   7
ATOM      7  C   UNL     1     -44.002  11.589   0.801  1.00  0.00     0.000 C 
BRANCH   7   8
ATOM      8  C   UNL     1     -42.509  11.706   1.154  1.00  0.00     0.006 C 
BRANCH   8   9
ATOM      9  C   UNL     1     -42.216  12.927   2.035  1.00  0.00     0.053 C 
BRANCH   9  10
ATOM     10  C   UNL     1     -40.751  13.069   2.317  1.00  0.00     0.041 C 
ATOM     11  O   UNL     1     -39.936  12.206   1.896  1.00  0.00    -0.550 OA
ATOM     12  O   UNL     1     -40.289  14.142   3.069  1.00  0.00    -0.550 OA
ENDBRANCH   9  10
ENDBRANCH   8   9
ENDBRANCH   7   8
ENDBRANCH   6   7
ENDBRANCH   5   6
ENDBRANCH   4   5
ENDBRANCH   3   4
ENDBRANCH   1   3
BRANCH   2  13
ATOM     13  C   UNL     1     -39.806  15.009  -0.984  1.00  0.00     0.027 C 
BRANCH  13  14
ATOM     14  C   UNL     1     -38.567  14.922  -0.080  1.00  0.00     0.004 C 
BRANCH  14  15
ATOM     15  C   UNL     1     -37.283  15.337  -0.813  1.00  0.00     0.000 C 
BRANCH  15  16
ATOM     16  C   UNL     1     -36.721  14.168  -1.637  1.00  0.00     0.000 C 
BRANCH  16  17
ATOM     17  C   UNL     1     -36.837  14.398  -3.153  1.00  0.00    -0.000 C 
BRANCH  17  18
ATOM     18  C   UNL     1     -37.486  13.208  -3.882  1.00  0.00    -0.000 C 
BRANCH  18  19
ATOM     19  C   UNL     1     -38.658  13.637  -4.780  1.00  0.00    -0.003 C 
ATOM     20  C   UNL     1     -39.064  15.095  -4.568  1.00  0.00     0.004 C 
ENDBRANCH  18  19
ENDBRANCH  17  18
ENDBRANCH  16  17
ENDBRANCH  15  16
ENDBRANCH  14  15
ENDBRANCH  13  14
ENDBRANCH   2  13
TORSDOF 15
ENDMDL
MODEL 2
REMARK VINA RESULT:    -5.433      2.404      6.225
REMARK INTER + INTRA:         -12.900
REMARK INTER:                  -9.880
REMARK INTRA:                  -3.020
REMARK UNBOUND:                -2.703
REMARK SMILES CCCCCCCCC=CCCCCCCCC(=O)[O-]
REMARK SMILES IDX 10 1 9 2 11 3 12 4 13 5 14 6 15 7 16 8 17 9 18 10 19 11
REMARK SMILES IDX 20 12 8 13 7 14 6 15 5 16 4 17 3 18 2 19 1 20
REMARK H PARENT
REMARK Flexibility Score: inf
ROOT
ATOM      1  C   UNL     1     -41.257  13.104   2.132  1.00  0.00    -0.031 C 
ATOM      2  C   UNL     1     -42.496  12.708   1.790  1.00  0.00    -0.031 C 
ENDROOT
BRANCH   1   3
ATOM      3  C   UNL     1     -40.013  12.262   1.979  1.00  0.00     0.027 C 
BRANCH   3   4
ATOM      4  C   UNL     1     -38.935  12.975   1.150  1.00  0.00     0.004 C 
BRANCH   4   5
ATOM      5  C   UNL     1     -39.219  14.477   0.998  1.00  0.00     0.000 C 
BRANCH   5   6
ATOM      6  C   UNL     1     -38.487  15.053  -0.223  1.00  0.00     0.000 C 
BRANCH   6   7
ATOM      7  C   UNL     1     -37.405  14.107  -0.766  1.00  0.00     0.000 C 
BRANCH   7   8
ATOM      8  C   UNL     1     -36.669  14.687  -1.986  1.00  0.00     0.006 C 
BRANCH   8   9
ATOM      9  C   UNL     1     -36.878  13.839  -3.247  1.00  0.00     0.053 C 
BRANCH   9  10
ATOM     10  C   UNL     1     -38.037  14.330  -4.060  1.00  0.00     0.041 C 
ATOM     11  O   UNL     1     -38.586  13.575  -4.905  1.00  0.00    -0.550 OA
ATOM     12  O   UNL     1     -38.492  15.633  -3.904  1.00  0.00    -0.550 OA
ENDBRANCH   9  10
ENDBRANCH   8   9
ENDBRANCH   7   8
ENDBRANCH   6   7
ENDBRANCH   5   6
ENDBRANCH   4   5
ENDBRANCH   3   4
ENDBRANCH   1   3
BRANCH   2  13
ATOM     13  C   UNL     1     -42.824  11.398   1.113  1.00  0.00     0.027 C 
BRANCH  13  14
ATOM     14  C   UNL     1     -44.009  11.534   0.145  1.00  0.00     0.004 C 
BRANCH  14  15
ATOM     15  C   UNL     1     -44.417  12.999  -0.071  1.00  0.00     0.000 C 
BRANCH  15  16
ATOM     16  C   UNL     1     -44.430  13.349  -1.567  1.00  0.00     0.000 C 
BRANCH  16  17
ATOM     17  C   UNL     1     -43.533  14.551  -1.905  1.00  0.00    -0.000 C 
BRANCH  17  18
ATOM     18  C   UNL     1     -42.101  14.389  -1.365  1.00  0.00    -0.000 C 
BRANCH  18  19
ATOM     19  C   UNL     1     -41.175  13.671  -2.359  1.00  0.00    -0.003 C 
ATOM     20  C   UNL     1     -40.742  12.288  -1.875  1.00  0.00     0.004 C 
ENDBRANCH  18  19
ENDBRANCH  17  18
ENDBRANCH  16  17
ENDBRANCH  15  16
ENDBRANCH  14  15
ENDBRANCH  13  14
ENDBRANCH   2  13
TORSDOF 15
ENDMDL
MODEL 3
REMARK VINA RESULT:    -5.383      2.544      5.820
REMARK INTER + INTRA:         -12.807
REMARK INTER:                 -10.476
REMARK INTRA:                  -2.331
REMARK UNBOUND:                -2.703
REMARK SMILES CCCCCCCCC=CCCCCCCCC(=O)[O-]
REMARK SMILES IDX 10 1 9 2 11 3 12 4 13 5 14 6 15 7 16 8 17 9 18 10 19 11
REMARK SMILES IDX 20 12 8 13 7 14 6 15 5 16 4 17 3 18 2 19 1 20
REMARK H PARENT
REMARK Flexibility Score: inf
ROOT
ATOM      1  C   UNL     1     -42.734  11.751   1.213  1.00  0.00    -0.031 C 
ATOM      2  C   UNL     1     -43.925  11.657   0.594  1.00  0.00    -0.031 C 
ENDROOT
BRANCH   1   3
ATOM      3  C   UNL     1     -42.318  12.895   2.106  1.00  0.00     0.027 C 
BRANCH   3   4
ATOM      4  C   UNL     1     -40.834  12.814   2.490  1.00  0.00     0.004 C 
BRANCH   4   5
ATOM      5  C   UNL     1     -39.941  12.472   1.287  1.00  0.00     0.000 C 
BRANCH   5   6
ATOM      6  C   UNL     1     -38.635  13.279   1.327  1.00  0.00     0.000 C 
BRANCH   6   7
ATOM      7  C   UNL     1     -38.568  14.352   0.230  1.00  0.00     0.000 C 
BRANCH   7   8
ATOM      8  C   UNL     1     -37.326  14.206  -0.667  1.00  0.00     0.006 C 
BRANCH   8   9
ATOM      9  C   UNL     1     -36.914  15.536  -1.309  1.00  0.00     0.053 C 
BRANCH   9  10
ATOM     10  C   UNL     1     -36.634  15.383  -2.773  1.00  0.00     0.041 C 
ATOM     11  O   UNL     1     -36.264  16.373  -3.457  1.00  0.00    -0.550 OA
ATOM     12  O   UNL     1     -36.809  14.149  -3.388  1.00  0.00    -0.550 OA
ENDBRANCH   9  10
ENDBRANCH   8   9
ENDBRANCH   7   8
ENDBRANCH   6   7
ENDBRANCH   5   6
ENDBRANCH   4   5
ENDBRANCH   3   4
ENDBRANCH   1   3
BRANCH   2  13
ATOM     13  C   UNL     1     -45.065  12.632   0.769  1.00  0.00     0.027 C 
BRANCH  13  14
ATOM     14  C   UNL     1     -45.047  13.733  -0.301  1.00  0.00     0.004 C 
BRANCH  14  15
ATOM     15  C   UNL     1     -44.294  13.300  -1.568  1.00  0.00     0.000 C 
BRANCH  15  16
ATOM     16  C   UNL     1     -43.315  14.393  -2.025  1.00  0.00     0.000 C 
BRANCH  16  17
ATOM     17  C   UNL     1     -41.899  14.197  -1.460  1.00  0.00    -0.000 C 
BRANCH  17  18
ATOM     18  C   UNL     1     -40.826  14.149  -2.563  1.00  0.00    -0.000 C 
BRANCH  18  19
ATOM     19  C   UNL     1     -40.154  12.771  -2.669  1.00  0.00    -0.003 C 
ATOM     20  C   UNL     1     -40.822  11.715  -1.790  1.00  0.00     0.004 C 
ENDBRANCH  18  19
ENDBRANCH  17  18
ENDBRANCH  16  17
ENDBRANCH  15  16
ENDBRANCH  14  15
ENDBRANCH  13  14
ENDBRANCH   2  13
TORSDOF 15
ENDMDL
MODEL 4
REMARK VINA RESULT:    -5.374      1.106      6.060
REMARK INTER + INTRA:         -12.790
REMARK INTER:                 -10.518
REMARK INTRA:                  -2.272
REMARK UNBOUND:                -2.703
REMARK SMILES CCCCCCCCC=CCCCCCCCC(=O)[O-]
REMARK SMILES IDX 10 1 9 2 11 3 12 4 13 5 14 6 15 7 16 8 17 9 18 10 19 11
REMARK SMILES IDX 20 12 8 13 7 14 6 15 5 16 4 17 3 18 2 19 1 20
REMARK H PARENT
REMARK Flexibility Score: inf
ROOT
ATOM      1  C   UNL     1     -39.211  12.525  -3.313  1.00  0.00    -0.031 C 
ATOM      2  C   UNL     1     -40.282  12.869  -2.574  1.00  0.00    -0.031 C 
ENDROOT
BRANCH   1   3
ATOM      3  C   UNL     1     -38.550  13.418  -4.335  1.00  0.00     0.027 C 
BRANCH   3   4
ATOM      4  C   UNL     1     -37.030  13.498  -4.130  1.00  0.00     0.004 C 
BRANCH   4   5
ATOM      5  C   UNL     1     -36.557  14.933  -3.853  1.00  0.00     0.000 C 
BRANCH   5   6
ATOM      6  C   UNL     1     -37.428  15.599  -2.778  1.00  0.00     0.000 C 
BRANCH   6   7
ATOM      7  C   UNL     1     -36.849  15.440  -1.363  1.00  0.00     0.000 C 
BRANCH   7   8
ATOM      8  C   UNL     1     -37.505  14.288  -0.581  1.00  0.00     0.006 C 
BRANCH   8   9
ATOM      9  C   UNL     1     -38.676  14.768   0.285  1.00  0.00     0.053 C 
BRANCH   9  10
ATOM     10  C   UNL     1     -39.062  13.747   1.312  1.00  0.00     0.041 C 
ATOM     11  O   UNL     1     -38.775  12.534   1.140  1.00  0.00    -0.550 OA
ATOM     12  O   UNL     1     -39.764  14.135   2.447  1.00  0.00    -0.550 OA
ENDBRANCH   9  10
ENDBRANCH   8   9
ENDBRANCH   7   8
ENDBRANCH   6   7
ENDBRANCH   5   6
ENDBRANCH   4   5
ENDBRANCH   3   4
ENDBRANCH   1   3
BRANCH   2  13
ATOM     13  C   UNL     1     -40.930  14.233  -2.581  1.00  0.00     0.027 C 
BRANCH  13  14
ATOM     14  C   UNL     1     -42.003  14.364  -1.490  1.00  0.00     0.004 C 
BRANCH  14  15
ATOM     15  C   UNL     1     -43.420  14.446  -2.077  1.00  0.00     0.000 C 
BRANCH  15  16
ATOM     16  C   UNL     1     -44.293  13.291  -1.562  1.00  0.00     0.000 C 
BRANCH  16  17
ATOM     17  C   UNL     1     -44.970  13.609  -0.219  1.00  0.00    -0.000 C 
BRANCH  17  18
ATOM     18  C   UNL     1     -44.800  12.478   0.811  1.00  0.00    -0.000 C 
BRANCH  18  19
ATOM     19  C   UNL     1     -43.592  11.579   0.502  1.00  0.00    -0.003 C 
ATOM     20  C   UNL     1     -42.373  11.906   1.364  1.00  0.00     0.004 C 
ENDBRANCH  18  19
ENDBRANCH  17  18
ENDBRANCH  16  17
ENDBRANCH  15  16
ENDBRANCH  14  15
ENDBRANCH  13  14
ENDBRANCH   2  13
TORSDOF 15
ENDMDL
MODEL 5
REMARK VINA RESULT:    -5.306      2.598      6.677
REMARK INTER + INTRA:         -12.662
REMARK INTER:                 -10.413
REMARK INTRA:                  -2.249
REMARK UNBOUND:                -2.703
REMARK SMILES CCCCCCCCC=CCCCCCCCC(=O)[O-]
REMARK SMILES IDX 10 1 9 2 11 3 12 4 13 5 14 6 15 7 16 8 17 9 18 10 19 11
REMARK SMILES IDX 20 12 8 13 7 14 6 15 5 16 4 17 3 18 2 19 1 20
REMARK H PARENT
REMARK Flexibility Score: inf
ROOT
ATOM      1  C   UNL     1     -43.075  14.438  -1.667  1.00  0.00    -0.031 C 
ATOM      2  C   UNL     1     -44.140  13.625  -1.544  1.00  0.00    -0.031 C 
ENDROOT
BRANCH   1   3
ATOM      3  C   UNL     1     -41.658  13.968  -1.890  1.00  0.00     0.027 C 
BRANCH   3   4
ATOM      4  C   UNL     1     -40.657  14.719  -0.999  1.00  0.00     0.004 C 
BRANCH   4   5
ATOM      5  C   UNL     1     -39.348  13.937  -0.811  1.00  0.00     0.000 C 
BRANCH   5   6
ATOM      6  C   UNL     1     -38.240  14.848  -0.262  1.00  0.00     0.000 C 
BRANCH   6   7
ATOM      7  C   UNL     1     -36.910  14.683  -1.015  1.00  0.00     0.000 C 
BRANCH   7   8
ATOM      8  C   UNL     1     -36.792  15.631  -2.221  1.00  0.00     0.006 C 
BRANCH   8   9
ATOM      9  C   UNL     1     -36.470  14.880  -3.519  1.00  0.00     0.053 C 
BRANCH   9  10
ATOM     10  C   UNL     1     -37.636  14.876  -4.461  1.00  0.00     0.041 C 
ATOM     11  O   UNL     1     -38.784  15.194  -4.053  1.00  0.00    -0.550 OA
ATOM     12  O   UNL     1     -37.457  14.494  -5.785  1.00  0.00    -0.550 OA
ENDBRANCH   9  10
ENDBRANCH   8   9
ENDBRANCH   7   8
ENDBRANCH   6   7
ENDBRANCH   5   6
ENDBRANCH   4   5
ENDBRANCH   3   4
ENDBRANCH   1   3
BRANCH   2  13
ATOM     13  C   UNL     1     -44.100  12.124  -1.706  1.00  0.00     0.027 C 
BRANCH  13  14
ATOM     14  C   UNL     1     -43.955  11.406  -0.356  1.00  0.00     0.004 C 
BRANCH  14  15
ATOM     15  C   UNL     1     -44.390  12.291   0.822  1.00  0.00     0.000 C 
BRANCH  15  16
ATOM     16  C   UNL     1     -43.194  12.624   1.727  1.00  0.00     0.000 C 
BRANCH  16  17
ATOM     17  C   UNL     1     -41.905  11.901   1.302  1.00  0.00    -0.000 C 
BRANCH  17  18
ATOM     18  C   UNL     1     -40.670  12.391   2.079  1.00  0.00    -0.000 C 
BRANCH  18  19
ATOM     19  C   UNL     1     -41.010  13.504   3.083  1.00  0.00    -0.003 C 
ATOM     20  C   UNL     1     -39.998  14.650   3.062  1.00  0.00     0.004 C 
ENDBRANCH  18  19
ENDBRANCH  17  18
ENDBRANCH  16  17
ENDBRANCH  15  16
ENDBRANCH  14  15
ENDBRANCH  13  14
ENDBRANCH   2  13
TORSDOF 15
ENDMDL
MODEL 6
REMARK VINA RESULT:    -5.294     10.467     12.044
REMARK INTER + INTRA:         -12.638
REMARK INTER:                 -10.476
REMARK INTRA:                  -2.162
REMARK UNBOUND:                -2.703
REMARK SMILES CCCCCCCCC=CCCCCCCCC(=O)[O-]
REMARK SMILES IDX 10 1 9 2 11 3 12 4 13 5 14 6 15 7 16 8 17 9 18 10 19 11
REMARK SMILES IDX 20 12 8 13 7 14 6 15 5 16 4 17 3 18 2 19 1 20
REMARK H PARENT
REMARK Flexibility Score: inf
ROOT
ATOM      1  C   UNL     1     -41.916  23.216  -0.938  1.00  0.00    -0.031 C 
ATOM      2  C   UNL     1     -42.752  23.487   0.080  1.00  0.00    -0.031 C 
ENDROOT
BRANCH   1   3
ATOM      3  C   UNL     1     -41.571  24.182  -2.046  1.00  0.00     0.027 C 
BRANCH   3   4
ATOM      4  C   UNL     1     -41.474  23.481  -3.409  1.00  0.00     0.004 C 
BRANCH   4   5
ATOM      5  C   UNL     1     -42.589  23.923  -4.369  1.00  0.00     0.000 C 
BRANCH   5   6
ATOM      6  C   UNL     1     -43.428  25.051  -3.752  1.00  0.00     0.000 C 
BRANCH   6   7
ATOM      7  C   UNL     1     -44.919  24.943  -4.107  1.00  0.00     0.000 C 
BRANCH   7   8
ATOM      8  C   UNL     1     -45.759  24.354  -2.961  1.00  0.00     0.006 C 
BRANCH   8   9
ATOM      9  C   UNL     1     -45.473  22.863  -2.741  1.00  0.00     0.053 C 
BRANCH   9  10
ATOM     10  C   UNL     1     -45.792  22.051  -3.960  1.00  0.00     0.041 C 
ATOM     11  O   UNL     1     -46.939  22.101  -4.475  1.00  0.00    -0.550 OA
ATOM     12  O   UNL     1     -44.826  21.216  -4.510  1.00  0.00    -0.550 OA
ENDBRANCH   9  10
ENDBRANCH   8   9
ENDBRANCH   7   8
ENDBRANCH   6   7
ENDBRANCH   5   6
ENDBRANCH   4   5
ENDBRANCH   3   4
ENDBRANCH   1   3
BRANCH   2  13
ATOM     13  C   UNL     1     -43.402  24.828   0.327  1.00  0.00     0.027 C 
BRANCH  13  14
ATOM     14  C   UNL     1     -42.777  25.557   1.526  1.00  0.00     0.004 C 
BRANCH  14  15
ATOM     15  C   UNL     1     -41.567  26.411   1.120  1.00  0.00     0.000 C 
BRANCH  15  16
ATOM     16  C   UNL     1     -40.264  25.809   1.667  1.00  0.00     0.000 C 
BRANCH  16  17
ATOM     17  C   UNL     1     -39.022  26.631   1.285  1.00  0.00    -0.000 C 
BRANCH  17  18
ATOM     18  C   UNL     1     -38.047  25.846   0.390  1.00  0.00    -0.000 C 
BRANCH  18  19
ATOM     19  C   UNL     1     -38.265  26.127  -1.105  1.00  0.00    -0.003 C 
ATOM     20  C   UNL     1     -38.271  27.620  -1.433  1.00  0.00     0.004 C 
ENDBRANCH  18  19
ENDBRANCH  17  18
ENDBRANCH  16  17
ENDBRANCH  15  16
ENDBRANCH  14  15
ENDBRANCH  13  14
ENDBRANCH   2  13
TORSDOF 15
ENDMDL
MODEL 7
REMARK VINA RESULT:    -5.280      3.051      6.744
REMARK INTER + INTRA:         -12.614
REMARK INTER:                 -10.547
REMARK INTRA:                  -2.067
REMARK UNBOUND:                -2.703
REMARK SMILES CCCCCCCCC=CCCCCCCCC(=O)[O-]
REMARK SMILES IDX 10 1 9 2 11 3 12 4 13 5 14 6 15 7 16 8 17 9 18 10 19 11
REMARK SMILES IDX 20 12 8 13 7 14 6 15 5 16 4 17 3 18 2 19 1 20
REMARK H PARENT
REMARK Flexibility Score: inf
ROOT
ATOM      1  C   UNL     1     -42.410  13.774  -2.309  1.00  0.00    -0.031 C 
ATOM      2  C   UNL     1     -43.667  13.477  -1.931  1.00  0.00    -0.031 C 
ENDROOT
BRANCH   1   3
ATOM      3  C   UNL     1     -41.517  14.772  -1.612  1.00  0.00     0.027 C 
BRANCH   3   4
ATOM      4  C   UNL     1     -40.064  14.282  -1.529  1.00  0.00     0.004 C 
BRANCH   4   5
ATOM      5  C   UNL     1     -39.770  13.166  -2.543  1.00  0.00     0.000 C 
BRANCH   5   6
ATOM      6  C   UNL     1     -39.130  13.739  -3.817  1.00  0.00     0.000 C 
BRANCH   6   7
ATOM      7  C   UNL     1     -37.848  12.995  -4.223  1.00  0.00     0.000 C 
BRANCH   7   8
ATOM      8  C   UNL     1     -36.599  13.532  -3.503  1.00  0.00     0.006 C 
BRANCH   8   9
ATOM      9  C   UNL     1     -35.519  13.997  -4.488  1.00  0.00     0.053 C 
BRANCH   9  10
ATOM     10  C   UNL     1     -35.478  15.491  -4.601  1.00  0.00     0.041 C 
ATOM     11  O   UNL     1     -34.403  16.077  -4.895  1.00  0.00    -0.550 OA
ATOM     12  O   UNL     1     -36.623  16.238  -4.353  1.00  0.00    -0.550 OA
ENDBRANCH   9  10
ENDBRANCH   8   9
ENDBRANCH   7   8
ENDBRANCH   6   7
ENDBRANCH   5   6
ENDBRANCH   4   5
ENDBRANCH   3   4
ENDBRANCH   1   3
BRANCH   2  13
ATOM     13  C   UNL     1     -44.346  14.022  -0.698  1.00  0.00     0.027 C 
BRANCH  13  14
ATOM     14  C   UNL     1     -44.787  12.903   0.256  1.00  0.00     0.004 C 
BRANCH  14  15
ATOM     15  C   UNL     1     -43.764  12.655   1.375  1.00  0.00     0.000 C 
BRANCH  15  16
ATOM     16  C   UNL     1     -42.803  11.517   0.996  1.00  0.00     0.000 C 
BRANCH  16  17
ATOM     17  C   UNL     1     -41.325  11.928   1.096  1.00  0.00    -0.000 C 
BRANCH  17  18
ATOM     18  C   UNL     1     -41.108  13.126   2.038  1.00  0.00    -0.000 C 
BRANCH  18  19
ATOM     19  C   UNL     1     -39.636  13.563   2.104  1.00  0.00    -0.003 C 
ATOM     20  C   UNL     1     -38.693  12.577   1.416  1.00  0.00     0.004 C 
ENDBRANCH  18  19
ENDBRANCH  17  18
ENDBRANCH  16  17
ENDBRANCH  15  16
ENDBRANCH  14  15
ENDBRANCH  13  14
ENDBRANCH   2  13
TORSDOF 15
ENDMDL
MODEL 8
REMARK VINA RESULT:    -5.274      1.120      2.313
REMARK INTER + INTRA:         -12.602
REMARK INTER:                 -10.431
REMARK INTRA:                  -2.171
REMARK UNBOUND:                -2.703
REMARK SMILES CCCCCCCCC=CCCCCCCCC(=O)[O-]
REMARK SMILES IDX 10 1 9 2 11 3 12 4 13 5 14 6 15 7 16 8 17 9 18 10 19 11
REMARK SMILES IDX 20 12 8 13 7 14 6 15 5 16 4 17 3 18 2 19 1 20
REMARK H PARENT
REMARK Flexibility Score: inf
ROOT
ATOM      1  C   UNL     1     -41.630  14.417  -1.356  1.00  0.00    -0.031 C 
ATOM      2  C   UNL     1     -40.519  14.950  -1.896  1.00  0.00    -0.031 C 
ENDROOT
BRANCH   1   3
ATOM      3  C   UNL     1     -42.982  14.388  -2.027  1.00  0.00     0.027 C 
BRANCH   3   4
ATOM      4  C   UNL     1     -43.828  13.194  -1.561  1.00  0.00     0.004 C 
BRANCH   4   5
ATOM      5  C   UNL     1     -44.833  13.586  -0.467  1.00  0.00     0.000 C 
BRANCH   5   6
ATOM      6  C   UNL     1     -44.743  12.627   0.729  1.00  0.00     0.000 C 
BRANCH   6   7
ATOM      7  C   UNL     1     -43.354  11.987   0.872  1.00  0.00     0.000 C 
BRANCH   7   8
ATOM      8  C   UNL     1     -42.465  12.723   1.889  1.00  0.00     0.006 C 
BRANCH   8   9
ATOM      9  C   UNL     1     -40.980  12.376   1.720  1.00  0.00     0.053 C 
BRANCH   9  10
ATOM     10  C   UNL     1     -40.095  13.522   2.105  1.00  0.00     0.041 C 
ATOM     11  O   UNL     1     -40.297  14.148   3.178  1.00  0.00    -0.550 OA
ATOM     12  O   UNL     1     -39.063  13.915   1.261  1.00  0.00    -0.550 OA
ENDBRANCH   9  10
ENDBRANCH   8   9
ENDBRANCH   7   8
ENDBRANCH   6   7
ENDBRANCH   5   6
ENDBRANCH   4   5
ENDBRANCH   3   4
ENDBRANCH   1   3
BRANCH   2  13
ATOM     13  C   UNL     1     -40.428  15.516  -3.294  1.00  0.00     0.027 C 
BRANCH  13  14
ATOM     14  C   UNL     1     -39.873  14.489  -4.292  1.00  0.00     0.004 C 
BRANCH  14  15
ATOM     15  C   UNL     1     -39.221  13.289  -3.590  1.00  0.00     0.000 C 
BRANCH  15  16
ATOM     16  C   UNL     1     -37.846  12.977  -4.200  1.00  0.00     0.000 C 
BRANCH  16  17
ATOM     17  C   UNL     1     -37.182  14.211  -4.833  1.00  0.00    -0.000 C 
BRANCH  17  18
ATOM     18  C   UNL     1     -36.099  14.827  -3.930  1.00  0.00    -0.000 C 
BRANCH  18  19
ATOM     19  C   UNL     1     -36.664  15.893  -2.977  1.00  0.00    -0.003 C 
ATOM     20  C   UNL     1     -36.779  15.398  -1.536  1.00  0.00     0.004 C 
ENDBRANCH  18  19
ENDBRANCH  17  18
ENDBRANCH  16  17
ENDBRANCH  15  16
ENDBRANCH  14  15
ENDBRANCH  13  14
ENDBRANCH   2  13
TORSDOF 15
ENDMDL
MODEL 9
REMARK VINA RESULT:    -5.236      2.260      6.252
REMARK INTER + INTRA:         -12.530
REMARK INTER:                 -10.183
REMARK INTRA:                  -2.347
REMARK UNBOUND:                -2.703
REMARK SMILES CCCCCCCCC=CCCCCCCCC(=O)[O-]
REMARK SMILES IDX 10 1 9 2 11 3 12 4 13 5 14 6 15 7 16 8 17 9 18 10 19 11
REMARK SMILES IDX 20 12 8 13 7 14 6 15 5 16 4 17 3 18 2 19 1 20
REMARK H PARENT
REMARK Flexibility Score: inf
ROOT
ATOM      1  C   UNL     1     -39.326  14.500   1.256  1.00  0.00    -0.031 C 
ATOM      2  C   UNL     1     -40.063  14.147   2.325  1.00  0.00    -0.031 C 
ENDROOT
BRANCH   1   3
ATOM      3  C   UNL     1     -38.968  13.577   0.116  1.00  0.00     0.027 C 
BRANCH   3   4
ATOM      4  C   UNL     1     -40.082  13.509  -0.938  1.00  0.00     0.004 C 
BRANCH   4   5
ATOM      5  C   UNL     1     -40.763  14.869  -1.152  1.00  0.00     0.000 C 
BRANCH   5   6
ATOM      6  C   UNL     1     -40.320  15.501  -2.480  1.00  0.00     0.000 C 
BRANCH   6   7
ATOM      7  C   UNL     1     -40.245  14.481  -3.626  1.00  0.00     0.000 C 
BRANCH   7   8
ATOM      8  C   UNL     1     -39.065  14.744  -4.577  1.00  0.00     0.006 C 
BRANCH   8   9
ATOM      9  C   UNL     1     -37.773  15.075  -3.820  1.00  0.00     0.053 C 
BRANCH   9  10
ATOM     10  C   UNL     1     -37.034  13.835  -3.417  1.00  0.00     0.041 C 
ATOM     11  O   UNL     1     -36.429  13.786  -2.314  1.00  0.00    -0.550 OA
ATOM     12  O   UNL     1     -36.990  12.743  -4.275  1.00  0.00    -0.550 OA
ENDBRANCH   9  10
ENDBRANCH   8   9
ENDBRANCH   7   8
ENDBRANCH   6   7
ENDBRANCH   5   6
ENDBRANCH   4   5
ENDBRANCH   3   4
ENDBRANCH   1   3
BRANCH   2  13
ATOM     13  C   UNL     1     -40.727  12.803   2.505  1.00  0.00     0.027 C 
BRANCH  13  14
ATOM     14  C   UNL     1     -42.180  12.809   2.005  1.00  0.00     0.004 C 
BRANCH  14  15
ATOM     15  C   UNL     1     -42.521  11.550   1.195  1.00  0.00     0.000 C 
BRANCH  15  16
ATOM     16  C   UNL     1     -43.574  11.859   0.120  1.00  0.00     0.000 C 
BRANCH  16  17
ATOM     17  C   UNL     1     -44.748  12.693   0.659  1.00  0.00    -0.000 C 
BRANCH  17  18
ATOM     18  C   UNL     1     -45.196  13.788  -0.326  1.00  0.00    -0.000 C 
BRANCH  18  19
ATOM     19  C   UNL     1     -44.314  13.844  -1.584  1.00  0.00    -0.003 C 
ATOM     20  C   UNL     1     -44.284  15.231  -2.225  1.00  0.00     0.004 C 
ENDBRANCH  18  19
ENDBRANCH  17  18
ENDBRANCH  16  17
ENDBRANCH  15  16
ENDBRANCH  14  15
ENDBRANCH  13  14
ENDBRANCH   2  13
TORSDOF 15
ENDMDL
