MODEL 1
REMARK VINA RESULT:    -6.289      0.000      0.000
REMARK INTER + INTRA:          -7.861
REMARK INTER:                  -7.576
REMARK INTRA:                  -0.285
REMARK UNBOUND:                -0.285
REMARK SMILES O=c1c(O)c(-c2ccc(O)c(O)c2)oc2cc(O)cc(O)c12
REMARK SMILES IDX 5 1 3 2 2 3 1 4 22 5 20 6 19 7 17 8 16 9 15 10 14 11 6 12
REMARK SMILES IDX 7 13 8 14 9 15 13 16 11 17 10 18 12 20 4 22 21 24 18 26
REMARK H PARENT 10 19 12 21 4 23 21 25 18 27
REMARK Flexibility Score: inf
ROOT
ATOM      1  C   UNL     1       3.291   1.100   8.252  1.00  0.00     0.180 A 
ATOM      2  C   UNL     1       4.316   0.404   8.915  1.00  0.00     0.208 A 
ATOM      3  C   UNL     1       4.171  -0.975   9.136  1.00  0.00     0.238 A 
ATOM      4  O   UNL     1       5.067  -1.583   9.779  1.00  0.00    -0.285 OA
ATOM      5  C   UNL     1       3.010  -1.643   8.679  1.00  0.00     0.111 A 
ATOM      6  C   UNL     1       2.776  -3.045   8.813  1.00  0.00     0.134 A 
ATOM      7  C   UNL     1       1.534  -3.576   8.440  1.00  0.00     0.093 A 
ATOM      8  C   UNL     1       0.544  -2.767   7.877  1.00  0.00     0.123 A 
ATOM      9  C   UNL     1       0.786  -1.409   7.687  1.00  0.00     0.094 A 
ATOM     10  C   UNL     1       2.000  -0.843   8.083  1.00  0.00     0.146 A 
ATOM     11  O   UNL     1       2.185   0.457   7.893  1.00  0.00    -0.452 OA
ENDROOT
BRANCH   1  12
ATOM     12  C   UNL     1       3.384   2.548   7.961  1.00  0.00     0.025 A 
ATOM     13  C   UNL     1       3.774   2.972   6.681  1.00  0.00     0.016 A 
ATOM     14  C   UNL     1       3.888   4.333   6.389  1.00  0.00     0.051 A 
ATOM     15  C   UNL     1       3.630   5.292   7.374  1.00  0.00     0.157 A 
ATOM     16  C   UNL     1       3.144   3.514   8.956  1.00  0.00     0.062 A 
ATOM     17  C   UNL     1       3.261   4.881   8.665  1.00  0.00     0.158 A 
BRANCH  15  18
ATOM     18  O   UNL     1       3.750   6.643   7.053  1.00  0.00    -0.504 OA
ATOM     19  H   UNL     1       3.194   7.356   7.509  1.00  0.00     0.293 HD
ENDBRANCH  15  18
BRANCH  17  20
ATOM     20  O   UNL     1       3.016   5.830   9.656  1.00  0.00    -0.504 OA
ATOM     21  H   UNL     1       2.075   6.120   9.894  1.00  0.00     0.293 HD
ENDBRANCH  17  20
ENDBRANCH   1  12
BRANCH   2  22
ATOM     22  O   UNL     1       5.445   1.087   9.378  1.00  0.00    -0.502 OA
ATOM     23  H   UNL     1       5.690   2.015   9.054  1.00  0.00     0.293 HD
ENDBRANCH   2  22
BRANCH   6  24
ATOM     24  O   UNL     1       3.730  -3.954   9.276  1.00  0.00    -0.507 OA
ATOM     25  H   UNL     1       4.359  -4.479   8.687  1.00  0.00     0.293 HD
ENDBRANCH   6  24
BRANCH   8  26
ATOM     26  O   UNL     1      -0.682  -3.307   7.494  1.00  0.00    -0.508 OA
ATOM     27  H   UNL     1      -1.533  -3.102   8.004  1.00  0.00     0.293 HD
ENDBRANCH   8  26
TORSDOF 6
ENDMDL
MODEL 2
REMARK VINA RESULT:    -5.868      1.215      2.848
REMARK INTER + INTRA:          -7.353
REMARK INTER:                  -7.028
REMARK INTRA:                  -0.326
REMARK UNBOUND:                -0.285
REMARK SMILES O=c1c(O)c(-c2ccc(O)c(O)c2)oc2cc(O)cc(O)c12
REMARK SMILES IDX 5 1 3 2 2 3 1 4 22 5 20 6 19 7 17 8 16 9 15 10 14 11 6 12
REMARK SMILES IDX 7 13 8 14 9 15 13 16 11 17 10 18 12 20 4 22 21 24 18 26
REMARK H PARENT 10 19 12 21 4 23 21 25 18 27
REMARK Flexibility Score: inf
ROOT
ATOM      1  C   UNL     1       2.897   1.223   8.000  1.00  0.00     0.180 A 
ATOM      2  C   UNL     1       1.650   0.664   7.669  1.00  0.00     0.208 A 
ATOM      3  C   UNL     1       1.437  -0.706   7.891  1.00  0.00     0.238 A 
ATOM      4  O   UNL     1       0.338  -1.211   7.541  1.00  0.00    -0.285 OA
ATOM      5  C   UNL     1       2.467  -1.497   8.454  1.00  0.00     0.111 A 
ATOM      6  C   UNL     1       2.347  -2.887   8.758  1.00  0.00     0.134 A 
ATOM      7  C   UNL     1       3.474  -3.598   9.193  1.00  0.00     0.093 A 
ATOM      8  C   UNL     1       4.697  -2.956   9.395  1.00  0.00     0.123 A 
ATOM      9  C   UNL     1       4.808  -1.588   9.159  1.00  0.00     0.094 A 
ATOM     10  C   UNL     1       3.713  -0.858   8.690  1.00  0.00     0.146 A 
ATOM     11  O   UNL     1       3.865   0.441   8.467  1.00  0.00    -0.452 OA
ENDROOT
BRANCH   1  12
ATOM     12  C   UNL     1       3.188   2.662   7.820  1.00  0.00     0.025 A 
ATOM     13  C   UNL     1       3.716   3.113   6.600  1.00  0.00     0.016 A 
ATOM     14  C   UNL     1       4.016   4.465   6.415  1.00  0.00     0.051 A 
ATOM     15  C   UNL     1       3.811   5.384   7.449  1.00  0.00     0.157 A 
ATOM     16  C   UNL     1       3.001   3.585   8.866  1.00  0.00     0.062 A 
ATOM     17  C   UNL     1       3.305   4.941   8.682  1.00  0.00     0.158 A 
BRANCH  15  18
ATOM     18  O   UNL     1       4.119   6.727   7.235  1.00  0.00    -0.504 OA
ATOM     19  H   UNL     1       5.053   7.092   7.373  1.00  0.00     0.293 HD
ENDBRANCH  15  18
BRANCH  17  20
ATOM     20  O   UNL     1       3.111   5.849   9.723  1.00  0.00    -0.504 OA
ATOM     21  H   UNL     1       2.416   6.584   9.665  1.00  0.00     0.293 HD
ENDBRANCH  17  20
ENDBRANCH   1  12
BRANCH   2  22
ATOM     22  O   UNL     1       0.655   1.459   7.094  1.00  0.00    -0.502 OA
ATOM     23  H   UNL     1       0.810   2.428   6.842  1.00  0.00     0.293 HD
ENDBRANCH   2  22
BRANCH   6  24
ATOM     24  O   UNL     1       1.149  -3.602   8.678  1.00  0.00    -0.507 OA
ATOM     25  H   UNL     1       1.068  -4.602   8.788  1.00  0.00     0.293 HD
ENDBRANCH   6  24
BRANCH   8  26
ATOM     26  O   UNL     1       5.808  -3.668   9.842  1.00  0.00    -0.508 OA
ATOM     27  H   UNL     1       6.517  -3.234  10.421  1.00  0.00     0.293 HD
ENDBRANCH   8  26
TORSDOF 6
ENDMDL
MODEL 3
REMARK VINA RESULT:    -5.859      3.267      5.025
REMARK INTER + INTRA:          -7.342
REMARK INTER:                  -7.493
REMARK INTRA:                   0.151
REMARK UNBOUND:                -0.285
REMARK SMILES O=c1c(O)c(-c2ccc(O)c(O)c2)oc2cc(O)cc(O)c12
REMARK SMILES IDX 5 1 3 2 2 3 1 4 22 5 20 6 19 7 17 8 16 9 15 10 14 11 6 12
REMARK SMILES IDX 7 13 8 14 9 15 13 16 11 17 10 18 12 20 4 22 21 24 18 26
REMARK H PARENT 10 19 12 21 4 23 21 25 18 27
REMARK Flexibility Score: inf
ROOT
ATOM      1  C   UNL     1       4.469   4.886   7.219  1.00  0.00     0.180 A 
ATOM      2  C   UNL     1       4.591   3.873   8.185  1.00  0.00     0.208 A 
ATOM      3  C   UNL     1       3.624   2.856   8.233  1.00  0.00     0.238 A 
ATOM      4  O   UNL     1       3.709   1.983   9.136  1.00  0.00    -0.285 OA
ATOM      5  C   UNL     1       2.556   2.855   7.304  1.00  0.00     0.111 A 
ATOM      6  C   UNL     1       1.542   1.853   7.235  1.00  0.00     0.134 A 
ATOM      7  C   UNL     1       0.460   2.023   6.361  1.00  0.00     0.093 A 
ATOM      8  C   UNL     1       0.391   3.127   5.508  1.00  0.00     0.123 A 
ATOM      9  C   UNL     1       1.407   4.080   5.525  1.00  0.00     0.094 A 
ATOM     10  C   UNL     1       2.479   3.957   6.412  1.00  0.00     0.146 A 
ATOM     11  O   UNL     1       3.420   4.893   6.403  1.00  0.00    -0.452 OA
ENDROOT
BRANCH   1  12
ATOM     12  C   UNL     1       5.462   5.976   7.090  1.00  0.00     0.025 A 
ATOM     13  C   UNL     1       5.034   7.258   6.712  1.00  0.00     0.016 A 
ATOM     14  C   UNL     1       5.957   8.297   6.565  1.00  0.00     0.051 A 
ATOM     15  C   UNL     1       7.320   8.068   6.776  1.00  0.00     0.157 A 
ATOM     16  C   UNL     1       6.835   5.742   7.282  1.00  0.00     0.062 A 
ATOM     17  C   UNL     1       7.763   6.784   7.132  1.00  0.00     0.158 A 
BRANCH  15  18
ATOM     18  O   UNL     1       8.217   9.125   6.623  1.00  0.00    -0.504 OA
ATOM     19  H   UNL     1       8.871   9.385   7.351  1.00  0.00     0.293 HD
ENDBRANCH  15  18
BRANCH  17  20
ATOM     20  O   UNL     1       9.122   6.544   7.330  1.00  0.00    -0.504 OA
ATOM     21  H   UNL     1       9.585   6.791   8.197  1.00  0.00     0.293 HD
ENDBRANCH  17  20
ENDBRANCH   1  12
BRANCH   2  22
ATOM     22  O   UNL     1       5.642   3.904   9.107  1.00  0.00    -0.502 OA
ATOM     23  H   UNL     1       5.795   3.165   9.783  1.00  0.00     0.293 HD
ENDBRANCH   2  22
BRANCH   6  24
ATOM     24  O   UNL     1       1.565   0.669   7.977  1.00  0.00    -0.507 OA
ATOM     25  H   UNL     1       1.253  -0.229   7.638  1.00  0.00     0.293 HD
ENDBRANCH   6  24
BRANCH   8  26
ATOM     26  O   UNL     1      -0.680   3.281   4.631  1.00  0.00    -0.508 OA
ATOM     27  H   UNL     1      -0.554   3.672   3.704  1.00  0.00     0.293 HD
ENDBRANCH   8  26
TORSDOF 6
ENDMDL
MODEL 4
REMARK VINA RESULT:    -5.816      1.791      7.327
REMARK INTER + INTRA:          -7.291
REMARK INTER:                  -7.601
REMARK INTRA:                   0.310
REMARK UNBOUND:                -0.285
REMARK SMILES O=c1c(O)c(-c2ccc(O)c(O)c2)oc2cc(O)cc(O)c12
REMARK SMILES IDX 5 1 3 2 2 3 1 4 22 5 20 6 19 7 17 8 16 9 15 10 14 11 6 12
REMARK SMILES IDX 7 13 8 14 9 15 13 16 11 17 10 18 12 20 4 22 21 24 18 26
REMARK H PARENT 10 19 12 21 4 23 21 25 18 27
REMARK Flexibility Score: inf
ROOT
ATOM      1  C   UNL     1       2.509   0.864   7.758  1.00  0.00     0.180 A 
ATOM      2  C   UNL     1       1.415   1.470   7.115  1.00  0.00     0.208 A 
ATOM      3  C   UNL     1       1.549   2.781   6.632  1.00  0.00     0.238 A 
ATOM      4  O   UNL     1       0.549   3.337   6.107  1.00  0.00    -0.285 OA
ATOM      5  C   UNL     1       2.779   3.466   6.784  1.00  0.00     0.111 A 
ATOM      6  C   UNL     1       3.039   4.783   6.297  1.00  0.00     0.134 A 
ATOM      7  C   UNL     1       4.250   5.410   6.619  1.00  0.00     0.093 A 
ATOM      8  C   UNL     1       5.234   4.745   7.353  1.00  0.00     0.123 A 
ATOM      9  C   UNL     1       5.013   3.437   7.780  1.00  0.00     0.094 A 
ATOM     10  C   UNL     1       3.802   2.798   7.507  1.00  0.00     0.146 A 
ATOM     11  O   UNL     1       3.629   1.556   7.942  1.00  0.00    -0.452 OA
ENDROOT
BRANCH   1  12
ATOM     12  C   UNL     1       2.453  -0.523   8.270  1.00  0.00     0.025 A 
ATOM     13  C   UNL     1       3.347  -0.926   9.274  1.00  0.00     0.016 A 
ATOM     14  C   UNL     1       3.325  -2.236   9.758  1.00  0.00     0.051 A 
ATOM     15  C   UNL     1       2.422  -3.168   9.236  1.00  0.00     0.157 A 
ATOM     16  C   UNL     1       1.560  -1.467   7.732  1.00  0.00     0.062 A 
ATOM     17  C   UNL     1       1.538  -2.784   8.215  1.00  0.00     0.158 A 
BRANCH  15  18
ATOM     18  O   UNL     1       2.423  -4.468   9.740  1.00  0.00    -0.504 OA
ATOM     19  H   UNL     1       3.209  -5.094   9.613  1.00  0.00     0.293 HD
ENDBRANCH  15  18
BRANCH  17  20
ATOM     20  O   UNL     1       0.645  -3.711   7.679  1.00  0.00    -0.504 OA
ATOM     21  H   UNL     1      -0.350  -3.529   7.639  1.00  0.00     0.293 HD
ENDBRANCH  17  20
ENDBRANCH   1  12
BRANCH   2  22
ATOM     22  O   UNL     1       0.203   0.784   6.996  1.00  0.00    -0.502 OA
ATOM     23  H   UNL     1      -0.549   1.107   6.398  1.00  0.00     0.293 HD
ENDBRANCH   2  22
BRANCH   6  24
ATOM     24  O   UNL     1       2.162   5.499   5.480  1.00  0.00    -0.507 OA
ATOM     25  H   UNL     1       2.272   5.620   4.484  1.00  0.00     0.293 HD
ENDBRANCH   6  24
BRANCH   8  26
ATOM     26  O   UNL     1       6.441   5.371   7.654  1.00  0.00    -0.508 OA
ATOM     27  H   UNL     1       7.280   5.193   7.114  1.00  0.00     0.293 HD
ENDBRANCH   8  26
TORSDOF 6
ENDMDL
MODEL 5
REMARK VINA RESULT:    -5.785      2.058      3.745
REMARK INTER + INTRA:          -7.253
REMARK INTER:                  -7.015
REMARK INTRA:                  -0.238
REMARK UNBOUND:                -0.285
REMARK SMILES O=c1c(O)c(-c2ccc(O)c(O)c2)oc2cc(O)cc(O)c12
REMARK SMILES IDX 5 1 3 2 2 3 1 4 22 5 20 6 19 7 17 8 16 9 15 10 14 11 6 12
REMARK SMILES IDX 7 13 8 14 9 15 13 16 11 17 10 18 12 20 4 22 21 24 18 26
REMARK H PARENT 10 19 12 21 4 23 21 25 18 27
REMARK Flexibility Score: inf
ROOT
ATOM      1  C   UNL     1       2.290   0.178   7.645  1.00  0.00     0.180 A 
ATOM      2  C   UNL     1       1.127  -0.571   7.893  1.00  0.00     0.208 A 
ATOM      3  C   UNL     1       1.242  -1.816   8.533  1.00  0.00     0.238 A 
ATOM      4  O   UNL     1       0.204  -2.507   8.703  1.00  0.00    -0.285 OA
ATOM      5  C   UNL     1       2.516  -2.288   8.931  1.00  0.00     0.111 A 
ATOM      6  C   UNL     1       2.746  -3.516   9.622  1.00  0.00     0.134 A 
ATOM      7  C   UNL     1       4.060  -3.945   9.849  1.00  0.00     0.093 A 
ATOM      8  C   UNL     1       5.150  -3.158   9.469  1.00  0.00     0.123 A 
ATOM      9  C   UNL     1       4.935  -1.930   8.848  1.00  0.00     0.094 A 
ATOM     10  C   UNL     1       3.637  -1.493   8.574  1.00  0.00     0.146 A 
ATOM     11  O   UNL     1       3.476  -0.322   7.972  1.00  0.00    -0.452 OA
ENDROOT
BRANCH   1  12
ATOM     12  C   UNL     1       2.246   1.509   6.999  1.00  0.00     0.025 A 
ATOM     13  C   UNL     1       2.427   2.662   7.779  1.00  0.00     0.016 A 
ATOM     14  C   UNL     1       2.369   3.929   7.193  1.00  0.00     0.051 A 
ATOM     15  C   UNL     1       2.113   4.065   5.825  1.00  0.00     0.157 A 
ATOM     16  C   UNL     1       1.968   1.649   5.627  1.00  0.00     0.062 A 
ATOM     17  C   UNL     1       1.907   2.920   5.038  1.00  0.00     0.158 A 
BRANCH  15  18
ATOM     18  O   UNL     1       2.063   5.343   5.268  1.00  0.00    -0.504 OA
ATOM     19  H   UNL     1       1.663   5.516   4.354  1.00  0.00     0.293 HD
ENDBRANCH  15  18
BRANCH  17  20
ATOM     20  O   UNL     1       1.638   3.049   3.676  1.00  0.00    -0.504 OA
ATOM     21  H   UNL     1       0.975   3.732   3.328  1.00  0.00     0.293 HD
ENDBRANCH  17  20
ENDBRANCH   1  12
BRANCH   2  22
ATOM     22  O   UNL     1      -0.119  -0.096   7.473  1.00  0.00    -0.502 OA
ATOM     23  H   UNL     1      -0.719  -0.622   6.849  1.00  0.00     0.293 HD
ENDBRANCH   2  22
BRANCH   6  24
ATOM     24  O   UNL     1       1.728  -4.330  10.125  1.00  0.00    -0.507 OA
ATOM     25  H   UNL     1       1.786  -4.862  10.980  1.00  0.00     0.293 HD
ENDBRANCH   6  24
BRANCH   8  26
ATOM     26  O   UNL     1       6.454  -3.585   9.714  1.00  0.00    -0.508 OA
ATOM     27  H   UNL     1       6.720  -4.558   9.614  1.00  0.00     0.293 HD
ENDBRANCH   8  26
TORSDOF 6
ENDMDL
MODEL 6
REMARK VINA RESULT:    -5.710      1.553      6.764
REMARK INTER + INTRA:          -7.163
REMARK INTER:                  -6.907
REMARK INTRA:                  -0.256
REMARK UNBOUND:                -0.285
REMARK SMILES O=c1c(O)c(-c2ccc(O)c(O)c2)oc2cc(O)cc(O)c12
REMARK SMILES IDX 5 1 3 2 2 3 1 4 22 5 20 6 19 7 17 8 16 9 15 10 14 11 6 12
REMARK SMILES IDX 7 13 8 14 9 15 13 16 11 17 10 18 12 20 4 22 21 24 18 26
REMARK H PARENT 10 19 12 21 4 23 21 25 18 27
REMARK Flexibility Score: inf
ROOT
ATOM      1  C   UNL     1       2.499   0.103   7.788  1.00  0.00     0.180 A 
ATOM      2  C   UNL     1       3.498   0.030   8.774  1.00  0.00     0.208 A 
ATOM      3  C   UNL     1       4.251   1.178   9.066  1.00  0.00     0.238 A 
ATOM      4  O   UNL     1       5.181   1.093   9.911  1.00  0.00    -0.285 OA
ATOM      5  C   UNL     1       3.987   2.388   8.380  1.00  0.00     0.111 A 
ATOM      6  C   UNL     1       4.662   3.622   8.624  1.00  0.00     0.134 A 
ATOM      7  C   UNL     1       4.409   4.723   7.794  1.00  0.00     0.093 A 
ATOM      8  C   UNL     1       3.458   4.652   6.774  1.00  0.00     0.123 A 
ATOM      9  C   UNL     1       2.751   3.470   6.567  1.00  0.00     0.094 A 
ATOM     10  C   UNL     1       3.008   2.344   7.353  1.00  0.00     0.146 A 
ATOM     11  O   UNL     1       2.319   1.235   7.116  1.00  0.00    -0.452 OA
ENDROOT
BRANCH   1  12
ATOM     12  C   UNL     1       1.647  -1.057   7.443  1.00  0.00     0.025 A 
ATOM     13  C   UNL     1       0.640  -1.464   8.333  1.00  0.00     0.016 A 
ATOM     14  C   UNL     1      -0.163  -2.569   8.037  1.00  0.00     0.051 A 
ATOM     15  C   UNL     1       0.038  -3.294   6.859  1.00  0.00     0.157 A 
ATOM     16  C   UNL     1       1.860  -1.800   6.268  1.00  0.00     0.062 A 
ATOM     17  C   UNL     1       1.057  -2.911   5.971  1.00  0.00     0.158 A 
BRANCH  15  18
ATOM     18  O   UNL     1      -0.780  -4.391   6.590  1.00  0.00    -0.504 OA
ATOM     19  H   UNL     1      -1.542  -4.656   7.202  1.00  0.00     0.293 HD
ENDBRANCH  15  18
BRANCH  17  20
ATOM     20  O   UNL     1       1.272  -3.638   4.801  1.00  0.00    -0.504 OA
ATOM     21  H   UNL     1       0.599  -4.318   4.466  1.00  0.00     0.293 HD
ENDBRANCH  17  20
ENDBRANCH   1  12
BRANCH   2  22
ATOM     22  O   UNL     1       3.757  -1.180   9.424  1.00  0.00    -0.502 OA
ATOM     23  H   UNL     1       4.656  -1.644   9.373  1.00  0.00     0.293 HD
ENDBRANCH   2  22
BRANCH   6  24
ATOM     24  O   UNL     1       5.561   3.825   9.674  1.00  0.00    -0.507 OA
ATOM     25  H   UNL     1       5.553   3.316  10.545  1.00  0.00     0.293 HD
ENDBRANCH   6  24
BRANCH   8  26
ATOM     26  O   UNL     1       3.202   5.756   5.964  1.00  0.00    -0.508 OA
ATOM     27  H   UNL     1       3.559   5.813   5.017  1.00  0.00     0.293 HD
ENDBRANCH   8  26
TORSDOF 6
ENDMDL
MODEL 7
REMARK VINA RESULT:    -5.520      1.745      6.694
REMARK INTER + INTRA:          -6.934
REMARK INTER:                  -6.822
REMARK INTRA:                  -0.112
REMARK UNBOUND:                -0.285
REMARK SMILES O=c1c(O)c(-c2ccc(O)c(O)c2)oc2cc(O)cc(O)c12
REMARK SMILES IDX 5 1 3 2 2 3 1 4 22 5 20 6 19 7 17 8 16 9 15 10 14 11 6 12
REMARK SMILES IDX 7 13 8 14 9 15 13 16 11 17 10 18 12 20 4 22 21 24 18 26
REMARK H PARENT 10 19 12 21 4 23 21 25 18 27
REMARK Flexibility Score: inf
ROOT
ATOM      1  C   UNL     1       3.140   0.296   8.255  1.00  0.00     0.180 A 
ATOM      2  C   UNL     1       3.875   1.207   9.034  1.00  0.00     0.208 A 
ATOM      3  C   UNL     1       3.873   2.565   8.676  1.00  0.00     0.238 A 
ATOM      4  O   UNL     1       4.577   3.367   9.345  1.00  0.00    -0.285 OA
ATOM      5  C   UNL     1       3.127   2.997   7.554  1.00  0.00     0.111 A 
ATOM      6  C   UNL     1       3.022   4.355   7.125  1.00  0.00     0.134 A 
ATOM      7  C   UNL     1       2.362   4.650   5.925  1.00  0.00     0.093 A 
ATOM      8  C   UNL     1       1.747   3.645   5.175  1.00  0.00     0.123 A 
ATOM      9  C   UNL     1       1.792   2.325   5.618  1.00  0.00     0.094 A 
ATOM     10  C   UNL     1       2.475   1.994   6.790  1.00  0.00     0.146 A 
ATOM     11  O   UNL     1       2.503   0.723   7.171  1.00  0.00    -0.452 OA
ENDROOT
BRANCH   1  12
ATOM     12  C   UNL     1       3.072  -1.145   8.584  1.00  0.00     0.025 A 
ATOM     13  C   UNL     1       1.837  -1.718   8.926  1.00  0.00     0.016 A 
ATOM     14  C   UNL     1       1.753  -3.073   9.259  1.00  0.00     0.051 A 
ATOM     15  C   UNL     1       2.902  -3.871   9.273  1.00  0.00     0.157 A 
ATOM     16  C   UNL     1       4.229  -1.945   8.618  1.00  0.00     0.062 A 
ATOM     17  C   UNL     1       4.147  -3.304   8.955  1.00  0.00     0.158 A 
BRANCH  15  18
ATOM     18  O   UNL     1       2.786  -5.219   9.609  1.00  0.00    -0.504 OA
ATOM     19  H   UNL     1       2.763  -5.533  10.571  1.00  0.00     0.293 HD
ENDBRANCH  15  18
BRANCH  17  20
ATOM     20  O   UNL     1       5.298  -4.090   8.981  1.00  0.00    -0.504 OA
ATOM     21  H   UNL     1       5.847  -4.200   9.825  1.00  0.00     0.293 HD
ENDBRANCH  17  20
ENDBRANCH   1  12
BRANCH   2  22
ATOM     22  O   UNL     1       4.623   0.755  10.125  1.00  0.00    -0.502 OA
ATOM     23  H   UNL     1       4.225   0.648  11.051  1.00  0.00     0.293 HD
ENDBRANCH   2  22
BRANCH   6  24
ATOM     24  O   UNL     1       3.520   5.442   7.847  1.00  0.00    -0.507 OA
ATOM     25  H   UNL     1       4.398   5.903   7.661  1.00  0.00     0.293 HD
ENDBRANCH   6  24
BRANCH   8  26
ATOM     26  O   UNL     1       1.079   3.950   3.991  1.00  0.00    -0.508 OA
ATOM     27  H   UNL     1       0.483   4.766   3.914  1.00  0.00     0.293 HD
ENDBRANCH   8  26
TORSDOF 6
ENDMDL
MODEL 8
REMARK VINA RESULT:    -5.449      3.851      7.089
REMARK INTER + INTRA:          -6.849
REMARK INTER:                  -6.954
REMARK INTRA:                   0.105
REMARK UNBOUND:                -0.285
REMARK SMILES O=c1c(O)c(-c2ccc(O)c(O)c2)oc2cc(O)cc(O)c12
REMARK SMILES IDX 5 1 3 2 2 3 1 4 22 5 20 6 19 7 17 8 16 9 15 10 14 11 6 12
REMARK SMILES IDX 7 13 8 14 9 15 13 16 11 17 10 18 12 20 4 22 21 24 18 26
REMARK H PARENT 10 19 12 21 4 23 21 25 18 27
REMARK Flexibility Score: inf
ROOT
ATOM      1  C   UNL     1       4.075   3.832   7.270  1.00  0.00     0.180 A 
ATOM      2  C   UNL     1       4.708   2.811   8.000  1.00  0.00     0.208 A 
ATOM      3  C   UNL     1       5.950   3.072   8.600  1.00  0.00     0.238 A 
ATOM      4  O   UNL     1       6.538   2.138   9.206  1.00  0.00    -0.285 OA
ATOM      5  C   UNL     1       6.537   4.354   8.474  1.00  0.00     0.111 A 
ATOM      6  C   UNL     1       7.774   4.742   9.074  1.00  0.00     0.134 A 
ATOM      7  C   UNL     1       8.323   5.996   8.775  1.00  0.00     0.093 A 
ATOM      8  C   UNL     1       7.648   6.900   7.951  1.00  0.00     0.123 A 
ATOM      9  C   UNL     1       6.412   6.553   7.411  1.00  0.00     0.094 A 
ATOM     10  C   UNL     1       5.856   5.297   7.660  1.00  0.00     0.146 A 
ATOM     11  O   UNL     1       4.682   5.004   7.117  1.00  0.00    -0.452 OA
ENDROOT
BRANCH   1  12
ATOM     12  C   UNL     1       2.753   3.640   6.632  1.00  0.00     0.025 A 
ATOM     13  C   UNL     1       1.732   2.988   7.341  1.00  0.00     0.016 A 
ATOM     14  C   UNL     1       0.483   2.778   6.751  1.00  0.00     0.051 A 
ATOM     15  C   UNL     1       0.240   3.200   5.440  1.00  0.00     0.157 A 
ATOM     16  C   UNL     1       2.513   4.045   5.307  1.00  0.00     0.062 A 
ATOM     17  C   UNL     1       1.261   3.833   4.712  1.00  0.00     0.158 A 
BRANCH  15  18
ATOM     18  O   UNL     1      -1.017   2.978   4.879  1.00  0.00    -0.504 OA
ATOM     19  H   UNL     1      -1.132   2.696   3.913  1.00  0.00     0.293 HD
ENDBRANCH  15  18
BRANCH  17  20
ATOM     20  O   UNL     1       1.030   4.243   3.400  1.00  0.00    -0.504 OA
ATOM     21  H   UNL     1       0.168   4.701   3.130  1.00  0.00     0.293 HD
ENDBRANCH  17  20
ENDBRANCH   1  12
BRANCH   2  22
ATOM     22  O   UNL     1       4.121   1.545   8.093  1.00  0.00    -0.502 OA
ATOM     23  H   UNL     1       4.462   0.833   8.727  1.00  0.00     0.293 HD
ENDBRANCH   2  22
BRANCH   6  24
ATOM     24  O   UNL     1       8.482   3.951   9.982  1.00  0.00    -0.507 OA
ATOM     25  H   UNL     1       8.108   3.140  10.452  1.00  0.00     0.293 HD
ENDBRANCH   6  24
BRANCH   8  26
ATOM     26  O   UNL     1       8.194   8.151   7.672  1.00  0.00    -0.508 OA
ATOM     27  H   UNL     1       7.990   8.958   8.249  1.00  0.00     0.293 HD
ENDBRANCH   8  26
TORSDOF 6
ENDMDL
MODEL 9
REMARK VINA RESULT:    -5.379      9.606     10.641
REMARK INTER + INTRA:          -6.764
REMARK INTER:                  -6.441
REMARK INTRA:                  -0.323
REMARK UNBOUND:                -0.285
REMARK SMILES O=c1c(O)c(-c2ccc(O)c(O)c2)oc2cc(O)cc(O)c12
REMARK SMILES IDX 5 1 3 2 2 3 1 4 22 5 20 6 19 7 17 8 16 9 15 10 14 11 6 12
REMARK SMILES IDX 7 13 8 14 9 15 13 16 11 17 10 18 12 20 4 22 21 24 18 26
REMARK H PARENT 10 19 12 21 4 23 21 25 18 27
REMARK Flexibility Score: inf
ROOT
ATOM      1  C   UNL     1       7.947  -4.118   0.411  1.00  0.00     0.180 A 
ATOM      2  C   UNL     1       8.406  -5.384   0.009  1.00  0.00     0.208 A 
ATOM      3  C   UNL     1       8.289  -6.465   0.897  1.00  0.00     0.238 A 
ATOM      4  O   UNL     1       8.751  -7.584   0.552  1.00  0.00    -0.285 OA
ATOM      5  C   UNL     1       7.701  -6.270   2.170  1.00  0.00     0.111 A 
ATOM      6  C   UNL     1       7.495  -7.303   3.135  1.00  0.00     0.134 A 
ATOM      7  C   UNL     1       7.024  -6.970   4.412  1.00  0.00     0.093 A 
ATOM      8  C   UNL     1       6.689  -5.654   4.736  1.00  0.00     0.123 A 
ATOM      9  C   UNL     1       6.829  -4.649   3.781  1.00  0.00     0.094 A 
ATOM     10  C   UNL     1       7.332  -4.943   2.512  1.00  0.00     0.146 A 
ATOM     11  O   UNL     1       7.459  -3.954   1.636  1.00  0.00    -0.452 OA
ENDROOT
BRANCH   1  12
ATOM     12  C   UNL     1       8.012  -2.937  -0.479  1.00  0.00     0.025 A 
ATOM     13  C   UNL     1       9.055  -2.010  -0.321  1.00  0.00     0.016 A 
ATOM     14  C   UNL     1       9.125  -0.877  -1.136  1.00  0.00     0.051 A 
ATOM     15  C   UNL     1       8.148  -0.645  -2.109  1.00  0.00     0.157 A 
ATOM     16  C   UNL     1       7.020  -2.690  -1.444  1.00  0.00     0.062 A 
ATOM     17  C   UNL     1       7.088  -1.553  -2.262  1.00  0.00     0.158 A 
BRANCH  15  18
ATOM     18  O   UNL     1       8.245   0.493  -2.909  1.00  0.00    -0.504 OA
ATOM     19  H   UNL     1       8.820   0.516  -3.743  1.00  0.00     0.293 HD
ENDBRANCH  15  18
BRANCH  17  20
ATOM     20  O   UNL     1       6.102  -1.320  -3.220  1.00  0.00    -0.504 OA
ATOM     21  H   UNL     1       5.682  -0.406  -3.339  1.00  0.00     0.293 HD
ENDBRANCH  17  20
ENDBRANCH   1  12
BRANCH   2  22
ATOM     22  O   UNL     1       9.003  -5.549  -1.244  1.00  0.00    -0.502 OA
ATOM     23  H   UNL     1       9.927  -5.193  -1.458  1.00  0.00     0.293 HD
ENDBRANCH   2  22
BRANCH   6  24
ATOM     24  O   UNL     1       7.711  -8.660   2.882  1.00  0.00    -0.507 OA
ATOM     25  H   UNL     1       7.004  -9.304   2.561  1.00  0.00     0.293 HD
ENDBRANCH   6  24
BRANCH   8  26
ATOM     26  O   UNL     1       6.206  -5.335   6.003  1.00  0.00    -0.508 OA
ATOM     27  H   UNL     1       5.310  -5.678   6.330  1.00  0.00     0.293 HD
ENDBRANCH   8  26
TORSDOF 6
ENDMDL
