MODEL 1
REMARK VINA RESULT:    -4.516      0.000      0.000
REMARK INTER + INTRA:          -9.992
REMARK INTER:                  -8.213
REMARK INTRA:                  -1.779
REMARK UNBOUND:                -1.779
REMARK SMILES CCCCCCCCCCCCCCCC(=O)[O-]
REMARK SMILES IDX 9 1 10 2 11 3 12 4 13 5 14 6 15 7 16 8 17 9 18 10 8 11 7 12
REMARK SMILES IDX 6 13 5 14 4 15 3 16 2 17 1 18
REMARK H PARENT
REMARK Flexibility Score: inf
ROOT
ATOM      1  C   UNL     1     -11.437   2.199  19.395  1.00  0.00     0.000 C 
ENDROOT
BRANCH   1   2
ATOM      2  C   UNL     1     -12.022   3.608  19.189  1.00  0.00     0.000 C 
BRANCH   2   3
ATOM      3  C   UNL     1     -12.525   3.898  17.762  1.00  0.00     0.000 C 
BRANCH   3   4
ATOM      4  C   UNL     1     -12.109   2.831  16.726  1.00  0.00     0.000 C 
BRANCH   4   5
ATOM      5  C   UNL     1     -10.968   3.310  15.811  1.00  0.00     0.000 C 
BRANCH   5   6
ATOM      6  C   UNL     1      -9.709   2.430  15.920  1.00  0.00     0.006 C 
BRANCH   6   7
ATOM      7  C   UNL     1      -9.978   0.923  15.783  1.00  0.00     0.053 C 
BRANCH   7   8
ATOM      8  C   UNL     1     -10.153   0.511  14.353  1.00  0.00     0.041 C 
ATOM      9  O   UNL     1     -11.289   0.179  13.924  1.00  0.00    -0.550 OA
ATOM     10  O   UNL     1      -9.066   0.523  13.488  1.00  0.00    -0.550 OA
ENDBRANCH   7   8
ENDBRANCH   6   7
ENDBRANCH   5   6
ENDBRANCH   4   5
ENDBRANCH   3   4
ENDBRANCH   2   3
ENDBRANCH   1   2
BRANCH   1  11
ATOM     11  C   UNL     1     -10.026   2.158  20.017  1.00  0.00     0.000 C 
BRANCH  11  12
ATOM     12  C   UNL     1      -9.034   1.193  19.341  1.00  0.00    -0.000 C 
BRANCH  12  13
ATOM     13  C   UNL     1      -9.433  -0.284  19.501  1.00  0.00    -0.000 C 
BRANCH  13  14
ATOM     14  C   UNL     1      -9.917  -0.626  20.922  1.00  0.00    -0.000 C 
BRANCH  14  15
ATOM     15  C   UNL     1      -8.807  -0.986  21.928  1.00  0.00    -0.000 C 
BRANCH  15  16
ATOM     16  C   UNL     1      -9.074  -0.434  23.339  1.00  0.00    -0.000 C 
BRANCH  16  17
ATOM     17  C   UNL     1      -9.911   0.855  23.317  1.00  0.00    -0.003 C 
ATOM     18  C   UNL     1      -9.172   2.052  23.917  1.00  0.00     0.004 C 
ENDBRANCH  16  17
ENDBRANCH  15  16
ENDBRANCH  14  15
ENDBRANCH  13  14
ENDBRANCH  12  13
ENDBRANCH  11  12
ENDBRANCH   1  11
TORSDOF 14
ENDMDL
MODEL 2
REMARK VINA RESULT:    -4.381      3.715      6.998
REMARK INTER + INTRA:          -9.746
REMARK INTER:                  -7.654
REMARK INTRA:                  -2.092
REMARK UNBOUND:                -1.779
REMARK SMILES CCCCCCCCCCCCCCCC(=O)[O-]
REMARK SMILES IDX 9 1 10 2 11 3 12 4 13 5 14 6 15 7 16 8 17 9 18 10 8 11 7 12
REMARK SMILES IDX 6 13 5 14 4 15 3 16 2 17 1 18
REMARK H PARENT
REMARK Flexibility Score: inf
ROOT
ATOM      1  C   UNL     1      -8.875  -0.514  19.368  1.00  0.00     0.000 C 
ENDROOT
BRANCH   1   2
ATOM      2  C   UNL     1      -9.944  -1.305  20.144  1.00  0.00     0.000 C 
BRANCH   2   3
ATOM      3  C   UNL     1     -11.344  -0.663  20.156  1.00  0.00     0.000 C 
BRANCH   3   4
ATOM      4  C   UNL     1     -11.780  -0.147  21.545  1.00  0.00     0.000 C 
BRANCH   4   5
ATOM      5  C   UNL     1     -11.422   1.333  21.764  1.00  0.00     0.000 C 
BRANCH   5   6
ATOM      6  C   UNL     1      -9.985   1.529  22.281  1.00  0.00     0.006 C 
BRANCH   6   7
ATOM      7  C   UNL     1      -9.818   1.276  23.788  1.00  0.00     0.053 C 
BRANCH   7   8
ATOM      8  C   UNL     1      -9.362  -0.122  24.076  1.00  0.00     0.041 C 
ATOM      9  O   UNL     1      -9.729  -0.704  25.131  1.00  0.00    -0.550 OA
ATOM     10  O   UNL     1      -8.554  -0.792  23.165  1.00  0.00    -0.550 OA
ENDBRANCH   7   8
ENDBRANCH   6   7
ENDBRANCH   5   6
ENDBRANCH   4   5
ENDBRANCH   3   4
ENDBRANCH   2   3
ENDBRANCH   1   2
BRANCH   1  11
ATOM     11  C   UNL     1      -9.418   0.622  18.475  1.00  0.00     0.000 C 
BRANCH  11  12
ATOM     12  C   UNL     1      -8.907   2.033  18.820  1.00  0.00    -0.000 C 
BRANCH  12  13
ATOM     13  C   UNL     1      -9.860   3.146  18.352  1.00  0.00    -0.000 C 
BRANCH  13  14
ATOM     14  C   UNL     1     -11.336   2.708  18.339  1.00  0.00    -0.000 C 
BRANCH  14  15
ATOM     15  C   UNL     1     -12.036   2.785  16.969  1.00  0.00    -0.000 C 
BRANCH  15  16
ATOM     16  C   UNL     1     -11.057   2.677  15.788  1.00  0.00    -0.000 C 
BRANCH  16  17
ATOM     17  C   UNL     1     -11.031   1.269  15.172  1.00  0.00    -0.003 C 
ATOM     18  C   UNL     1      -9.632   0.841  14.727  1.00  0.00     0.004 C 
ENDBRANCH  16  17
ENDBRANCH  15  16
ENDBRANCH  14  15
ENDBRANCH  13  14
ENDBRANCH  12  13
ENDBRANCH  11  12
ENDBRANCH   1  11
TORSDOF 14
ENDMDL
MODEL 3
REMARK VINA RESULT:    -4.360      3.910      7.495
REMARK INTER + INTRA:          -9.707
REMARK INTER:                  -8.136
REMARK INTRA:                  -1.570
REMARK UNBOUND:                -1.779
REMARK SMILES CCCCCCCCCCCCCCCC(=O)[O-]
REMARK SMILES IDX 9 1 10 2 11 3 12 4 13 5 14 6 15 7 16 8 17 9 18 10 8 11 7 12
REMARK SMILES IDX 6 13 5 14 4 15 3 16 2 17 1 18
REMARK H PARENT
REMARK Flexibility Score: inf
ROOT
ATOM      1  C   UNL     1      -8.878   2.105  19.148  1.00  0.00     0.000 C 
ENDROOT
BRANCH   1   2
ATOM      2  C   UNL     1      -9.290   0.729  18.595  1.00  0.00     0.000 C 
BRANCH   2   3
ATOM      3  C   UNL     1      -8.716  -0.477  19.362  1.00  0.00     0.000 C 
BRANCH   3   4
ATOM      4  C   UNL     1      -9.701  -1.093  20.381  1.00  0.00     0.000 C 
BRANCH   4   5
ATOM      5  C   UNL     1      -9.243  -0.899  21.836  1.00  0.00     0.000 C 
BRANCH   5   6
ATOM      6  C   UNL     1      -9.661   0.464  22.416  1.00  0.00     0.006 C 
BRANCH   6   7
ATOM      7  C   UNL     1      -9.289   0.661  23.895  1.00  0.00     0.053 C 
BRANCH   7   8
ATOM      8  C   UNL     1     -10.141  -0.172  24.803  1.00  0.00     0.041 C 
ATOM      9  O   UNL     1      -9.605  -0.942  25.644  1.00  0.00    -0.550 OA
ATOM     10  O   UNL     1     -11.525  -0.077  24.741  1.00  0.00    -0.550 OA
ENDBRANCH   7   8
ENDBRANCH   6   7
ENDBRANCH   5   6
ENDBRANCH   4   5
ENDBRANCH   3   4
ENDBRANCH   2   3
ENDBRANCH   1   2
BRANCH   1  11
ATOM     11  C   UNL     1     -10.046   3.012  19.588  1.00  0.00     0.000 C 
BRANCH  11  12
ATOM     12  C   UNL     1     -11.433   2.608  19.055  1.00  0.00    -0.000 C 
BRANCH  12  13
ATOM     13  C   UNL     1     -12.153   3.757  18.329  1.00  0.00    -0.000 C 
BRANCH  13  14
ATOM     14  C   UNL     1     -12.635   3.369  16.919  1.00  0.00    -0.000 C 
BRANCH  14  15
ATOM     15  C   UNL     1     -11.597   2.638  16.045  1.00  0.00    -0.000 C 
BRANCH  15  16
ATOM     16  C   UNL     1     -12.060   1.238  15.607  1.00  0.00    -0.000 C 
BRANCH  16  17
ATOM     17  C   UNL     1     -11.159   0.636  14.517  1.00  0.00    -0.003 C 
ATOM     18  C   UNL     1      -9.670   0.828  14.805  1.00  0.00     0.004 C 
ENDBRANCH  16  17
ENDBRANCH  15  16
ENDBRANCH  14  15
ENDBRANCH  13  14
ENDBRANCH  12  13
ENDBRANCH  11  12
ENDBRANCH   1  11
TORSDOF 14
ENDMDL
MODEL 4
REMARK VINA RESULT:    -4.337      1.413      3.742
REMARK INTER + INTRA:          -9.666
REMARK INTER:                  -7.604
REMARK INTRA:                  -2.062
REMARK UNBOUND:                -1.779
REMARK SMILES CCCCCCCCCCCCCCCC(=O)[O-]
REMARK SMILES IDX 9 1 10 2 11 3 12 4 13 5 14 6 15 7 16 8 17 9 18 10 8 11 7 12
REMARK SMILES IDX 6 13 5 14 4 15 3 16 2 17 1 18
REMARK H PARENT
REMARK Flexibility Score: inf
ROOT
ATOM      1  C   UNL     1      -9.748  -1.198  20.300  1.00  0.00     0.000 C 
ENDROOT
BRANCH   1   2
ATOM      2  C   UNL     1      -9.164  -0.512  19.052  1.00  0.00     0.000 C 
BRANCH   2   3
ATOM      3  C   UNL     1      -8.925   1.003  19.197  1.00  0.00     0.000 C 
BRANCH   3   4
ATOM      4  C   UNL     1      -9.842   1.866  18.302  1.00  0.00     0.000 C 
BRANCH   4   5
ATOM      5  C   UNL     1     -11.140   1.138  17.912  1.00  0.00     0.000 C 
BRANCH   5   6
ATOM      6  C   UNL     1     -11.541   1.380  16.445  1.00  0.00     0.006 C 
BRANCH   6   7
ATOM      7  C   UNL     1     -10.354   1.610  15.496  1.00  0.00     0.053 C 
BRANCH   7   8
ATOM      8  C   UNL     1     -10.387   0.681  14.321  1.00  0.00     0.041 C 
ATOM      9  O   UNL     1     -11.487   0.254  13.881  1.00  0.00    -0.550 OA
ATOM     10  O   UNL     1      -9.204   0.310  13.693  1.00  0.00    -0.550 OA
ENDBRANCH   7   8
ENDBRANCH   6   7
ENDBRANCH   5   6
ENDBRANCH   4   5
ENDBRANCH   3   4
ENDBRANCH   2   3
ENDBRANCH   1   2
BRANCH   1  11
ATOM     11  C   UNL     1      -9.194  -0.692  21.648  1.00  0.00     0.000 C 
BRANCH  11  12
ATOM     12  C   UNL     1     -10.135   0.232  22.442  1.00  0.00    -0.000 C 
BRANCH  12  13
ATOM     13  C   UNL     1     -11.578   0.219  21.909  1.00  0.00    -0.000 C 
BRANCH  13  14
ATOM     14  C   UNL     1     -12.067   1.609  21.463  1.00  0.00    -0.000 C 
BRANCH  14  15
ATOM     15  C   UNL     1     -11.082   2.767  21.712  1.00  0.00    -0.000 C 
BRANCH  15  16
ATOM     16  C   UNL     1     -11.555   4.099  21.106  1.00  0.00    -0.000 C 
BRANCH  16  17
ATOM     17  C   UNL     1     -12.532   3.899  19.937  1.00  0.00    -0.003 C 
ATOM     18  C   UNL     1     -13.890   4.558  20.178  1.00  0.00     0.004 C 
ENDBRANCH  16  17
ENDBRANCH  15  16
ENDBRANCH  14  15
ENDBRANCH  13  14
ENDBRANCH  12  13
ENDBRANCH  11  12
ENDBRANCH   1  11
TORSDOF 14
ENDMDL
MODEL 5
REMARK VINA RESULT:    -4.298      1.388      2.012
REMARK INTER + INTRA:          -9.594
REMARK INTER:                  -7.693
REMARK INTRA:                  -1.901
REMARK UNBOUND:                -1.779
REMARK SMILES CCCCCCCCCCCCCCCC(=O)[O-]
REMARK SMILES IDX 9 1 10 2 11 3 12 4 13 5 14 6 15 7 16 8 17 9 18 10 8 11 7 12
REMARK SMILES IDX 6 13 5 14 4 15 3 16 2 17 1 18
REMARK H PARENT
REMARK Flexibility Score: inf
ROOT
ATOM      1  C   UNL     1      -8.819   3.456  18.473  1.00  0.00     0.000 C 
ENDROOT
BRANCH   1   2
ATOM      2  C   UNL     1     -10.220   4.093  18.433  1.00  0.00     0.000 C 
BRANCH   2   3
ATOM      3  C   UNL     1     -10.566   4.816  17.117  1.00  0.00     0.000 C 
BRANCH   3   4
ATOM      4  C   UNL     1     -11.747   4.181  16.350  1.00  0.00     0.000 C 
BRANCH   4   5
ATOM      5  C   UNL     1     -12.196   2.842  16.962  1.00  0.00     0.000 C 
BRANCH   5   6
ATOM      6  C   UNL     1     -12.007   1.655  16.000  1.00  0.00     0.006 C 
BRANCH   6   7
ATOM      7  C   UNL     1     -10.594   1.545  15.404  1.00  0.00     0.053 C 
BRANCH   7   8
ATOM      8  C   UNL     1     -10.542   0.582  14.257  1.00  0.00     0.041 C 
ATOM      9  O   UNL     1      -9.433   0.239  13.767  1.00  0.00    -0.550 OA
ATOM     10  O   UNL     1     -11.716   0.041  13.748  1.00  0.00    -0.550 OA
ENDBRANCH   7   8
ENDBRANCH   6   7
ENDBRANCH   5   6
ENDBRANCH   4   5
ENDBRANCH   3   4
ENDBRANCH   2   3
ENDBRANCH   1   2
BRANCH   1  11
ATOM     11  C   UNL     1      -8.693   2.200  19.360  1.00  0.00     0.000 C 
BRANCH  11  12
ATOM     12  C   UNL     1      -9.308   0.916  18.775  1.00  0.00    -0.000 C 
BRANCH  12  13
ATOM     13  C   UNL     1      -8.812  -0.360  19.479  1.00  0.00    -0.000 C 
BRANCH  13  14
ATOM     14  C   UNL     1      -9.954  -1.190  20.092  1.00  0.00    -0.000 C 
BRANCH  14  15
ATOM     15  C   UNL     1     -11.329  -0.496  20.130  1.00  0.00    -0.000 C 
BRANCH  15  16
ATOM     16  C   UNL     1     -11.732  -0.039  21.542  1.00  0.00    -0.000 C 
BRANCH  16  17
ATOM     17  C   UNL     1     -11.335   1.419  21.823  1.00  0.00    -0.003 C 
ATOM     18  C   UNL     1     -10.090   1.536  22.702  1.00  0.00     0.004 C 
ENDBRANCH  16  17
ENDBRANCH  15  16
ENDBRANCH  14  15
ENDBRANCH  13  14
ENDBRANCH  12  13
ENDBRANCH  11  12
ENDBRANCH   1  11
TORSDOF 14
ENDMDL
MODEL 6
REMARK VINA RESULT:    -4.263      3.446      7.415
REMARK INTER + INTRA:          -9.531
REMARK INTER:                  -8.092
REMARK INTRA:                  -1.438
REMARK UNBOUND:                -1.779
REMARK SMILES CCCCCCCCCCCCCCCC(=O)[O-]
REMARK SMILES IDX 9 1 10 2 11 3 12 4 13 5 14 6 15 7 16 8 17 9 18 10 8 11 7 12
REMARK SMILES IDX 6 13 5 14 4 15 3 16 2 17 1 18
REMARK H PARENT
REMARK Flexibility Score: inf
ROOT
ATOM      1  C   UNL     1     -10.275   1.729  19.588  1.00  0.00     0.000 C 
ENDROOT
BRANCH   1   2
ATOM      2  C   UNL     1      -9.065   0.980  19.004  1.00  0.00     0.000 C 
BRANCH   2   3
ATOM      3  C   UNL     1      -8.895  -0.467  19.504  1.00  0.00     0.000 C 
BRANCH   3   4
ATOM      4  C   UNL     1      -9.677  -0.773  20.801  1.00  0.00     0.000 C 
BRANCH   4   5
ATOM      5  C   UNL     1      -8.751  -1.004  22.008  1.00  0.00     0.000 C 
BRANCH   5   6
ATOM      6  C   UNL     1      -9.234  -0.280  23.278  1.00  0.00     0.006 C 
BRANCH   6   7
ATOM      7  C   UNL     1     -10.577   0.450  23.115  1.00  0.00     0.053 C 
BRANCH   7   8
ATOM      8  C   UNL     1     -10.433   1.933  23.276  1.00  0.00     0.041 C 
ATOM      9  O   UNL     1      -9.348   2.500  22.980  1.00  0.00    -0.550 OA
ATOM     10  O   UNL     1     -11.507   2.691  23.724  1.00  0.00    -0.550 OA
ENDBRANCH   7   8
ENDBRANCH   6   7
ENDBRANCH   5   6
ENDBRANCH   4   5
ENDBRANCH   3   4
ENDBRANCH   2   3
ENDBRANCH   1   2
BRANCH   1  11
ATOM     11  C   UNL     1     -10.841   2.857  18.700  1.00  0.00     0.000 C 
BRANCH  11  12
ATOM     12  C   UNL     1     -11.540   2.393  17.409  1.00  0.00    -0.000 C 
BRANCH  12  13
ATOM     13  C   UNL     1     -11.004   3.098  16.151  1.00  0.00    -0.000 C 
BRANCH  13  14
ATOM     14  C   UNL     1      -9.815   2.360  15.509  1.00  0.00    -0.000 C 
BRANCH  14  15
ATOM     15  C   UNL     1      -9.984   0.836  15.363  1.00  0.00    -0.000 C 
BRANCH  15  16
ATOM     16  C   UNL     1     -10.673   0.431  14.049  1.00  0.00    -0.000 C 
BRANCH  16  17
ATOM     17  C   UNL     1     -12.190   0.248  14.214  1.00  0.00    -0.003 C 
ATOM     18  C   UNL     1     -12.733  -0.944  13.425  1.00  0.00     0.004 C 
ENDBRANCH  16  17
ENDBRANCH  15  16
ENDBRANCH  14  15
ENDBRANCH  13  14
ENDBRANCH  12  13
ENDBRANCH  11  12
ENDBRANCH   1  11
TORSDOF 14
ENDMDL
MODEL 7
REMARK VINA RESULT:    -4.212      1.408      2.319
REMARK INTER + INTRA:          -9.438
REMARK INTER:                  -7.452
REMARK INTRA:                  -1.986
REMARK UNBOUND:                -1.779
REMARK SMILES CCCCCCCCCCCCCCCC(=O)[O-]
REMARK SMILES IDX 9 1 10 2 11 3 12 4 13 5 14 6 15 7 16 8 17 9 18 10 8 11 7 12
REMARK SMILES IDX 6 13 5 14 4 15 3 16 2 17 1 18
REMARK H PARENT
REMARK Flexibility Score: inf
ROOT
ATOM      1  C   UNL     1      -9.420   4.645  17.530  1.00  0.00     0.000 C 
ENDROOT
BRANCH   1   2
ATOM      2  C   UNL     1     -10.682   5.475  17.234  1.00  0.00     0.000 C 
BRANCH   2   3
ATOM      3  C   UNL     1     -11.986   4.904  17.822  1.00  0.00     0.000 C 
BRANCH   3   4
ATOM      4  C   UNL     1     -12.043   3.360  17.827  1.00  0.00     0.000 C 
BRANCH   4   5
ATOM      5  C   UNL     1     -12.458   2.781  16.464  1.00  0.00     0.000 C 
BRANCH   5   6
ATOM      6  C   UNL     1     -11.765   1.442  16.149  1.00  0.00     0.006 C 
BRANCH   6   7
ATOM      7  C   UNL     1     -10.444   1.583  15.377  1.00  0.00     0.053 C 
BRANCH   7   8
ATOM      8  C   UNL     1     -10.382   0.662  14.196  1.00  0.00     0.041 C 
ATOM      9  O   UNL     1     -11.443   0.241  13.665  1.00  0.00    -0.550 OA
ATOM     10  O   UNL     1      -9.152   0.291  13.667  1.00  0.00    -0.550 OA
ENDBRANCH   7   8
ENDBRANCH   6   7
ENDBRANCH   5   6
ENDBRANCH   4   5
ENDBRANCH   3   4
ENDBRANCH   2   3
ENDBRANCH   1   2
BRANCH   1  11
ATOM     11  C   UNL     1      -8.918   4.711  18.988  1.00  0.00     0.000 C 
BRANCH  11  12
ATOM     12  C   UNL     1      -8.695   3.349  19.671  1.00  0.00    -0.000 C 
BRANCH  12  13
ATOM     13  C   UNL     1      -8.416   2.215  18.669  1.00  0.00    -0.000 C 
BRANCH  13  14
ATOM     14  C   UNL     1      -9.149   0.908  19.021  1.00  0.00    -0.000 C 
BRANCH  14  15
ATOM     15  C   UNL     1     -10.283   1.044  20.054  1.00  0.00    -0.000 C 
BRANCH  15  16
ATOM     16  C   UNL     1     -10.562  -0.263  20.817  1.00  0.00    -0.000 C 
BRANCH  16  17
ATOM     17  C   UNL     1      -9.278  -0.912  21.357  1.00  0.00    -0.003 C 
ATOM     18  C   UNL     1      -9.006  -0.562  22.821  1.00  0.00     0.004 C 
ENDBRANCH  16  17
ENDBRANCH  15  16
ENDBRANCH  14  15
ENDBRANCH  13  14
ENDBRANCH  12  13
ENDBRANCH  11  12
ENDBRANCH   1  11
TORSDOF 14
ENDMDL
MODEL 8
REMARK VINA RESULT:    -4.194     10.485     13.171
REMARK INTER + INTRA:          -9.405
REMARK INTER:                  -7.704
REMARK INTRA:                  -1.701
REMARK UNBOUND:                -1.779
REMARK SMILES CCCCCCCCCCCCCCCC(=O)[O-]
REMARK SMILES IDX 9 1 10 2 11 3 12 4 13 5 14 6 15 7 16 8 17 9 18 10 8 11 7 12
REMARK SMILES IDX 6 13 5 14 4 15 3 16 2 17 1 18
REMARK H PARENT
REMARK Flexibility Score: inf
ROOT
ATOM      1  C   UNL     1      -3.499  -7.596  18.625  1.00  0.00     0.000 C 
ENDROOT
BRANCH   1   2
ATOM      2  C   UNL     1      -3.791  -6.999  20.013  1.00  0.00     0.000 C 
BRANCH   2   3
ATOM      3  C   UNL     1      -2.738  -7.320  21.091  1.00  0.00     0.000 C 
BRANCH   3   4
ATOM      4  C   UNL     1      -1.432  -6.506  20.948  1.00  0.00     0.000 C 
BRANCH   4   5
ATOM      5  C   UNL     1      -1.690  -5.039  20.563  1.00  0.00     0.000 C 
BRANCH   5   6
ATOM      6  C   UNL     1      -1.434  -4.064  21.727  1.00  0.00     0.006 C 
BRANCH   6   7
ATOM      7  C   UNL     1      -2.262  -2.771  21.660  1.00  0.00     0.053 C 
BRANCH   7   8
ATOM      8  C   UNL     1      -2.591  -2.244  23.024  1.00  0.00     0.041 C 
ATOM      9  O   UNL     1      -1.942  -2.637  24.029  1.00  0.00    -0.550 OA
ATOM     10  O   UNL     1      -3.595  -1.296  23.180  1.00  0.00    -0.550 OA
ENDBRANCH   7   8
ENDBRANCH   6   7
ENDBRANCH   5   6
ENDBRANCH   4   5
ENDBRANCH   3   4
ENDBRANCH   2   3
ENDBRANCH   1   2
BRANCH   1  11
ATOM     11  C   UNL     1      -3.061  -6.578  17.551  1.00  0.00     0.000 C 
BRANCH  11  12
ATOM     12  C   UNL     1      -1.804  -6.964  16.750  1.00  0.00    -0.000 C 
BRANCH  12  13
ATOM     13  C   UNL     1      -0.914  -7.981  17.486  1.00  0.00    -0.000 C 
BRANCH  13  14
ATOM     14  C   UNL     1      -0.037  -8.813  16.532  1.00  0.00    -0.000 C 
BRANCH  14  15
ATOM     15  C   UNL     1      -0.665 -10.129  16.037  1.00  0.00    -0.000 C 
BRANCH  15  16
ATOM     16  C   UNL     1      -1.803 -10.630  16.943  1.00  0.00    -0.000 C 
BRANCH  16  17
ATOM     17  C   UNL     1      -3.044 -11.059  16.144  1.00  0.00    -0.003 C 
ATOM     18  C   UNL     1      -3.934  -9.879  15.752  1.00  0.00     0.004 C 
ENDBRANCH  16  17
ENDBRANCH  15  16
ENDBRANCH  14  15
ENDBRANCH  13  14
ENDBRANCH  12  13
ENDBRANCH  11  12
ENDBRANCH   1  11
TORSDOF 14
ENDMDL
MODEL 9
REMARK VINA RESULT:    -4.133      3.144      4.823
REMARK INTER + INTRA:          -9.295
REMARK INTER:                  -7.036
REMARK INTRA:                  -2.258
REMARK UNBOUND:                -1.779
REMARK SMILES CCCCCCCCCCCCCCCC(=O)[O-]
REMARK SMILES IDX 9 1 10 2 11 3 12 4 13 5 14 6 15 7 16 8 17 9 18 10 8 11 7 12
REMARK SMILES IDX 6 13 5 14 4 15 3 16 2 17 1 18
REMARK H PARENT
REMARK Flexibility Score: inf
ROOT
ATOM      1  C   UNL     1     -12.443   3.661  16.665  1.00  0.00     0.000 C 
ENDROOT
BRANCH   1   2
ATOM      2  C   UNL     1     -12.062   2.282  16.098  1.00  0.00     0.000 C 
BRANCH   2   3
ATOM      3  C   UNL     1     -10.564   2.100  15.787  1.00  0.00     0.000 C 
BRANCH   3   4
ATOM      4  C   UNL     1      -9.698   1.823  17.036  1.00  0.00     0.000 C 
BRANCH   4   5
ATOM      5  C   UNL     1      -8.939   3.072  17.518  1.00  0.00     0.000 C 
BRANCH   5   6
ATOM      6  C   UNL     1      -7.967   2.770  18.673  1.00  0.00     0.006 C 
BRANCH   6   7
ATOM      7  C   UNL     1      -7.635   3.987  19.551  1.00  0.00     0.053 C 
BRANCH   7   8
ATOM      8  C   UNL     1      -6.184   4.354  19.477  1.00  0.00     0.041 C 
ATOM      9  O   UNL     1      -5.728   5.284  20.193  1.00  0.00    -0.550 OA
ATOM     10  O   UNL     1      -5.330   3.648  18.639  1.00  0.00    -0.550 OA
ENDBRANCH   7   8
ENDBRANCH   6   7
ENDBRANCH   5   6
ENDBRANCH   4   5
ENDBRANCH   3   4
ENDBRANCH   2   3
ENDBRANCH   1   2
BRANCH   1  11
ATOM     11  C   UNL     1     -12.854   3.669  18.152  1.00  0.00     0.000 C 
BRANCH  11  12
ATOM     12  C   UNL     1     -12.081   4.658  19.045  1.00  0.00    -0.000 C 
BRANCH  12  13
ATOM     13  C   UNL     1     -11.317   3.964  20.185  1.00  0.00    -0.000 C 
BRANCH  13  14
ATOM     14  C   UNL     1     -11.838   2.546  20.483  1.00  0.00    -0.000 C 
BRANCH  14  15
ATOM     15  C   UNL     1     -10.752   1.473  20.689  1.00  0.00    -0.000 C 
BRANCH  15  16
ATOM     16  C   UNL     1     -11.007   0.195  19.871  1.00  0.00    -0.000 C 
BRANCH  16  17
ATOM     17  C   UNL     1      -9.811  -0.769  19.899  1.00  0.00    -0.003 C 
ATOM     18  C   UNL     1      -9.192  -0.907  21.291  1.00  0.00     0.004 C 
ENDBRANCH  16  17
ENDBRANCH  15  16
ENDBRANCH  14  15
ENDBRANCH  13  14
ENDBRANCH  12  13
ENDBRANCH  11  12
ENDBRANCH   1  11
TORSDOF 14
ENDMDL
