MODEL 1
REMARK VINA RESULT:    -5.417      0.000      0.000
REMARK INTER + INTRA:          -6.809
REMARK INTER:                  -6.525
REMARK INTRA:                  -0.284
REMARK UNBOUND:                -0.284
REMARK SMILES O=c1c(O)c(-c2ccc(O)c(O)c2)oc2cc(O)cc(O)c12
REMARK SMILES IDX 5 1 3 2 2 3 1 4 22 5 20 6 19 7 17 8 16 9 15 10 14 11 6 12
REMARK SMILES IDX 7 13 8 14 9 15 13 16 11 17 10 18 12 20 4 22 21 24 18 26
REMARK H PARENT 10 19 12 21 4 23 21 25 18 27
REMARK Flexibility Score: inf
ROOT
ATOM      1  C   UNL     1     -20.297   2.729 -17.068  1.00  0.00     0.180 A 
ATOM      2  C   UNL     1     -21.356   1.811 -17.176  1.00  0.00     0.208 A 
ATOM      3  C   UNL     1     -22.610   2.266 -17.613  1.00  0.00     0.238 A 
ATOM      4  O   UNL     1     -23.567   1.451 -17.657  1.00  0.00    -0.285 OA
ATOM      5  C   UNL     1     -22.786   3.630 -17.950  1.00  0.00     0.111 A 
ATOM      6  C   UNL     1     -24.002   4.193 -18.441  1.00  0.00     0.134 A 
ATOM      7  C   UNL     1     -24.100   5.579 -18.619  1.00  0.00     0.093 A 
ATOM      8  C   UNL     1     -23.005   6.414 -18.384  1.00  0.00     0.123 A 
ATOM      9  C   UNL     1     -21.796   5.866 -17.962  1.00  0.00     0.094 A 
ATOM     10  C   UNL     1     -21.678   4.492 -17.741  1.00  0.00     0.146 A 
ATOM     11  O   UNL     1     -20.511   4.014 -17.328  1.00  0.00    -0.452 OA
ENDROOT
BRANCH   1  12
ATOM     12  C   UNL     1     -18.940   2.320 -16.639  1.00  0.00     0.025 A 
ATOM     13  C   UNL     1     -18.099   1.656 -17.546  1.00  0.00     0.016 A 
ATOM     14  C   UNL     1     -16.822   1.244 -17.156  1.00  0.00     0.051 A 
ATOM     15  C   UNL     1     -16.372   1.474 -15.852  1.00  0.00     0.157 A 
ATOM     16  C   UNL     1     -18.494   2.533 -15.322  1.00  0.00     0.062 A 
ATOM     17  C   UNL     1     -17.213   2.117 -14.928  1.00  0.00     0.158 A 
BRANCH  15  18
ATOM     18  O   UNL     1     -15.093   1.053 -15.492  1.00  0.00    -0.504 OA
ATOM     19  H   UNL     1     -14.661   1.327 -14.618  1.00  0.00     0.293 HD
ENDBRANCH  15  18
BRANCH  17  20
ATOM     20  O   UNL     1     -16.776   2.338 -13.623  1.00  0.00    -0.504 OA
ATOM     21  H   UNL     1     -17.276   2.952 -12.992  1.00  0.00     0.293 HD
ENDBRANCH  17  20
ENDBRANCH   1  12
BRANCH   2  22
ATOM     22  O   UNL     1     -21.166   0.473 -16.818  1.00  0.00    -0.502 OA
ATOM     23  H   UNL     1     -21.723   0.016 -16.107  1.00  0.00     0.293 HD
ENDBRANCH   2  22
BRANCH   6  24
ATOM     24  O   UNL     1     -25.124   3.438 -18.795  1.00  0.00    -0.507 OA
ATOM     25  H   UNL     1     -25.791   3.057 -18.141  1.00  0.00     0.293 HD
ENDBRANCH   6  24
BRANCH   8  26
ATOM     26  O   UNL     1     -23.105   7.790 -18.578  1.00  0.00    -0.508 OA
ATOM     27  H   UNL     1     -23.843   8.192 -19.144  1.00  0.00     0.293 HD
ENDBRANCH   8  26
TORSDOF 6
ENDMDL
MODEL 2
REMARK VINA RESULT:    -5.192      1.601      6.999
REMARK INTER + INTRA:          -6.539
REMARK INTER:                  -6.209
REMARK INTRA:                  -0.329
REMARK UNBOUND:                -0.284
REMARK SMILES O=c1c(O)c(-c2ccc(O)c(O)c2)oc2cc(O)cc(O)c12
REMARK SMILES IDX 5 1 3 2 2 3 1 4 22 5 20 6 19 7 17 8 16 9 15 10 14 11 6 12
REMARK SMILES IDX 7 13 8 14 9 15 13 16 11 17 10 18 12 20 4 22 21 24 18 26
REMARK H PARENT 10 19 12 21 4 23 21 25 18 27
REMARK Flexibility Score: inf
ROOT
ATOM      1  C   UNL     1     -20.211   2.965 -17.219  1.00  0.00     0.180 A 
ATOM      2  C   UNL     1     -19.760   2.863 -15.892  1.00  0.00     0.208 A 
ATOM      3  C   UNL     1     -18.532   2.233 -15.636  1.00  0.00     0.238 A 
ATOM      4  O   UNL     1     -18.160   2.097 -14.442  1.00  0.00    -0.285 OA
ATOM      5  C   UNL     1     -17.764   1.724 -16.710  1.00  0.00     0.111 A 
ATOM      6  C   UNL     1     -16.487   1.101 -16.571  1.00  0.00     0.134 A 
ATOM      7  C   UNL     1     -15.877   0.519 -17.689  1.00  0.00     0.093 A 
ATOM      8  C   UNL     1     -16.466   0.595 -18.953  1.00  0.00     0.123 A 
ATOM      9  C   UNL     1     -17.684   1.253 -19.109  1.00  0.00     0.094 A 
ATOM     10  C   UNL     1     -18.335   1.812 -18.007  1.00  0.00     0.146 A 
ATOM     11  O   UNL     1     -19.499   2.420 -18.199  1.00  0.00    -0.452 OA
ENDROOT
BRANCH   1  12
ATOM     12  C   UNL     1     -21.481   3.639 -17.571  1.00  0.00     0.025 A 
ATOM     13  C   UNL     1     -22.641   2.871 -17.764  1.00  0.00     0.016 A 
ATOM     14  C   UNL     1     -23.846   3.485 -18.116  1.00  0.00     0.051 A 
ATOM     15  C   UNL     1     -23.909   4.870 -18.295  1.00  0.00     0.157 A 
ATOM     16  C   UNL     1     -21.541   5.030 -17.771  1.00  0.00     0.062 A 
ATOM     17  C   UNL     1     -22.750   5.647 -18.127  1.00  0.00     0.158 A 
BRANCH  15  18
ATOM     18  O   UNL     1     -25.125   5.454 -18.645  1.00  0.00    -0.504 OA
ATOM     19  H   UNL     1     -26.013   5.074 -18.339  1.00  0.00     0.293 HD
ENDBRANCH  15  18
BRANCH  17  20
ATOM     20  O   UNL     1     -22.802   7.027 -18.317  1.00  0.00    -0.504 OA
ATOM     21  H   UNL     1     -22.335   7.474 -19.097  1.00  0.00     0.293 HD
ENDBRANCH  17  20
ENDBRANCH   1  12
BRANCH   2  22
ATOM     22  O   UNL     1     -20.545   3.353 -14.843  1.00  0.00    -0.502 OA
ATOM     23  H   UNL     1     -20.436   3.035 -13.888  1.00  0.00     0.293 HD
ENDBRANCH   2  22
BRANCH   6  24
ATOM     24  O   UNL     1     -15.769   1.053 -15.372  1.00  0.00    -0.507 OA
ATOM     25  H   UNL     1     -14.766   1.125 -15.299  1.00  0.00     0.293 HD
ENDBRANCH   6  24
BRANCH   8  26
ATOM     26  O   UNL     1     -15.845   0.027 -20.063  1.00  0.00    -0.508 OA
ATOM     27  H   UNL     1     -15.732   0.542 -20.928  1.00  0.00     0.293 HD
ENDBRANCH   8  26
TORSDOF 6
ENDMDL
MODEL 3
REMARK VINA RESULT:    -5.166      3.432      5.944
REMARK INTER + INTRA:          -6.507
REMARK INTER:                  -6.557
REMARK INTRA:                   0.050
REMARK UNBOUND:                -0.284
REMARK SMILES O=c1c(O)c(-c2ccc(O)c(O)c2)oc2cc(O)cc(O)c12
REMARK SMILES IDX 5 1 3 2 2 3 1 4 22 5 20 6 19 7 17 8 16 9 15 10 14 11 6 12
REMARK SMILES IDX 7 13 8 14 9 15 13 16 11 17 10 18 12 20 4 22 21 24 18 26
REMARK H PARENT 10 19 12 21 4 23 21 25 18 27
REMARK Flexibility Score: inf
ROOT
ATOM      1  C   UNL     1     -21.328   3.932 -15.695  1.00  0.00     0.180 A 
ATOM      2  C   UNL     1     -20.670   2.754 -15.302  1.00  0.00     0.208 A 
ATOM      3  C   UNL     1     -19.817   2.113 -16.214  1.00  0.00     0.238 A 
ATOM      4  O   UNL     1     -19.273   1.031 -15.875  1.00  0.00    -0.285 OA
ATOM      5  C   UNL     1     -19.620   2.665 -17.503  1.00  0.00     0.111 A 
ATOM      6  C   UNL     1     -18.749   2.122 -18.494  1.00  0.00     0.134 A 
ATOM      7  C   UNL     1     -18.732   2.677 -19.779  1.00  0.00     0.093 A 
ATOM      8  C   UNL     1     -19.507   3.797 -20.091  1.00  0.00     0.123 A 
ATOM      9  C   UNL     1     -20.316   4.371 -19.112  1.00  0.00     0.094 A 
ATOM     10  C   UNL     1     -20.382   3.817 -17.832  1.00  0.00     0.146 A 
ATOM     11  O   UNL     1     -21.175   4.389 -16.934  1.00  0.00    -0.452 OA
ENDROOT
BRANCH   1  12
ATOM     12  C   UNL     1     -22.222   4.679 -14.782  1.00  0.00     0.025 A 
ATOM     13  C   UNL     1     -23.241   3.995 -14.100  1.00  0.00     0.016 A 
ATOM     14  C   UNL     1     -24.109   4.684 -13.248  1.00  0.00     0.051 A 
ATOM     15  C   UNL     1     -23.983   6.066 -13.076  1.00  0.00     0.157 A 
ATOM     16  C   UNL     1     -22.109   6.072 -14.624  1.00  0.00     0.062 A 
ATOM     17  C   UNL     1     -22.981   6.765 -13.772  1.00  0.00     0.158 A 
BRANCH  15  18
ATOM     18  O   UNL     1     -24.861   6.726 -12.220  1.00  0.00    -0.504 OA
ATOM     19  H   UNL     1     -25.386   6.236 -11.504  1.00  0.00     0.293 HD
ENDBRANCH  15  18
BRANCH  17  20
ATOM     20  O   UNL     1     -22.858   8.145 -13.616  1.00  0.00    -0.504 OA
ATOM     21  H   UNL     1     -22.164   8.550 -12.999  1.00  0.00     0.293 HD
ENDBRANCH  17  20
ENDBRANCH   1  12
BRANCH   2  22
ATOM     22  O   UNL     1     -20.894   2.214 -14.032  1.00  0.00    -0.502 OA
ATOM     23  H   UNL     1     -20.540   1.307 -13.756  1.00  0.00     0.293 HD
ENDBRANCH   2  22
BRANCH   6  24
ATOM     24  O   UNL     1     -17.865   1.064 -18.260  1.00  0.00    -0.507 OA
ATOM     25  H   UNL     1     -17.569   0.753 -17.346  1.00  0.00     0.293 HD
ENDBRANCH   6  24
BRANCH   8  26
ATOM     26  O   UNL     1     -19.473   4.353 -21.367  1.00  0.00    -0.508 OA
ATOM     27  H   UNL     1     -19.445   5.356 -21.507  1.00  0.00     0.293 HD
ENDBRANCH   8  26
TORSDOF 6
ENDMDL
MODEL 4
REMARK VINA RESULT:    -5.130      2.859      6.500
REMARK INTER + INTRA:          -6.464
REMARK INTER:                  -6.148
REMARK INTRA:                  -0.316
REMARK UNBOUND:                -0.284
REMARK SMILES O=c1c(O)c(-c2ccc(O)c(O)c2)oc2cc(O)cc(O)c12
REMARK SMILES IDX 5 1 3 2 2 3 1 4 22 5 20 6 19 7 17 8 16 9 15 10 14 11 6 12
REMARK SMILES IDX 7 13 8 14 9 15 13 16 11 17 10 18 12 20 4 22 21 24 18 26
REMARK H PARENT 10 19 12 21 4 23 21 25 18 27
REMARK Flexibility Score: inf
ROOT
ATOM      1  C   UNL     1     -20.752   3.635 -16.079  1.00  0.00     0.180 A 
ATOM      2  C   UNL     1     -20.973   3.476 -17.458  1.00  0.00     0.208 A 
ATOM      3  C   UNL     1     -20.041   2.754 -18.219  1.00  0.00     0.238 A 
ATOM      4  O   UNL     1     -20.217   2.661 -19.461  1.00  0.00    -0.285 OA
ATOM      5  C   UNL     1     -18.907   2.186 -17.591  1.00  0.00     0.111 A 
ATOM      6  C   UNL     1     -17.918   1.401 -18.257  1.00  0.00     0.134 A 
ATOM      7  C   UNL     1     -16.771   1.000 -17.562  1.00  0.00     0.093 A 
ATOM      8  C   UNL     1     -16.607   1.300 -16.207  1.00  0.00     0.123 A 
ATOM      9  C   UNL     1     -17.594   2.014 -15.533  1.00  0.00     0.094 A 
ATOM     10  C   UNL     1     -18.733   2.460 -16.208  1.00  0.00     0.146 A 
ATOM     11  O   UNL     1     -19.644   3.147 -15.531  1.00  0.00    -0.452 OA
ENDROOT
BRANCH   1  12
ATOM     12  C   UNL     1     -21.701   4.361 -15.206  1.00  0.00     0.025 A 
ATOM     13  C   UNL     1     -22.714   3.650 -14.544  1.00  0.00     0.016 A 
ATOM     14  C   UNL     1     -23.634   4.318 -13.731  1.00  0.00     0.051 A 
ATOM     15  C   UNL     1     -23.565   5.706 -13.579  1.00  0.00     0.157 A 
ATOM     16  C   UNL     1     -21.646   5.760 -15.068  1.00  0.00     0.062 A 
ATOM     17  C   UNL     1     -22.570   6.433 -14.255  1.00  0.00     0.158 A 
BRANCH  15  18
ATOM     18  O   UNL     1     -24.494   6.346 -12.760  1.00  0.00    -0.504 OA
ATOM     19  H   UNL     1     -24.521   7.353 -12.660  1.00  0.00     0.293 HD
ENDBRANCH  15  18
BRANCH  17  20
ATOM     20  O   UNL     1     -22.503   7.819 -14.118  1.00  0.00    -0.504 OA
ATOM     21  H   UNL     1     -21.979   8.254 -13.369  1.00  0.00     0.293 HD
ENDBRANCH  17  20
ENDBRANCH   1  12
BRANCH   2  22
ATOM     22  O   UNL     1     -22.089   4.063 -18.062  1.00  0.00    -0.502 OA
ATOM     23  H   UNL     1     -22.204   5.067 -18.133  1.00  0.00     0.293 HD
ENDBRANCH   2  22
BRANCH   6  24
ATOM     24  O   UNL     1     -18.029   0.968 -19.582  1.00  0.00    -0.507 OA
ATOM     25  H   UNL     1     -18.882   0.979 -20.121  1.00  0.00     0.293 HD
ENDBRANCH   6  24
BRANCH   8  26
ATOM     26  O   UNL     1     -15.469   0.884 -15.519  1.00  0.00    -0.508 OA
ATOM     27  H   UNL     1     -15.484   0.071 -14.914  1.00  0.00     0.293 HD
ENDBRANCH   8  26
TORSDOF 6
ENDMDL
MODEL 5
REMARK VINA RESULT:    -5.069      2.164      2.557
REMARK INTER + INTRA:          -6.390
REMARK INTER:                  -6.055
REMARK INTRA:                  -0.335
REMARK UNBOUND:                -0.284
REMARK SMILES O=c1c(O)c(-c2ccc(O)c(O)c2)oc2cc(O)cc(O)c12
REMARK SMILES IDX 5 1 3 2 2 3 1 4 22 5 20 6 19 7 17 8 16 9 15 10 14 11 6 12
REMARK SMILES IDX 7 13 8 14 9 15 13 16 11 17 10 18 12 20 4 22 21 24 18 26
REMARK H PARENT 10 19 12 21 4 23 21 25 18 27
REMARK Flexibility Score: inf
ROOT
ATOM      1  C   UNL     1     -21.319   3.042 -15.677  1.00  0.00     0.180 A 
ATOM      2  C   UNL     1     -21.914   2.601 -16.872  1.00  0.00     0.208 A 
ATOM      3  C   UNL     1     -22.888   3.404 -17.485  1.00  0.00     0.238 A 
ATOM      4  O   UNL     1     -23.455   2.980 -18.524  1.00  0.00    -0.285 OA
ATOM      5  C   UNL     1     -23.245   4.645 -16.904  1.00  0.00     0.111 A 
ATOM      6  C   UNL     1     -24.191   5.558 -17.460  1.00  0.00     0.134 A 
ATOM      7  C   UNL     1     -24.562   6.696 -16.733  1.00  0.00     0.093 A 
ATOM      8  C   UNL     1     -23.974   6.987 -15.499  1.00  0.00     0.123 A 
ATOM      9  C   UNL     1     -23.006   6.133 -14.977  1.00  0.00     0.094 A 
ATOM     10  C   UNL     1     -22.641   4.971 -15.661  1.00  0.00     0.146 A 
ATOM     11  O   UNL     1     -21.722   4.179 -15.122  1.00  0.00    -0.452 OA
ENDROOT
BRANCH   1  12
ATOM     12  C   UNL     1     -20.266   2.263 -14.986  1.00  0.00     0.025 A 
ATOM     13  C   UNL     1     -20.626   1.366 -13.968  1.00  0.00     0.016 A 
ATOM     14  C   UNL     1     -19.647   0.636 -13.289  1.00  0.00     0.051 A 
ATOM     15  C   UNL     1     -18.295   0.801 -13.605  1.00  0.00     0.157 A 
ATOM     16  C   UNL     1     -18.905   2.442 -15.290  1.00  0.00     0.062 A 
ATOM     17  C   UNL     1     -17.920   1.712 -14.607  1.00  0.00     0.158 A 
BRANCH  15  18
ATOM     18  O   UNL     1     -17.341   0.058 -12.912  1.00  0.00    -0.504 OA
ATOM     19  H   UNL     1     -17.134  -0.906 -13.147  1.00  0.00     0.293 HD
ENDBRANCH  15  18
BRANCH  17  20
ATOM     20  O   UNL     1     -16.573   1.892 -14.919  1.00  0.00    -0.504 OA
ATOM     21  H   UNL     1     -16.207   2.796 -15.189  1.00  0.00     0.293 HD
ENDBRANCH  17  20
ENDBRANCH   1  12
BRANCH   2  22
ATOM     22  O   UNL     1     -21.562   1.362 -17.417  1.00  0.00    -0.502 OA
ATOM     23  H   UNL     1     -20.868   0.759 -16.993  1.00  0.00     0.293 HD
ENDBRANCH   2  22
BRANCH   6  24
ATOM     24  O   UNL     1     -24.769   5.409 -18.724  1.00  0.00    -0.507 OA
ATOM     25  H   UNL     1     -24.648   4.604 -19.320  1.00  0.00     0.293 HD
ENDBRANCH   6  24
BRANCH   8  26
ATOM     26  O   UNL     1     -24.338   8.129 -14.790  1.00  0.00    -0.508 OA
ATOM     27  H   UNL     1     -24.697   8.072 -13.844  1.00  0.00     0.293 HD
ENDBRANCH   8  26
TORSDOF 6
ENDMDL
MODEL 6
REMARK VINA RESULT:    -5.054      3.161      6.040
REMARK INTER + INTRA:          -6.373
REMARK INTER:                  -6.093
REMARK INTRA:                  -0.280
REMARK UNBOUND:                -0.284
REMARK SMILES O=c1c(O)c(-c2ccc(O)c(O)c2)oc2cc(O)cc(O)c12
REMARK SMILES IDX 5 1 3 2 2 3 1 4 22 5 20 6 19 7 17 8 16 9 15 10 14 11 6 12
REMARK SMILES IDX 7 13 8 14 9 15 13 16 11 17 10 18 12 20 4 22 21 24 18 26
REMARK H PARENT 10 19 12 21 4 23 21 25 18 27
REMARK Flexibility Score: inf
ROOT
ATOM      1  C   UNL     1     -20.112   2.289 -16.051  1.00  0.00     0.180 A 
ATOM      2  C   UNL     1     -18.999   2.112 -15.211  1.00  0.00     0.208 A 
ATOM      3  C   UNL     1     -19.196   1.614 -13.914  1.00  0.00     0.238 A 
ATOM      4  O   UNL     1     -18.203   1.509 -13.148  1.00  0.00    -0.285 OA
ATOM      5  C   UNL     1     -20.502   1.284 -13.477  1.00  0.00     0.111 A 
ATOM      6  C   UNL     1     -20.815   0.735 -12.197  1.00  0.00     0.134 A 
ATOM      7  C   UNL     1     -22.154   0.569 -11.825  1.00  0.00     0.093 A 
ATOM      8  C   UNL     1     -23.192   0.872 -12.711  1.00  0.00     0.123 A 
ATOM      9  C   UNL     1     -22.894   1.352 -13.984  1.00  0.00     0.094 A 
ATOM     10  C   UNL     1     -21.569   1.563 -14.371  1.00  0.00     0.146 A 
ATOM     11  O   UNL     1     -21.331   2.033 -15.590  1.00  0.00    -0.452 OA
ENDROOT
BRANCH   1  12
ATOM     12  C   UNL     1     -19.981   2.785 -17.439  1.00  0.00     0.025 A 
ATOM     13  C   UNL     1     -19.510   1.922 -18.441  1.00  0.00     0.016 A 
ATOM     14  C   UNL     1     -19.360   2.376 -19.754  1.00  0.00     0.051 A 
ATOM     15  C   UNL     1     -19.662   3.700 -20.084  1.00  0.00     0.157 A 
ATOM     16  C   UNL     1     -20.266   4.123 -17.768  1.00  0.00     0.062 A 
ATOM     17  C   UNL     1     -20.113   4.581 -19.085  1.00  0.00     0.158 A 
BRANCH  15  18
ATOM     18  O   UNL     1     -19.504   4.124 -21.402  1.00  0.00    -0.504 OA
ATOM     19  H   UNL     1     -18.974   3.590 -22.080  1.00  0.00     0.293 HD
ENDBRANCH  15  18
BRANCH  17  20
ATOM     20  O   UNL     1     -20.404   5.907 -19.404  1.00  0.00    -0.504 OA
ATOM     21  H   UNL     1     -20.267   6.270 -20.339  1.00  0.00     0.293 HD
ENDBRANCH  17  20
ENDBRANCH   1  12
BRANCH   2  22
ATOM     22  O   UNL     1     -17.720   2.465 -15.654  1.00  0.00    -0.502 OA
ATOM     23  H   UNL     1     -17.218   1.926 -16.348  1.00  0.00     0.293 HD
ENDBRANCH   2  22
BRANCH   6  24
ATOM     24  O   UNL     1     -19.853   0.312 -11.274  1.00  0.00    -0.507 OA
ATOM     25  H   UNL     1     -19.538  -0.641 -11.167  1.00  0.00     0.293 HD
ENDBRANCH   6  24
BRANCH   8  26
ATOM     26  O   UNL     1     -24.521   0.690 -12.338  1.00  0.00    -0.508 OA
ATOM     27  H   UNL     1     -25.091   1.463 -12.015  1.00  0.00     0.293 HD
ENDBRANCH   8  26
TORSDOF 6
ENDMDL
MODEL 7
REMARK VINA RESULT:    -5.040      2.512      3.311
REMARK INTER + INTRA:          -6.356
REMARK INTER:                  -6.071
REMARK INTRA:                  -0.285
REMARK UNBOUND:                -0.284
REMARK SMILES O=c1c(O)c(-c2ccc(O)c(O)c2)oc2cc(O)cc(O)c12
REMARK SMILES IDX 5 1 3 2 2 3 1 4 22 5 20 6 19 7 17 8 16 9 15 10 14 11 6 12
REMARK SMILES IDX 7 13 8 14 9 15 13 16 11 17 10 18 12 20 4 22 21 24 18 26
REMARK H PARENT 10 19 12 21 4 23 21 25 18 27
REMARK Flexibility Score: inf
ROOT
ATOM      1  C   UNL     1     -18.533   2.086 -15.679  1.00  0.00     0.180 A 
ATOM      2  C   UNL     1     -19.098   1.373 -14.608  1.00  0.00     0.208 A 
ATOM      3  C   UNL     1     -20.360   1.754 -14.126  1.00  0.00     0.238 A 
ATOM      4  O   UNL     1     -20.838   1.147 -13.133  1.00  0.00    -0.285 OA
ATOM      5  C   UNL     1     -21.048   2.835 -14.730  1.00  0.00     0.111 A 
ATOM      6  C   UNL     1     -22.349   3.283 -14.349  1.00  0.00     0.134 A 
ATOM      7  C   UNL     1     -22.877   4.442 -14.929  1.00  0.00     0.093 A 
ATOM      8  C   UNL     1     -22.179   5.134 -15.923  1.00  0.00     0.123 A 
ATOM      9  C   UNL     1     -20.935   4.670 -16.343  1.00  0.00     0.094 A 
ATOM     10  C   UNL     1     -20.366   3.537 -15.758  1.00  0.00     0.146 A 
ATOM     11  O   UNL     1     -19.173   3.136 -16.181  1.00  0.00    -0.452 OA
ENDROOT
BRANCH   1  12
ATOM     12  C   UNL     1     -17.218   1.727 -16.258  1.00  0.00     0.025 A 
ATOM     13  C   UNL     1     -17.167   0.966 -17.437  1.00  0.00     0.016 A 
ATOM     14  C   UNL     1     -15.936   0.600 -17.990  1.00  0.00     0.051 A 
ATOM     15  C   UNL     1     -14.742   0.974 -17.367  1.00  0.00     0.157 A 
ATOM     16  C   UNL     1     -16.016   2.085 -15.622  1.00  0.00     0.062 A 
ATOM     17  C   UNL     1     -14.780   1.715 -16.174  1.00  0.00     0.158 A 
BRANCH  15  18
ATOM     18  O   UNL     1     -13.530   0.595 -17.942  1.00  0.00    -0.504 OA
ATOM     19  H   UNL     1     -13.420  -0.281 -18.439  1.00  0.00     0.293 HD
ENDBRANCH  15  18
BRANCH  17  20
ATOM     20  O   UNL     1     -13.593   2.080 -15.540  1.00  0.00    -0.504 OA
ATOM     21  H   UNL     1     -12.879   1.398 -15.318  1.00  0.00     0.293 HD
ENDBRANCH  17  20
ENDBRANCH   1  12
BRANCH   2  22
ATOM     22  O   UNL     1     -18.393   0.323 -14.011  1.00  0.00    -0.502 OA
ATOM     23  H   UNL     1     -17.729  -0.245 -14.522  1.00  0.00     0.293 HD
ENDBRANCH   2  22
BRANCH   6  24
ATOM     24  O   UNL     1     -23.168   2.613 -13.435  1.00  0.00    -0.507 OA
ATOM     25  H   UNL     1     -23.970   3.018 -12.978  1.00  0.00     0.293 HD
ENDBRANCH   6  24
BRANCH   8  26
ATOM     26  O   UNL     1     -22.719   6.278 -16.506  1.00  0.00    -0.508 OA
ATOM     27  H   UNL     1     -23.085   7.037 -15.942  1.00  0.00     0.293 HD
ENDBRANCH   8  26
TORSDOF 6
ENDMDL
MODEL 8
REMARK VINA RESULT:    -4.906     11.477     13.351
REMARK INTER + INTRA:          -6.194
REMARK INTER:                  -5.920
REMARK INTRA:                  -0.274
REMARK UNBOUND:                -0.284
REMARK SMILES O=c1c(O)c(-c2ccc(O)c(O)c2)oc2cc(O)cc(O)c12
REMARK SMILES IDX 5 1 3 2 2 3 1 4 22 5 20 6 19 7 17 8 16 9 15 10 14 11 6 12
REMARK SMILES IDX 7 13 8 14 9 15 13 16 11 17 10 18 12 20 4 22 21 24 18 26
REMARK H PARENT 10 19 12 21 4 23 21 25 18 27
REMARK Flexibility Score: inf
ROOT
ATOM      1  C   UNL     1     -22.555  11.336  -8.530  1.00  0.00     0.180 A 
ATOM      2  C   UNL     1     -23.354  12.448  -8.845  1.00  0.00     0.208 A 
ATOM      3  C   UNL     1     -22.798  13.734  -8.755  1.00  0.00     0.238 A 
ATOM      4  O   UNL     1     -23.533  14.728  -8.986  1.00  0.00    -0.285 OA
ATOM      5  C   UNL     1     -21.446  13.891  -8.365  1.00  0.00     0.111 A 
ATOM      6  C   UNL     1     -20.768  15.144  -8.278  1.00  0.00     0.134 A 
ATOM      7  C   UNL     1     -19.469  15.192  -7.756  1.00  0.00     0.093 A 
ATOM      8  C   UNL     1     -18.800  14.024  -7.379  1.00  0.00     0.123 A 
ATOM      9  C   UNL     1     -19.433  12.791  -7.516  1.00  0.00     0.094 A 
ATOM     10  C   UNL     1     -20.741  12.714  -7.999  1.00  0.00     0.146 A 
ATOM     11  O   UNL     1     -21.310  11.520  -8.104  1.00  0.00    -0.452 OA
ENDROOT
BRANCH   1  12
ATOM     12  C   UNL     1     -23.062   9.948  -8.626  1.00  0.00     0.025 A 
ATOM     13  C   UNL     1     -23.308   9.219  -7.452  1.00  0.00     0.016 A 
ATOM     14  C   UNL     1     -23.767   7.901  -7.520  1.00  0.00     0.051 A 
ATOM     15  C   UNL     1     -23.974   7.287  -8.759  1.00  0.00     0.157 A 
ATOM     16  C   UNL     1     -23.251   9.323  -9.871  1.00  0.00     0.062 A 
ATOM     17  C   UNL     1     -23.709   7.999  -9.942  1.00  0.00     0.158 A 
BRANCH  15  18
ATOM     18  O   UNL     1     -24.434   5.972  -8.795  1.00  0.00    -0.504 OA
ATOM     19  H   UNL     1     -24.955   5.562  -8.030  1.00  0.00     0.293 HD
ENDBRANCH  15  18
BRANCH  17  20
ATOM     20  O   UNL     1     -23.900   7.388 -11.180  1.00  0.00    -0.504 OA
ATOM     21  H   UNL     1     -24.439   7.832 -11.914  1.00  0.00     0.293 HD
ENDBRANCH  17  20
ENDBRANCH   1  12
BRANCH   2  22
ATOM     22  O   UNL     1     -24.693  12.272  -9.207  1.00  0.00    -0.502 OA
ATOM     23  H   UNL     1     -24.998  12.254 -10.172  1.00  0.00     0.293 HD
ENDBRANCH   2  22
BRANCH   6  24
ATOM     24  O   UNL     1     -21.310  16.357  -8.714  1.00  0.00    -0.507 OA
ATOM     25  H   UNL     1     -20.801  17.226  -8.775  1.00  0.00     0.293 HD
ENDBRANCH   6  24
BRANCH   8  26
ATOM     26  O   UNL     1     -17.503  14.079  -6.875  1.00  0.00    -0.508 OA
ATOM     27  H   UNL     1     -17.285  13.761  -5.938  1.00  0.00     0.293 HD
ENDBRANCH   8  26
TORSDOF 6
ENDMDL
MODEL 9
REMARK VINA RESULT:    -4.836      1.866      2.224
REMARK INTER + INTRA:          -6.110
REMARK INTER:                  -6.051
REMARK INTRA:                  -0.059
REMARK UNBOUND:                -0.284
REMARK SMILES O=c1c(O)c(-c2ccc(O)c(O)c2)oc2cc(O)cc(O)c12
REMARK SMILES IDX 5 1 3 2 2 3 1 4 22 5 20 6 19 7 17 8 16 9 15 10 14 11 6 12
REMARK SMILES IDX 7 13 8 14 9 15 13 16 11 17 10 18 12 20 4 22 21 24 18 26
REMARK H PARENT 10 19 12 21 4 23 21 25 18 27
REMARK Flexibility Score: inf
ROOT
ATOM      1  C   UNL     1     -19.181   2.042 -18.261  1.00  0.00     0.180 A 
ATOM      2  C   UNL     1     -20.100   1.484 -19.167  1.00  0.00     0.208 A 
ATOM      3  C   UNL     1     -21.367   2.073 -19.302  1.00  0.00     0.238 A 
ATOM      4  O   UNL     1     -22.203   1.538 -20.075  1.00  0.00    -0.285 OA
ATOM      5  C   UNL     1     -21.695   3.221 -18.541  1.00  0.00     0.111 A 
ATOM      6  C   UNL     1     -22.935   3.923 -18.626  1.00  0.00     0.134 A 
ATOM      7  C   UNL     1     -23.200   4.968 -17.732  1.00  0.00     0.093 A 
ATOM      8  C   UNL     1     -22.244   5.378 -16.799  1.00  0.00     0.123 A 
ATOM      9  C   UNL     1     -21.008   4.737 -16.748  1.00  0.00     0.094 A 
ATOM     10  C   UNL     1     -20.728   3.668 -17.602  1.00  0.00     0.146 A 
ATOM     11  O   UNL     1     -19.542   3.079 -17.513  1.00  0.00    -0.452 OA
ENDROOT
BRANCH   1  12
ATOM     12  C   UNL     1     -17.818   1.493 -18.082  1.00  0.00     0.025 A 
ATOM     13  C   UNL     1     -16.976   1.354 -19.197  1.00  0.00     0.016 A 
ATOM     14  C   UNL     1     -15.693   0.820 -19.053  1.00  0.00     0.051 A 
ATOM     15  C   UNL     1     -15.237   0.403 -17.799  1.00  0.00     0.157 A 
ATOM     16  C   UNL     1     -17.365   1.055 -16.824  1.00  0.00     0.062 A 
ATOM     17  C   UNL     1     -16.078   0.515 -16.679  1.00  0.00     0.158 A 
BRANCH  15  18
ATOM     18  O   UNL     1     -13.952  -0.125 -17.686  1.00  0.00    -0.504 OA
ATOM     19  H   UNL     1     -13.484  -0.219 -16.792  1.00  0.00     0.293 HD
ENDBRANCH  15  18
BRANCH  17  20
ATOM     20  O   UNL     1     -15.635   0.089 -15.428  1.00  0.00    -0.504 OA
ATOM     21  H   UNL     1     -15.624  -0.891 -15.174  1.00  0.00     0.293 HD
ENDBRANCH  17  20
ENDBRANCH   1  12
BRANCH   2  22
ATOM     22  O   UNL     1     -19.763   0.338 -19.893  1.00  0.00    -0.502 OA
ATOM     23  H   UNL     1     -18.835   0.184 -20.267  1.00  0.00     0.293 HD
ENDBRANCH   2  22
BRANCH   6  24
ATOM     24  O   UNL     1     -23.919   3.655 -19.582  1.00  0.00    -0.507 OA
ATOM     25  H   UNL     1     -23.822   3.826 -20.572  1.00  0.00     0.293 HD
ENDBRANCH   6  24
BRANCH   8  26
ATOM     26  O   UNL     1     -22.510   6.428 -15.923  1.00  0.00    -0.508 OA
ATOM     27  H   UNL     1     -23.359   6.454 -15.370  1.00  0.00     0.293 HD
ENDBRANCH   8  26
TORSDOF 6
ENDMDL
