MODEL 1
REMARK VINA RESULT:    -8.177      0.000      0.000
REMARK INTER + INTRA:          -9.354
REMARK INTER:                  -9.850
REMARK INTRA:                   0.496
REMARK UNBOUND:                 0.496
REMARK SMILES O=c1c(O)c(-c2ccc(O)c(O)c2)oc2cc(O)cc(O)c12
REMARK SMILES IDX 5 1 3 2 2 3 1 4 22 5 20 6 19 7 17 8 16 9 15 10 14 11 6 12
REMARK SMILES IDX 7 13 8 14 9 15 13 16 11 17 10 18 12 20 4 22 21 24 18 26
REMARK H PARENT 10 19 12 21 4 23 21 25 18 27
REMARK Flexibility Score: inf
ROOT
ATOM      1  C   UNL     1      30.729  24.163 -17.150  1.00  0.00     0.180 A 
ATOM      2  C   UNL     1      29.916  23.780 -18.232  1.00  0.00     0.208 A 
ATOM      3  C   UNL     1      29.961  22.450 -18.680  1.00  0.00     0.238 A 
ATOM      4  O   UNL     1      29.191  22.100 -19.612  1.00  0.00    -0.285 OA
ATOM      5  C   UNL     1      30.830  21.525 -18.053  1.00  0.00     0.111 A 
ATOM      6  C   UNL     1      30.986  20.163 -18.451  1.00  0.00     0.134 A 
ATOM      7  C   UNL     1      31.777  19.304 -17.676  1.00  0.00     0.093 A 
ATOM      8  C   UNL     1      32.467  19.774 -16.558  1.00  0.00     0.123 A 
ATOM      9  C   UNL     1      32.368  21.115 -16.196  1.00  0.00     0.094 A 
ATOM     10  C   UNL     1      31.559  21.989 -16.927  1.00  0.00     0.146 A 
ATOM     11  O   UNL     1      31.484  23.256 -16.542  1.00  0.00    -0.452 OA
ENDROOT
BRANCH   1  12
ATOM     12  C   UNL     1      30.755  25.552 -16.638  1.00  0.00     0.025 A 
ATOM     13  C   UNL     1      31.749  25.983 -15.741  1.00  0.00     0.016 A 
ATOM     14  C   UNL     1      31.739  27.291 -15.252  1.00  0.00     0.051 A 
ATOM     15  C   UNL     1      30.731  28.184 -15.640  1.00  0.00     0.157 A 
ATOM     16  C   UNL     1      29.736  26.444 -17.007  1.00  0.00     0.062 A 
ATOM     17  C   UNL     1      29.723  27.756 -16.519  1.00  0.00     0.158 A 
BRANCH  15  18
ATOM     18  O   UNL     1      30.726  29.490 -15.151  1.00  0.00    -0.504 OA
ATOM     19  H   UNL     1      30.516  29.693 -14.181  1.00  0.00     0.293 HD
ENDBRANCH  15  18
BRANCH  17  20
ATOM     20  O   UNL     1      28.702  28.617 -16.919  1.00  0.00    -0.504 OA
ATOM     21  H   UNL     1      28.797  29.625 -16.869  1.00  0.00     0.293 HD
ENDBRANCH  17  20
ENDBRANCH   1  12
BRANCH   2  22
ATOM     22  O   UNL     1      29.050  24.704 -18.821  1.00  0.00    -0.502 OA
ATOM     23  H   UNL     1      28.168  24.433 -19.242  1.00  0.00     0.293 HD
ENDBRANCH   2  22
BRANCH   6  24
ATOM     24  O   UNL     1      30.415  19.616 -19.603  1.00  0.00    -0.507 OA
ATOM     25  H   UNL     1      29.426  19.602 -19.803  1.00  0.00     0.293 HD
ENDBRANCH   6  24
BRANCH   8  26
ATOM     26  O   UNL     1      33.264  18.916 -15.802  1.00  0.00    -0.508 OA
ATOM     27  H   UNL     1      33.449  17.965 -16.100  1.00  0.00     0.293 HD
ENDBRANCH   8  26
TORSDOF 6
ENDMDL
MODEL 2
REMARK VINA RESULT:    -8.080      1.002      1.187
REMARK INTER + INTRA:          -9.238
REMARK INTER:                  -9.715
REMARK INTRA:                   0.478
REMARK UNBOUND:                 0.496
REMARK SMILES O=c1c(O)c(-c2ccc(O)c(O)c2)oc2cc(O)cc(O)c12
REMARK SMILES IDX 5 1 3 2 2 3 1 4 22 5 20 6 19 7 17 8 16 9 15 10 14 11 6 12
REMARK SMILES IDX 7 13 8 14 9 15 13 16 11 17 10 18 12 20 4 22 21 24 18 26
REMARK H PARENT 10 19 12 21 4 23 21 25 18 27
REMARK Flexibility Score: inf
ROOT
ATOM      1  C   UNL     1      30.566  25.182 -16.958  1.00  0.00     0.180 A 
ATOM      2  C   UNL     1      29.743  25.019 -18.088  1.00  0.00     0.208 A 
ATOM      3  C   UNL     1      29.648  23.750 -18.681  1.00  0.00     0.238 A 
ATOM      4  O   UNL     1      28.868  23.597 -19.658  1.00  0.00    -0.285 OA
ATOM      5  C   UNL     1      30.387  22.667 -18.151  1.00  0.00     0.111 A 
ATOM      6  C   UNL     1      30.397  21.347 -18.698  1.00  0.00     0.134 A 
ATOM      7  C   UNL     1      31.063  20.322 -18.014  1.00  0.00     0.093 A 
ATOM      8  C   UNL     1      31.773  20.582 -16.840  1.00  0.00     0.123 A 
ATOM      9  C   UNL     1      31.818  21.877 -16.331  1.00  0.00     0.094 A 
ATOM     10  C   UNL     1      31.134  22.915 -16.970  1.00  0.00     0.146 A 
ATOM     11  O   UNL     1      31.195  24.132 -16.446  1.00  0.00    -0.452 OA
ENDROOT
BRANCH   1  12
ATOM     12  C   UNL     1      30.737  26.494 -16.292  1.00  0.00     0.025 A 
ATOM     13  C   UNL     1      31.787  26.722 -15.385  1.00  0.00     0.016 A 
ATOM     14  C   UNL     1      31.914  27.960 -14.751  1.00  0.00     0.051 A 
ATOM     15  C   UNL     1      30.990  28.983 -15.001  1.00  0.00     0.157 A 
ATOM     16  C   UNL     1      29.801  27.514 -16.524  1.00  0.00     0.062 A 
ATOM     17  C   UNL     1      29.926  28.756 -15.891  1.00  0.00     0.158 A 
BRANCH  15  18
ATOM     18  O   UNL     1      31.121  30.218 -14.368  1.00  0.00    -0.504 OA
ATOM     19  H   UNL     1      31.027  30.312 -13.363  1.00  0.00     0.293 HD
ENDBRANCH  15  18
BRANCH  17  20
ATOM     20  O   UNL     1      28.985  29.749 -16.156  1.00  0.00    -0.504 OA
ATOM     21  H   UNL     1      29.055  30.679 -15.758  1.00  0.00     0.293 HD
ENDBRANCH  17  20
ENDBRANCH   1  12
BRANCH   2  22
ATOM     22  O   UNL     1      29.005  26.097 -18.581  1.00  0.00    -0.502 OA
ATOM     23  H   UNL     1      28.159  26.429 -18.131  1.00  0.00     0.293 HD
ENDBRANCH   2  22
BRANCH   6  24
ATOM     24  O   UNL     1      29.798  21.001 -19.911  1.00  0.00    -0.507 OA
ATOM     25  H   UNL     1      28.802  20.962 -20.070  1.00  0.00     0.293 HD
ENDBRANCH   6  24
BRANCH   8  26
ATOM     26  O   UNL     1      32.445  19.558 -16.174  1.00  0.00    -0.508 OA
ATOM     27  H   UNL     1      32.158  18.591 -16.263  1.00  0.00     0.293 HD
ENDBRANCH   8  26
TORSDOF 6
ENDMDL
MODEL 3
REMARK VINA RESULT:    -7.965      1.218      6.843
REMARK INTER + INTRA:          -9.099
REMARK INTER:                  -9.570
REMARK INTRA:                   0.471
REMARK UNBOUND:                 0.496
REMARK SMILES O=c1c(O)c(-c2ccc(O)c(O)c2)oc2cc(O)cc(O)c12
REMARK SMILES IDX 5 1 3 2 2 3 1 4 22 5 20 6 19 7 17 8 16 9 15 10 14 11 6 12
REMARK SMILES IDX 7 13 8 14 9 15 13 16 11 17 10 18 12 20 4 22 21 24 18 26
REMARK H PARENT 10 19 12 21 4 23 21 25 18 27
REMARK Flexibility Score: inf
ROOT
ATOM      1  C   UNL     1      30.607  24.377 -17.272  1.00  0.00     0.180 A 
ATOM      2  C   UNL     1      29.673  25.038 -18.091  1.00  0.00     0.208 A 
ATOM      3  C   UNL     1      29.377  26.386 -17.834  1.00  0.00     0.238 A 
ATOM      4  O   UNL     1      28.583  26.987 -18.603  1.00  0.00    -0.285 OA
ATOM      5  C   UNL     1      30.003  27.052 -16.754  1.00  0.00     0.111 A 
ATOM      6  C   UNL     1      29.748  28.405 -16.378  1.00  0.00     0.134 A 
ATOM      7  C   UNL     1      30.522  29.000 -15.373  1.00  0.00     0.093 A 
ATOM      8  C   UNL     1      31.496  28.272 -14.688  1.00  0.00     0.123 A 
ATOM      9  C   UNL     1      31.711  26.934 -15.006  1.00  0.00     0.094 A 
ATOM     10  C   UNL     1      30.981  26.322 -16.028  1.00  0.00     0.146 A 
ATOM     11  O   UNL     1      31.225  25.048 -16.308  1.00  0.00    -0.452 OA
ENDROOT
BRANCH   1  12
ATOM     12  C   UNL     1      30.952  22.950 -17.464  1.00  0.00     0.025 A 
ATOM     13  C   UNL     1      30.430  22.209 -18.539  1.00  0.00     0.016 A 
ATOM     14  C   UNL     1      30.751  20.857 -18.686  1.00  0.00     0.051 A 
ATOM     15  C   UNL     1      31.585  20.223 -17.757  1.00  0.00     0.157 A 
ATOM     16  C   UNL     1      31.771  22.305 -16.524  1.00  0.00     0.062 A 
ATOM     17  C   UNL     1      32.095  20.950 -16.668  1.00  0.00     0.158 A 
BRANCH  15  18
ATOM     18  O   UNL     1      31.905  18.875 -17.908  1.00  0.00    -0.504 OA
ATOM     19  H   UNL     1      31.914  18.430 -18.819  1.00  0.00     0.293 HD
ENDBRANCH  15  18
BRANCH  17  20
ATOM     20  O   UNL     1      32.921  20.347 -15.722  1.00  0.00    -0.504 OA
ATOM     21  H   UNL     1      32.943  19.343 -15.587  1.00  0.00     0.293 HD
ENDBRANCH  17  20
ENDBRANCH   1  12
BRANCH   2  22
ATOM     22  O   UNL     1      29.083  24.368 -19.165  1.00  0.00    -0.502 OA
ATOM     23  H   UNL     1      28.093  24.154 -19.196  1.00  0.00     0.293 HD
ENDBRANCH   2  22
BRANCH   6  24
ATOM     24  O   UNL     1      28.737  29.192 -16.936  1.00  0.00    -0.507 OA
ATOM     25  H   UNL     1      28.387  30.048 -16.533  1.00  0.00     0.293 HD
ENDBRANCH   6  24
BRANCH   8  26
ATOM     26  O   UNL     1      32.250  28.868 -13.678  1.00  0.00    -0.508 OA
ATOM     27  H   UNL     1      32.174  29.857 -13.475  1.00  0.00     0.293 HD
ENDBRANCH   8  26
TORSDOF 6
ENDMDL
MODEL 4
REMARK VINA RESULT:    -7.770      0.896      6.683
REMARK INTER + INTRA:          -8.863
REMARK INTER:                  -9.417
REMARK INTRA:                   0.554
REMARK UNBOUND:                 0.496
REMARK SMILES O=c1c(O)c(-c2ccc(O)c(O)c2)oc2cc(O)cc(O)c12
REMARK SMILES IDX 5 1 3 2 2 3 1 4 22 5 20 6 19 7 17 8 16 9 15 10 14 11 6 12
REMARK SMILES IDX 7 13 8 14 9 15 13 16 11 17 10 18 12 20 4 22 21 24 18 26
REMARK H PARENT 10 19 12 21 4 23 21 25 18 27
REMARK Flexibility Score: inf
ROOT
ATOM      1  C   UNL     1      30.913  23.368 -17.167  1.00  0.00     0.180 A 
ATOM      2  C   UNL     1      29.895  23.765 -18.053  1.00  0.00     0.208 A 
ATOM      3  C   UNL     1      29.452  25.097 -18.027  1.00  0.00     0.238 A 
ATOM      4  O   UNL     1      28.581  25.460 -18.860  1.00  0.00    -0.285 OA
ATOM      5  C   UNL     1      30.019  26.011 -17.107  1.00  0.00     0.111 A 
ATOM      6  C   UNL     1      29.618  27.374 -16.968  1.00  0.00     0.134 A 
ATOM      7  C   UNL     1      30.338  28.221 -16.115  1.00  0.00     0.093 A 
ATOM      8  C   UNL     1      31.401  27.738 -15.349  1.00  0.00     0.123 A 
ATOM      9  C   UNL     1      31.762  26.396 -15.434  1.00  0.00     0.094 A 
ATOM     10  C   UNL     1      31.087  25.534 -16.303  1.00  0.00     0.146 A 
ATOM     11  O   UNL     1      31.469  24.265 -16.362  1.00  0.00    -0.452 OA
ENDROOT
BRANCH   1  12
ATOM     12  C   UNL     1      31.415  21.976 -17.117  1.00  0.00     0.025 A 
ATOM     13  C   UNL     1      32.440  21.599 -16.232  1.00  0.00     0.016 A 
ATOM     14  C   UNL     1      32.914  20.285 -16.219  1.00  0.00     0.051 A 
ATOM     15  C   UNL     1      32.382  19.333 -17.098  1.00  0.00     0.157 A 
ATOM     16  C   UNL     1      30.900  21.023 -18.010  1.00  0.00     0.062 A 
ATOM     17  C   UNL     1      31.372  19.705 -18.000  1.00  0.00     0.158 A 
BRANCH  15  18
ATOM     18  O   UNL     1      32.856  18.022 -17.082  1.00  0.00    -0.504 OA
ATOM     19  H   UNL     1      33.623  17.742 -16.481  1.00  0.00     0.293 HD
ENDBRANCH  15  18
BRANCH  17  20
ATOM     20  O   UNL     1      30.827  18.784 -18.893  1.00  0.00    -0.504 OA
ATOM     21  H   UNL     1      29.859  18.831 -19.192  1.00  0.00     0.293 HD
ENDBRANCH  17  20
ENDBRANCH   1  12
BRANCH   2  22
ATOM     22  O   UNL     1      29.365  22.853 -18.968  1.00  0.00    -0.502 OA
ATOM     23  H   UNL     1      28.679  23.117 -19.665  1.00  0.00     0.293 HD
ENDBRANCH   2  22
BRANCH   6  24
ATOM     24  O   UNL     1      28.514  27.933 -17.616  1.00  0.00    -0.507 OA
ATOM     25  H   UNL     1      27.937  27.451 -18.288  1.00  0.00     0.293 HD
ENDBRANCH   6  24
BRANCH   8  26
ATOM     26  O   UNL     1      32.102  28.584 -14.491  1.00  0.00    -0.508 OA
ATOM     27  H   UNL     1      32.732  29.294 -14.846  1.00  0.00     0.293 HD
ENDBRANCH   8  26
TORSDOF 6
ENDMDL
MODEL 5
REMARK VINA RESULT:    -7.460      2.352      3.894
REMARK INTER + INTRA:          -8.490
REMARK INTER:                  -8.268
REMARK INTRA:                  -0.222
REMARK UNBOUND:                 0.496
REMARK SMILES O=c1c(O)c(-c2ccc(O)c(O)c2)oc2cc(O)cc(O)c12
REMARK SMILES IDX 5 1 3 2 2 3 1 4 22 5 20 6 19 7 17 8 16 9 15 10 14 11 6 12
REMARK SMILES IDX 7 13 8 14 9 15 13 16 11 17 10 18 12 20 4 22 21 24 18 26
REMARK H PARENT 10 19 12 21 4 23 21 25 18 27
REMARK Flexibility Score: inf
ROOT
ATOM      1  C   UNL     1      29.574  25.380 -18.284  1.00  0.00     0.180 A 
ATOM      2  C   UNL     1      30.567  25.372 -17.289  1.00  0.00     0.208 A 
ATOM      3  C   UNL     1      31.164  24.152 -16.933  1.00  0.00     0.238 A 
ATOM      4  O   UNL     1      32.091  24.158 -16.082  1.00  0.00    -0.285 OA
ATOM      5  C   UNL     1      30.750  22.955 -17.564  1.00  0.00     0.111 A 
ATOM      6  C   UNL     1      31.259  21.658 -17.253  1.00  0.00     0.134 A 
ATOM      7  C   UNL     1      30.870  20.559 -18.032  1.00  0.00     0.093 A 
ATOM      8  C   UNL     1      29.943  20.702 -19.066  1.00  0.00     0.123 A 
ATOM      9  C   UNL     1      29.396  21.953 -19.338  1.00  0.00     0.094 A 
ATOM     10  C   UNL     1      29.791  23.074 -18.603  1.00  0.00     0.146 A 
ATOM     11  O   UNL     1      29.254  24.250 -18.902  1.00  0.00    -0.452 OA
ENDROOT
BRANCH   1  12
ATOM     12  C   UNL     1      28.880  26.623 -18.695  1.00  0.00     0.025 A 
ATOM     13  C   UNL     1      28.010  27.298 -17.822  1.00  0.00     0.016 A 
ATOM     14  C   UNL     1      27.348  28.456 -18.240  1.00  0.00     0.051 A 
ATOM     15  C   UNL     1      27.535  28.947 -19.538  1.00  0.00     0.157 A 
ATOM     16  C   UNL     1      29.048  27.107 -20.002  1.00  0.00     0.062 A 
ATOM     17  C   UNL     1      28.387  28.267 -20.424  1.00  0.00     0.158 A 
BRANCH  15  18
ATOM     18  O   UNL     1      26.875  30.104 -19.951  1.00  0.00    -0.504 OA
ATOM     19  H   UNL     1      26.202  30.573 -19.356  1.00  0.00     0.293 HD
ENDBRANCH  15  18
BRANCH  17  20
ATOM     20  O   UNL     1      28.588  28.725 -21.725  1.00  0.00    -0.504 OA
ATOM     21  H   UNL     1      28.130  29.557 -22.080  1.00  0.00     0.293 HD
ENDBRANCH  17  20
ENDBRANCH   1  12
BRANCH   2  22
ATOM     22  O   UNL     1      30.977  26.569 -16.695  1.00  0.00    -0.502 OA
ATOM     23  H   UNL     1      30.331  27.189 -16.220  1.00  0.00     0.293 HD
ENDBRANCH   2  22
BRANCH   6  24
ATOM     24  O   UNL     1      32.117  21.391 -16.183  1.00  0.00    -0.507 OA
ATOM     25  H   UNL     1      32.586  22.096 -15.634  1.00  0.00     0.293 HD
ENDBRANCH   6  24
BRANCH   8  26
ATOM     26  O   UNL     1      29.550  19.601 -19.825  1.00  0.00    -0.508 OA
ATOM     27  H   UNL     1      28.606  19.514 -20.183  1.00  0.00     0.293 HD
ENDBRANCH   8  26
TORSDOF 6
ENDMDL
MODEL 6
REMARK VINA RESULT:    -7.338      2.252      4.341
REMARK INTER + INTRA:          -8.343
REMARK INTER:                  -8.179
REMARK INTRA:                  -0.164
REMARK UNBOUND:                 0.496
REMARK SMILES O=c1c(O)c(-c2ccc(O)c(O)c2)oc2cc(O)cc(O)c12
REMARK SMILES IDX 5 1 3 2 2 3 1 4 22 5 20 6 19 7 17 8 16 9 15 10 14 11 6 12
REMARK SMILES IDX 7 13 8 14 9 15 13 16 11 17 10 18 12 20 4 22 21 24 18 26
REMARK H PARENT 10 19 12 21 4 23 21 25 18 27
REMARK Flexibility Score: inf
ROOT
ATOM      1  C   UNL     1      30.645  28.019 -16.013  1.00  0.00     0.180 A 
ATOM      2  C   UNL     1      29.417  28.040 -16.698  1.00  0.00     0.208 A 
ATOM      3  C   UNL     1      28.982  26.875 -17.349  1.00  0.00     0.238 A 
ATOM      4  O   UNL     1      27.857  26.883 -17.914  1.00  0.00    -0.285 OA
ATOM      5  C   UNL     1      29.785  25.710 -17.322  1.00  0.00     0.111 A 
ATOM      6  C   UNL     1      29.460  24.486 -17.981  1.00  0.00     0.134 A 
ATOM      7  C   UNL     1      30.266  23.358 -17.777  1.00  0.00     0.093 A 
ATOM      8  C   UNL     1      31.418  23.428 -16.992  1.00  0.00     0.123 A 
ATOM      9  C   UNL     1      31.775  24.632 -16.393  1.00  0.00     0.094 A 
ATOM     10  C   UNL     1      30.973  25.767 -16.547  1.00  0.00     0.146 A 
ATOM     11  O   UNL     1      31.344  26.892 -15.950  1.00  0.00    -0.452 OA
ENDROOT
BRANCH   1  12
ATOM     12  C   UNL     1      31.183  29.214 -15.324  1.00  0.00     0.025 A 
ATOM     13  C   UNL     1      32.376  29.828 -15.746  1.00  0.00     0.016 A 
ATOM     14  C   UNL     1      32.877  30.940 -15.065  1.00  0.00     0.051 A 
ATOM     15  C   UNL     1      32.203  31.448 -13.947  1.00  0.00     0.157 A 
ATOM     16  C   UNL     1      30.523  29.714 -14.190  1.00  0.00     0.062 A 
ATOM     17  C   UNL     1      31.022  30.829 -13.506  1.00  0.00     0.158 A 
BRANCH  15  18
ATOM     18  O   UNL     1      32.704  32.560 -13.272  1.00  0.00    -0.504 OA
ATOM     19  H   UNL     1      33.430  33.142 -13.673  1.00  0.00     0.293 HD
ENDBRANCH  15  18
BRANCH  17  20
ATOM     20  O   UNL     1      30.332  31.304 -12.392  1.00  0.00    -0.504 OA
ATOM     21  H   UNL     1      30.094  32.283 -12.283  1.00  0.00     0.293 HD
ENDBRANCH  17  20
ENDBRANCH   1  12
BRANCH   2  22
ATOM     22  O   UNL     1      28.630  29.194 -16.694  1.00  0.00    -0.502 OA
ATOM     23  H   UNL     1      27.622  29.165 -16.794  1.00  0.00     0.293 HD
ENDBRANCH   2  22
BRANCH   6  24
ATOM     24  O   UNL     1      28.385  24.334 -18.860  1.00  0.00    -0.507 OA
ATOM     25  H   UNL     1      27.525  24.860 -18.812  1.00  0.00     0.293 HD
ENDBRANCH   6  24
BRANCH   8  26
ATOM     26  O   UNL     1      32.222  22.304 -16.807  1.00  0.00    -0.508 OA
ATOM     27  H   UNL     1      32.967  22.074 -17.455  1.00  0.00     0.293 HD
ENDBRANCH   8  26
TORSDOF 6
ENDMDL
MODEL 7
REMARK VINA RESULT:    -7.331      1.655      3.428
REMARK INTER + INTRA:          -8.335
REMARK INTER:                  -8.589
REMARK INTRA:                   0.255
REMARK UNBOUND:                 0.496
REMARK SMILES O=c1c(O)c(-c2ccc(O)c(O)c2)oc2cc(O)cc(O)c12
REMARK SMILES IDX 5 1 3 2 2 3 1 4 22 5 20 6 19 7 17 8 16 9 15 10 14 11 6 12
REMARK SMILES IDX 7 13 8 14 9 15 13 16 11 17 10 18 12 20 4 22 21 24 18 26
REMARK H PARENT 10 19 12 21 4 23 21 25 18 27
REMARK Flexibility Score: inf
ROOT
ATOM      1  C   UNL     1      30.166  23.859 -17.818  1.00  0.00     0.180 A 
ATOM      2  C   UNL     1      31.087  22.979 -17.222  1.00  0.00     0.208 A 
ATOM      3  C   UNL     1      31.180  21.664 -17.703  1.00  0.00     0.238 A 
ATOM      4  O   UNL     1      32.045  20.897 -17.204  1.00  0.00    -0.285 OA
ATOM      5  C   UNL     1      30.340  21.239 -18.760  1.00  0.00     0.111 A 
ATOM      6  C   UNL     1      30.322  19.917 -19.299  1.00  0.00     0.134 A 
ATOM      7  C   UNL     1      29.543  19.644 -20.431  1.00  0.00     0.093 A 
ATOM      8  C   UNL     1      28.734  20.628 -21.003  1.00  0.00     0.123 A 
ATOM      9  C   UNL     1      28.700  21.904 -20.449  1.00  0.00     0.094 A 
ATOM     10  C   UNL     1      29.493  22.218 -19.341  1.00  0.00     0.146 A 
ATOM     11  O   UNL     1      29.439  23.450 -18.851  1.00  0.00    -0.452 OA
ENDROOT
BRANCH   1  12
ATOM     12  C   UNL     1      29.992  25.253 -17.350  1.00  0.00     0.025 A 
ATOM     13  C   UNL     1      28.736  25.885 -17.382  1.00  0.00     0.016 A 
ATOM     14  C   UNL     1      28.601  27.209 -16.957  1.00  0.00     0.051 A 
ATOM     15  C   UNL     1      29.719  27.926 -16.509  1.00  0.00     0.157 A 
ATOM     16  C   UNL     1      31.112  25.982 -16.920  1.00  0.00     0.062 A 
ATOM     17  C   UNL     1      30.981  27.309 -16.494  1.00  0.00     0.158 A 
BRANCH  15  18
ATOM     18  O   UNL     1      29.580  29.246 -16.084  1.00  0.00    -0.504 OA
ATOM     19  H   UNL     1      29.686  30.024 -16.725  1.00  0.00     0.293 HD
ENDBRANCH  15  18
BRANCH  17  20
ATOM     20  O   UNL     1      32.113  27.997 -16.061  1.00  0.00    -0.504 OA
ATOM     21  H   UNL     1      33.000  27.933 -16.547  1.00  0.00     0.293 HD
ENDBRANCH  17  20
ENDBRANCH   1  12
BRANCH   2  22
ATOM     22  O   UNL     1      31.922  23.426 -16.195  1.00  0.00    -0.502 OA
ATOM     23  H   UNL     1      32.924  23.522 -16.311  1.00  0.00     0.293 HD
ENDBRANCH   2  22
BRANCH   6  24
ATOM     24  O   UNL     1      31.021  18.840 -18.749  1.00  0.00    -0.507 OA
ATOM     25  H   UNL     1      31.442  18.836 -17.832  1.00  0.00     0.293 HD
ENDBRANCH   6  24
BRANCH   8  26
ATOM     26  O   UNL     1      27.950  20.343 -22.120  1.00  0.00    -0.508 OA
ATOM     27  H   UNL     1      28.360  19.997 -22.980  1.00  0.00     0.293 HD
ENDBRANCH   8  26
TORSDOF 6
ENDMDL
MODEL 8
REMARK VINA RESULT:    -7.304      1.477      6.874
REMARK INTER + INTRA:          -8.302
REMARK INTER:                  -8.773
REMARK INTRA:                   0.470
REMARK UNBOUND:                 0.496
REMARK SMILES O=c1c(O)c(-c2ccc(O)c(O)c2)oc2cc(O)cc(O)c12
REMARK SMILES IDX 5 1 3 2 2 3 1 4 22 5 20 6 19 7 17 8 16 9 15 10 14 11 6 12
REMARK SMILES IDX 7 13 8 14 9 15 13 16 11 17 10 18 12 20 4 22 21 24 18 26
REMARK H PARENT 10 19 12 21 4 23 21 25 18 27
REMARK Flexibility Score: inf
ROOT
ATOM      1  C   UNL     1      29.771  23.355 -18.488  1.00  0.00     0.180 A 
ATOM      2  C   UNL     1      28.780  24.129 -19.118  1.00  0.00     0.208 A 
ATOM      3  C   UNL     1      28.650  25.483 -18.768  1.00  0.00     0.238 A 
ATOM      4  O   UNL     1      27.799  26.184 -19.375  1.00  0.00    -0.285 OA
ATOM      5  C   UNL     1      29.498  26.040 -17.782  1.00  0.00     0.111 A 
ATOM      6  C   UNL     1      29.427  27.390 -17.322  1.00  0.00     0.134 A 
ATOM      7  C   UNL     1      30.401  27.869 -16.437  1.00  0.00     0.093 A 
ATOM      8  C   UNL     1      31.404  27.030 -15.947  1.00  0.00     0.123 A 
ATOM      9  C   UNL     1      31.447  25.697 -16.344  1.00  0.00     0.094 A 
ATOM     10  C   UNL     1      30.510  25.198 -17.254  1.00  0.00     0.146 A 
ATOM     11  O   UNL     1      30.593  23.924 -17.615  1.00  0.00    -0.452 OA
ENDROOT
BRANCH   1  12
ATOM     12  C   UNL     1      29.953  21.915 -18.785  1.00  0.00     0.025 A 
ATOM     13  C   UNL     1      29.147  21.255 -19.729  1.00  0.00     0.016 A 
ATOM     14  C   UNL     1      29.321  19.891 -19.975  1.00  0.00     0.051 A 
ATOM     15  C   UNL     1      30.292  19.164 -19.275  1.00  0.00     0.157 A 
ATOM     16  C   UNL     1      30.910  21.178 -18.070  1.00  0.00     0.062 A 
ATOM     17  C   UNL     1      31.088  19.811 -18.314  1.00  0.00     0.158 A 
BRANCH  15  18
ATOM     18  O   UNL     1      30.465  17.803 -19.524  1.00  0.00    -0.504 OA
ATOM     19  H   UNL     1      30.532  17.441 -20.469  1.00  0.00     0.293 HD
ENDBRANCH  15  18
BRANCH  17  20
ATOM     20  O   UNL     1      32.057  19.115 -17.594  1.00  0.00    -0.504 OA
ATOM     21  H   UNL     1      31.826  18.558 -16.780  1.00  0.00     0.293 HD
ENDBRANCH  17  20
ENDBRANCH   1  12
BRANCH   2  22
ATOM     22  O   UNL     1      27.968  23.564 -20.105  1.00  0.00    -0.502 OA
ATOM     23  H   UNL     1      28.318  23.323 -21.025  1.00  0.00     0.293 HD
ENDBRANCH   2  22
BRANCH   6  24
ATOM     24  O   UNL     1      28.413  28.284 -17.677  1.00  0.00    -0.507 OA
ATOM     25  H   UNL     1      27.689  28.092 -18.352  1.00  0.00     0.293 HD
ENDBRANCH   6  24
BRANCH   8  26
ATOM     26  O   UNL     1      32.361  27.511 -15.054  1.00  0.00    -0.508 OA
ATOM     27  H   UNL     1      32.150  27.642 -14.072  1.00  0.00     0.293 HD
ENDBRANCH   8  26
TORSDOF 6
ENDMDL
MODEL 9
REMARK VINA RESULT:    -7.055      2.409      7.553
REMARK INTER + INTRA:          -8.002
REMARK INTER:                  -7.695
REMARK INTRA:                  -0.307
REMARK UNBOUND:                 0.496
REMARK SMILES O=c1c(O)c(-c2ccc(O)c(O)c2)oc2cc(O)cc(O)c12
REMARK SMILES IDX 5 1 3 2 2 3 1 4 22 5 20 6 19 7 17 8 16 9 15 10 14 11 6 12
REMARK SMILES IDX 7 13 8 14 9 15 13 16 11 17 10 18 12 20 4 22 21 24 18 26
REMARK H PARENT 10 19 12 21 4 23 21 25 18 27
REMARK Flexibility Score: inf
ROOT
ATOM      1  C   UNL     1      29.772  21.679 -19.028  1.00  0.00     0.180 A 
ATOM      2  C   UNL     1      30.801  21.563 -18.076  1.00  0.00     0.208 A 
ATOM      3  C   UNL     1      31.222  22.711 -17.386  1.00  0.00     0.238 A 
ATOM      4  O   UNL     1      32.104  22.591 -16.496  1.00  0.00    -0.285 OA
ATOM      5  C   UNL     1      30.623  23.961 -17.667  1.00  0.00     0.111 A 
ATOM      6  C   UNL     1      30.998  25.195 -17.055  1.00  0.00     0.134 A 
ATOM      7  C   UNL     1      30.249  26.350 -17.314  1.00  0.00     0.093 A 
ATOM      8  C   UNL     1      29.178  26.328 -18.210  1.00  0.00     0.123 A 
ATOM      9  C   UNL     1      28.841  25.142 -18.856  1.00  0.00     0.094 A 
ATOM     10  C   UNL     1      29.547  23.965 -18.593  1.00  0.00     0.146 A 
ATOM     11  O   UNL     1      29.186  22.854 -19.221  1.00  0.00    -0.452 OA
ENDROOT
BRANCH   1  12
ATOM     12  C   UNL     1      29.292  20.520 -19.814  1.00  0.00     0.025 A 
ATOM     13  C   UNL     1      29.746  20.285 -21.124  1.00  0.00     0.016 A 
ATOM     14  C   UNL     1      29.260  19.198 -21.855  1.00  0.00     0.051 A 
ATOM     15  C   UNL     1      28.306  18.339 -21.296  1.00  0.00     0.157 A 
ATOM     16  C   UNL     1      28.319  19.669 -19.266  1.00  0.00     0.062 A 
ATOM     17  C   UNL     1      27.830  18.578 -19.996  1.00  0.00     0.158 A 
BRANCH  15  18
ATOM     18  O   UNL     1      27.824  17.254 -22.028  1.00  0.00    -0.504 OA
ATOM     19  H   UNL     1      28.451  16.605 -22.490  1.00  0.00     0.293 HD
ENDBRANCH  15  18
BRANCH  17  20
ATOM     20  O   UNL     1      26.875  17.748 -19.413  1.00  0.00    -0.504 OA
ATOM     21  H   UNL     1      26.613  16.858 -19.822  1.00  0.00     0.293 HD
ENDBRANCH  17  20
ENDBRANCH   1  12
BRANCH   2  22
ATOM     22  O   UNL     1      31.363  20.314 -17.799  1.00  0.00    -0.502 OA
ATOM     23  H   UNL     1      31.016  19.713 -17.061  1.00  0.00     0.293 HD
ENDBRANCH   2  22
BRANCH   6  24
ATOM     24  O   UNL     1      32.106  25.346 -16.217  1.00  0.00    -0.507 OA
ATOM     25  H   UNL     1      33.024  24.972 -16.406  1.00  0.00     0.293 HD
ENDBRANCH   6  24
BRANCH   8  26
ATOM     26  O   UNL     1      28.447  27.485 -18.473  1.00  0.00    -0.508 OA
ATOM     27  H   UNL     1      28.028  28.028 -17.727  1.00  0.00     0.293 HD
ENDBRANCH   8  26
TORSDOF 6
ENDMDL
