MODEL 1
REMARK VINA RESULT:    -3.660      0.000      0.000
REMARK INTER + INTRA:          -7.380
REMARK INTER:                  -5.799
REMARK INTRA:                  -1.581
REMARK UNBOUND:                -1.581
REMARK SMILES CCCCCCCCCCCC(=O)[O-]
REMARK SMILES IDX 7 1 8 2 9 3 10 4 11 5 12 6 13 7 14 8 6 9 5 10 4 11 3 12 2 13
REMARK SMILES IDX 1 14
REMARK H PARENT
REMARK Flexibility Score: inf
ROOT
ATOM      1  C   UNL     1      13.339  24.875  33.138  1.00  0.00     0.000 C 
ENDROOT
BRANCH   1   2
ATOM      2  C   UNL     1      12.845  26.119  33.893  1.00  0.00     0.000 C 
BRANCH   2   3
ATOM      3  C   UNL     1      13.983  27.132  34.081  1.00  0.00     0.000 C 
BRANCH   3   4
ATOM      4  C   UNL     1      13.898  27.875  35.425  1.00  0.00     0.006 C 
BRANCH   4   5
ATOM      5  C   UNL     1      12.515  27.760  36.078  1.00  0.00     0.053 C 
BRANCH   5   6
ATOM      6  C   UNL     1      11.692  28.972  35.772  1.00  0.00     0.041 C 
ATOM      7  O   UNL     1      11.915  30.057  36.372  1.00  0.00    -0.550 OA
ATOM      8  O   UNL     1      10.712  28.919  34.789  1.00  0.00    -0.550 OA
ENDBRANCH   5   6
ENDBRANCH   4   5
ENDBRANCH   3   4
ENDBRANCH   2   3
ENDBRANCH   1   2
BRANCH   1   9
ATOM      9  C   UNL     1      14.858  24.671  33.259  1.00  0.00     0.000 C 
BRANCH   9  10
ATOM     10  C   UNL     1      15.235  23.233  33.648  1.00  0.00    -0.000 C 
BRANCH  10  11
ATOM     11  C   UNL     1      15.784  23.179  35.081  1.00  0.00    -0.000 C 
BRANCH  11  12
ATOM     12  C   UNL     1      16.041  24.575  35.670  1.00  0.00    -0.000 C 
BRANCH  12  13
ATOM     13  C   UNL     1      15.353  24.780  37.029  1.00  0.00    -0.003 C 
ATOM     14  C   UNL     1      13.890  24.351  36.973  1.00  0.00     0.004 C 
ENDBRANCH  12  13
ENDBRANCH  11  12
ENDBRANCH  10  11
ENDBRANCH   9  10
ENDBRANCH   1   9
TORSDOF 10
ENDMDL
MODEL 2
REMARK VINA RESULT:    -3.591      1.369      2.108
REMARK INTER + INTRA:          -7.272
REMARK INTER:                  -6.180
REMARK INTRA:                  -1.092
REMARK UNBOUND:                -1.581
REMARK SMILES CCCCCCCCCCCC(=O)[O-]
REMARK SMILES IDX 7 1 8 2 9 3 10 4 11 5 12 6 13 7 14 8 6 9 5 10 4 11 3 12 2 13
REMARK SMILES IDX 1 14
REMARK H PARENT
REMARK Flexibility Score: inf
ROOT
ATOM      1  C   UNL     1      13.723  25.420  33.221  1.00  0.00     0.000 C 
ENDROOT
BRANCH   1   2
ATOM      2  C   UNL     1      14.478  26.574  33.897  1.00  0.00     0.000 C 
BRANCH   2   3
ATOM      3  C   UNL     1      14.190  26.608  35.405  1.00  0.00     0.000 C 
BRANCH   3   4
ATOM      4  C   UNL     1      12.761  26.151  35.745  1.00  0.00     0.006 C 
BRANCH   4   5
ATOM      5  C   UNL     1      11.915  27.268  36.367  1.00  0.00     0.053 C 
BRANCH   5   6
ATOM      6  C   UNL     1      11.421  28.201  35.306  1.00  0.00     0.041 C 
ATOM      7  O   UNL     1      11.326  29.435  35.543  1.00  0.00    -0.550 OA
ATOM      8  O   UNL     1      11.114  27.717  34.042  1.00  0.00    -0.550 OA
ENDBRANCH   5   6
ENDBRANCH   4   5
ENDBRANCH   3   4
ENDBRANCH   2   3
ENDBRANCH   1   2
BRANCH   1   9
ATOM      9  C   UNL     1      14.538  24.117  33.185  1.00  0.00     0.000 C 
BRANCH   9  10
ATOM     10  C   UNL     1      16.048  24.358  33.337  1.00  0.00    -0.000 C 
BRANCH  10  11
ATOM     11  C   UNL     1      16.610  23.572  34.531  1.00  0.00    -0.000 C 
BRANCH  11  12
ATOM     12  C   UNL     1      15.520  22.826  35.315  1.00  0.00    -0.000 C 
BRANCH  12  13
ATOM     13  C   UNL     1      15.824  21.328  35.472  1.00  0.00    -0.003 C 
ATOM     14  C   UNL     1      15.788  20.617  34.122  1.00  0.00     0.004 C 
ENDBRANCH  12  13
ENDBRANCH  11  12
ENDBRANCH  10  11
ENDBRANCH   9  10
ENDBRANCH   1   9
TORSDOF 10
ENDMDL
MODEL 3
REMARK VINA RESULT:    -3.590      3.232      5.078
REMARK INTER + INTRA:          -7.270
REMARK INTER:                  -5.693
REMARK INTRA:                  -1.577
REMARK UNBOUND:                -1.581
REMARK SMILES CCCCCCCCCCCC(=O)[O-]
REMARK SMILES IDX 7 1 8 2 9 3 10 4 11 5 12 6 13 7 14 8 6 9 5 10 4 11 3 12 2 13
REMARK SMILES IDX 1 14
REMARK H PARENT
REMARK Flexibility Score: inf
ROOT
ATOM      1  C   UNL     1      12.438  26.696  33.914  1.00  0.00     0.000 C 
ENDROOT
BRANCH   1   2
ATOM      2  C   UNL     1      12.826  25.268  33.501  1.00  0.00     0.000 C 
BRANCH   2   3
ATOM      3  C   UNL     1      14.242  25.236  32.907  1.00  0.00     0.000 C 
BRANCH   3   4
ATOM      4  C   UNL     1      14.969  23.909  33.181  1.00  0.00     0.006 C 
BRANCH   4   5
ATOM      5  C   UNL     1      15.893  23.982  34.404  1.00  0.00     0.053 C 
BRANCH   5   6
ATOM      6  C   UNL     1      15.264  23.292  35.574  1.00  0.00     0.041 C 
ATOM      7  O   UNL     1      14.567  23.946  36.394  1.00  0.00    -0.550 OA
ATOM      8  O   UNL     1      15.408  21.920  35.732  1.00  0.00    -0.550 OA
ENDBRANCH   5   6
ENDBRANCH   4   5
ENDBRANCH   3   4
ENDBRANCH   2   3
ENDBRANCH   1   2
BRANCH   1   9
ATOM      9  C   UNL     1      12.865  27.036  35.351  1.00  0.00     0.000 C 
BRANCH   9  10
ATOM     10  C   UNL     1      14.010  28.060  35.403  1.00  0.00    -0.000 C 
BRANCH  10  11
ATOM     11  C   UNL     1      15.329  27.387  35.811  1.00  0.00    -0.000 C 
BRANCH  11  12
ATOM     12  C   UNL     1      16.482  27.711  34.848  1.00  0.00    -0.000 C 
BRANCH  12  13
ATOM     13  C   UNL     1      15.998  28.364  33.544  1.00  0.00    -0.003 C 
ATOM     14  C   UNL     1      16.801  27.862  32.348  1.00  0.00     0.004 C 
ENDBRANCH  12  13
ENDBRANCH  11  12
ENDBRANCH  10  11
ENDBRANCH   9  10
ENDBRANCH   1   9
TORSDOF 10
ENDMDL
MODEL 4
REMARK VINA RESULT:    -3.568      3.954      6.062
REMARK INTER + INTRA:          -7.235
REMARK INTER:                  -6.146
REMARK INTRA:                  -1.090
REMARK UNBOUND:                -1.581
REMARK SMILES CCCCCCCCCCCC(=O)[O-]
REMARK SMILES IDX 7 1 8 2 9 3 10 4 11 5 12 6 13 7 14 8 6 9 5 10 4 11 3 12 2 13
REMARK SMILES IDX 1 14
REMARK H PARENT
REMARK Flexibility Score: inf
ROOT
ATOM      1  C   UNL     1      13.011  25.266  33.375  1.00  0.00     0.000 C 
ENDROOT
BRANCH   1   2
ATOM      2  C   UNL     1      14.228  24.627  34.061  1.00  0.00     0.000 C 
BRANCH   2   3
ATOM      3  C   UNL     1      15.052  23.805  33.059  1.00  0.00     0.000 C 
BRANCH   3   4
ATOM      4  C   UNL     1      16.335  23.228  33.680  1.00  0.00     0.006 C 
BRANCH   4   5
ATOM      5  C   UNL     1      16.502  21.728  33.405  1.00  0.00     0.053 C 
BRANCH   5   6
ATOM      6  C   UNL     1      15.788  20.925  34.446  1.00  0.00     0.041 C 
ATOM      7  O   UNL     1      15.625  21.392  35.605  1.00  0.00    -0.550 OA
ATOM      8  O   UNL     1      15.259  19.682  34.125  1.00  0.00    -0.550 OA
ENDBRANCH   5   6
ENDBRANCH   4   5
ENDBRANCH   3   4
ENDBRANCH   2   3
ENDBRANCH   1   2
BRANCH   1   9
ATOM      9  C   UNL     1      12.452  26.468  34.154  1.00  0.00     0.000 C 
BRANCH   9  10
ATOM     10  C   UNL     1      13.283  26.802  35.403  1.00  0.00    -0.000 C 
BRANCH  10  11
ATOM     11  C   UNL     1      13.985  28.159  35.247  1.00  0.00    -0.000 C 
BRANCH  11  12
ATOM     12  C   UNL     1      15.507  28.023  35.085  1.00  0.00    -0.000 C 
BRANCH  12  13
ATOM     13  C   UNL     1      16.000  28.495  33.708  1.00  0.00    -0.003 C 
ATOM     14  C   UNL     1      16.430  27.312  32.844  1.00  0.00     0.004 C 
ENDBRANCH  12  13
ENDBRANCH  11  12
ENDBRANCH  10  11
ENDBRANCH   9  10
ENDBRANCH   1   9
TORSDOF 10
ENDMDL
MODEL 5
REMARK VINA RESULT:    -3.557      1.419      2.283
REMARK INTER + INTRA:          -7.218
REMARK INTER:                  -5.923
REMARK INTRA:                  -1.295
REMARK UNBOUND:                -1.581
REMARK SMILES CCCCCCCCCCCC(=O)[O-]
REMARK SMILES IDX 7 1 8 2 9 3 10 4 11 5 12 6 13 7 14 8 6 9 5 10 4 11 3 12 2 13
REMARK SMILES IDX 1 14
REMARK H PARENT
REMARK Flexibility Score: inf
ROOT
ATOM      1  C   UNL     1      13.562  24.911  32.993  1.00  0.00     0.000 C 
ENDROOT
BRANCH   1   2
ATOM      2  C   UNL     1      12.865  26.011  33.808  1.00  0.00     0.000 C 
BRANCH   2   3
ATOM      3  C   UNL     1      13.302  25.962  35.280  1.00  0.00     0.000 C 
BRANCH   3   4
ATOM      4  C   UNL     1      12.349  26.736  36.206  1.00  0.00     0.006 C 
BRANCH   4   5
ATOM      5  C   UNL     1      12.811  28.176  36.460  1.00  0.00     0.053 C 
BRANCH   5   6
ATOM      6  C   UNL     1      11.813  29.148  35.912  1.00  0.00     0.041 C 
ATOM      7  O   UNL     1      11.874  30.365  36.229  1.00  0.00    -0.550 OA
ATOM      8  O   UNL     1      10.845  28.719  35.013  1.00  0.00    -0.550 OA
ENDBRANCH   5   6
ENDBRANCH   4   5
ENDBRANCH   3   4
ENDBRANCH   2   3
ENDBRANCH   1   2
BRANCH   1   9
ATOM      9  C   UNL     1      14.535  24.072  33.838  1.00  0.00     0.000 C 
BRANCH   9  10
ATOM     10  C   UNL     1      15.985  24.161  33.337  1.00  0.00    -0.000 C 
BRANCH  10  11
ATOM     11  C   UNL     1      16.928  24.606  34.464  1.00  0.00    -0.000 C 
BRANCH  11  12
ATOM     12  C   UNL     1      17.122  26.130  34.506  1.00  0.00    -0.000 C 
BRANCH  12  13
ATOM     13  C   UNL     1      16.984  26.783  33.122  1.00  0.00    -0.003 C 
ATOM     14  C   UNL     1      15.969  27.922  33.153  1.00  0.00     0.004 C 
ENDBRANCH  12  13
ENDBRANCH  11  12
ENDBRANCH  10  11
ENDBRANCH   9  10
ENDBRANCH   1   9
TORSDOF 10
ENDMDL
MODEL 6
REMARK VINA RESULT:    -3.507      1.256      1.846
REMARK INTER + INTRA:          -7.138
REMARK INTER:                  -6.066
REMARK INTRA:                  -1.072
REMARK UNBOUND:                -1.581
REMARK SMILES CCCCCCCCCCCC(=O)[O-]
REMARK SMILES IDX 7 1 8 2 9 3 10 4 11 5 12 6 13 7 14 8 6 9 5 10 4 11 3 12 2 13
REMARK SMILES IDX 1 14
REMARK H PARENT
REMARK Flexibility Score: inf
ROOT
ATOM      1  C   UNL     1      14.113  24.885  33.000  1.00  0.00     0.000 C 
ENDROOT
BRANCH   1   2
ATOM      2  C   UNL     1      13.016  25.616  33.788  1.00  0.00     0.000 C 
BRANCH   2   3
ATOM      3  C   UNL     1      13.267  25.516  35.300  1.00  0.00     0.000 C 
BRANCH   3   4
ATOM      4  C   UNL     1      12.549  26.619  36.095  1.00  0.00     0.006 C 
BRANCH   4   5
ATOM      5  C   UNL     1      13.027  28.026  35.717  1.00  0.00     0.053 C 
BRANCH   5   6
ATOM      6  C   UNL     1      11.875  28.981  35.700  1.00  0.00     0.041 C 
ATOM      7  O   UNL     1      10.851  28.726  35.012  1.00  0.00    -0.550 OA
ATOM      8  O   UNL     1      11.909  30.128  36.482  1.00  0.00    -0.550 OA
ENDBRANCH   5   6
ENDBRANCH   4   5
ENDBRANCH   3   4
ENDBRANCH   2   3
ENDBRANCH   1   2
BRANCH   1   9
ATOM      9  C   UNL     1      15.522  25.417  33.311  1.00  0.00     0.000 C 
BRANCH   9  10
ATOM     10  C   UNL     1      16.473  24.319  33.813  1.00  0.00    -0.000 C 
BRANCH  10  11
ATOM     11  C   UNL     1      16.033  22.938  33.305  1.00  0.00    -0.000 C 
BRANCH  11  12
ATOM     12  C   UNL     1      15.809  21.931  34.444  1.00  0.00    -0.000 C 
BRANCH  12  13
ATOM     13  C   UNL     1      16.146  22.515  35.825  1.00  0.00    -0.003 C 
ATOM     14  C   UNL     1      14.924  22.500  36.739  1.00  0.00     0.004 C 
ENDBRANCH  12  13
ENDBRANCH  11  12
ENDBRANCH  10  11
ENDBRANCH   9  10
ENDBRANCH   1   9
TORSDOF 10
ENDMDL
MODEL 7
REMARK VINA RESULT:    -3.339      4.230      6.470
REMARK INTER + INTRA:          -6.873
REMARK INTER:                  -6.202
REMARK INTRA:                  -0.670
REMARK UNBOUND:                -1.581
REMARK SMILES CCCCCCCCCCCC(=O)[O-]
REMARK SMILES IDX 7 1 8 2 9 3 10 4 11 5 12 6 13 7 14 8 6 9 5 10 4 11 3 12 2 13
REMARK SMILES IDX 1 14
REMARK H PARENT
REMARK Flexibility Score: inf
ROOT
ATOM      1  C   UNL     1      13.920  24.499  33.114  1.00  0.00     0.000 C 
ENDROOT
BRANCH   1   2
ATOM      2  C   UNL     1      15.432  24.464  33.385  1.00  0.00     0.000 C 
BRANCH   2   3
ATOM      3  C   UNL     1      16.002  23.062  33.124  1.00  0.00     0.000 C 
BRANCH   3   4
ATOM      4  C   UNL     1      15.800  22.109  34.314  1.00  0.00     0.006 C 
BRANCH   4   5
ATOM      5  C   UNL     1      16.049  20.641  33.945  1.00  0.00     0.053 C 
BRANCH   5   6
ATOM      6  C   UNL     1      15.382  19.735  34.932  1.00  0.00     0.041 C 
ATOM      7  O   UNL     1      15.196  18.521  34.652  1.00  0.00    -0.550 OA
ATOM      8  O   UNL     1      15.009  20.218  36.180  1.00  0.00    -0.550 OA
ENDBRANCH   5   6
ENDBRANCH   4   5
ENDBRANCH   3   4
ENDBRANCH   2   3
ENDBRANCH   1   2
BRANCH   1   9
ATOM      9  C   UNL     1      13.269  25.820  33.553  1.00  0.00     0.000 C 
BRANCH   9  10
ATOM     10  C   UNL     1      14.300  26.920  33.852  1.00  0.00    -0.000 C 
BRANCH  10  11
ATOM     11  C   UNL     1      14.000  27.602  35.195  1.00  0.00    -0.000 C 
BRANCH  11  12
ATOM     12  C   UNL     1      12.931  26.859  36.010  1.00  0.00    -0.000 C 
BRANCH  12  13
ATOM     13  C   UNL     1      11.781  27.776  36.454  1.00  0.00    -0.003 C 
ATOM     14  C   UNL     1      11.186  28.524  35.264  1.00  0.00     0.004 C 
ENDBRANCH  12  13
ENDBRANCH  11  12
ENDBRANCH  10  11
ENDBRANCH   9  10
ENDBRANCH   1   9
TORSDOF 10
ENDMDL
MODEL 8
REMARK VINA RESULT:    -3.324      2.944      3.961
REMARK INTER + INTRA:          -6.848
REMARK INTER:                  -5.401
REMARK INTRA:                  -1.448
REMARK UNBOUND:                -1.581
REMARK SMILES CCCCCCCCCCCC(=O)[O-]
REMARK SMILES IDX 7 1 8 2 9 3 10 4 11 5 12 6 13 7 14 8 6 9 5 10 4 11 3 12 2 13
REMARK SMILES IDX 1 14
REMARK H PARENT
REMARK Flexibility Score: inf
ROOT
ATOM      1  C   UNL     1      13.283  25.848  35.846  1.00  0.00     0.000 C 
ENDROOT
BRANCH   1   2
ATOM      2  C   UNL     1      14.208  26.928  36.427  1.00  0.00     0.000 C 
BRANCH   2   3
ATOM      3  C   UNL     1      15.667  26.679  36.016  1.00  0.00     0.000 C 
BRANCH   3   4
ATOM      4  C   UNL     1      16.315  27.907  35.356  1.00  0.00     0.006 C 
BRANCH   4   5
ATOM      5  C   UNL     1      15.561  28.373  34.105  1.00  0.00     0.053 C 
BRANCH   5   6
ATOM      6  C   UNL     1      16.496  28.476  32.941  1.00  0.00     0.041 C 
ATOM      7  O   UNL     1      16.798  29.605  32.470  1.00  0.00    -0.550 OA
ATOM      8  O   UNL     1      17.071  27.331  32.407  1.00  0.00    -0.550 OA
ENDBRANCH   5   6
ENDBRANCH   4   5
ENDBRANCH   3   4
ENDBRANCH   2   3
ENDBRANCH   1   2
BRANCH   1   9
ATOM      9  C   UNL     1      12.630  26.276  34.522  1.00  0.00     0.000 C 
BRANCH   9  10
ATOM     10  C   UNL     1      12.823  25.240  33.403  1.00  0.00    -0.000 C 
BRANCH  10  11
ATOM     11  C   UNL     1      14.289  25.190  32.950  1.00  0.00    -0.000 C 
BRANCH  11  12
ATOM     12  C   UNL     1      14.886  23.777  33.030  1.00  0.00    -0.000 C 
BRANCH  12  13
ATOM     13  C   UNL     1      16.025  23.672  34.056  1.00  0.00    -0.003 C 
ATOM     14  C   UNL     1      15.575  22.910  35.299  1.00  0.00     0.004 C 
ENDBRANCH  12  13
ENDBRANCH  11  12
ENDBRANCH  10  11
ENDBRANCH   9  10
ENDBRANCH   1   9
TORSDOF 10
ENDMDL
MODEL 9
REMARK VINA RESULT:    -3.264      1.985      3.099
REMARK INTER + INTRA:          -6.754
REMARK INTER:                  -6.075
REMARK INTRA:                  -0.679
REMARK UNBOUND:                -1.581
REMARK SMILES CCCCCCCCCCCC(=O)[O-]
REMARK SMILES IDX 7 1 8 2 9 3 10 4 11 5 12 6 13 7 14 8 6 9 5 10 4 11 3 12 2 13
REMARK SMILES IDX 1 14
REMARK H PARENT
REMARK Flexibility Score: inf
ROOT
ATOM      1  C   UNL     1      15.111  23.867  33.042  1.00  0.00     0.000 C 
ENDROOT
BRANCH   1   2
ATOM      2  C   UNL     1      15.674  25.272  33.306  1.00  0.00     0.000 C 
BRANCH   2   3
ATOM      3  C   UNL     1      14.545  26.313  33.357  1.00  0.00     0.000 C 
BRANCH   3   4
ATOM      4  C   UNL     1      13.187  25.695  33.729  1.00  0.00     0.006 C 
BRANCH   4   5
ATOM      5  C   UNL     1      12.680  26.162  35.099  1.00  0.00     0.053 C 
BRANCH   5   6
ATOM      6  C   UNL     1      12.230  27.588  35.030  1.00  0.00     0.041 C 
ATOM      7  O   UNL     1      11.162  27.887  34.434  1.00  0.00    -0.550 OA
ATOM      8  O   UNL     1      12.964  28.581  35.666  1.00  0.00    -0.550 OA
ENDBRANCH   5   6
ENDBRANCH   4   5
ENDBRANCH   3   4
ENDBRANCH   2   3
ENDBRANCH   1   2
BRANCH   1   9
ATOM      9  C   UNL     1      16.164  22.762  33.227  1.00  0.00     0.000 C 
BRANCH   9  10
ATOM     10  C   UNL     1      16.624  22.620  34.686  1.00  0.00    -0.000 C 
BRANCH  10  11
ATOM     11  C   UNL     1      15.576  21.870  35.521  1.00  0.00    -0.000 C 
BRANCH  11  12
ATOM     12  C   UNL     1      16.187  20.738  36.362  1.00  0.00    -0.000 C 
BRANCH  12  13
ATOM     13  C   UNL     1      15.586  19.363  36.029  1.00  0.00    -0.003 C 
ATOM     14  C   UNL     1      15.283  19.244  34.538  1.00  0.00     0.004 C 
ENDBRANCH  12  13
ENDBRANCH  11  12
ENDBRANCH  10  11
ENDBRANCH   9  10
ENDBRANCH   1   9
TORSDOF 10
ENDMDL
