MODEL 1
REMARK VINA RESULT:    -3.204      0.000      0.000
REMARK INTER + INTRA:          -6.419
REMARK INTER:                  -5.452
REMARK INTRA:                  -0.968
REMARK UNBOUND:                -0.968
REMARK SMILES CCCCCCCCCCCCCC(=O)[O-]
REMARK SMILES IDX 8 1 9 2 10 3 11 4 12 5 13 6 14 7 15 8 16 9 7 10 6 11 5 12
REMARK SMILES IDX 4 13 3 14 2 15 1 16
REMARK H PARENT
REMARK Flexibility Score: inf
ROOT
ATOM      1  C   UNL     1      16.383  13.662   7.494  1.00  0.00     0.000 C 
ENDROOT
BRANCH   1   2
ATOM      2  C   UNL     1      16.861  15.120   7.541  1.00  0.00     0.000 C 
BRANCH   2   3
ATOM      3  C   UNL     1      15.761  16.127   7.160  1.00  0.00     0.000 C 
BRANCH   3   4
ATOM      4  C   UNL     1      15.192  16.945   8.333  1.00  0.00     0.000 C 
BRANCH   4   5
ATOM      5  C   UNL     1      16.244  17.843   9.004  1.00  0.00     0.006 C 
BRANCH   5   6
ATOM      6  C   UNL     1      16.322  17.611  10.519  1.00  0.00     0.053 C 
BRANCH   6   7
ATOM      7  C   UNL     1      15.689  18.730  11.289  1.00  0.00     0.041 C 
ATOM      8  O   UNL     1      15.852  18.811  12.535  1.00  0.00    -0.550 OA
ATOM      9  O   UNL     1      14.896  19.664  10.635  1.00  0.00    -0.550 OA
ENDBRANCH   6   7
ENDBRANCH   5   6
ENDBRANCH   4   5
ENDBRANCH   3   4
ENDBRANCH   2   3
ENDBRANCH   1   2
BRANCH   1  10
ATOM     10  C   UNL     1      14.931  13.575   7.006  1.00  0.00     0.000 C 
BRANCH  10  11
ATOM     11  C   UNL     1      14.046  12.862   8.036  1.00  0.00    -0.000 C 
BRANCH  11  12
ATOM     12  C   UNL     1      14.516  13.164   9.466  1.00  0.00    -0.000 C 
BRANCH  12  13
ATOM     13  C   UNL     1      14.099  12.075  10.469  1.00  0.00    -0.000 C 
BRANCH  13  14
ATOM     14  C   UNL     1      13.745  12.646  11.850  1.00  0.00    -0.000 C 
BRANCH  14  15
ATOM     15  C   UNL     1      14.778  12.221  12.900  1.00  0.00    -0.003 C 
ATOM     16  C   UNL     1      15.735  11.173  12.340  1.00  0.00     0.004 C 
ENDBRANCH  14  15
ENDBRANCH  13  14
ENDBRANCH  12  13
ENDBRANCH  11  12
ENDBRANCH  10  11
ENDBRANCH   1  10
TORSDOF 12
ENDMDL
MODEL 2
REMARK VINA RESULT:    -3.193      2.702      5.688
REMARK INTER + INTRA:          -6.400
REMARK INTER:                  -5.285
REMARK INTRA:                  -1.115
REMARK UNBOUND:                -0.968
REMARK SMILES CCCCCCCCCCCCCC(=O)[O-]
REMARK SMILES IDX 8 1 9 2 10 3 11 4 12 5 13 6 14 7 15 8 16 9 7 10 6 11 5 12
REMARK SMILES IDX 4 13 3 14 2 15 1 16
REMARK H PARENT
REMARK Flexibility Score: inf
ROOT
ATOM      1  C   UNL     1      15.747  15.002   7.157  1.00  0.00     0.000 C 
ENDROOT
BRANCH   1   2
ATOM      2  C   UNL     1      15.528  13.484   7.238  1.00  0.00     0.000 C 
BRANCH   2   3
ATOM      3  C   UNL     1      14.138  13.105   7.780  1.00  0.00     0.000 C 
BRANCH   3   4
ATOM      4  C   UNL     1      14.129  12.536   9.210  1.00  0.00     0.000 C 
BRANCH   4   5
ATOM      5  C   UNL     1      15.369  12.940  10.024  1.00  0.00     0.006 C 
BRANCH   5   6
ATOM      6  C   UNL     1      14.998  13.599  11.359  1.00  0.00     0.053 C 
BRANCH   6   7
ATOM      7  C   UNL     1      14.368  12.624  12.307  1.00  0.00     0.041 C 
ATOM      8  O   UNL     1      13.196  12.815  12.724  1.00  0.00    -0.550 OA
ATOM      9  O   UNL     1      15.087  11.522  12.752  1.00  0.00    -0.550 OA
ENDBRANCH   6   7
ENDBRANCH   5   6
ENDBRANCH   4   5
ENDBRANCH   3   4
ENDBRANCH   2   3
ENDBRANCH   1   2
BRANCH   1  10
ATOM     10  C   UNL     1      17.103  15.395   7.758  1.00  0.00     0.000 C 
BRANCH  10  11
ATOM     11  C   UNL     1      16.922  16.292   8.988  1.00  0.00    -0.000 C 
BRANCH  11  12
ATOM     12  C   UNL     1      15.603  17.076   8.906  1.00  0.00    -0.000 C 
BRANCH  12  13
ATOM     13  C   UNL     1      15.778  18.566   9.244  1.00  0.00    -0.000 C 
BRANCH  13  14
ATOM     14  C   UNL     1      15.651  18.850  10.748  1.00  0.00    -0.000 C 
BRANCH  14  15
ATOM     15  C   UNL     1      14.751  20.066  11.001  1.00  0.00    -0.003 C 
ATOM     16  C   UNL     1      13.586  19.709  11.919  1.00  0.00     0.004 C 
ENDBRANCH  14  15
ENDBRANCH  13  14
ENDBRANCH  12  13
ENDBRANCH  11  12
ENDBRANCH  10  11
ENDBRANCH   1  10
TORSDOF 12
ENDMDL
MODEL 3
REMARK VINA RESULT:    -3.170      3.210      6.774
REMARK INTER + INTRA:          -6.362
REMARK INTER:                  -5.505
REMARK INTRA:                  -0.857
REMARK UNBOUND:                -0.968
REMARK SMILES CCCCCCCCCCCCCC(=O)[O-]
REMARK SMILES IDX 8 1 9 2 10 3 11 4 12 5 13 6 14 7 15 8 16 9 7 10 6 11 5 12
REMARK SMILES IDX 4 13 3 14 2 15 1 16
REMARK H PARENT
REMARK Flexibility Score: inf
ROOT
ATOM      1  C   UNL     1      16.456  17.841   8.863  1.00  0.00     0.000 C 
ENDROOT
BRANCH   1   2
ATOM      2  C   UNL     1      15.245  17.110   8.262  1.00  0.00     0.000 C 
BRANCH   2   3
ATOM      3  C   UNL     1      15.624  15.792   7.563  1.00  0.00     0.000 C 
BRANCH   3   4
ATOM      4  C   UNL     1      16.847  15.069   8.156  1.00  0.00     0.000 C 
BRANCH   4   5
ATOM      5  C   UNL     1      16.578  13.586   8.459  1.00  0.00     0.006 C 
BRANCH   5   6
ATOM      6  C   UNL     1      15.798  13.393   9.766  1.00  0.00     0.053 C 
BRANCH   6   7
ATOM      7  C   UNL     1      14.451  12.781   9.527  1.00  0.00     0.041 C 
ATOM      8  O   UNL     1      13.805  12.279  10.484  1.00  0.00    -0.550 OA
ATOM      9  O   UNL     1      13.922  12.741   8.243  1.00  0.00    -0.550 OA
ENDBRANCH   6   7
ENDBRANCH   5   6
ENDBRANCH   4   5
ENDBRANCH   3   4
ENDBRANCH   2   3
ENDBRANCH   1   2
BRANCH   1  10
ATOM     10  C   UNL     1      16.013  19.072   9.664  1.00  0.00     0.000 C 
BRANCH  10  11
ATOM     11  C   UNL     1      16.923  20.272   9.377  1.00  0.00    -0.000 C 
BRANCH  11  12
ATOM     12  C   UNL     1      16.736  21.368  10.437  1.00  0.00    -0.000 C 
BRANCH  12  13
ATOM     13  C   UNL     1      15.721  20.974  11.523  1.00  0.00    -0.000 C 
BRANCH  13  14
ATOM     14  C   UNL     1      14.650  22.052  11.751  1.00  0.00    -0.000 C 
BRANCH  14  15
ATOM     15  C   UNL     1      13.271  21.416  11.966  1.00  0.00    -0.003 C 
ATOM     16  C   UNL     1      13.374  19.897  12.070  1.00  0.00     0.004 C 
ENDBRANCH  14  15
ENDBRANCH  13  14
ENDBRANCH  12  13
ENDBRANCH  11  12
ENDBRANCH  10  11
ENDBRANCH   1  10
TORSDOF 12
ENDMDL
MODEL 4
REMARK VINA RESULT:    -3.120      1.351      2.257
REMARK INTER + INTRA:          -6.277
REMARK INTER:                  -5.143
REMARK INTRA:                  -1.134
REMARK UNBOUND:                -0.968
REMARK SMILES CCCCCCCCCCCCCC(=O)[O-]
REMARK SMILES IDX 8 1 9 2 10 3 11 4 12 5 13 6 14 7 15 8 16 9 7 10 6 11 5 12
REMARK SMILES IDX 4 13 3 14 2 15 1 16
REMARK H PARENT
REMARK Flexibility Score: inf
ROOT
ATOM      1  C   UNL     1      15.619  15.976   7.205  1.00  0.00     0.000 C 
ENDROOT
BRANCH   1   2
ATOM      2  C   UNL     1      15.226  16.775   8.457  1.00  0.00     0.000 C 
BRANCH   2   3
ATOM      3  C   UNL     1      16.423  17.480   9.120  1.00  0.00     0.000 C 
BRANCH   3   4
ATOM      4  C   UNL     1      16.304  19.011   9.218  1.00  0.00     0.000 C 
BRANCH   4   5
ATOM      5  C   UNL     1      16.183  19.512  10.667  1.00  0.00     0.006 C 
BRANCH   5   6
ATOM      6  C   UNL     1      14.787  20.071  10.973  1.00  0.00     0.053 C 
BRANCH   6   7
ATOM      7  C   UNL     1      14.163  19.398  12.156  1.00  0.00     0.041 C 
ATOM      8  O   UNL     1      13.014  19.738  12.544  1.00  0.00    -0.550 OA
ATOM      9  O   UNL     1      14.861  18.416  12.848  1.00  0.00    -0.550 OA
ENDBRANCH   6   7
ENDBRANCH   5   6
ENDBRANCH   4   5
ENDBRANCH   3   4
ENDBRANCH   2   3
ENDBRANCH   1   2
BRANCH   1  10
ATOM     10  C   UNL     1      16.048  14.550   7.574  1.00  0.00     0.000 C 
BRANCH  10  11
ATOM     11  C   UNL     1      15.016  13.523   7.095  1.00  0.00    -0.000 C 
BRANCH  11  12
ATOM     12  C   UNL     1      14.152  13.027   8.264  1.00  0.00    -0.000 C 
BRANCH  12  13
ATOM     13  C   UNL     1      14.973  12.767   9.538  1.00  0.00    -0.000 C 
BRANCH  13  14
ATOM     14  C   UNL     1      14.119  12.821  10.814  1.00  0.00    -0.000 C 
BRANCH  14  15
ATOM     15  C   UNL     1      14.870  13.533  11.946  1.00  0.00    -0.003 C 
ATOM     16  C   UNL     1      15.993  14.409  11.398  1.00  0.00     0.004 C 
ENDBRANCH  14  15
ENDBRANCH  13  14
ENDBRANCH  12  13
ENDBRANCH  11  12
ENDBRANCH  10  11
ENDBRANCH   1  10
TORSDOF 12
ENDMDL
MODEL 5
REMARK VINA RESULT:    -3.084      3.282      6.538
REMARK INTER + INTRA:          -6.215
REMARK INTER:                  -5.162
REMARK INTRA:                  -1.053
REMARK UNBOUND:                -0.968
REMARK SMILES CCCCCCCCCCCCCC(=O)[O-]
REMARK SMILES IDX 8 1 9 2 10 3 11 4 12 5 13 6 14 7 15 8 16 9 7 10 6 11 5 12
REMARK SMILES IDX 4 13 3 14 2 15 1 16
REMARK H PARENT
REMARK Flexibility Score: inf
ROOT
ATOM      1  C   UNL     1      17.124  16.520   8.984  1.00  0.00     0.000 C 
ENDROOT
BRANCH   1   2
ATOM      2  C   UNL     1      16.778  16.033  10.399  1.00  0.00     0.000 C 
BRANCH   2   3
ATOM      3  C   UNL     1      16.932  14.511  10.566  1.00  0.00     0.000 C 
BRANCH   3   4
ATOM      4  C   UNL     1      15.669  13.777  11.052  1.00  0.00     0.000 C 
BRANCH   4   5
ATOM      5  C   UNL     1      15.029  12.899   9.964  1.00  0.00     0.006 C 
BRANCH   5   6
ATOM      6  C   UNL     1      14.402  13.732   8.839  1.00  0.00     0.053 C 
BRANCH   6   7
ATOM      7  C   UNL     1      14.858  13.278   7.486  1.00  0.00     0.041 C 
ATOM      8  O   UNL     1      16.069  13.382   7.159  1.00  0.00    -0.550 OA
ATOM      9  O   UNL     1      13.940  12.767   6.577  1.00  0.00    -0.550 OA
ENDBRANCH   6   7
ENDBRANCH   5   6
ENDBRANCH   4   5
ENDBRANCH   3   4
ENDBRANCH   2   3
ENDBRANCH   1   2
BRANCH   1  10
ATOM     10  C   UNL     1      16.187  17.653   8.548  1.00  0.00     0.000 C 
BRANCH  10  11
ATOM     11  C   UNL     1      15.591  18.375   9.763  1.00  0.00    -0.000 C 
BRANCH  11  12
ATOM     12  C   UNL     1      16.141  19.804   9.876  1.00  0.00    -0.000 C 
BRANCH  12  13
ATOM     13  C   UNL     1      15.599  20.552  11.106  1.00  0.00    -0.000 C 
BRANCH  13  14
ATOM     14  C   UNL     1      14.691  19.672  11.979  1.00  0.00    -0.000 C 
BRANCH  14  15
ATOM     15  C   UNL     1      13.284  20.273  12.084  1.00  0.00    -0.003 C 
ATOM     16  C   UNL     1      13.283  21.748  11.693  1.00  0.00     0.004 C 
ENDBRANCH  14  15
ENDBRANCH  13  14
ENDBRANCH  12  13
ENDBRANCH  11  12
ENDBRANCH  10  11
ENDBRANCH   1  10
TORSDOF 12
ENDMDL
MODEL 6
REMARK VINA RESULT:    -3.056      2.934      6.158
REMARK INTER + INTRA:          -6.168
REMARK INTER:                  -5.412
REMARK INTRA:                  -0.756
REMARK UNBOUND:                -0.968
REMARK SMILES CCCCCCCCCCCCCC(=O)[O-]
REMARK SMILES IDX 8 1 9 2 10 3 11 4 12 5 13 6 14 7 15 8 16 9 7 10 6 11 5 12
REMARK SMILES IDX 4 13 3 14 2 15 1 16
REMARK H PARENT
REMARK Flexibility Score: inf
ROOT
ATOM      1  C   UNL     1      16.179  16.464   7.448  1.00  0.00     0.000 C 
ENDROOT
BRANCH   1   2
ATOM      2  C   UNL     1      17.013  15.362   8.119  1.00  0.00     0.000 C 
BRANCH   2   3
ATOM      3  C   UNL     1      16.726  13.961   7.550  1.00  0.00     0.000 C 
BRANCH   3   4
ATOM      4  C   UNL     1      15.235  13.628   7.360  1.00  0.00     0.000 C 
BRANCH   4   5
ATOM      5  C   UNL     1      14.485  13.453   8.690  1.00  0.00     0.006 C 
BRANCH   5   6
ATOM      6  C   UNL     1      15.403  12.957   9.815  1.00  0.00     0.053 C 
BRANCH   6   7
ATOM      7  C   UNL     1      14.653  12.163  10.840  1.00  0.00     0.041 C 
ATOM      8  O   UNL     1      13.515  12.542  11.225  1.00  0.00    -0.550 OA
ATOM      9  O   UNL     1      15.222  11.023  11.392  1.00  0.00    -0.550 OA
ENDBRANCH   6   7
ENDBRANCH   5   6
ENDBRANCH   4   5
ENDBRANCH   3   4
ENDBRANCH   2   3
ENDBRANCH   1   2
BRANCH   1  10
ATOM     10  C   UNL     1      15.253  17.146   8.463  1.00  0.00     0.000 C 
BRANCH  10  11
ATOM     11  C   UNL     1      16.058  17.798   9.593  1.00  0.00    -0.000 C 
BRANCH  11  12
ATOM     12  C   UNL     1      16.046  19.328   9.464  1.00  0.00    -0.000 C 
BRANCH  12  13
ATOM     13  C   UNL     1      15.607  20.028  10.762  1.00  0.00    -0.000 C 
BRANCH  13  14
ATOM     14  C   UNL     1      14.640  19.175  11.596  1.00  0.00    -0.000 C 
BRANCH  14  15
ATOM     15  C   UNL     1      13.610  20.057  12.311  1.00  0.00    -0.003 C 
ATOM     16  C   UNL     1      13.474  21.414  11.626  1.00  0.00     0.004 C 
ENDBRANCH  14  15
ENDBRANCH  13  14
ENDBRANCH  12  13
ENDBRANCH  11  12
ENDBRANCH  10  11
ENDBRANCH   1  10
TORSDOF 12
ENDMDL
MODEL 7
REMARK VINA RESULT:    -2.995      3.288      6.017
REMARK INTER + INTRA:          -6.063
REMARK INTER:                  -4.866
REMARK INTRA:                  -1.197
REMARK UNBOUND:                -0.968
REMARK SMILES CCCCCCCCCCCCCC(=O)[O-]
REMARK SMILES IDX 8 1 9 2 10 3 11 4 12 5 13 6 14 7 15 8 16 9 7 10 6 11 5 12
REMARK SMILES IDX 4 13 3 14 2 15 1 16
REMARK H PARENT
REMARK Flexibility Score: inf
ROOT
ATOM      1  C   UNL     1      16.516  17.956   9.192  1.00  0.00     0.000 C 
ENDROOT
BRANCH   1   2
ATOM      2  C   UNL     1      15.294  17.297   8.534  1.00  0.00     0.000 C 
BRANCH   2   3
ATOM      3  C   UNL     1      15.675  16.208   7.515  1.00  0.00     0.000 C 
BRANCH   3   4
ATOM      4  C   UNL     1      16.885  15.342   7.909  1.00  0.00     0.000 C 
BRANCH   4   5
ATOM      5  C   UNL     1      16.516  13.868   8.146  1.00  0.00     0.006 C 
BRANCH   5   6
ATOM      6  C   UNL     1      15.455  13.369   7.157  1.00  0.00     0.053 C 
BRANCH   6   7
ATOM      7  C   UNL     1      14.206  12.925   7.855  1.00  0.00     0.041 C 
ATOM      8  O   UNL     1      13.212  12.537   7.186  1.00  0.00    -0.550 OA
ATOM      9  O   UNL     1      14.129  12.967   9.241  1.00  0.00    -0.550 OA
ENDBRANCH   6   7
ENDBRANCH   5   6
ENDBRANCH   4   5
ENDBRANCH   3   4
ENDBRANCH   2   3
ENDBRANCH   1   2
BRANCH   1  10
ATOM     10  C   UNL     1      16.520  19.471   8.951  1.00  0.00     0.000 C 
BRANCH  10  11
ATOM     11  C   UNL     1      16.568  20.241  10.276  1.00  0.00    -0.000 C 
BRANCH  11  12
ATOM     12  C   UNL     1      15.165  20.365  10.889  1.00  0.00    -0.000 C 
BRANCH  12  13
ATOM     13  C   UNL     1      15.145  20.043  12.393  1.00  0.00    -0.000 C 
BRANCH  13  14
ATOM     14  C   UNL     1      14.875  18.558  12.676  1.00  0.00    -0.000 C 
BRANCH  14  15
ATOM     15  C   UNL     1      16.170  17.828  13.051  1.00  0.00    -0.003 C 
ATOM     16  C   UNL     1      16.168  16.395  12.524  1.00  0.00     0.004 C 
ENDBRANCH  14  15
ENDBRANCH  13  14
ENDBRANCH  12  13
ENDBRANCH  11  12
ENDBRANCH  10  11
ENDBRANCH   1  10
TORSDOF 12
ENDMDL
MODEL 8
REMARK VINA RESULT:    -2.990      2.197      4.134
REMARK INTER + INTRA:          -6.056
REMARK INTER:                  -4.999
REMARK INTRA:                  -1.056
REMARK UNBOUND:                -0.968
REMARK SMILES CCCCCCCCCCCCCC(=O)[O-]
REMARK SMILES IDX 8 1 9 2 10 3 11 4 12 5 13 6 14 7 15 8 16 9 7 10 6 11 5 12
REMARK SMILES IDX 4 13 3 14 2 15 1 16
REMARK H PARENT
REMARK Flexibility Score: inf
ROOT
ATOM      1  C   UNL     1      16.475  17.485   9.101  1.00  0.00     0.000 C 
ENDROOT
BRANCH   1   2
ATOM      2  C   UNL     1      16.435  18.961   9.522  1.00  0.00     0.000 C 
BRANCH   2   3
ATOM      3  C   UNL     1      16.636  19.160  11.035  1.00  0.00     0.000 C 
BRANCH   3   4
ATOM      4  C   UNL     1      15.668  18.367  11.931  1.00  0.00     0.000 C 
BRANCH   4   5
ATOM      5  C   UNL     1      14.703  19.269  12.718  1.00  0.00     0.006 C 
BRANCH   5   6
ATOM      6  C   UNL     1      13.654  19.927  11.812  1.00  0.00     0.053 C 
BRANCH   6   7
ATOM      7  C   UNL     1      13.695  21.422  11.905  1.00  0.00     0.041 C 
ATOM      8  O   UNL     1      14.733  22.049  11.564  1.00  0.00    -0.550 OA
ATOM      9  O   UNL     1      12.598  22.120  12.394  1.00  0.00    -0.550 OA
ENDBRANCH   6   7
ENDBRANCH   5   6
ENDBRANCH   4   5
ENDBRANCH   3   4
ENDBRANCH   2   3
ENDBRANCH   1   2
BRANCH   1  10
ATOM     10  C   UNL     1      15.248  17.120   8.257  1.00  0.00     0.000 C 
BRANCH  10  11
ATOM     11  C   UNL     1      15.625  16.160   7.122  1.00  0.00    -0.000 C 
BRANCH  11  12
ATOM     12  C   UNL     1      16.783  15.243   7.541  1.00  0.00    -0.000 C 
BRANCH  12  13
ATOM     13  C   UNL     1      16.381  13.759   7.576  1.00  0.00    -0.000 C 
BRANCH  13  14
ATOM     14  C   UNL     1      15.588  13.390   8.839  1.00  0.00    -0.000 C 
BRANCH  14  15
ATOM     15  C   UNL     1      14.121  13.100   8.499  1.00  0.00    -0.003 C 
ATOM     16  C   UNL     1      13.937  12.865   7.002  1.00  0.00     0.004 C 
ENDBRANCH  14  15
ENDBRANCH  13  14
ENDBRANCH  12  13
ENDBRANCH  11  12
ENDBRANCH  10  11
ENDBRANCH   1  10
TORSDOF 12
ENDMDL
MODEL 9
REMARK VINA RESULT:    -2.951      1.655      3.733
REMARK INTER + INTRA:          -5.988
REMARK INTER:                  -5.082
REMARK INTRA:                  -0.906
REMARK UNBOUND:                -0.968
REMARK SMILES CCCCCCCCCCCCCC(=O)[O-]
REMARK SMILES IDX 8 1 9 2 10 3 11 4 12 5 13 6 14 7 15 8 16 9 7 10 6 11 5 12
REMARK SMILES IDX 4 13 3 14 2 15 1 16
REMARK H PARENT
REMARK Flexibility Score: inf
ROOT
ATOM      1  C   UNL     1      15.852  15.174  12.613  1.00  0.00     0.000 C 
ENDROOT
BRANCH   1   2
ATOM      2  C   UNL     1      16.956  15.781  11.734  1.00  0.00     0.000 C 
BRANCH   2   3
ATOM      3  C   UNL     1      16.404  16.583  10.542  1.00  0.00     0.000 C 
BRANCH   3   4
ATOM      4  C   UNL     1      16.755  18.082  10.547  1.00  0.00     0.000 C 
BRANCH   4   5
ATOM      5  C   UNL     1      15.627  18.965   9.990  1.00  0.00     0.006 C 
BRANCH   5   6
ATOM      6  C   UNL     1      15.437  20.250  10.807  1.00  0.00     0.053 C 
BRANCH   6   7
ATOM      7  C   UNL     1      14.149  20.240  11.573  1.00  0.00     0.041 C 
ATOM      8  O   UNL     1      13.816  19.222  12.235  1.00  0.00    -0.550 OA
ATOM      9  O   UNL     1      13.305  21.342  11.530  1.00  0.00    -0.550 OA
ENDBRANCH   6   7
ENDBRANCH   5   6
ENDBRANCH   4   5
ENDBRANCH   3   4
ENDBRANCH   2   3
ENDBRANCH   1   2
BRANCH   1  10
ATOM     10  C   UNL     1      15.959  13.645  12.653  1.00  0.00     0.000 C 
BRANCH  10  11
ATOM     11  C   UNL     1      14.602  12.990  12.367  1.00  0.00    -0.000 C 
BRANCH  11  12
ATOM     12  C   UNL     1      14.714  11.974  11.221  1.00  0.00    -0.000 C 
BRANCH  12  13
ATOM     13  C   UNL     1      14.193  12.530   9.885  1.00  0.00    -0.000 C 
BRANCH  13  14
ATOM     14  C   UNL     1      15.289  13.234   9.070  1.00  0.00    -0.000 C 
BRANCH  14  15
ATOM     15  C   UNL     1      14.763  13.649   7.690  1.00  0.00    -0.003 C 
ATOM     16  C   UNL     1      13.644  12.722   7.224  1.00  0.00     0.004 C 
ENDBRANCH  14  15
ENDBRANCH  13  14
ENDBRANCH  12  13
ENDBRANCH  11  12
ENDBRANCH  10  11
ENDBRANCH   1  10
TORSDOF 12
ENDMDL
