MODEL 1
REMARK VINA RESULT:     5.550      0.000      0.000
REMARK INTER + INTRA:          13.215
REMARK INTER:                  13.985
REMARK INTRA:                  -0.770
REMARK UNBOUND:                -0.770
REMARK SMILES CCCCCCCCCCCCCCCCCCCCCCCCCCCC(=O)[O-]
REMARK SMILES IDX 15 1 16 2 17 3 18 4 19 5 20 6 21 7 22 8 23 9 24 10 25 11
REMARK SMILES IDX 26 12 27 13 28 14 29 15 30 16 14 17 13 18 12 19 11 20 10 21
REMARK SMILES IDX 9 22 8 23 7 24 6 25 5 26 4 27 3 28 2 29 1 30
REMARK H PARENT
REMARK Flexibility Score: inf
ROOT
ATOM      1  C   UNL     1      27.663  20.908  25.986  1.00  0.00     0.000 C 
ENDROOT
BRANCH   1   2
ATOM      2  C   UNL     1      26.158  20.678  25.755  1.00  0.00     0.000 C 
BRANCH   2   3
ATOM      3  C   UNL     1      25.808  19.197  25.546  1.00  0.00     0.000 C 
BRANCH   3   4
ATOM      4  C   UNL     1      25.044  18.950  24.235  1.00  0.00     0.000 C 
BRANCH   4   5
ATOM      5  C   UNL     1      23.619  19.525  24.254  1.00  0.00     0.000 C 
BRANCH   5   6
ATOM      6  C   UNL     1      22.700  18.875  25.312  1.00  0.00     0.000 C 
BRANCH   6   7
ATOM      7  C   UNL     1      23.207  19.118  26.745  1.00  0.00     0.000 C 
BRANCH   7   8
ATOM      8  C   UNL     1      22.160  19.792  27.646  1.00  0.00     0.000 C 
BRANCH   8   9
ATOM      9  C   UNL     1      21.927  21.268  27.279  1.00  0.00     0.000 C 
BRANCH   9  10
ATOM     10  C   UNL     1      23.230  22.082  27.186  1.00  0.00     0.000 C 
BRANCH  10  11
ATOM     11  C   UNL     1      23.081  23.501  26.605  1.00  0.00     0.000 C 
BRANCH  11  12
ATOM     12  C   UNL     1      23.849  24.566  27.409  1.00  0.00     0.006 C 
BRANCH  12  13
ATOM     13  C   UNL     1      25.288  24.743  26.908  1.00  0.00     0.053 C 
BRANCH  13  14
ATOM     14  C   UNL     1      25.363  25.662  25.726  1.00  0.00     0.041 C 
ATOM     15  O   UNL     1      24.458  25.644  24.848  1.00  0.00    -0.550 OA
ATOM     16  O   UNL     1      26.437  26.533  25.591  1.00  0.00    -0.550 OA
ENDBRANCH  13  14
ENDBRANCH  12  13
ENDBRANCH  11  12
ENDBRANCH  10  11
ENDBRANCH   9  10
ENDBRANCH   8   9
ENDBRANCH   7   8
ENDBRANCH   6   7
ENDBRANCH   5   6
ENDBRANCH   4   5
ENDBRANCH   3   4
ENDBRANCH   2   3
ENDBRANCH   1   2
BRANCH   1  17
ATOM     17  C   UNL     1      28.412  21.259  24.691  1.00  0.00     0.000 C 
BRANCH  17  18
ATOM     18  C   UNL     1      28.156  20.238  23.570  1.00  0.00     0.000 C 
BRANCH  18  19
ATOM     19  C   UNL     1      29.031  18.982  23.700  1.00  0.00     0.000 C 
BRANCH  19  20
ATOM     20  C   UNL     1      30.510  19.317  23.978  1.00  0.00     0.000 C 
BRANCH  20  21
ATOM     21  C   UNL     1      31.416  19.079  22.751  1.00  0.00     0.000 C 
BRANCH  21  22
ATOM     22  C   UNL     1      31.606  20.321  21.857  1.00  0.00    -0.000 C 
BRANCH  22  23
ATOM     23  C   UNL     1      30.515  21.397  21.981  1.00  0.00    -0.000 C 
BRANCH  23  24
ATOM     24  C   UNL     1      31.088  22.820  22.090  1.00  0.00    -0.000 C 
BRANCH  24  25
ATOM     25  C   UNL     1      31.305  23.480  20.716  1.00  0.00    -0.000 C 
BRANCH  25  26
ATOM     26  C   UNL     1      32.312  24.646  20.707  1.00  0.00    -0.000 C 
BRANCH  26  27
ATOM     27  C   UNL     1      31.629  26.022  20.739  1.00  0.00    -0.000 C 
BRANCH  27  28
ATOM     28  C   UNL     1      31.410  26.494  22.185  1.00  0.00    -0.000 C 
BRANCH  28  29
ATOM     29  C   UNL     1      30.138  27.341  22.340  1.00  0.00    -0.003 C 
ATOM     30  C   UNL     1      30.041  28.457  21.302  1.00  0.00     0.004 C 
ENDBRANCH  28  29
ENDBRANCH  27  28
ENDBRANCH  26  27
ENDBRANCH  25  26
ENDBRANCH  24  25
ENDBRANCH  23  24
ENDBRANCH  22  23
ENDBRANCH  21  22
ENDBRANCH  20  21
ENDBRANCH  19  20
ENDBRANCH  18  19
ENDBRANCH  17  18
ENDBRANCH   1  17
TORSDOF 26
ENDMDL
MODEL 2
REMARK VINA RESULT:     5.843      2.631      4.050
REMARK INTER + INTRA:          13.955
REMARK INTER:                  13.764
REMARK INTRA:                   0.191
REMARK UNBOUND:                -0.770
REMARK SMILES CCCCCCCCCCCCCCCCCCCCCCCCCCCC(=O)[O-]
REMARK SMILES IDX 15 1 16 2 17 3 18 4 19 5 20 6 21 7 22 8 23 9 24 10 25 11
REMARK SMILES IDX 26 12 27 13 28 14 29 15 30 16 14 17 13 18 12 19 11 20 10 21
REMARK SMILES IDX 9 22 8 23 7 24 6 25 5 26 4 27 3 28 2 29 1 30
REMARK H PARENT
REMARK Flexibility Score: inf
ROOT
ATOM      1  C   UNL     1      25.441  18.876  25.191  1.00  0.00     0.000 C 
ENDROOT
BRANCH   1   2
ATOM      2  C   UNL     1      24.544  18.995  26.437  1.00  0.00     0.000 C 
BRANCH   2   3
ATOM      3  C   UNL     1      23.201  19.677  26.139  1.00  0.00     0.000 C 
BRANCH   3   4
ATOM      4  C   UNL     1      22.018  18.981  26.832  1.00  0.00     0.000 C 
BRANCH   4   5
ATOM      5  C   UNL     1      21.953  19.269  28.341  1.00  0.00     0.000 C 
BRANCH   5   6
ATOM      6  C   UNL     1      22.276  20.733  28.709  1.00  0.00     0.000 C 
BRANCH   6   7
ATOM      7  C   UNL     1      22.466  21.614  27.461  1.00  0.00     0.000 C 
BRANCH   7   8
ATOM      8  C   UNL     1      21.649  22.915  27.515  1.00  0.00     0.000 C 
BRANCH   8   9
ATOM      9  C   UNL     1      22.341  24.078  26.783  1.00  0.00     0.000 C 
BRANCH   9  10
ATOM     10  C   UNL     1      23.870  23.910  26.689  1.00  0.00     0.000 C 
BRANCH  10  11
ATOM     11  C   UNL     1      24.696  25.070  27.277  1.00  0.00     0.000 C 
BRANCH  11  12
ATOM     12  C   UNL     1      25.929  25.425  26.425  1.00  0.00     0.006 C 
BRANCH  12  13
ATOM     13  C   UNL     1      25.817  26.820  25.797  1.00  0.00     0.053 C 
BRANCH  13  14
ATOM     14  C   UNL     1      24.880  26.836  24.627  1.00  0.00     0.041 C 
ATOM     15  O   UNL     1      24.414  25.756  24.171  1.00  0.00    -0.550 OA
ATOM     16  O   UNL     1      24.529  28.043  24.035  1.00  0.00    -0.550 OA
ENDBRANCH  13  14
ENDBRANCH  12  13
ENDBRANCH  11  12
ENDBRANCH  10  11
ENDBRANCH   9  10
ENDBRANCH   8   9
ENDBRANCH   7   8
ENDBRANCH   6   7
ENDBRANCH   5   6
ENDBRANCH   4   5
ENDBRANCH   3   4
ENDBRANCH   2   3
ENDBRANCH   1   2
BRANCH   1  17
ATOM     17  C   UNL     1      24.706  19.254  23.896  1.00  0.00     0.000 C 
BRANCH  17  18
ATOM     18  C   UNL     1      25.519  18.909  22.638  1.00  0.00     0.000 C 
BRANCH  18  19
ATOM     19  C   UNL     1      26.805  19.740  22.516  1.00  0.00     0.000 C 
BRANCH  19  20
ATOM     20  C   UNL     1      28.079  18.877  22.606  1.00  0.00     0.000 C 
BRANCH  20  21
ATOM     21  C   UNL     1      29.122  19.241  21.527  1.00  0.00     0.000 C 
BRANCH  21  22
ATOM     22  C   UNL     1      30.057  20.403  21.919  1.00  0.00    -0.000 C 
BRANCH  22  23
ATOM     23  C   UNL     1      31.547  20.040  22.035  1.00  0.00    -0.000 C 
BRANCH  23  24
ATOM     24  C   UNL     1      31.863  19.202  23.284  1.00  0.00    -0.000 C 
BRANCH  24  25
ATOM     25  C   UNL     1      30.996  19.591  24.495  1.00  0.00    -0.000 C 
BRANCH  25  26
ATOM     26  C   UNL     1      31.125  21.060  24.942  1.00  0.00    -0.000 C 
BRANCH  26  27
ATOM     27  C   UNL     1      29.801  21.833  24.837  1.00  0.00    -0.000 C 
BRANCH  27  28
ATOM     28  C   UNL     1      28.605  20.921  25.150  1.00  0.00    -0.000 C 
BRANCH  28  29
ATOM     29  C   UNL     1      27.316  21.712  25.416  1.00  0.00    -0.003 C 
ATOM     30  C   UNL     1      26.537  21.185  26.621  1.00  0.00     0.004 C 
ENDBRANCH  28  29
ENDBRANCH  27  28
ENDBRANCH  26  27
ENDBRANCH  25  26
ENDBRANCH  24  25
ENDBRANCH  23  24
ENDBRANCH  22  23
ENDBRANCH  21  22
ENDBRANCH  20  21
ENDBRANCH  19  20
ENDBRANCH  18  19
ENDBRANCH  17  18
ENDBRANCH   1  17
TORSDOF 26
ENDMDL
MODEL 3
REMARK VINA RESULT:     6.128      1.906      7.772
REMARK INTER + INTRA:          14.673
REMARK INTER:                  17.075
REMARK INTRA:                  -2.402
REMARK UNBOUND:                -0.770
REMARK SMILES CCCCCCCCCCCCCCCCCCCCCCCCCCCC(=O)[O-]
REMARK SMILES IDX 15 1 16 2 17 3 18 4 19 5 20 6 21 7 22 8 23 9 24 10 25 11
REMARK SMILES IDX 26 12 27 13 28 14 29 15 30 16 14 17 13 18 12 19 11 20 10 21
REMARK SMILES IDX 9 22 8 23 7 24 6 25 5 26 4 27 3 28 2 29 1 30
REMARK H PARENT
REMARK Flexibility Score: inf
ROOT
ATOM      1  C   UNL     1      26.782  21.437  25.372  1.00  0.00     0.000 C 
ENDROOT
BRANCH   1   2
ATOM      2  C   UNL     1      28.238  21.421  24.870  1.00  0.00     0.000 C 
BRANCH   2   3
ATOM      3  C   UNL     1      29.044  20.239  25.427  1.00  0.00     0.000 C 
BRANCH   3   4
ATOM      4  C   UNL     1      28.996  19.006  24.509  1.00  0.00     0.000 C 
BRANCH   4   5
ATOM      5  C   UNL     1      28.406  19.314  23.123  1.00  0.00     0.000 C 
BRANCH   5   6
ATOM      6  C   UNL     1      29.378  19.032  21.957  1.00  0.00     0.000 C 
BRANCH   6   7
ATOM      7  C   UNL     1      30.835  18.904  22.437  1.00  0.00     0.000 C 
BRANCH   7   8
ATOM      8  C   UNL     1      31.685  20.143  22.114  1.00  0.00     0.000 C 
BRANCH   8   9
ATOM      9  C   UNL     1      31.030  21.449  22.597  1.00  0.00     0.000 C 
BRANCH   9  10
ATOM     10  C   UNL     1      30.647  22.397  21.445  1.00  0.00     0.000 C 
BRANCH  10  11
ATOM     11  C   UNL     1      31.795  23.269  20.901  1.00  0.00     0.000 C 
BRANCH  11  12
ATOM     12  C   UNL     1      31.299  24.533  20.174  1.00  0.00     0.006 C 
BRANCH  12  13
ATOM     13  C   UNL     1      32.029  25.797  20.646  1.00  0.00     0.053 C 
BRANCH  13  14
ATOM     14  C   UNL     1      31.349  26.432  21.820  1.00  0.00     0.041 C 
ATOM     15  O   UNL     1      30.486  27.335  21.644  1.00  0.00    -0.550 OA
ATOM     16  O   UNL     1      31.675  26.034  23.111  1.00  0.00    -0.550 OA
ENDBRANCH  13  14
ENDBRANCH  12  13
ENDBRANCH  11  12
ENDBRANCH  10  11
ENDBRANCH   9  10
ENDBRANCH   8   9
ENDBRANCH   7   8
ENDBRANCH   6   7
ENDBRANCH   5   6
ENDBRANCH   4   5
ENDBRANCH   3   4
ENDBRANCH   2   3
ENDBRANCH   1   2
BRANCH   1  17
ATOM     17  C   UNL     1      25.784  20.963  24.303  1.00  0.00     0.000 C 
BRANCH  17  18
ATOM     18  C   UNL     1      25.393  19.487  24.480  1.00  0.00     0.000 C 
BRANCH  18  19
ATOM     19  C   UNL     1      23.958  19.193  24.015  1.00  0.00     0.000 C 
BRANCH  19  20
ATOM     20  C   UNL     1      23.009  18.876  25.187  1.00  0.00     0.000 C 
BRANCH  20  21
ATOM     21  C   UNL     1      23.315  19.718  26.446  1.00  0.00     0.000 C 
BRANCH  21  22
ATOM     22  C   UNL     1      22.075  20.381  27.077  1.00  0.00    -0.000 C 
BRANCH  22  23
ATOM     23  C   UNL     1      22.227  21.874  27.418  1.00  0.00    -0.000 C 
BRANCH  23  24
ATOM     24  C   UNL     1      23.307  22.571  26.576  1.00  0.00    -0.000 C 
BRANCH  24  25
ATOM     25  C   UNL     1      24.332  23.332  27.437  1.00  0.00    -0.000 C 
BRANCH  25  26
ATOM     26  C   UNL     1      24.108  24.854  27.522  1.00  0.00    -0.000 C 
BRANCH  26  27
ATOM     27  C   UNL     1      25.165  25.656  26.746  1.00  0.00    -0.000 C 
BRANCH  27  28
ATOM     28  C   UNL     1      24.679  25.976  25.324  1.00  0.00    -0.000 C 
BRANCH  28  29
ATOM     29  C   UNL     1      25.773  26.619  24.459  1.00  0.00    -0.003 C 
ATOM     30  C   UNL     1      25.437  26.598  22.969  1.00  0.00     0.004 C 
ENDBRANCH  28  29
ENDBRANCH  27  28
ENDBRANCH  26  27
ENDBRANCH  25  26
ENDBRANCH  24  25
ENDBRANCH  23  24
ENDBRANCH  22  23
ENDBRANCH  21  22
ENDBRANCH  20  21
ENDBRANCH  19  20
ENDBRANCH  18  19
ENDBRANCH  17  18
ENDBRANCH   1  17
TORSDOF 26
ENDMDL
MODEL 4
REMARK VINA RESULT:     6.247      2.875      4.872
REMARK INTER + INTRA:          14.971
REMARK INTER:                  13.986
REMARK INTRA:                   0.985
REMARK UNBOUND:                -0.770
REMARK SMILES CCCCCCCCCCCCCCCCCCCCCCCCCCCC(=O)[O-]
REMARK SMILES IDX 15 1 16 2 17 3 18 4 19 5 20 6 21 7 22 8 23 9 24 10 25 11
REMARK SMILES IDX 26 12 27 13 28 14 29 15 30 16 14 17 13 18 12 19 11 20 10 21
REMARK SMILES IDX 9 22 8 23 7 24 6 25 5 26 4 27 3 28 2 29 1 30
REMARK H PARENT
REMARK Flexibility Score: inf
ROOT
ATOM      1  C   UNL     1      22.599  18.890  25.610  1.00  0.00     0.000 C 
ENDROOT
BRANCH   1   2
ATOM      2  C   UNL     1      23.291  19.625  26.773  1.00  0.00     0.000 C 
BRANCH   2   3
ATOM      3  C   UNL     1      23.155  18.882  28.110  1.00  0.00     0.000 C 
BRANCH   3   4
ATOM      4  C   UNL     1      22.564  19.766  29.220  1.00  0.00     0.000 C 
BRANCH   4   5
ATOM      5  C   UNL     1      21.178  19.293  29.688  1.00  0.00     0.000 C 
BRANCH   5   6
ATOM      6  C   UNL     1      20.063  19.502  28.641  1.00  0.00     0.000 C 
BRANCH   6   7
ATOM      7  C   UNL     1      19.324  20.838  28.842  1.00  0.00     0.000 C 
BRANCH   7   8
ATOM      8  C   UNL     1      19.760  21.921  27.842  1.00  0.00     0.000 C 
BRANCH   8   9
ATOM      9  C   UNL     1      21.241  21.796  27.445  1.00  0.00     0.000 C 
BRANCH   9  10
ATOM     10  C   UNL     1      21.878  23.141  27.048  1.00  0.00     0.000 C 
BRANCH  10  11
ATOM     11  C   UNL     1      23.414  23.132  26.926  1.00  0.00     0.000 C 
BRANCH  11  12
ATOM     12  C   UNL     1      24.052  24.497  27.242  1.00  0.00     0.006 C 
BRANCH  12  13
ATOM     13  C   UNL     1      25.409  24.677  26.548  1.00  0.00     0.053 C 
BRANCH  13  14
ATOM     14  C   UNL     1      25.350  25.709  25.462  1.00  0.00     0.041 C 
ATOM     15  O   UNL     1      24.546  25.575  24.500  1.00  0.00    -0.550 OA
ATOM     16  O   UNL     1      26.191  26.814  25.508  1.00  0.00    -0.550 OA
ENDBRANCH  13  14
ENDBRANCH  12  13
ENDBRANCH  11  12
ENDBRANCH  10  11
ENDBRANCH   9  10
ENDBRANCH   8   9
ENDBRANCH   7   8
ENDBRANCH   6   7
ENDBRANCH   5   6
ENDBRANCH   4   5
ENDBRANCH   3   4
ENDBRANCH   2   3
ENDBRANCH   1   2
BRANCH   1  17
ATOM     17  C   UNL     1      22.755  19.627  24.271  1.00  0.00     0.000 C 
BRANCH  17  18
ATOM     18  C   UNL     1      23.687  18.885  23.298  1.00  0.00     0.000 C 
BRANCH  18  19
ATOM     19  C   UNL     1      24.987  19.653  23.020  1.00  0.00     0.000 C 
BRANCH  19  20
ATOM     20  C   UNL     1      25.581  19.331  21.635  1.00  0.00     0.000 C 
BRANCH  20  21
ATOM     21  C   UNL     1      27.056  18.879  21.709  1.00  0.00     0.000 C 
BRANCH  21  22
ATOM     22  C   UNL     1      27.840  19.477  22.895  1.00  0.00    -0.000 C 
BRANCH  22  23
ATOM     23  C   UNL     1      29.275  19.928  22.576  1.00  0.00    -0.000 C 
BRANCH  23  24
ATOM     24  C   UNL     1      30.277  19.560  23.683  1.00  0.00    -0.000 C 
BRANCH  24  25
ATOM     25  C   UNL     1      30.177  20.487  24.908  1.00  0.00    -0.000 C 
BRANCH  25  26
ATOM     26  C   UNL     1      29.279  21.724  24.714  1.00  0.00    -0.000 C 
BRANCH  26  27
ATOM     27  C   UNL     1      27.811  21.459  25.084  1.00  0.00    -0.000 C 
BRANCH  27  28
ATOM     28  C   UNL     1      27.709  20.489  26.271  1.00  0.00    -0.000 C 
BRANCH  28  29
ATOM     29  C   UNL     1      26.276  19.987  26.499  1.00  0.00    -0.003 C 
ATOM     30  C   UNL     1      25.332  21.091  26.976  1.00  0.00     0.004 C 
ENDBRANCH  28  29
ENDBRANCH  27  28
ENDBRANCH  26  27
ENDBRANCH  25  26
ENDBRANCH  24  25
ENDBRANCH  23  24
ENDBRANCH  22  23
ENDBRANCH  21  22
ENDBRANCH  20  21
ENDBRANCH  19  20
ENDBRANCH  18  19
ENDBRANCH  17  18
ENDBRANCH   1  17
TORSDOF 26
ENDMDL
MODEL 5
REMARK VINA RESULT:     6.417      2.102      7.821
REMARK INTER + INTRA:          15.399
REMARK INTER:                  16.196
REMARK INTRA:                  -0.796
REMARK UNBOUND:                -0.770
REMARK SMILES CCCCCCCCCCCCCCCCCCCCCCCCCCCC(=O)[O-]
REMARK SMILES IDX 15 1 16 2 17 3 18 4 19 5 20 6 21 7 22 8 23 9 24 10 25 11
REMARK SMILES IDX 26 12 27 13 28 14 29 15 30 16 14 17 13 18 12 19 11 20 10 21
REMARK SMILES IDX 9 22 8 23 7 24 6 25 5 26 4 27 3 28 2 29 1 30
REMARK H PARENT
REMARK Flexibility Score: inf
ROOT
ATOM      1  C   UNL     1      25.193  19.486  25.957  1.00  0.00     0.000 C 
ENDROOT
BRANCH   1   2
ATOM      2  C   UNL     1      26.504  18.936  25.365  1.00  0.00     0.000 C 
BRANCH   2   3
ATOM      3  C   UNL     1      27.113  19.864  24.304  1.00  0.00     0.000 C 
BRANCH   3   4
ATOM      4  C   UNL     1      27.668  21.165  24.906  1.00  0.00     0.000 C 
BRANCH   4   5
ATOM      5  C   UNL     1      29.203  21.182  24.987  1.00  0.00     0.000 C 
BRANCH   5   6
ATOM      6  C   UNL     1      29.864  19.870  24.513  1.00  0.00     0.000 C 
BRANCH   6   7
ATOM      7  C   UNL     1      29.297  19.390  23.165  1.00  0.00     0.000 C 
BRANCH   7   8
ATOM      8  C   UNL     1      30.369  19.273  22.069  1.00  0.00     0.000 C 
BRANCH   8   9
ATOM      9  C   UNL     1      31.580  20.186  22.329  1.00  0.00     0.000 C 
BRANCH   9  10
ATOM     10  C   UNL     1      31.748  21.287  21.265  1.00  0.00     0.000 C 
BRANCH  10  11
ATOM     11  C   UNL     1      31.118  22.648  21.619  1.00  0.00     0.000 C 
BRANCH  11  12
ATOM     12  C   UNL     1      31.786  23.829  20.893  1.00  0.00     0.006 C 
BRANCH  12  13
ATOM     13  C   UNL     1      30.846  25.036  20.763  1.00  0.00     0.053 C 
BRANCH  13  14
ATOM     14  C   UNL     1      31.428  26.268  21.388  1.00  0.00     0.041 C 
ATOM     15  O   UNL     1      32.401  26.180  22.184  1.00  0.00    -0.550 OA
ATOM     16  O   UNL     1      30.887  27.515  21.096  1.00  0.00    -0.550 OA
ENDBRANCH  13  14
ENDBRANCH  12  13
ENDBRANCH  11  12
ENDBRANCH  10  11
ENDBRANCH   9  10
ENDBRANCH   8   9
ENDBRANCH   7   8
ENDBRANCH   6   7
ENDBRANCH   5   6
ENDBRANCH   4   5
ENDBRANCH   3   4
ENDBRANCH   2   3
ENDBRANCH   1   2
BRANCH   1  17
ATOM     17  C   UNL     1      23.983  19.240  25.043  1.00  0.00     0.000 C 
BRANCH  17  18
ATOM     18  C   UNL     1      22.701  18.940  25.836  1.00  0.00     0.000 C 
BRANCH  18  19
ATOM     19  C   UNL     1      22.915  19.000  27.356  1.00  0.00     0.000 C 
BRANCH  19  20
ATOM     20  C   UNL     1      22.108  20.131  28.024  1.00  0.00     0.000 C 
BRANCH  20  21
ATOM     21  C   UNL     1      21.752  21.268  27.041  1.00  0.00     0.000 C 
BRANCH  21  22
ATOM     22  C   UNL     1      22.718  22.468  27.087  1.00  0.00    -0.000 C 
BRANCH  22  23
ATOM     23  C   UNL     1      24.075  22.249  26.394  1.00  0.00    -0.000 C 
BRANCH  23  24
ATOM     24  C   UNL     1      24.864  23.554  26.202  1.00  0.00    -0.000 C 
BRANCH  24  25
ATOM     25  C   UNL     1      24.616  24.571  27.330  1.00  0.00    -0.000 C 
BRANCH  25  26
ATOM     26  C   UNL     1      25.534  25.808  27.303  1.00  0.00    -0.000 C 
BRANCH  26  27
ATOM     27  C   UNL     1      25.967  26.198  25.881  1.00  0.00    -0.000 C 
BRANCH  27  28
ATOM     28  C   UNL     1      24.932  27.123  25.224  1.00  0.00    -0.000 C 
BRANCH  28  29
ATOM     29  C   UNL     1      24.822  26.901  23.708  1.00  0.00    -0.003 C 
ATOM     30  C   UNL     1      24.155  25.573  23.353  1.00  0.00     0.004 C 
ENDBRANCH  28  29
ENDBRANCH  27  28
ENDBRANCH  26  27
ENDBRANCH  25  26
ENDBRANCH  24  25
ENDBRANCH  23  24
ENDBRANCH  22  23
ENDBRANCH  21  22
ENDBRANCH  20  21
ENDBRANCH  19  20
ENDBRANCH  18  19
ENDBRANCH  17  18
ENDBRANCH   1  17
TORSDOF 26
ENDMDL
MODEL 6
REMARK VINA RESULT:     6.517      2.745      4.853
REMARK INTER + INTRA:          15.653
REMARK INTER:                  15.546
REMARK INTRA:                   0.107
REMARK UNBOUND:                -0.770
REMARK SMILES CCCCCCCCCCCCCCCCCCCCCCCCCCCC(=O)[O-]
REMARK SMILES IDX 15 1 16 2 17 3 18 4 19 5 20 6 21 7 22 8 23 9 24 10 25 11
REMARK SMILES IDX 26 12 27 13 28 14 29 15 30 16 14 17 13 18 12 19 11 20 10 21
REMARK SMILES IDX 9 22 8 23 7 24 6 25 5 26 4 27 3 28 2 29 1 30
REMARK H PARENT
REMARK Flexibility Score: inf
ROOT
ATOM      1  C   UNL     1      22.556  18.875  25.587  1.00  0.00     0.000 C 
ENDROOT
BRANCH   1   2
ATOM      2  C   UNL     1      23.364  19.564  26.702  1.00  0.00     0.000 C 
BRANCH   2   3
ATOM      3  C   UNL     1      23.120  18.941  28.084  1.00  0.00     0.000 C 
BRANCH   3   4
ATOM      4  C   UNL     1      22.596  19.961  29.108  1.00  0.00     0.000 C 
BRANCH   4   5
ATOM      5  C   UNL     1      21.139  19.698  29.523  1.00  0.00     0.000 C 
BRANCH   5   6
ATOM      6  C   UNL     1      20.110  20.014  28.417  1.00  0.00     0.000 C 
BRANCH   6   7
ATOM      7  C   UNL     1      19.515  21.427  28.567  1.00  0.00     0.000 C 
BRANCH   7   8
ATOM      8  C   UNL     1      20.076  22.426  27.542  1.00  0.00     0.000 C 
BRANCH   8   9
ATOM      9  C   UNL     1      21.461  22.015  27.015  1.00  0.00     0.000 C 
BRANCH   9  10
ATOM     10  C   UNL     1      22.414  23.210  26.820  1.00  0.00     0.000 C 
BRANCH  10  11
ATOM     11  C   UNL     1      23.856  22.990  27.317  1.00  0.00     0.000 C 
BRANCH  11  12
ATOM     12  C   UNL     1      24.665  24.296  27.417  1.00  0.00     0.006 C 
BRANCH  12  13
ATOM     13  C   UNL     1      24.162  25.366  26.439  1.00  0.00     0.053 C 
BRANCH  13  14
ATOM     14  C   UNL     1      25.197  25.722  25.415  1.00  0.00     0.041 C 
ATOM     15  O   UNL     1      24.867  26.324  24.358  1.00  0.00    -0.550 OA
ATOM     16  O   UNL     1      26.527  25.378  25.625  1.00  0.00    -0.550 OA
ENDBRANCH  13  14
ENDBRANCH  12  13
ENDBRANCH  11  12
ENDBRANCH  10  11
ENDBRANCH   9  10
ENDBRANCH   8   9
ENDBRANCH   7   8
ENDBRANCH   6   7
ENDBRANCH   5   6
ENDBRANCH   4   5
ENDBRANCH   3   4
ENDBRANCH   2   3
ENDBRANCH   1   2
BRANCH   1  17
ATOM     17  C   UNL     1      22.680  19.597  24.236  1.00  0.00     0.000 C 
BRANCH  17  18
ATOM     18  C   UNL     1      23.699  18.925  23.302  1.00  0.00     0.000 C 
BRANCH  18  19
ATOM     19  C   UNL     1      24.884  19.840  22.961  1.00  0.00     0.000 C 
BRANCH  19  20
ATOM     20  C   UNL     1      25.582  19.440  21.645  1.00  0.00     0.000 C 
BRANCH  20  21
ATOM     21  C   UNL     1      27.001  18.876  21.872  1.00  0.00     0.000 C 
BRANCH  21  22
ATOM     22  C   UNL     1      27.712  19.437  23.120  1.00  0.00    -0.000 C 
BRANCH  22  23
ATOM     23  C   UNL     1      26.856  19.492  24.397  1.00  0.00    -0.000 C 
BRANCH  23  24
ATOM     24  C   UNL     1      27.018  20.812  25.169  1.00  0.00    -0.000 C 
BRANCH  24  25
ATOM     25  C   UNL     1      28.383  20.925  25.873  1.00  0.00    -0.000 C 
BRANCH  25  26
ATOM     26  C   UNL     1      29.451  19.928  25.384  1.00  0.00    -0.000 C 
BRANCH  26  27
ATOM     27  C   UNL     1      30.476  20.570  24.435  1.00  0.00    -0.000 C 
BRANCH  27  28
ATOM     28  C   UNL     1      31.497  19.532  23.946  1.00  0.00    -0.000 C 
BRANCH  28  29
ATOM     29  C   UNL     1      31.202  19.043  22.520  1.00  0.00    -0.003 C 
ATOM     30  C   UNL     1      31.333  20.152  21.476  1.00  0.00     0.004 C 
ENDBRANCH  28  29
ENDBRANCH  27  28
ENDBRANCH  26  27
ENDBRANCH  25  26
ENDBRANCH  24  25
ENDBRANCH  23  24
ENDBRANCH  22  23
ENDBRANCH  21  22
ENDBRANCH  20  21
ENDBRANCH  19  20
ENDBRANCH  18  19
ENDBRANCH  17  18
ENDBRANCH   1  17
TORSDOF 26
ENDMDL
MODEL 7
REMARK VINA RESULT:     6.820      2.988      7.939
REMARK INTER + INTRA:          16.415
REMARK INTER:                  14.998
REMARK INTRA:                   1.417
REMARK UNBOUND:                -0.770
REMARK SMILES CCCCCCCCCCCCCCCCCCCCCCCCCCCC(=O)[O-]
REMARK SMILES IDX 15 1 16 2 17 3 18 4 19 5 20 6 21 7 22 8 23 9 24 10 25 11
REMARK SMILES IDX 26 12 27 13 28 14 29 15 30 16 14 17 13 18 12 19 11 20 10 21
REMARK SMILES IDX 9 22 8 23 7 24 6 25 5 26 4 27 3 28 2 29 1 30
REMARK H PARENT
REMARK Flexibility Score: inf
ROOT
ATOM      1  C   UNL     1      24.215  19.721  25.700  1.00  0.00     0.000 C 
ENDROOT
BRANCH   1   2
ATOM      2  C   UNL     1      25.356  18.903  25.067  1.00  0.00     0.000 C 
BRANCH   2   3
ATOM      3  C   UNL     1      25.347  18.959  23.533  1.00  0.00     0.000 C 
BRANCH   3   4
ATOM      4  C   UNL     1      26.762  18.925  22.932  1.00  0.00     0.000 C 
BRANCH   4   5
ATOM      5  C   UNL     1      26.761  18.956  21.395  1.00  0.00     0.000 C 
BRANCH   5   6
ATOM      6  C   UNL     1      28.173  19.030  20.774  1.00  0.00     0.000 C 
BRANCH   6   7
ATOM      7  C   UNL     1      29.279  18.900  21.836  1.00  0.00     0.000 C 
BRANCH   7   8
ATOM      8  C   UNL     1      30.693  18.889  21.233  1.00  0.00     0.000 C 
BRANCH   8   9
ATOM      9  C   UNL     1      31.789  19.097  22.292  1.00  0.00     0.000 C 
BRANCH   9  10
ATOM     10  C   UNL     1      31.226  19.346  23.705  1.00  0.00     0.000 C 
BRANCH  10  11
ATOM     11  C   UNL     1      30.183  20.475  23.808  1.00  0.00     0.000 C 
BRANCH  11  12
ATOM     12  C   UNL     1      29.180  20.266  24.958  1.00  0.00     0.006 C 
BRANCH  12  13
ATOM     13  C   UNL     1      28.361  21.530  25.249  1.00  0.00     0.053 C 
BRANCH  13  14
ATOM     14  C   UNL     1      27.307  21.288  26.287  1.00  0.00     0.041 C 
ATOM     15  O   UNL     1      27.604  20.729  27.377  1.00  0.00    -0.550 OA
ATOM     16  O   UNL     1      25.994  21.673  26.045  1.00  0.00    -0.550 OA
ENDBRANCH  13  14
ENDBRANCH  12  13
ENDBRANCH  11  12
ENDBRANCH  10  11
ENDBRANCH   9  10
ENDBRANCH   8   9
ENDBRANCH   7   8
ENDBRANCH   6   7
ENDBRANCH   5   6
ENDBRANCH   4   5
ENDBRANCH   3   4
ENDBRANCH   2   3
ENDBRANCH   1   2
BRANCH   1  17
ATOM     17  C   UNL     1      24.491  20.083  27.167  1.00  0.00     0.000 C 
BRANCH  17  18
ATOM     18  C   UNL     1      24.339  18.875  28.107  1.00  0.00     0.000 C 
BRANCH  18  19
ATOM     19  C   UNL     1      23.186  19.043  29.108  1.00  0.00     0.000 C 
BRANCH  19  20
ATOM     20  C   UNL     1      21.802  18.894  28.446  1.00  0.00     0.000 C 
BRANCH  20  21
ATOM     21  C   UNL     1      20.755  19.867  29.031  1.00  0.00     0.000 C 
BRANCH  21  22
ATOM     22  C   UNL     1      21.052  21.354  28.756  1.00  0.00    -0.000 C 
BRANCH  22  23
ATOM     23  C   UNL     1      21.663  21.661  27.378  1.00  0.00    -0.000 C 
BRANCH  23  24
ATOM     24  C   UNL     1      21.883  23.165  27.144  1.00  0.00    -0.000 C 
BRANCH  24  25
ATOM     25  C   UNL     1      23.155  23.693  27.831  1.00  0.00    -0.000 C 
BRANCH  25  26
ATOM     26  C   UNL     1      24.335  23.980  26.883  1.00  0.00    -0.000 C 
BRANCH  26  27
ATOM     27  C   UNL     1      24.628  25.482  26.734  1.00  0.00    -0.000 C 
BRANCH  27  28
ATOM     28  C   UNL     1      24.116  26.011  25.386  1.00  0.00    -0.000 C 
BRANCH  28  29
ATOM     29  C   UNL     1      25.130  26.932  24.692  1.00  0.00    -0.003 C 
ATOM     30  C   UNL     1      25.561  26.411  23.321  1.00  0.00     0.004 C 
ENDBRANCH  28  29
ENDBRANCH  27  28
ENDBRANCH  26  27
ENDBRANCH  25  26
ENDBRANCH  24  25
ENDBRANCH  23  24
ENDBRANCH  22  23
ENDBRANCH  21  22
ENDBRANCH  20  21
ENDBRANCH  19  20
ENDBRANCH  18  19
ENDBRANCH  17  18
ENDBRANCH   1  17
TORSDOF 26
ENDMDL
MODEL 8
REMARK VINA RESULT:     6.987      2.497      8.334
REMARK INTER + INTRA:          16.835
REMARK INTER:                  15.979
REMARK INTRA:                   0.856
REMARK UNBOUND:                -0.770
REMARK SMILES CCCCCCCCCCCCCCCCCCCCCCCCCCCC(=O)[O-]
REMARK SMILES IDX 15 1 16 2 17 3 18 4 19 5 20 6 21 7 22 8 23 9 24 10 25 11
REMARK SMILES IDX 26 12 27 13 28 14 29 15 30 16 14 17 13 18 12 19 11 20 10 21
REMARK SMILES IDX 9 22 8 23 7 24 6 25 5 26 4 27 3 28 2 29 1 30
REMARK H PARENT
REMARK Flexibility Score: inf
ROOT
ATOM      1  C   UNL     1      25.096  18.960  25.927  1.00  0.00     0.000 C 
ENDROOT
BRANCH   1   2
ATOM      2  C   UNL     1      25.041  19.375  24.445  1.00  0.00     0.000 C 
BRANCH   2   3
ATOM      3  C   UNL     1      26.255  18.881  23.645  1.00  0.00     0.000 C 
BRANCH   3   4
ATOM      4  C   UNL     1      26.867  19.981  22.762  1.00  0.00     0.000 C 
BRANCH   4   5
ATOM      5  C   UNL     1      28.042  20.707  23.437  1.00  0.00     0.000 C 
BRANCH   5   6
ATOM      6  C   UNL     1      28.343  20.208  24.867  1.00  0.00     0.000 C 
BRANCH   6   7
ATOM      7  C   UNL     1      29.243  18.959  24.865  1.00  0.00     0.000 C 
BRANCH   7   8
ATOM      8  C   UNL     1      30.459  19.096  23.935  1.00  0.00     0.000 C 
BRANCH   8   9
ATOM      9  C   UNL     1      30.098  18.877  22.456  1.00  0.00     0.000 C 
BRANCH   9  10
ATOM     10  C   UNL     1      30.874  19.803  21.499  1.00  0.00     0.000 C 
BRANCH  10  11
ATOM     11  C   UNL     1      31.275  21.170  22.086  1.00  0.00     0.000 C 
BRANCH  11  12
ATOM     12  C   UNL     1      30.882  22.353  21.183  1.00  0.00     0.006 C 
BRANCH  12  13
ATOM     13  C   UNL     1      31.180  23.707  21.840  1.00  0.00     0.053 C 
BRANCH  13  14
ATOM     14  C   UNL     1      31.480  24.769  20.825  1.00  0.00     0.041 C 
ATOM     15  O   UNL     1      31.109  24.628  19.628  1.00  0.00    -0.550 OA
ATOM     16  O   UNL     1      32.179  25.910  21.200  1.00  0.00    -0.550 OA
ENDBRANCH  13  14
ENDBRANCH  12  13
ENDBRANCH  11  12
ENDBRANCH  10  11
ENDBRANCH   9  10
ENDBRANCH   8   9
ENDBRANCH   7   8
ENDBRANCH   6   7
ENDBRANCH   5   6
ENDBRANCH   4   5
ENDBRANCH   3   4
ENDBRANCH   2   3
ENDBRANCH   1   2
BRANCH   1  17
ATOM     17  C   UNL     1      24.121  19.764  26.802  1.00  0.00     0.000 C 
BRANCH  17  18
ATOM     18  C   UNL     1      23.046  18.876  27.449  1.00  0.00     0.000 C 
BRANCH  18  19
ATOM     19  C   UNL     1      23.081  18.926  28.984  1.00  0.00     0.000 C 
BRANCH  19  20
ATOM     20  C   UNL     1      21.762  19.443  29.590  1.00  0.00     0.000 C 
BRANCH  20  21
ATOM     21  C   UNL     1      20.640  19.588  28.539  1.00  0.00     0.000 C 
BRANCH  21  22
ATOM     22  C   UNL     1      20.010  20.994  28.477  1.00  0.00    -0.000 C 
BRANCH  22  23
ATOM     23  C   UNL     1      20.735  22.002  27.570  1.00  0.00    -0.000 C 
BRANCH  23  24
ATOM     24  C   UNL     1      22.192  21.607  27.281  1.00  0.00    -0.000 C 
BRANCH  24  25
ATOM     25  C   UNL     1      22.985  22.728  26.586  1.00  0.00    -0.000 C 
BRANCH  25  26
ATOM     26  C   UNL     1      23.332  23.932  27.483  1.00  0.00    -0.000 C 
BRANCH  26  27
ATOM     27  C   UNL     1      24.695  24.556  27.142  1.00  0.00    -0.000 C 
BRANCH  27  28
ATOM     28  C   UNL     1      24.772  24.932  25.655  1.00  0.00    -0.000 C 
BRANCH  28  29
ATOM     29  C   UNL     1      25.180  26.396  25.438  1.00  0.00    -0.003 C 
ATOM     30  C   UNL     1      25.140  26.810  23.968  1.00  0.00     0.004 C 
ENDBRANCH  28  29
ENDBRANCH  27  28
ENDBRANCH  26  27
ENDBRANCH  25  26
ENDBRANCH  24  25
ENDBRANCH  23  24
ENDBRANCH  22  23
ENDBRANCH  21  22
ENDBRANCH  20  21
ENDBRANCH  19  20
ENDBRANCH  18  19
ENDBRANCH  17  18
ENDBRANCH   1  17
TORSDOF 26
ENDMDL
