MODEL 1
REMARK VINA RESULT:     7.090      0.000      0.000
REMARK INTER + INTRA:          10.462
REMARK INTER:                   9.784
REMARK INTRA:                   0.678
REMARK UNBOUND:                 0.678
REMARK SMILES CC[C@@H](CC[C@@H](C)[C@@H]1CC[C@@H]2[C@@H]3CC=C4C[C@H](O)CC[C@]4(C)[C@@H]3CC[C@]21C)C(C)C
REMARK SMILES IDX 5 1 4 2 3 3 2 4 1 5 28 6 29 7 30 8 6 9 7 10 8 11 9 12 26 13
REMARK SMILES IDX 10 14 11 15 25 16 27 17 12 18 24 19 23 20 13 21 21 22 14 23
REMARK SMILES IDX 15 24 20 25 22 26 16 27 19 28 17 29 18 30
REMARK H PARENT 18 31
REMARK Flexibility Score: inf
ROOT
ATOM      1  C   UNL     1      79.311  34.308  51.988  1.00  0.00     0.004 C 
ENDROOT
BRANCH   1   2
ATOM      2  C   UNL     1      80.716  33.893  51.496  1.00  0.00     0.004 C 
BRANCH   2   3
ATOM      3  C   UNL     1      80.844  32.370  51.205  1.00  0.00    -0.009 C 
BRANCH   3   4
ATOM      4  C   UNL     1      80.524  32.072  49.713  1.00  0.00     0.000 C 
ATOM      5  C   UNL     1      80.990  33.182  48.765  1.00  0.00     0.004 C 
ENDBRANCH   3   4
BRANCH   3   6
ATOM      6  C   UNL     1      79.984  31.498  52.184  1.00  0.00    -0.014 C 
ATOM      7  C   UNL     1      80.370  31.674  53.663  1.00  0.00     0.007 C 
ATOM      8  C   UNL     1      78.476  31.735  51.996  1.00  0.00     0.007 C 
ENDBRANCH   3   6
ENDBRANCH   2   3
ENDBRANCH   1   2
BRANCH   1   9
ATOM      9  C   UNL     1      78.629  35.419  51.146  1.00  0.00    -0.011 C 
ATOM     10  C   UNL     1      79.481  35.759  49.902  1.00  0.00     0.008 C 
BRANCH   9  11
ATOM     11  C   UNL     1      77.108  35.124  50.881  1.00  0.00    -0.002 C 
ATOM     12  C   UNL     1      76.337  36.125  49.980  1.00  0.00     0.005 C 
ATOM     13  C   UNL     1      76.194  34.947  52.126  1.00  0.00    -0.026 C 
ATOM     14  C   UNL     1      74.855  36.034  50.393  1.00  0.00     0.005 C 
ATOM     15  C   UNL     1      74.820  34.925  51.442  1.00  0.00    -0.001 C 
ATOM     16  C   UNL     1      76.362  33.598  52.855  1.00  0.00     0.007 C 
ATOM     17  C   UNL     1      76.383  36.125  53.125  1.00  0.00     0.012 C 
ATOM     18  C   UNL     1      73.600  34.777  52.380  1.00  0.00     0.000 C 
ATOM     19  C   UNL     1      75.222  33.353  53.871  1.00  0.00     0.005 C 
ATOM     20  C   UNL     1      73.772  33.505  53.290  1.00  0.00     0.003 C 
ATOM     21  C   UNL     1      73.154  36.070  53.130  1.00  0.00     0.031 C 
ATOM     22  C   UNL     1      72.652  33.461  54.398  1.00  0.00    -0.008 C 
ATOM     23  C   UNL     1      73.006  35.920  54.623  1.00  0.00    -0.027 C 
ATOM     24  C   UNL     1      72.717  34.746  55.216  1.00  0.00    -0.065 C 
ATOM     25  C   UNL     1      72.838  32.238  55.352  1.00  0.00     0.014 C 
ATOM     26  C   UNL     1      71.255  33.346  53.730  1.00  0.00     0.016 C 
ATOM     27  C   UNL     1      72.602  34.681  56.724  1.00  0.00     0.063 C 
ATOM     28  C   UNL     1      71.861  32.224  56.548  1.00  0.00     0.033 C 
ATOM     29  C   UNL     1      71.564  33.624  57.141  1.00  0.00     0.118 C 
BRANCH  29  30
ATOM     30  O   UNL     1      71.515  33.533  58.542  1.00  0.00    -0.393 OA
ATOM     31  H   UNL     1      72.161  32.828  58.808  1.00  0.00     0.210 HD
ENDBRANCH  29  30
ENDBRANCH   9  11
ENDBRANCH   1   9
TORSDOF 7
ENDMDL
MODEL 2
REMARK VINA RESULT:     8.734      1.448      2.859
REMARK INTER + INTRA:          12.731
REMARK INTER:                  13.148
REMARK INTRA:                  -0.417
REMARK UNBOUND:                 0.678
REMARK SMILES CC[C@@H](CC[C@@H](C)[C@@H]1CC[C@@H]2[C@@H]3CC=C4C[C@H](O)CC[C@]4(C)[C@@H]3CC[C@]21C)C(C)C
REMARK SMILES IDX 5 1 4 2 3 3 2 4 1 5 28 6 29 7 30 8 6 9 7 10 8 11 9 12 26 13
REMARK SMILES IDX 10 14 11 15 25 16 27 17 12 18 24 19 23 20 13 21 21 22 14 23
REMARK SMILES IDX 15 24 20 25 22 26 16 27 19 28 17 29 18 30
REMARK H PARENT 18 31
REMARK Flexibility Score: inf
ROOT
ATOM      1  C   UNL     1      78.263  35.951  50.193  1.00  0.00     0.004 C 
ENDROOT
BRANCH   1   2
ATOM      2  C   UNL     1      79.472  36.125  51.140  1.00  0.00     0.004 C 
BRANCH   2   3
ATOM      3  C   UNL     1      80.398  34.875  51.196  1.00  0.00    -0.009 C 
BRANCH   3   4
ATOM      4  C   UNL     1      79.987  33.845  50.105  1.00  0.00     0.000 C 
ATOM      5  C   UNL     1      80.946  33.820  48.911  1.00  0.00     0.004 C 
ENDBRANCH   3   4
BRANCH   3   6
ATOM      6  C   UNL     1      80.457  34.236  52.626  1.00  0.00    -0.014 C 
ATOM      7  C   UNL     1      80.905  32.765  52.623  1.00  0.00     0.007 C 
ATOM      8  C   UNL     1      81.331  35.055  53.591  1.00  0.00     0.007 C 
ENDBRANCH   3   6
ENDBRANCH   2   3
ENDBRANCH   1   2
BRANCH   1   9
ATOM      9  C   UNL     1      76.877  36.047  50.885  1.00  0.00    -0.011 C 
ATOM     10  C   UNL     1      75.748  36.125  49.834  1.00  0.00     0.008 C 
BRANCH   9  11
ATOM     11  C   UNL     1      76.695  34.970  52.016  1.00  0.00    -0.002 C 
ATOM     12  C   UNL     1      77.071  33.505  51.668  1.00  0.00     0.005 C 
ATOM     13  C   UNL     1      75.289  34.859  52.669  1.00  0.00    -0.026 C 
ATOM     14  C   UNL     1      76.234  32.605  52.597  1.00  0.00     0.005 C 
ATOM     15  C   UNL     1      75.485  33.583  53.499  1.00  0.00    -0.001 C 
ATOM     16  C   UNL     1      74.950  35.996  53.654  1.00  0.00     0.007 C 
ATOM     17  C   UNL     1      74.181  34.740  51.583  1.00  0.00     0.012 C 
ATOM     18  C   UNL     1      74.257  33.110  54.313  1.00  0.00     0.000 C 
ATOM     19  C   UNL     1      73.697  35.666  54.498  1.00  0.00     0.005 C 
ATOM     20  C   UNL     1      73.737  34.278  55.229  1.00  0.00     0.003 C 
ATOM     21  C   UNL     1      73.152  32.360  53.507  1.00  0.00     0.031 C 
ATOM     22  C   UNL     1      72.363  33.889  55.897  1.00  0.00    -0.008 C 
ATOM     23  C   UNL     1      71.756  32.902  53.687  1.00  0.00    -0.027 C 
ATOM     24  C   UNL     1      71.361  33.551  54.799  1.00  0.00    -0.065 C 
ATOM     25  C   UNL     1      71.796  35.057  56.765  1.00  0.00     0.014 C 
ATOM     26  C   UNL     1      72.557  32.653  56.816  1.00  0.00     0.016 C 
ATOM     27  C   UNL     1      69.944  34.077  54.891  1.00  0.00     0.063 C 
ATOM     28  C   UNL     1      70.382  34.792  57.323  1.00  0.00     0.033 C 
ATOM     29  C   UNL     1      69.446  34.035  56.347  1.00  0.00     0.118 C 
BRANCH  29  30
ATOM     30  O   UNL     1      68.155  34.584  56.423  1.00  0.00    -0.393 OA
ATOM     31  H   UNL     1      68.032  34.903  57.354  1.00  0.00     0.210 HD
ENDBRANCH  29  30
ENDBRANCH   9  11
ENDBRANCH   1   9
TORSDOF 7
ENDMDL
MODEL 3
REMARK VINA RESULT:     9.315      1.050      1.815
REMARK INTER + INTRA:          13.532
REMARK INTER:                  12.220
REMARK INTRA:                   1.312
REMARK UNBOUND:                 0.678
REMARK SMILES CC[C@@H](CC[C@@H](C)[C@@H]1CC[C@@H]2[C@@H]3CC=C4C[C@H](O)CC[C@]4(C)[C@@H]3CC[C@]21C)C(C)C
REMARK SMILES IDX 5 1 4 2 3 3 2 4 1 5 28 6 29 7 30 8 6 9 7 10 8 11 9 12 26 13
REMARK SMILES IDX 10 14 11 15 25 16 27 17 12 18 24 19 23 20 13 21 21 22 14 23
REMARK SMILES IDX 15 24 20 25 22 26 16 27 19 28 17 29 18 30
REMARK H PARENT 18 31
REMARK Flexibility Score: inf
ROOT
ATOM      1  C   UNL     1      79.451  33.973  51.398  1.00  0.00     0.004 C 
ENDROOT
BRANCH   1   2
ATOM      2  C   UNL     1      80.995  34.015  51.454  1.00  0.00     0.004 C 
BRANCH   2   3
ATOM      3  C   UNL     1      81.572  33.653  52.854  1.00  0.00    -0.009 C 
BRANCH   3   4
ATOM      4  C   UNL     1      80.937  32.334  53.379  1.00  0.00     0.000 C 
ATOM      5  C   UNL     1      79.735  31.873  52.549  1.00  0.00     0.004 C 
ENDBRANCH   3   4
BRANCH   3   6
ATOM      6  C   UNL     1      81.435  34.830  53.881  1.00  0.00    -0.014 C 
ATOM      7  C   UNL     1      82.685  35.724  53.960  1.00  0.00     0.007 C 
ATOM      8  C   UNL     1      80.186  35.686  53.617  1.00  0.00     0.007 C 
ENDBRANCH   3   6
ENDBRANCH   2   3
ENDBRANCH   1   2
BRANCH   1   9
ATOM      9  C   UNL     1      78.792  35.213  50.736  1.00  0.00    -0.011 C 
ATOM     10  C   UNL     1      79.595  35.659  49.493  1.00  0.00     0.008 C 
BRANCH   9  11
ATOM     11  C   UNL     1      77.244  35.032  50.530  1.00  0.00    -0.002 C 
ATOM     12  C   UNL     1      76.504  36.125  49.714  1.00  0.00     0.005 C 
ATOM     13  C   UNL     1      76.376  34.855  51.807  1.00  0.00    -0.026 C 
ATOM     14  C   UNL     1      75.039  36.112  50.191  1.00  0.00     0.005 C 
ATOM     15  C   UNL     1      74.975  34.957  51.188  1.00  0.00    -0.001 C 
ATOM     16  C   UNL     1      76.483  33.463  52.465  1.00  0.00     0.007 C 
ATOM     17  C   UNL     1      76.688  35.967  52.850  1.00  0.00     0.012 C 
ATOM     18  C   UNL     1      73.790  34.843  52.176  1.00  0.00     0.000 C 
ATOM     19  C   UNL     1      75.375  33.244  53.521  1.00  0.00     0.005 C 
ATOM     20  C   UNL     1      73.915  33.520  53.017  1.00  0.00     0.003 C 
ATOM     21  C   UNL     1      73.466  36.125  53.004  1.00  0.00     0.031 C 
ATOM     22  C   UNL     1      72.844  33.495  54.173  1.00  0.00    -0.008 C 
ATOM     23  C   UNL     1      73.374  35.912  54.494  1.00  0.00    -0.027 C 
ATOM     24  C   UNL     1      73.032  34.731  55.045  1.00  0.00    -0.065 C 
ATOM     25  C   UNL     1      72.988  32.217  55.060  1.00  0.00     0.014 C 
ATOM     26  C   UNL     1      71.415  33.505  53.567  1.00  0.00     0.016 C 
ATOM     27  C   UNL     1      72.980  34.599  56.552  1.00  0.00     0.063 C 
ATOM     28  C   UNL     1      72.066  32.208  56.298  1.00  0.00     0.033 C 
ATOM     29  C   UNL     1      71.891  33.594  56.968  1.00  0.00     0.118 C 
BRANCH  29  30
ATOM     30  O   UNL     1      71.898  33.438  58.365  1.00  0.00    -0.393 OA
ATOM     31  H   UNL     1      71.075  32.938  58.603  1.00  0.00     0.210 HD
ENDBRANCH  29  30
ENDBRANCH   9  11
ENDBRANCH   1   9
TORSDOF 7
ENDMDL
MODEL 4
REMARK VINA RESULT:     9.595      0.531      1.696
REMARK INTER + INTRA:          13.919
REMARK INTER:                  13.320
REMARK INTRA:                   0.599
REMARK UNBOUND:                 0.678
REMARK SMILES CC[C@@H](CC[C@@H](C)[C@@H]1CC[C@@H]2[C@@H]3CC=C4C[C@H](O)CC[C@]4(C)[C@@H]3CC[C@]21C)C(C)C
REMARK SMILES IDX 5 1 4 2 3 3 2 4 1 5 28 6 29 7 30 8 6 9 7 10 8 11 9 12 26 13
REMARK SMILES IDX 10 14 11 15 25 16 27 17 12 18 24 19 23 20 13 21 21 22 14 23
REMARK SMILES IDX 15 24 20 25 22 26 16 27 19 28 17 29 18 30
REMARK H PARENT 18 31
REMARK Flexibility Score: inf
ROOT
ATOM      1  C   UNL     1      79.199  34.646  52.480  1.00  0.00     0.004 C 
ENDROOT
BRANCH   1   2
ATOM      2  C   UNL     1      80.324  33.608  52.271  1.00  0.00     0.004 C 
BRANCH   2   3
ATOM      3  C   UNL     1      79.864  32.350  51.478  1.00  0.00    -0.009 C 
BRANCH   3   4
ATOM      4  C   UNL     1      79.629  31.154  52.445  1.00  0.00     0.000 C 
ATOM      5  C   UNL     1      78.171  31.021  52.894  1.00  0.00     0.004 C 
ENDBRANCH   3   4
BRANCH   3   6
ATOM      6  C   UNL     1      80.843  31.986  50.309  1.00  0.00    -0.014 C 
ATOM      7  C   UNL     1      80.312  32.379  48.920  1.00  0.00     0.007 C 
ATOM      8  C   UNL     1      82.248  32.573  50.527  1.00  0.00     0.007 C 
ENDBRANCH   3   6
ENDBRANCH   2   3
ENDBRANCH   1   2
BRANCH   1   9
ATOM      9  C   UNL     1      78.710  35.344  51.182  1.00  0.00    -0.011 C 
ATOM     10  C   UNL     1      79.670  35.048  50.009  1.00  0.00     0.008 C 
BRANCH   9  11
ATOM     11  C   UNL     1      77.183  35.092  50.905  1.00  0.00    -0.002 C 
ATOM     12  C   UNL     1      76.445  36.122  50.009  1.00  0.00     0.005 C 
ATOM     13  C   UNL     1      76.256  34.928  52.142  1.00  0.00    -0.026 C 
ATOM     14  C   UNL     1      74.958  36.067  50.410  1.00  0.00     0.005 C 
ATOM     15  C   UNL     1      74.887  34.950  51.448  1.00  0.00    -0.001 C 
ATOM     16  C   UNL     1      76.382  33.568  52.859  1.00  0.00     0.007 C 
ATOM     17  C   UNL     1      76.469  36.091  53.153  1.00  0.00     0.012 C 
ATOM     18  C   UNL     1      73.656  34.825  52.377  1.00  0.00     0.000 C 
ATOM     19  C   UNL     1      75.229  33.344  53.865  1.00  0.00     0.005 C 
ATOM     20  C   UNL     1      73.788  33.541  53.276  1.00  0.00     0.003 C 
ATOM     21  C   UNL     1      73.240  36.123  53.136  1.00  0.00     0.031 C 
ATOM     22  C   UNL     1      72.659  33.516  54.376  1.00  0.00    -0.008 C 
ATOM     23  C   UNL     1      73.078  35.963  54.627  1.00  0.00    -0.027 C 
ATOM     24  C   UNL     1      72.753  34.790  55.206  1.00  0.00    -0.065 C 
ATOM     25  C   UNL     1      72.806  32.280  55.319  1.00  0.00     0.014 C 
ATOM     26  C   UNL     1      71.265  33.445  53.697  1.00  0.00     0.016 C 
ATOM     27  C   UNL     1      72.626  34.715  56.713  1.00  0.00     0.063 C 
ATOM     28  C   UNL     1      71.821  32.280  56.508  1.00  0.00     0.033 C 
ATOM     29  C   UNL     1      71.556  33.682  57.112  1.00  0.00     0.118 C 
BRANCH  29  30
ATOM     30  O   UNL     1      71.496  33.579  58.512  1.00  0.00    -0.393 OA
ATOM     31  H   UNL     1      71.480  34.505  58.869  1.00  0.00     0.210 HD
ENDBRANCH  29  30
ENDBRANCH   9  11
ENDBRANCH   1   9
TORSDOF 7
ENDMDL
MODEL 5
REMARK VINA RESULT:     9.656      2.655      8.017
REMARK INTER + INTRA:          14.002
REMARK INTER:                  13.135
REMARK INTRA:                   0.868
REMARK UNBOUND:                 0.678
REMARK SMILES CC[C@@H](CC[C@@H](C)[C@@H]1CC[C@@H]2[C@@H]3CC=C4C[C@H](O)CC[C@]4(C)[C@@H]3CC[C@]21C)C(C)C
REMARK SMILES IDX 5 1 4 2 3 3 2 4 1 5 28 6 29 7 30 8 6 9 7 10 8 11 9 12 26 13
REMARK SMILES IDX 10 14 11 15 25 16 27 17 12 18 24 19 23 20 13 21 21 22 14 23
REMARK SMILES IDX 15 24 20 25 22 26 16 27 19 28 17 29 18 30
REMARK H PARENT 18 31
REMARK Flexibility Score: inf
ROOT
ATOM      1  C   UNL     1      71.952  34.108  54.402  1.00  0.00     0.004 C 
ENDROOT
BRANCH   1   2
ATOM      2  C   UNL     1      72.472  33.258  55.583  1.00  0.00     0.004 C 
BRANCH   2   3
ATOM      3  C   UNL     1      71.758  33.568  56.931  1.00  0.00    -0.009 C 
BRANCH   3   4
ATOM      4  C   UNL     1      72.224  32.577  58.034  1.00  0.00     0.000 C 
ATOM      5  C   UNL     1      73.398  33.107  58.862  1.00  0.00     0.004 C 
ENDBRANCH   3   4
BRANCH   3   6
ATOM      6  C   UNL     1      70.197  33.608  56.787  1.00  0.00    -0.014 C 
ATOM      7  C   UNL     1      69.461  32.767  57.844  1.00  0.00     0.007 C 
ATOM      8  C   UNL     1      69.653  35.047  56.779  1.00  0.00     0.007 C 
ENDBRANCH   3   6
ENDBRANCH   2   3
ENDBRANCH   1   2
BRANCH   1   9
ATOM      9  C   UNL     1      72.281  35.622  54.498  1.00  0.00    -0.011 C 
ATOM     10  C   UNL     1      72.790  35.981  55.912  1.00  0.00     0.008 C 
BRANCH   9  11
ATOM     11  C   UNL     1      73.166  36.122  53.299  1.00  0.00    -0.002 C 
ATOM     12  C   UNL     1      72.582  35.960  51.871  1.00  0.00     0.005 C 
ATOM     13  C   UNL     1      74.605  35.544  53.192  1.00  0.00    -0.026 C 
ATOM     14  C   UNL     1      73.786  35.874  50.912  1.00  0.00     0.005 C 
ATOM     15  C   UNL     1      75.002  36.083  51.811  1.00  0.00    -0.001 C 
ATOM     16  C   UNL     1      75.605  36.124  54.213  1.00  0.00     0.007 C 
ATOM     17  C   UNL     1      74.587  33.990  53.281  1.00  0.00     0.012 C 
ATOM     18  C   UNL     1      76.415  35.695  51.315  1.00  0.00     0.000 C 
ATOM     19  C   UNL     1      77.064  35.758  53.855  1.00  0.00     0.005 C 
ATOM     20  C   UNL     1      77.493  36.103  52.386  1.00  0.00     0.003 C 
ATOM     21  C   UNL     1      76.565  34.252  50.742  1.00  0.00     0.031 C 
ATOM     22  C   UNL     1      78.906  35.521  51.999  1.00  0.00    -0.008 C 
ATOM     23  C   UNL     1      77.689  33.445  51.341  1.00  0.00    -0.027 C 
ATOM     24  C   UNL     1      78.795  34.007  51.866  1.00  0.00    -0.065 C 
ATOM     25  C   UNL     1      79.981  35.862  53.080  1.00  0.00     0.014 C 
ATOM     26  C   UNL     1      79.371  36.125  50.646  1.00  0.00     0.016 C 
ATOM     27  C   UNL     1      79.870  33.122  52.462  1.00  0.00     0.063 C 
ATOM     28  C   UNL     1      81.350  35.193  52.833  1.00  0.00     0.033 C 
ATOM     29  C   UNL     1      81.259  33.754  52.265  1.00  0.00     0.118 C 
BRANCH  29  30
ATOM     30  O   UNL     1      82.236  32.951  52.877  1.00  0.00    -0.393 OA
ATOM     31  H   UNL     1      82.468  32.234  52.232  1.00  0.00     0.210 HD
ENDBRANCH  29  30
ENDBRANCH   9  11
ENDBRANCH   1   9
TORSDOF 7
ENDMDL
MODEL 6
REMARK VINA RESULT:     9.702     13.019     16.897
REMARK INTER + INTRA:          14.067
REMARK INTER:                  12.468
REMARK INTRA:                   1.598
REMARK UNBOUND:                 0.678
REMARK SMILES CC[C@@H](CC[C@@H](C)[C@@H]1CC[C@@H]2[C@@H]3CC=C4C[C@H](O)CC[C@]4(C)[C@@H]3CC[C@]21C)C(C)C
REMARK SMILES IDX 5 1 4 2 3 3 2 4 1 5 28 6 29 7 30 8 6 9 7 10 8 11 9 12 26 13
REMARK SMILES IDX 10 14 11 15 25 16 27 17 12 18 24 19 23 20 13 21 21 22 14 23
REMARK SMILES IDX 15 24 20 25 22 26 16 27 19 28 17 29 18 30
REMARK H PARENT 18 31
REMARK Flexibility Score: inf
ROOT
ATOM      1  C   UNL     1      83.983  33.207  63.633  1.00  0.00     0.004 C 
ENDROOT
BRANCH   1   2
ATOM      2  C   UNL     1      85.427  33.758  63.632  1.00  0.00     0.004 C 
BRANCH   2   3
ATOM      3  C   UNL     1      85.498  35.307  63.507  1.00  0.00    -0.009 C 
BRANCH   3   4
ATOM      4  C   UNL     1      85.066  35.758  62.082  1.00  0.00     0.000 C 
ATOM      5  C   UNL     1      84.867  34.586  61.116  1.00  0.00     0.004 C 
ENDBRANCH   3   4
BRANCH   3   6
ATOM      6  C   UNL     1      86.900  35.879  63.912  1.00  0.00    -0.014 C 
ATOM      7  C   UNL     1      87.628  35.028  64.967  1.00  0.00     0.007 C 
ATOM      8  C   UNL     1      87.808  36.103  62.692  1.00  0.00     0.007 C 
ENDBRANCH   3   6
ENDBRANCH   2   3
ENDBRANCH   1   2
BRANCH   1   9
ATOM      9  C   UNL     1      83.466  32.743  65.021  1.00  0.00    -0.011 C 
ATOM     10  C   UNL     1      82.006  32.248  64.921  1.00  0.00     0.008 C 
BRANCH   9  11
ATOM     11  C   UNL     1      84.474  31.778  65.745  1.00  0.00    -0.002 C 
ATOM     12  C   UNL     1      85.713  32.423  66.421  1.00  0.00     0.005 C 
ATOM     13  C   UNL     1      85.061  30.608  64.907  1.00  0.00    -0.026 C 
ATOM     14  C   UNL     1      86.809  31.340  66.452  1.00  0.00     0.005 C 
ATOM     15  C   UNL     1      86.130  30.096  65.882  1.00  0.00    -0.001 C 
ATOM     16  C   UNL     1      84.078  29.445  64.656  1.00  0.00     0.007 C 
ATOM     17  C   UNL     1      85.635  31.126  63.557  1.00  0.00     0.012 C 
ATOM     18  C   UNL     1      86.978  28.901  65.389  1.00  0.00     0.000 C 
ATOM     19  C   UNL     1      84.802  28.195  64.105  1.00  0.00     0.005 C 
ATOM     20  C   UNL     1      86.037  27.719  64.948  1.00  0.00     0.003 C 
ATOM     21  C   UNL     1      88.123  29.243  64.387  1.00  0.00     0.031 C 
ATOM     22  C   UNL     1      86.870  26.583  64.241  1.00  0.00    -0.008 C 
ATOM     23  C   UNL     1      88.125  28.425  63.120  1.00  0.00    -0.027 C 
ATOM     24  C   UNL     1      87.610  27.182  63.050  1.00  0.00    -0.065 C 
ATOM     25  C   UNL     1      85.949  25.425  63.739  1.00  0.00     0.014 C 
ATOM     26  C   UNL     1      87.898  25.985  65.239  1.00  0.00     0.016 C 
ATOM     27  C   UNL     1      87.639  26.437  61.733  1.00  0.00     0.063 C 
ATOM     28  C   UNL     1      86.687  24.355  62.907  1.00  0.00     0.033 C 
ATOM     29  C   UNL     1      87.785  24.923  61.973  1.00  0.00     0.118 C 
BRANCH  29  30
ATOM     30  O   UNL     1      87.747  24.242  60.745  1.00  0.00    -0.393 OA
ATOM     31  H   UNL     1      88.686  24.039  60.498  1.00  0.00     0.210 HD
ENDBRANCH  29  30
ENDBRANCH   9  11
ENDBRANCH   1   9
TORSDOF 7
ENDMDL
