MODEL 1
REMARK VINA RESULT:    -3.419      0.000      0.000
REMARK INTER + INTRA:          -8.618
REMARK INTER:                  -6.218
REMARK INTRA:                  -2.400
REMARK UNBOUND:                -2.400
REMARK SMILES CCCCCCCCCCCCCCCC(=O)[O-]
REMARK SMILES IDX 9 1 10 2 11 3 12 4 13 5 14 6 15 7 16 8 17 9 18 10 8 11 7 12
REMARK SMILES IDX 6 13 5 14 4 15 3 16 2 17 1 18
REMARK H PARENT
REMARK Flexibility Score: inf
ROOT
ATOM      1  C   UNL     1      41.179  22.065 225.162  1.00  0.00     0.000 C 
ENDROOT
BRANCH   1   2
ATOM      2  C   UNL     1      40.466  23.261 224.504  1.00  0.00     0.000 C 
BRANCH   2   3
ATOM      3  C   UNL     1      41.158  23.830 223.252  1.00  0.00     0.000 C 
BRANCH   3   4
ATOM      4  C   UNL     1      40.165  24.280 222.168  1.00  0.00     0.000 C 
BRANCH   4   5
ATOM      5  C   UNL     1      38.698  24.145 222.612  1.00  0.00     0.000 C 
BRANCH   5   6
ATOM      6  C   UNL     1      37.917  23.056 221.846  1.00  0.00     0.006 C 
BRANCH   6   7
ATOM      7  C   UNL     1      36.532  22.802 222.456  1.00  0.00     0.053 C 
BRANCH   7   8
ATOM      8  C   UNL     1      35.603  23.930 222.135  1.00  0.00     0.041 C 
ATOM      9  O   UNL     1      35.389  24.252 220.936  1.00  0.00    -0.550 OA
ATOM     10  O   UNL     1      34.933  24.591 223.156  1.00  0.00    -0.550 OA
ENDBRANCH   7   8
ENDBRANCH   6   7
ENDBRANCH   5   6
ENDBRANCH   4   5
ENDBRANCH   3   4
ENDBRANCH   2   3
ENDBRANCH   1   2
BRANCH   1  11
ATOM     11  C   UNL     1      40.330  20.785 225.163  1.00  0.00     0.000 C 
BRANCH  11  12
ATOM     12  C   UNL     1      39.760  20.505 223.765  1.00  0.00    -0.000 C 
BRANCH  12  13
ATOM     13  C   UNL     1      40.719  19.688 222.881  1.00  0.00    -0.000 C 
BRANCH  13  14
ATOM     14  C   UNL     1      41.274  20.440 221.655  1.00  0.00    -0.000 C 
BRANCH  14  15
ATOM     15  C   UNL     1      42.718  20.961 221.807  1.00  0.00    -0.000 C 
BRANCH  15  16
ATOM     16  C   UNL     1      43.708  19.963 222.440  1.00  0.00    -0.000 C 
BRANCH  16  17
ATOM     17  C   UNL     1      44.272  20.391 223.806  1.00  0.00    -0.003 C 
ATOM     18  C   UNL     1      43.837  19.472 224.946  1.00  0.00     0.004 C 
ENDBRANCH  16  17
ENDBRANCH  15  16
ENDBRANCH  14  15
ENDBRANCH  13  14
ENDBRANCH  12  13
ENDBRANCH  11  12
ENDBRANCH   1  11
TORSDOF 14
ENDMDL
MODEL 2
REMARK VINA RESULT:    -3.379      2.890      6.323
REMARK INTER + INTRA:          -8.544
REMARK INTER:                  -7.128
REMARK INTRA:                  -1.416
REMARK UNBOUND:                -2.400
REMARK SMILES CCCCCCCCCCCCCCCC(=O)[O-]
REMARK SMILES IDX 9 1 10 2 11 3 12 4 13 5 14 6 15 7 16 8 17 9 18 10 8 11 7 12
REMARK SMILES IDX 6 13 5 14 4 15 3 16 2 17 1 18
REMARK H PARENT
REMARK Flexibility Score: inf
ROOT
ATOM      1  C   UNL     1      39.061  24.289 224.040  1.00  0.00     0.000 C 
ENDROOT
BRANCH   1   2
ATOM      2  C   UNL     1      39.332  24.483 222.537  1.00  0.00     0.000 C 
BRANCH   2   3
ATOM      3  C   UNL     1      39.849  23.235 221.797  1.00  0.00     0.000 C 
BRANCH   3   4
ATOM      4  C   UNL     1      41.220  22.761 222.303  1.00  0.00     0.000 C 
BRANCH   4   5
ATOM      5  C   UNL     1      41.724  21.504 221.571  1.00  0.00     0.000 C 
BRANCH   5   6
ATOM      6  C   UNL     1      41.074  20.196 222.069  1.00  0.00     0.006 C 
BRANCH   6   7
ATOM      7  C   UNL     1      41.109  20.079 223.598  1.00  0.00     0.053 C 
BRANCH   7   8
ATOM      8  C   UNL     1      39.746  19.771 224.132  1.00  0.00     0.041 C 
ATOM      9  O   UNL     1      38.920  20.700 224.331  1.00  0.00    -0.550 OA
ATOM     10  O   UNL     1      39.369  18.454 224.360  1.00  0.00    -0.550 OA
ENDBRANCH   7   8
ENDBRANCH   6   7
ENDBRANCH   5   6
ENDBRANCH   4   5
ENDBRANCH   3   4
ENDBRANCH   2   3
ENDBRANCH   1   2
BRANCH   1  11
ATOM     11  C   UNL     1      37.621  24.640 224.442  1.00  0.00     0.000 C 
BRANCH  11  12
ATOM     12  C   UNL     1      36.615  23.715 223.740  1.00  0.00    -0.000 C 
BRANCH  12  13
ATOM     13  C   UNL     1      35.525  24.488 222.976  1.00  0.00    -0.000 C 
BRANCH  13  14
ATOM     14  C   UNL     1      35.135  23.886 221.612  1.00  0.00    -0.000 C 
BRANCH  14  15
ATOM     15  C   UNL     1      36.028  24.315 220.429  1.00  0.00    -0.000 C 
BRANCH  15  16
ATOM     16  C   UNL     1      35.401  24.119 219.035  1.00  0.00    -0.000 C 
BRANCH  16  17
ATOM     17  C   UNL     1      36.335  23.485 217.990  1.00  0.00    -0.003 C 
ATOM     18  C   UNL     1      37.658  23.007 218.585  1.00  0.00     0.004 C 
ENDBRANCH  16  17
ENDBRANCH  15  16
ENDBRANCH  14  15
ENDBRANCH  13  14
ENDBRANCH  12  13
ENDBRANCH  11  12
ENDBRANCH   1  11
TORSDOF 14
ENDMDL
MODEL 3
REMARK VINA RESULT:    -3.356      2.017      3.312
REMARK INTER + INTRA:          -8.502
REMARK INTER:                  -6.263
REMARK INTRA:                  -2.239
REMARK UNBOUND:                -2.400
REMARK SMILES CCCCCCCCCCCCCCCC(=O)[O-]
REMARK SMILES IDX 9 1 10 2 11 3 12 4 13 5 14 6 15 7 16 8 17 9 18 10 8 11 7 12
REMARK SMILES IDX 6 13 5 14 4 15 3 16 2 17 1 18
REMARK H PARENT
REMARK Flexibility Score: inf
ROOT
ATOM      1  C   UNL     1      39.368  25.189 224.564  1.00  0.00     0.000 C 
ENDROOT
BRANCH   1   2
ATOM      2  C   UNL     1      38.179  24.690 225.407  1.00  0.00     0.000 C 
BRANCH   2   3
ATOM      3  C   UNL     1      37.655  23.290 225.038  1.00  0.00     0.000 C 
BRANCH   3   4
ATOM      4  C   UNL     1      37.106  23.211 223.605  1.00  0.00     0.000 C 
BRANCH   4   5
ATOM      5  C   UNL     1      36.055  24.295 223.309  1.00  0.00     0.000 C 
BRANCH   5   6
ATOM      6  C   UNL     1      35.650  24.375 221.822  1.00  0.00     0.006 C 
BRANCH   6   7
ATOM      7  C   UNL     1      36.201  23.197 221.009  1.00  0.00     0.053 C 
BRANCH   7   8
ATOM      8  C   UNL     1      36.500  23.623 219.606  1.00  0.00     0.041 C 
ATOM      9  O   UNL     1      37.567  23.255 219.047  1.00  0.00    -0.550 OA
ATOM     10  O   UNL     1      35.577  24.381 218.897  1.00  0.00    -0.550 OA
ENDBRANCH   7   8
ENDBRANCH   6   7
ENDBRANCH   5   6
ENDBRANCH   4   5
ENDBRANCH   3   4
ENDBRANCH   2   3
ENDBRANCH   1   2
BRANCH   1  11
ATOM     11  C   UNL     1      40.679  24.454 224.880  1.00  0.00     0.000 C 
BRANCH  11  12
ATOM     12  C   UNL     1      41.360  23.971 223.590  1.00  0.00    -0.000 C 
BRANCH  12  13
ATOM     13  C   UNL     1      40.420  24.002 222.371  1.00  0.00    -0.000 C 
BRANCH  13  14
ATOM     14  C   UNL     1      40.113  22.625 221.751  1.00  0.00    -0.000 C 
BRANCH  14  15
ATOM     15  C   UNL     1      41.270  21.607 221.813  1.00  0.00    -0.000 C 
BRANCH  15  16
ATOM     16  C   UNL     1      40.945  20.295 222.555  1.00  0.00    -0.000 C 
BRANCH  16  17
ATOM     17  C   UNL     1      39.878  20.423 223.656  1.00  0.00    -0.003 C 
ATOM     18  C   UNL     1      40.474  20.686 225.037  1.00  0.00     0.004 C 
ENDBRANCH  16  17
ENDBRANCH  15  16
ENDBRANCH  14  15
ENDBRANCH  13  14
ENDBRANCH  12  13
ENDBRANCH  11  12
ENDBRANCH   1  11
TORSDOF 14
ENDMDL
MODEL 4
REMARK VINA RESULT:    -3.328      3.281      6.506
REMARK INTER + INTRA:          -8.452
REMARK INTER:                  -6.911
REMARK INTRA:                  -1.541
REMARK UNBOUND:                -2.400
REMARK SMILES CCCCCCCCCCCCCCCC(=O)[O-]
REMARK SMILES IDX 9 1 10 2 11 3 12 4 13 5 14 6 15 7 16 8 17 9 18 10 8 11 7 12
REMARK SMILES IDX 6 13 5 14 4 15 3 16 2 17 1 18
REMARK H PARENT
REMARK Flexibility Score: inf
ROOT
ATOM      1  C   UNL     1      39.975  22.516 221.687  1.00  0.00     0.000 C 
ENDROOT
BRANCH   1   2
ATOM      2  C   UNL     1      41.426  22.191 222.089  1.00  0.00     0.000 C 
BRANCH   2   3
ATOM      3  C   UNL     1      41.944  20.818 221.623  1.00  0.00     0.000 C 
BRANCH   3   4
ATOM      4  C   UNL     1      41.056  19.651 222.084  1.00  0.00     0.000 C 
BRANCH   4   5
ATOM      5  C   UNL     1      40.967  19.539 223.615  1.00  0.00     0.000 C 
BRANCH   5   6
ATOM      6  C   UNL     1      39.529  19.658 224.163  1.00  0.00     0.006 C 
BRANCH   6   7
ATOM      7  C   UNL     1      39.497  19.711 225.696  1.00  0.00     0.053 C 
BRANCH   7   8
ATOM      8  C   UNL     1      38.832  18.491 226.249  1.00  0.00     0.041 C 
ATOM      9  O   UNL     1      39.081  17.358 225.761  1.00  0.00    -0.550 OA
ATOM     10  O   UNL     1      37.977  18.598 227.339  1.00  0.00    -0.550 OA
ENDBRANCH   7   8
ENDBRANCH   6   7
ENDBRANCH   5   6
ENDBRANCH   4   5
ENDBRANCH   3   4
ENDBRANCH   2   3
ENDBRANCH   1   2
BRANCH   1  11
ATOM     11  C   UNL     1      39.368  23.667 222.504  1.00  0.00     0.000 C 
BRANCH  11  12
ATOM     12  C   UNL     1      38.568  23.128 223.699  1.00  0.00    -0.000 C 
BRANCH  12  13
ATOM     13  C   UNL     1      37.067  23.455 223.608  1.00  0.00    -0.000 C 
BRANCH  13  14
ATOM     14  C   UNL     1      36.341  22.848 222.391  1.00  0.00    -0.000 C 
BRANCH  14  15
ATOM     15  C   UNL     1      35.298  23.769 221.727  1.00  0.00    -0.000 C 
BRANCH  15  16
ATOM     16  C   UNL     1      35.608  24.159 220.268  1.00  0.00    -0.000 C 
BRANCH  16  17
ATOM     17  C   UNL     1      36.875  23.513 219.682  1.00  0.00    -0.003 C 
ATOM     18  C   UNL     1      36.793  23.299 218.172  1.00  0.00     0.004 C 
ENDBRANCH  16  17
ENDBRANCH  15  16
ENDBRANCH  14  15
ENDBRANCH  13  14
ENDBRANCH  12  13
ENDBRANCH  11  12
ENDBRANCH   1  11
TORSDOF 14
ENDMDL
MODEL 5
REMARK VINA RESULT:    -3.310      1.696      2.548
REMARK INTER + INTRA:          -8.420
REMARK INTER:                  -7.088
REMARK INTRA:                  -1.332
REMARK UNBOUND:                -2.400
REMARK SMILES CCCCCCCCCCCCCCCC(=O)[O-]
REMARK SMILES IDX 9 1 10 2 11 3 12 4 13 5 14 6 15 7 16 8 17 9 18 10 8 11 7 12
REMARK SMILES IDX 6 13 5 14 4 15 3 16 2 17 1 18
REMARK H PARENT
REMARK Flexibility Score: inf
ROOT
ATOM      1  C   UNL     1      40.326  24.440 223.516  1.00  0.00     0.000 C 
ENDROOT
BRANCH   1   2
ATOM      2  C   UNL     1      39.064  25.068 224.138  1.00  0.00     0.000 C 
BRANCH   2   3
ATOM      3  C   UNL     1      38.271  26.004 223.207  1.00  0.00     0.000 C 
BRANCH   3   4
ATOM      4  C   UNL     1      36.791  25.609 223.076  1.00  0.00     0.000 C 
BRANCH   4   5
ATOM      5  C   UNL     1      36.503  24.194 223.608  1.00  0.00     0.000 C 
BRANCH   5   6
ATOM      6  C   UNL     1      36.426  23.120 222.503  1.00  0.00     0.006 C 
BRANCH   6   7
ATOM      7  C   UNL     1      35.442  23.505 221.390  1.00  0.00     0.053 C 
BRANCH   7   8
ATOM      8  C   UNL     1      36.173  23.768 220.112  1.00  0.00     0.041 C 
ATOM      9  O   UNL     1      37.266  23.189 219.877  1.00  0.00    -0.550 OA
ATOM     10  O   UNL     1      35.621  24.611 219.156  1.00  0.00    -0.550 OA
ENDBRANCH   7   8
ENDBRANCH   6   7
ENDBRANCH   5   6
ENDBRANCH   4   5
ENDBRANCH   3   4
ENDBRANCH   2   3
ENDBRANCH   1   2
BRANCH   1  11
ATOM     11  C   UNL     1      40.131  24.024 222.050  1.00  0.00     0.000 C 
BRANCH  11  12
ATOM     12  C   UNL     1      40.103  22.494 221.914  1.00  0.00    -0.000 C 
BRANCH  12  13
ATOM     13  C   UNL     1      41.144  21.797 222.808  1.00  0.00    -0.000 C 
BRANCH  13  14
ATOM     14  C   UNL     1      41.787  20.537 222.197  1.00  0.00    -0.000 C 
BRANCH  14  15
ATOM     15  C   UNL     1      43.255  20.703 221.753  1.00  0.00    -0.000 C 
BRANCH  15  16
ATOM     16  C   UNL     1      44.299  20.111 222.721  1.00  0.00    -0.000 C 
BRANCH  16  17
ATOM     17  C   UNL     1      43.829  19.986 224.180  1.00  0.00    -0.003 C 
ATOM     18  C   UNL     1      44.127  21.231 225.013  1.00  0.00     0.004 C 
ENDBRANCH  16  17
ENDBRANCH  15  16
ENDBRANCH  14  15
ENDBRANCH  13  14
ENDBRANCH  12  13
ENDBRANCH  11  12
ENDBRANCH   1  11
TORSDOF 14
ENDMDL
MODEL 6
REMARK VINA RESULT:    -3.262      2.989      6.609
REMARK INTER + INTRA:          -8.331
REMARK INTER:                  -6.648
REMARK INTRA:                  -1.683
REMARK UNBOUND:                -2.400
REMARK SMILES CCCCCCCCCCCCCCCC(=O)[O-]
REMARK SMILES IDX 9 1 10 2 11 3 12 4 13 5 14 6 15 7 16 8 17 9 18 10 8 11 7 12
REMARK SMILES IDX 6 13 5 14 4 15 3 16 2 17 1 18
REMARK H PARENT
REMARK Flexibility Score: inf
ROOT
ATOM      1  C   UNL     1      39.546  23.713 221.738  1.00  0.00     0.000 C 
ENDROOT
BRANCH   1   2
ATOM      2  C   UNL     1      40.597  22.615 221.986  1.00  0.00     0.000 C 
BRANCH   2   3
ATOM      3  C   UNL     1      40.236  21.597 223.085  1.00  0.00     0.000 C 
BRANCH   3   4
ATOM      4  C   UNL     1      41.470  21.021 223.799  1.00  0.00     0.000 C 
BRANCH   4   5
ATOM      5  C   UNL     1      42.742  21.849 223.552  1.00  0.00     0.000 C 
BRANCH   5   6
ATOM      6  C   UNL     1      43.226  22.626 224.795  1.00  0.00     0.006 C 
BRANCH   6   7
ATOM      7  C   UNL     1      42.746  24.084 224.788  1.00  0.00     0.053 C 
BRANCH   7   8
ATOM      8  C   UNL     1      41.679  24.289 225.817  1.00  0.00     0.041 C 
ATOM      9  O   UNL     1      41.158  25.425 225.970  1.00  0.00    -0.550 OA
ATOM     10  O   UNL     1      41.224  23.215 226.571  1.00  0.00    -0.550 OA
ENDBRANCH   7   8
ENDBRANCH   6   7
ENDBRANCH   5   6
ENDBRANCH   4   5
ENDBRANCH   3   4
ENDBRANCH   2   3
ENDBRANCH   1   2
BRANCH   1  11
ATOM     11  C   UNL     1      39.368  24.656 222.937  1.00  0.00     0.000 C 
BRANCH  11  12
ATOM     12  C   UNL     1      37.889  25.029 223.126  1.00  0.00    -0.000 C 
BRANCH  12  13
ATOM     13  C   UNL     1      37.000  23.808 223.422  1.00  0.00    -0.000 C 
BRANCH  13  14
ATOM     14  C   UNL     1      36.007  23.440 222.302  1.00  0.00    -0.000 C 
BRANCH  14  15
ATOM     15  C   UNL     1      35.897  24.472 221.161  1.00  0.00    -0.000 C 
BRANCH  15  16
ATOM     16  C   UNL     1      35.121  23.991 219.919  1.00  0.00    -0.000 C 
BRANCH  16  17
ATOM     17  C   UNL     1      35.950  23.927 218.625  1.00  0.00    -0.003 C 
ATOM     18  C   UNL     1      37.250  23.143 218.786  1.00  0.00     0.004 C 
ENDBRANCH  16  17
ENDBRANCH  15  16
ENDBRANCH  14  15
ENDBRANCH  13  14
ENDBRANCH  12  13
ENDBRANCH  11  12
ENDBRANCH   1  11
TORSDOF 14
ENDMDL
MODEL 7
REMARK VINA RESULT:    -3.256      1.160      2.916
REMARK INTER + INTRA:          -8.320
REMARK INTER:                  -5.829
REMARK INTRA:                  -2.491
REMARK UNBOUND:                -2.400
REMARK SMILES CCCCCCCCCCCCCCCC(=O)[O-]
REMARK SMILES IDX 9 1 10 2 11 3 12 4 13 5 14 6 15 7 16 8 17 9 18 10 8 11 7 12
REMARK SMILES IDX 6 13 5 14 4 15 3 16 2 17 1 18
REMARK H PARENT
REMARK Flexibility Score: inf
ROOT
ATOM      1  C   UNL     1      43.386  21.530 225.710  1.00  0.00     0.000 C 
ENDROOT
BRANCH   1   2
ATOM      2  C   UNL     1      42.525  22.807 225.688  1.00  0.00     0.000 C 
BRANCH   2   3
ATOM      3  C   UNL     1      42.392  23.485 224.312  1.00  0.00     0.000 C 
BRANCH   3   4
ATOM      4  C   UNL     1      40.975  24.014 224.037  1.00  0.00     0.000 C 
BRANCH   4   5
ATOM      5  C   UNL     1      40.584  23.927 222.552  1.00  0.00     0.000 C 
BRANCH   5   6
ATOM      6  C   UNL     1      39.101  24.255 222.281  1.00  0.00     0.006 C 
BRANCH   6   7
ATOM      7  C   UNL     1      38.470  23.288 221.271  1.00  0.00     0.053 C 
BRANCH   7   8
ATOM      8  C   UNL     1      36.977  23.369 221.329  1.00  0.00     0.041 C 
ATOM      9  O   UNL     1      36.350  22.822 222.273  1.00  0.00    -0.550 OA
ATOM     10  O   UNL     1      36.282  24.093 220.369  1.00  0.00    -0.550 OA
ENDBRANCH   7   8
ENDBRANCH   6   7
ENDBRANCH   5   6
ENDBRANCH   4   5
ENDBRANCH   3   4
ENDBRANCH   2   3
ENDBRANCH   1   2
BRANCH   1  11
ATOM     11  C   UNL     1      44.141  21.292 224.394  1.00  0.00     0.000 C 
BRANCH  11  12
ATOM     12  C   UNL     1      44.269  19.789 224.099  1.00  0.00    -0.000 C 
BRANCH  12  13
ATOM     13  C   UNL     1      43.479  19.357 222.851  1.00  0.00    -0.000 C 
BRANCH  13  14
ATOM     14  C   UNL     1      42.750  20.498 222.115  1.00  0.00    -0.000 C 
BRANCH  14  15
ATOM     15  C   UNL     1      41.230  20.300 221.946  1.00  0.00    -0.000 C 
BRANCH  15  16
ATOM     16  C   UNL     1      40.553  19.472 223.056  1.00  0.00    -0.000 C 
BRANCH  16  17
ATOM     17  C   UNL     1      40.148  20.274 224.304  1.00  0.00    -0.003 C 
ATOM     18  C   UNL     1      38.794  20.966 224.156  1.00  0.00     0.004 C 
ENDBRANCH  16  17
ENDBRANCH  15  16
ENDBRANCH  14  15
ENDBRANCH  13  14
ENDBRANCH  12  13
ENDBRANCH  11  12
ENDBRANCH   1  11
TORSDOF 14
ENDMDL
MODEL 8
REMARK VINA RESULT:    -3.245      1.509      2.714
REMARK INTER + INTRA:          -8.301
REMARK INTER:                  -6.099
REMARK INTRA:                  -2.202
REMARK UNBOUND:                -2.400
REMARK SMILES CCCCCCCCCCCCCCCC(=O)[O-]
REMARK SMILES IDX 9 1 10 2 11 3 12 4 13 5 14 6 15 7 16 8 17 9 18 10 8 11 7 12
REMARK SMILES IDX 6 13 5 14 4 15 3 16 2 17 1 18
REMARK H PARENT
REMARK Flexibility Score: inf
ROOT
ATOM      1  C   UNL     1      40.979  23.674 223.354  1.00  0.00     0.000 C 
ENDROOT
BRANCH   1   2
ATOM      2  C   UNL     1      40.170  23.947 222.073  1.00  0.00     0.000 C 
BRANCH   2   3
ATOM      3  C   UNL     1      38.969  23.010 221.843  1.00  0.00     0.000 C 
BRANCH   3   4
ATOM      4  C   UNL     1      38.172  23.353 220.574  1.00  0.00     0.000 C 
BRANCH   4   5
ATOM      5  C   UNL     1      36.656  23.426 220.824  1.00  0.00     0.000 C 
BRANCH   5   6
ATOM      6  C   UNL     1      36.265  23.274 222.310  1.00  0.00     0.006 C 
BRANCH   6   7
ATOM      7  C   UNL     1      35.721  24.581 222.901  1.00  0.00     0.053 C 
BRANCH   7   8
ATOM      8  C   UNL     1      36.815  25.346 223.577  1.00  0.00     0.041 C 
ATOM      9  O   UNL     1      37.528  26.147 222.918  1.00  0.00    -0.550 OA
ATOM     10  O   UNL     1      37.012  25.215 224.946  1.00  0.00    -0.550 OA
ENDBRANCH   7   8
ENDBRANCH   6   7
ENDBRANCH   5   6
ENDBRANCH   4   5
ENDBRANCH   3   4
ENDBRANCH   2   3
ENDBRANCH   1   2
BRANCH   1  11
ATOM     11  C   UNL     1      40.093  23.464 224.592  1.00  0.00     0.000 C 
BRANCH  11  12
ATOM     12  C   UNL     1      40.474  22.168 225.324  1.00  0.00    -0.000 C 
BRANCH  12  13
ATOM     13  C   UNL     1      39.803  20.922 224.718  1.00  0.00    -0.000 C 
BRANCH  13  14
ATOM     14  C   UNL     1      40.618  19.620 224.840  1.00  0.00    -0.000 C 
BRANCH  14  15
ATOM     15  C   UNL     1      41.336  19.176 223.549  1.00  0.00    -0.000 C 
BRANCH  15  16
ATOM     16  C   UNL     1      40.928  19.947 222.278  1.00  0.00    -0.000 C 
BRANCH  16  17
ATOM     17  C   UNL     1      42.097  20.584 221.507  1.00  0.00    -0.003 C 
ATOM     18  C   UNL     1      43.317  20.853 222.386  1.00  0.00     0.004 C 
ENDBRANCH  16  17
ENDBRANCH  15  16
ENDBRANCH  14  15
ENDBRANCH  13  14
ENDBRANCH  12  13
ENDBRANCH  11  12
ENDBRANCH   1  11
TORSDOF 14
ENDMDL
MODEL 9
REMARK VINA RESULT:    -3.177      2.736      5.739
REMARK INTER + INTRA:          -8.177
REMARK INTER:                  -5.967
REMARK INTRA:                  -2.210
REMARK UNBOUND:                -2.400
REMARK SMILES CCCCCCCCCCCCCCCC(=O)[O-]
REMARK SMILES IDX 9 1 10 2 11 3 12 4 13 5 14 6 15 7 16 8 17 9 18 10 8 11 7 12
REMARK SMILES IDX 6 13 5 14 4 15 3 16 2 17 1 18
REMARK H PARENT
REMARK Flexibility Score: inf
ROOT
ATOM      1  C   UNL     1      41.846  21.097 222.600  1.00  0.00     0.000 C 
ENDROOT
BRANCH   1   2
ATOM      2  C   UNL     1      42.654  21.983 223.567  1.00  0.00     0.000 C 
BRANCH   2   3
ATOM      3  C   UNL     1      42.514  21.624 225.058  1.00  0.00     0.000 C 
BRANCH   3   4
ATOM      4  C   UNL     1      41.124  21.073 225.415  1.00  0.00     0.000 C 
BRANCH   4   5
ATOM      5  C   UNL     1      40.078  22.182 225.619  1.00  0.00     0.000 C 
BRANCH   5   6
ATOM      6  C   UNL     1      38.664  21.797 225.134  1.00  0.00     0.006 C 
BRANCH   6   7
ATOM      7  C   UNL     1      38.652  20.447 224.403  1.00  0.00     0.053 C 
BRANCH   7   8
ATOM      8  C   UNL     1      37.976  19.405 225.237  1.00  0.00     0.041 C 
ATOM      9  O   UNL     1      37.712  18.276 224.748  1.00  0.00    -0.550 OA
ATOM     10  O   UNL     1      37.686  19.663 226.571  1.00  0.00    -0.550 OA
ENDBRANCH   7   8
ENDBRANCH   6   7
ENDBRANCH   5   6
ENDBRANCH   4   5
ENDBRANCH   3   4
ENDBRANCH   2   3
ENDBRANCH   1   2
BRANCH   1  11
ATOM     11  C   UNL     1      40.798  21.884 221.798  1.00  0.00     0.000 C 
BRANCH  11  12
ATOM     12  C   UNL     1      40.820  23.372 222.180  1.00  0.00    -0.000 C 
BRANCH  12  13
ATOM     13  C   UNL     1      39.448  24.050 222.019  1.00  0.00    -0.000 C 
BRANCH  13  14
ATOM     14  C   UNL     1      39.027  24.957 223.192  1.00  0.00    -0.000 C 
BRANCH  14  15
ATOM     15  C   UNL     1      37.686  25.693 223.000  1.00  0.00    -0.000 C 
BRANCH  15  16
ATOM     16  C   UNL     1      36.437  24.893 223.423  1.00  0.00    -0.000 C 
BRANCH  16  17
ATOM     17  C   UNL     1      35.703  24.186 222.271  1.00  0.00    -0.003 C 
ATOM     18  C   UNL     1      36.124  22.727 222.101  1.00  0.00     0.004 C 
ENDBRANCH  16  17
ENDBRANCH  15  16
ENDBRANCH  14  15
ENDBRANCH  13  14
ENDBRANCH  12  13
ENDBRANCH  11  12
ENDBRANCH   1  11
TORSDOF 14
ENDMDL
