MODEL 1
REMARK VINA RESULT:    -3.771      0.000      0.000
REMARK INTER + INTRA:          -4.750
REMARK INTER:                  -4.433
REMARK INTRA:                  -0.317
REMARK UNBOUND:                -0.317
REMARK SMILES O=c1cc(-c2ccc(O)c(O)c2)oc2cc(O)cc(O)c12
REMARK SMILES IDX 4 1 3 2 2 3 1 4 21 5 19 6 18 7 16 8 15 9 14 10 13 11 5 12
REMARK SMILES IDX 6 13 7 14 8 15 12 16 10 17 9 18 11 20 20 22 17 24
REMARK H PARENT 9 19 11 21 20 23 17 25
REMARK Flexibility Score: inf
ROOT
ATOM      1  C   UNL     1      23.513  48.466  87.309  1.00  0.00     0.138 A 
ATOM      2  C   UNL     1      24.071  47.218  87.624  1.00  0.00     0.100 A 
ATOM      3  C   UNL     1      25.363  46.912  87.193  1.00  0.00     0.197 A 
ATOM      4  O   UNL     1      25.860  45.811  87.544  1.00  0.00    -0.289 OA
ATOM      5  C   UNL     1      26.086  47.848  86.416  1.00  0.00     0.107 A 
ATOM      6  C   UNL     1      27.393  47.628  85.888  1.00  0.00     0.134 A 
ATOM      7  C   UNL     1      28.057  48.672  85.231  1.00  0.00     0.093 A 
ATOM      8  C   UNL     1      27.439  49.906  85.031  1.00  0.00     0.123 A 
ATOM      9  C   UNL     1      26.141  50.115  85.497  1.00  0.00     0.094 A 
ATOM     10  C   UNL     1      25.465  49.105  86.186  1.00  0.00     0.146 A 
ATOM     11  O   UNL     1      24.235  49.348  86.625  1.00  0.00    -0.456 OA
ENDROOT
BRANCH   1  12
ATOM     12  C   UNL     1      22.144  48.843  87.741  1.00  0.00     0.021 A 
ATOM     13  C   UNL     1      21.450  48.015  88.636  1.00  0.00     0.016 A 
ATOM     14  C   UNL     1      20.163  48.351  89.062  1.00  0.00     0.051 A 
ATOM     15  C   UNL     1      19.547  49.524  88.615  1.00  0.00     0.157 A 
ATOM     16  C   UNL     1      21.530  50.031  87.301  1.00  0.00     0.062 A 
ATOM     17  C   UNL     1      20.241  50.378  87.726  1.00  0.00     0.158 A 
BRANCH  15  18
ATOM     18  O   UNL     1      18.257  49.800  89.075  1.00  0.00    -0.504 OA
ATOM     19  H   UNL     1      18.052  50.169  89.991  1.00  0.00     0.293 HD
ENDBRANCH  15  18
BRANCH  17  20
ATOM     20  O   UNL     1      19.697  51.572  87.249  1.00  0.00    -0.504 OA
ATOM     21  H   UNL     1      18.855  51.627  86.695  1.00  0.00     0.293 HD
ENDBRANCH  17  20
ENDBRANCH   1  12
BRANCH   6  22
ATOM     22  O   UNL     1      28.069  46.406  85.957  1.00  0.00    -0.507 OA
ATOM     23  H   UNL     1      28.622  46.010  85.213  1.00  0.00     0.293 HD
ENDBRANCH   6  22
BRANCH   8  24
ATOM     24  O   UNL     1      28.124  50.917  84.361  1.00  0.00    -0.508 OA
ATOM     25  H   UNL     1      27.685  51.458  83.625  1.00  0.00     0.293 HD
ENDBRANCH   8  24
TORSDOF 5
ENDMDL
MODEL 2
REMARK VINA RESULT:    -3.692      2.210      7.030
REMARK INTER + INTRA:          -4.656
REMARK INTER:                  -4.385
REMARK INTRA:                  -0.271
REMARK UNBOUND:                -0.317
REMARK SMILES O=c1cc(-c2ccc(O)c(O)c2)oc2cc(O)cc(O)c12
REMARK SMILES IDX 4 1 3 2 2 3 1 4 21 5 19 6 18 7 16 8 15 9 14 10 13 11 5 12
REMARK SMILES IDX 6 13 7 14 8 15 12 16 10 17 9 18 11 20 20 22 17 24
REMARK H PARENT 9 19 11 21 20 23 17 25
REMARK Flexibility Score: inf
ROOT
ATOM      1  C   UNL     1      24.451  48.500  87.510  1.00  0.00     0.138 A 
ATOM      2  C   UNL     1      24.872  49.830  87.650  1.00  0.00     0.100 A 
ATOM      3  C   UNL     1      23.941  50.817  87.981  1.00  0.00     0.197 A 
ATOM      4  O   UNL     1      24.360  51.990  88.160  1.00  0.00    -0.289 OA
ATOM      5  C   UNL     1      22.578  50.474  88.140  1.00  0.00     0.107 A 
ATOM      6  C   UNL     1      21.536  51.403  88.436  1.00  0.00     0.134 A 
ATOM      7  C   UNL     1      20.242  50.930  88.687  1.00  0.00     0.093 A 
ATOM      8  C   UNL     1      19.939  49.572  88.593  1.00  0.00     0.123 A 
ATOM      9  C   UNL     1      20.939  48.661  88.252  1.00  0.00     0.094 A 
ATOM     10  C   UNL     1      22.247  49.096  88.029  1.00  0.00     0.146 A 
ATOM     11  O   UNL     1      23.174  48.196  87.720  1.00  0.00    -0.456 OA
ENDROOT
BRANCH   1  12
ATOM     12  C   UNL     1      25.397  47.412  87.159  1.00  0.00     0.021 A 
ATOM     13  C   UNL     1      26.284  46.928  88.132  1.00  0.00     0.016 A 
ATOM     14  C   UNL     1      27.180  45.900  87.829  1.00  0.00     0.051 A 
ATOM     15  C   UNL     1      27.202  45.326  86.554  1.00  0.00     0.157 A 
ATOM     16  C   UNL     1      25.408  46.826  85.879  1.00  0.00     0.062 A 
ATOM     17  C   UNL     1      26.301  45.791  85.567  1.00  0.00     0.158 A 
BRANCH  15  18
ATOM     18  O   UNL     1      28.125  44.306  86.313  1.00  0.00    -0.504 OA
ATOM     19  H   UNL     1      28.978  44.182  86.837  1.00  0.00     0.293 HD
ENDBRANCH  15  18
BRANCH  17  20
ATOM     20  O   UNL     1      26.254  45.257  84.278  1.00  0.00    -0.504 OA
ATOM     21  H   UNL     1      25.535  44.628  83.953  1.00  0.00     0.293 HD
ENDBRANCH  17  20
ENDBRANCH   1  12
BRANCH   6  22
ATOM     22  O   UNL     1      21.711  52.789  88.471  1.00  0.00    -0.507 OA
ATOM     23  H   UNL     1      22.458  53.264  88.957  1.00  0.00     0.293 HD
ENDBRANCH   6  22
BRANCH   8  24
ATOM     24  O   UNL     1      18.637  49.140  88.835  1.00  0.00    -0.508 OA
ATOM     25  H   UNL     1      17.987  48.965  88.077  1.00  0.00     0.293 HD
ENDBRANCH   8  24
TORSDOF 5
ENDMDL
MODEL 3
REMARK VINA RESULT:    -3.682      2.253      6.749
REMARK INTER + INTRA:          -4.645
REMARK INTER:                  -4.377
REMARK INTRA:                  -0.267
REMARK UNBOUND:                -0.317
REMARK SMILES O=c1cc(-c2ccc(O)c(O)c2)oc2cc(O)cc(O)c12
REMARK SMILES IDX 4 1 3 2 2 3 1 4 21 5 19 6 18 7 16 8 15 9 14 10 13 11 5 12
REMARK SMILES IDX 6 13 7 14 8 15 12 16 10 17 9 18 11 20 20 22 17 24
REMARK H PARENT 9 19 11 21 20 23 17 25
REMARK Flexibility Score: inf
ROOT
ATOM      1  C   UNL     1      23.378  47.530  87.753  1.00  0.00     0.138 A 
ATOM      2  C   UNL     1      22.115  46.921  87.774  1.00  0.00     0.100 A 
ATOM      3  C   UNL     1      20.979  47.696  88.018  1.00  0.00     0.197 A 
ATOM      4  O   UNL     1      19.855  47.133  87.968  1.00  0.00    -0.289 OA
ATOM      5  C   UNL     1      21.114  49.081  88.274  1.00  0.00     0.107 A 
ATOM      6  C   UNL     1      20.032  49.960  88.575  1.00  0.00     0.134 A 
ATOM      7  C   UNL     1      20.273  51.335  88.695  1.00  0.00     0.093 A 
ATOM      8  C   UNL     1      21.562  51.853  88.585  1.00  0.00     0.123 A 
ATOM      9  C   UNL     1      22.636  50.996  88.344  1.00  0.00     0.094 A 
ATOM     10  C   UNL     1      22.424  49.624  88.185  1.00  0.00     0.146 A 
ATOM     11  O   UNL     1      23.471  48.843  87.942  1.00  0.00    -0.456 OA
ENDROOT
BRANCH   1  12
ATOM     12  C   UNL     1      24.618  46.754  87.499  1.00  0.00     0.021 A 
ATOM     13  C   UNL     1      25.184  45.999  88.537  1.00  0.00     0.016 A 
ATOM     14  C   UNL     1      26.346  45.256  88.322  1.00  0.00     0.051 A 
ATOM     15  C   UNL     1      26.962  45.241  87.066  1.00  0.00     0.157 A 
ATOM     16  C   UNL     1      25.228  46.730  86.231  1.00  0.00     0.062 A 
ATOM     17  C   UNL     1      26.393  45.984  86.005  1.00  0.00     0.158 A 
BRANCH  15  18
ATOM     18  O   UNL     1      28.125  44.482  86.918  1.00  0.00    -0.504 OA
ATOM     19  H   UNL     1      29.058  44.858  86.996  1.00  0.00     0.293 HD
ENDBRANCH  15  18
BRANCH  17  20
ATOM     20  O   UNL     1      26.942  46.005  84.721  1.00  0.00    -0.504 OA
ATOM     21  H   UNL     1      26.609  46.597  83.975  1.00  0.00     0.293 HD
ENDBRANCH  17  20
ENDBRANCH   1  12
BRANCH   6  22
ATOM     22  O   UNL     1      18.717  49.536  88.790  1.00  0.00    -0.507 OA
ATOM     23  H   UNL     1      18.433  48.870  89.491  1.00  0.00     0.293 HD
ENDBRANCH   6  22
BRANCH   8  24
ATOM     24  O   UNL     1      21.767  53.224  88.725  1.00  0.00    -0.508 OA
ATOM     25  H   UNL     1      22.653  53.655  88.489  1.00  0.00     0.293 HD
ENDBRANCH   8  24
TORSDOF 5
ENDMDL
MODEL 4
REMARK VINA RESULT:    -3.680      1.528      2.982
REMARK INTER + INTRA:          -4.642
REMARK INTER:                  -4.326
REMARK INTRA:                  -0.316
REMARK UNBOUND:                -0.317
REMARK SMILES O=c1cc(-c2ccc(O)c(O)c2)oc2cc(O)cc(O)c12
REMARK SMILES IDX 4 1 3 2 2 3 1 4 21 5 19 6 18 7 16 8 15 9 14 10 13 11 5 12
REMARK SMILES IDX 6 13 7 14 8 15 12 16 10 17 9 18 11 20 20 22 17 24
REMARK H PARENT 9 19 11 21 20 23 17 25
REMARK Flexibility Score: inf
ROOT
ATOM      1  C   UNL     1      23.216  48.820  87.217  1.00  0.00     0.138 A 
ATOM      2  C   UNL     1      23.940  50.019  87.140  1.00  0.00     0.100 A 
ATOM      3  C   UNL     1      25.250  50.003  86.658  1.00  0.00     0.197 A 
ATOM      4  O   UNL     1      25.852  51.102  86.541  1.00  0.00    -0.289 OA
ATOM      5  C   UNL     1      25.848  48.777  86.283  1.00  0.00     0.107 A 
ATOM      6  C   UNL     1      27.189  48.636  85.817  1.00  0.00     0.134 A 
ATOM      7  C   UNL     1      27.634  47.388  85.364  1.00  0.00     0.093 A 
ATOM      8  C   UNL     1      26.808  46.265  85.415  1.00  0.00     0.123 A 
ATOM      9  C   UNL     1      25.512  46.381  85.919  1.00  0.00     0.094 A 
ATOM     10  C   UNL     1      25.027  47.619  86.347  1.00  0.00     0.146 A 
ATOM     11  O   UNL     1      23.783  47.690  86.806  1.00  0.00    -0.456 OA
ENDROOT
BRANCH   1  12
ATOM     12  C   UNL     1      21.821  48.779  87.722  1.00  0.00     0.021 A 
ATOM     13  C   UNL     1      21.109  49.976  87.883  1.00  0.00     0.016 A 
ATOM     14  C   UNL     1      19.793  49.964  88.350  1.00  0.00     0.051 A 
ATOM     15  C   UNL     1      19.157  48.757  88.657  1.00  0.00     0.157 A 
ATOM     16  C   UNL     1      21.177  47.562  88.017  1.00  0.00     0.062 A 
ATOM     17  C   UNL     1      19.856  47.539  88.484  1.00  0.00     0.158 A 
BRANCH  15  18
ATOM     18  O   UNL     1      17.842  48.813  89.125  1.00  0.00    -0.504 OA
ATOM     19  H   UNL     1      17.043  49.008  88.541  1.00  0.00     0.293 HD
ENDBRANCH  15  18
BRANCH  17  20
ATOM     20  O   UNL     1      19.281  46.295  88.754  1.00  0.00    -0.504 OA
ATOM     21  H   UNL     1      18.903  46.032  89.652  1.00  0.00     0.293 HD
ENDBRANCH  17  20
ENDBRANCH   1  12
BRANCH   6  22
ATOM     22  O   UNL     1      28.125  49.675  85.803  1.00  0.00    -0.507 OA
ATOM     23  H   UNL     1      28.741  49.886  85.032  1.00  0.00     0.293 HD
ENDBRANCH   6  22
BRANCH   8  24
ATOM     24  O   UNL     1      27.290  45.037  84.969  1.00  0.00    -0.508 OA
ATOM     25  H   UNL     1      26.704  44.209  84.959  1.00  0.00     0.293 HD
ENDBRANCH   8  24
TORSDOF 5
ENDMDL
MODEL 5
REMARK VINA RESULT:    -3.665      0.917      1.634
REMARK INTER + INTRA:          -4.625
REMARK INTER:                  -4.330
REMARK INTRA:                  -0.295
REMARK UNBOUND:                -0.317
REMARK SMILES O=c1cc(-c2ccc(O)c(O)c2)oc2cc(O)cc(O)c12
REMARK SMILES IDX 4 1 3 2 2 3 1 4 21 5 19 6 18 7 16 8 15 9 14 10 13 11 5 12
REMARK SMILES IDX 6 13 7 14 8 15 12 16 10 17 9 18 11 20 20 22 17 24
REMARK H PARENT 9 19 11 21 20 23 17 25
REMARK Flexibility Score: inf
ROOT
ATOM      1  C   UNL     1      23.430  48.115  87.388  1.00  0.00     0.138 A 
ATOM      2  C   UNL     1      24.084  46.891  87.586  1.00  0.00     0.100 A 
ATOM      3  C   UNL     1      25.394  46.727  87.132  1.00  0.00     0.197 A 
ATOM      4  O   UNL     1      25.976  45.639  87.380  1.00  0.00    -0.289 OA
ATOM      5  C   UNL     1      26.039  47.784  86.448  1.00  0.00     0.107 A 
ATOM      6  C   UNL     1      27.357  47.716  85.905  1.00  0.00     0.134 A 
ATOM      7  C   UNL     1      27.935  48.865  85.351  1.00  0.00     0.093 A 
ATOM      8  C   UNL     1      27.223  50.061  85.266  1.00  0.00     0.123 A 
ATOM      9  C   UNL     1      25.914  50.125  85.745  1.00  0.00     0.094 A 
ATOM     10  C   UNL     1      25.321  49.005  86.334  1.00  0.00     0.146 A 
ATOM     11  O   UNL     1      24.079  49.110  86.792  1.00  0.00    -0.456 OA
ENDROOT
BRANCH   1  12
ATOM     12  C   UNL     1      22.038  48.344  87.850  1.00  0.00     0.021 A 
ATOM     13  C   UNL     1      21.544  49.654  87.931  1.00  0.00     0.016 A 
ATOM     14  C   UNL     1      20.236  49.895  88.357  1.00  0.00     0.051 A 
ATOM     15  C   UNL     1      19.390  48.835  88.700  1.00  0.00     0.157 A 
ATOM     16  C   UNL     1      21.184  47.275  88.181  1.00  0.00     0.062 A 
ATOM     17  C   UNL     1      19.869  47.507  88.606  1.00  0.00     0.158 A 
BRANCH  15  18
ATOM     18  O   UNL     1      18.096  49.143  89.122  1.00  0.00    -0.504 OA
ATOM     19  H   UNL     1      17.683  50.061  89.053  1.00  0.00     0.293 HD
ENDBRANCH  15  18
BRANCH  17  20
ATOM     20  O   UNL     1      19.078  46.398  88.915  1.00  0.00    -0.504 OA
ATOM     21  H   UNL     1      19.082  45.935  89.812  1.00  0.00     0.293 HD
ENDBRANCH  17  20
ENDBRANCH   1  12
BRANCH   6  22
ATOM     22  O   UNL     1      28.125  46.548  85.862  1.00  0.00    -0.507 OA
ATOM     23  H   UNL     1      29.126  46.512  85.983  1.00  0.00     0.293 HD
ENDBRANCH   6  22
BRANCH   8  24
ATOM     24  O   UNL     1      27.825  51.180  84.695  1.00  0.00    -0.508 OA
ATOM     25  H   UNL     1      27.304  52.032  84.522  1.00  0.00     0.293 HD
ENDBRANCH   8  24
TORSDOF 5
ENDMDL
MODEL 6
REMARK VINA RESULT:    -3.540      4.438      6.740
REMARK INTER + INTRA:          -4.478
REMARK INTER:                  -4.170
REMARK INTRA:                  -0.308
REMARK UNBOUND:                -0.317
REMARK SMILES O=c1cc(-c2ccc(O)c(O)c2)oc2cc(O)cc(O)c12
REMARK SMILES IDX 4 1 3 2 2 3 1 4 21 5 19 6 18 7 16 8 15 9 14 10 13 11 5 12
REMARK SMILES IDX 6 13 7 14 8 15 12 16 10 17 9 18 11 20 20 22 17 24
REMARK H PARENT 9 19 11 21 20 23 17 25
REMARK Flexibility Score: inf
ROOT
ATOM      1  C   UNL     1      27.615  49.916  84.987  1.00  0.00     0.138 A 
ATOM      2  C   UNL     1      27.764  50.117  83.607  1.00  0.00     0.100 A 
ATOM      3  C   UNL     1      27.931  51.412  83.113  1.00  0.00     0.197 A 
ATOM      4  O   UNL     1      28.125  51.555  81.878  1.00  0.00    -0.289 OA
ATOM      5  C   UNL     1      27.916  52.512  84.003  1.00  0.00     0.107 A 
ATOM      6  C   UNL     1      28.036  53.878  83.608  1.00  0.00     0.134 A 
ATOM      7  C   UNL     1      28.125  54.874  84.588  1.00  0.00     0.093 A 
ATOM      8  C   UNL     1      28.038  54.562  85.944  1.00  0.00     0.123 A 
ATOM      9  C   UNL     1      27.868  53.235  86.340  1.00  0.00     0.094 A 
ATOM     10  C   UNL     1      27.809  52.214  85.388  1.00  0.00     0.146 A 
ATOM     11  O   UNL     1      27.660  50.962  85.806  1.00  0.00    -0.456 OA
ENDROOT
BRANCH   1  12
ATOM     12  C   UNL     1      27.434  48.561  85.566  1.00  0.00     0.021 A 
ATOM     13  C   UNL     1      27.949  47.446  84.889  1.00  0.00     0.016 A 
ATOM     14  C   UNL     1      27.797  46.162  85.416  1.00  0.00     0.051 A 
ATOM     15  C   UNL     1      27.139  45.964  86.634  1.00  0.00     0.157 A 
ATOM     16  C   UNL     1      26.784  48.365  86.799  1.00  0.00     0.062 A 
ATOM     17  C   UNL     1      26.630  47.080  87.338  1.00  0.00     0.158 A 
BRANCH  15  18
ATOM     18  O   UNL     1      27.016  44.655  87.103  1.00  0.00    -0.504 OA
ATOM     19  H   UNL     1      26.137  44.166  87.190  1.00  0.00     0.293 HD
ENDBRANCH  15  18
BRANCH  17  20
ATOM     20  O   UNL     1      25.975  46.962  88.566  1.00  0.00    -0.504 OA
ATOM     21  H   UNL     1      26.415  46.625  89.409  1.00  0.00     0.293 HD
ENDBRANCH  17  20
ENDBRANCH   1  12
BRANCH   6  22
ATOM     22  O   UNL     1      28.046  54.309  82.277  1.00  0.00    -0.507 OA
ATOM     23  H   UNL     1      27.796  53.738  81.485  1.00  0.00     0.293 HD
ENDBRANCH   6  22
BRANCH   8  24
ATOM     24  O   UNL     1      28.116  55.580  86.891  1.00  0.00    -0.508 OA
ATOM     25  H   UNL     1      28.979  56.086  87.057  1.00  0.00     0.293 HD
ENDBRANCH   8  24
TORSDOF 5
ENDMDL
MODEL 7
REMARK VINA RESULT:    -3.527      1.567      7.403
REMARK INTER + INTRA:          -4.462
REMARK INTER:                  -4.165
REMARK INTRA:                  -0.297
REMARK UNBOUND:                -0.317
REMARK SMILES O=c1cc(-c2ccc(O)c(O)c2)oc2cc(O)cc(O)c12
REMARK SMILES IDX 4 1 3 2 2 3 1 4 21 5 19 6 18 7 16 8 15 9 14 10 13 11 5 12
REMARK SMILES IDX 6 13 7 14 8 15 12 16 10 17 9 18 11 20 20 22 17 24
REMARK H PARENT 9 19 11 21 20 23 17 25
REMARK Flexibility Score: inf
ROOT
ATOM      1  C   UNL     1      22.867  49.053  87.406  1.00  0.00     0.138 A 
ATOM      2  C   UNL     1      22.388  50.336  87.705  1.00  0.00     0.100 A 
ATOM      3  C   UNL     1      21.098  50.490  88.216  1.00  0.00     0.197 A 
ATOM      4  O   UNL     1      20.719  51.647  88.532  1.00  0.00    -0.289 OA
ATOM      5  C   UNL     1      20.273  49.355  88.399  1.00  0.00     0.107 A 
ATOM      6  C   UNL     1      18.929  49.395  88.873  1.00  0.00     0.134 A 
ATOM      7  C   UNL     1      18.250  48.196  89.125  1.00  0.00     0.093 A 
ATOM      8  C   UNL     1      18.843  46.963  88.862  1.00  0.00     0.123 A 
ATOM      9  C   UNL     1      20.139  46.912  88.347  1.00  0.00     0.094 A 
ATOM     10  C   UNL     1      20.855  48.089  88.117  1.00  0.00     0.146 A 
ATOM     11  O   UNL     1      22.091  47.999  87.640  1.00  0.00    -0.456 OA
ENDROOT
BRANCH   1  12
ATOM     12  C   UNL     1      24.229  48.832  86.860  1.00  0.00     0.021 A 
ATOM     13  C   UNL     1      24.692  47.522  86.668  1.00  0.00     0.016 A 
ATOM     14  C   UNL     1      25.968  47.288  86.150  1.00  0.00     0.051 A 
ATOM     15  C   UNL     1      26.804  48.354  85.803  1.00  0.00     0.157 A 
ATOM     16  C   UNL     1      25.064  49.906  86.498  1.00  0.00     0.062 A 
ATOM     17  C   UNL     1      26.344  49.681  85.974  1.00  0.00     0.158 A 
BRANCH  15  18
ATOM     18  O   UNL     1      28.069  48.053  85.295  1.00  0.00    -0.504 OA
ATOM     19  H   UNL     1      28.286  47.212  84.781  1.00  0.00     0.293 HD
ENDBRANCH  15  18
BRANCH  17  20
ATOM     20  O   UNL     1      27.115  50.795  85.636  1.00  0.00    -0.504 OA
ATOM     21  H   UNL     1      26.927  51.392  84.844  1.00  0.00     0.293 HD
ENDBRANCH  17  20
ENDBRANCH   1  12
BRANCH   6  22
ATOM     22  O   UNL     1      18.211  50.576  89.089  1.00  0.00    -0.507 OA
ATOM     23  H   UNL     1      17.529  50.711  89.819  1.00  0.00     0.293 HD
ENDBRANCH   6  22
BRANCH   8  24
ATOM     24  O   UNL     1      18.132  45.791  89.111  1.00  0.00    -0.508 OA
ATOM     25  H   UNL     1      17.203  45.810  89.515  1.00  0.00     0.293 HD
ENDBRANCH   8  24
TORSDOF 5
ENDMDL
MODEL 8
REMARK VINA RESULT:    -3.384      1.825      6.818
REMARK INTER + INTRA:          -4.295
REMARK INTER:                  -4.010
REMARK INTRA:                  -0.285
REMARK UNBOUND:                -0.317
REMARK SMILES O=c1cc(-c2ccc(O)c(O)c2)oc2cc(O)cc(O)c12
REMARK SMILES IDX 4 1 3 2 2 3 1 4 21 5 19 6 18 7 16 8 15 9 14 10 13 11 5 12
REMARK SMILES IDX 6 13 7 14 8 15 12 16 10 17 9 18 11 20 20 22 17 24
REMARK H PARENT 9 19 11 21 20 23 17 25
REMARK Flexibility Score: inf
ROOT
ATOM      1  C   UNL     1      23.561  49.381  87.497  1.00  0.00     0.138 A 
ATOM      2  C   UNL     1      23.570  47.980  87.571  1.00  0.00     0.100 A 
ATOM      3  C   UNL     1      22.419  47.304  87.982  1.00  0.00     0.197 A 
ATOM      4  O   UNL     1      22.438  46.046  87.978  1.00  0.00    -0.289 OA
ATOM      5  C   UNL     1      21.266  48.036  88.350  1.00  0.00     0.107 A 
ATOM      6  C   UNL     1      20.052  47.455  88.823  1.00  0.00     0.134 A 
ATOM      7  C   UNL     1      18.937  48.273  89.046  1.00  0.00     0.093 A 
ATOM      8  C   UNL     1      19.010  49.655  88.873  1.00  0.00     0.123 A 
ATOM      9  C   UNL     1      20.209  50.240  88.462  1.00  0.00     0.094 A 
ATOM     10  C   UNL     1      21.329  49.448  88.198  1.00  0.00     0.146 A 
ATOM     11  O   UNL     1      22.447  50.041  87.795  1.00  0.00    -0.456 OA
ENDROOT
BRANCH   1  12
ATOM     12  C   UNL     1      24.755  50.150  87.067  1.00  0.00     0.021 A 
ATOM     13  C   UNL     1      25.015  51.401  87.646  1.00  0.00     0.016 A 
ATOM     14  C   UNL     1      26.136  52.142  87.263  1.00  0.00     0.051 A 
ATOM     15  C   UNL     1      27.026  51.646  86.305  1.00  0.00     0.157 A 
ATOM     16  C   UNL     1      25.658  49.644  86.113  1.00  0.00     0.062 A 
ATOM     17  C   UNL     1      26.787  50.378  85.726  1.00  0.00     0.158 A 
BRANCH  15  18
ATOM     18  O   UNL     1      28.124  52.438  85.963  1.00  0.00    -0.504 OA
ATOM     19  H   UNL     1      28.557  53.102  86.587  1.00  0.00     0.293 HD
ENDBRANCH  15  18
BRANCH  17  20
ATOM     20  O   UNL     1      27.639  49.811  84.775  1.00  0.00    -0.504 OA
ATOM     21  H   UNL     1      27.548  49.953  83.780  1.00  0.00     0.293 HD
ENDBRANCH  17  20
ENDBRANCH   1  12
BRANCH   6  22
ATOM     22  O   UNL     1      19.896  46.096  89.110  1.00  0.00    -0.507 OA
ATOM     23  H   UNL     1      19.395  45.438  88.532  1.00  0.00     0.293 HD
ENDBRANCH   6  22
BRANCH   8  24
ATOM     24  O   UNL     1      17.885  50.439  89.119  1.00  0.00    -0.508 OA
ATOM     25  H   UNL     1      17.961  51.435  89.294  1.00  0.00     0.293 HD
ENDBRANCH   8  24
TORSDOF 5
ENDMDL
MODEL 9
REMARK VINA RESULT:    -3.259      2.636      3.600
REMARK INTER + INTRA:          -4.148
REMARK INTER:                  -3.842
REMARK INTRA:                  -0.306
REMARK UNBOUND:                -0.317
REMARK SMILES O=c1cc(-c2ccc(O)c(O)c2)oc2cc(O)cc(O)c12
REMARK SMILES IDX 4 1 3 2 2 3 1 4 21 5 19 6 18 7 16 8 15 9 14 10 13 11 5 12
REMARK SMILES IDX 6 13 7 14 8 15 12 16 10 17 9 18 11 20 20 22 17 24
REMARK H PARENT 9 19 11 21 20 23 17 25
REMARK Flexibility Score: inf
ROOT
ATOM      1  C   UNL     1      23.917  49.700  87.327  1.00  0.00     0.138 A 
ATOM      2  C   UNL     1      24.917  49.238  86.459  1.00  0.00     0.100 A 
ATOM      3  C   UNL     1      26.005  50.060  86.160  1.00  0.00     0.197 A 
ATOM      4  O   UNL     1      26.917  49.595  85.428  1.00  0.00    -0.289 OA
ATOM      5  C   UNL     1      26.074  51.363  86.709  1.00  0.00     0.107 A 
ATOM      6  C   UNL     1      27.114  52.302  86.442  1.00  0.00     0.134 A 
ATOM      7  C   UNL     1      27.138  53.520  87.134  1.00  0.00     0.093 A 
ATOM      8  C   UNL     1      26.130  53.856  88.037  1.00  0.00     0.123 A 
ATOM      9  C   UNL     1      25.079  52.967  88.265  1.00  0.00     0.094 A 
ATOM     10  C   UNL     1      25.044  51.731  87.616  1.00  0.00     0.146 A 
ATOM     11  O   UNL     1      24.035  50.906  87.872  1.00  0.00    -0.456 OA
ENDROOT
BRANCH   1  12
ATOM     12  C   UNL     1      22.739  48.868  87.677  1.00  0.00     0.021 A 
ATOM     13  C   UNL     1      22.865  47.471  87.709  1.00  0.00     0.016 A 
ATOM     14  C   UNL     1      21.773  46.667  88.042  1.00  0.00     0.051 A 
ATOM     15  C   UNL     1      20.537  47.238  88.361  1.00  0.00     0.157 A 
ATOM     16  C   UNL     1      21.499  49.445  88.012  1.00  0.00     0.062 A 
ATOM     17  C   UNL     1      20.399  48.646  88.351  1.00  0.00     0.158 A 
BRANCH  15  18
ATOM     18  O   UNL     1      19.483  46.378  88.680  1.00  0.00    -0.504 OA
ATOM     19  H   UNL     1      19.579  45.561  89.264  1.00  0.00     0.293 HD
ENDBRANCH  15  18
BRANCH  17  20
ATOM     20  O   UNL     1      19.201  49.288  88.673  1.00  0.00    -0.504 OA
ATOM     21  H   UNL     1      19.135  50.261  88.935  1.00  0.00     0.293 HD
ENDBRANCH  17  20
ENDBRANCH   1  12
BRANCH   6  22
ATOM     22  O   UNL     1      28.125  52.102  85.497  1.00  0.00    -0.507 OA
ATOM     23  H   UNL     1      28.068  51.463  84.718  1.00  0.00     0.293 HD
ENDBRANCH   6  22
BRANCH   8  24
ATOM     24  O   UNL     1      26.179  55.082  88.696  1.00  0.00    -0.508 OA
ATOM     25  H   UNL     1      26.766  55.224  89.510  1.00  0.00     0.293 HD
ENDBRANCH   8  24
TORSDOF 5
ENDMDL
