MODEL 1
REMARK VINA RESULT:    -5.152      0.000      0.000
REMARK INTER + INTRA:          -6.330
REMARK INTER:                  -6.055
REMARK INTRA:                  -0.275
REMARK UNBOUND:                -0.275
REMARK SMILES O=c1c(O)c(-c2ccc(O)cc2)oc2cc(O)cc(O)c12
REMARK SMILES IDX 5 1 3 2 2 3 1 4 21 5 19 6 18 7 16 8 15 9 14 10 13 11 6 12
REMARK SMILES IDX 7 13 8 14 9 15 12 16 11 17 10 18 4 20 20 22 17 24
REMARK H PARENT 10 19 4 21 20 23 17 25
REMARK Flexibility Score: inf
ROOT
ATOM      1  C   UNL     1       2.736  17.073  29.940  1.00  0.00     0.180 A 
ATOM      2  C   UNL     1       1.655  17.925  30.241  1.00  0.00     0.208 A 
ATOM      3  C   UNL     1       0.483  17.370  30.776  1.00  0.00     0.238 A 
ATOM      4  O   UNL     1      -0.487  18.124  31.059  1.00  0.00    -0.285 OA
ATOM      5  C   UNL     1       0.401  15.978  30.982  1.00  0.00     0.111 A 
ATOM      6  C   UNL     1      -0.745  15.339  31.513  1.00  0.00     0.134 A 
ATOM      7  C   UNL     1      -0.752  13.946  31.680  1.00  0.00     0.093 A 
ATOM      8  C   UNL     1       0.361  13.182  31.326  1.00  0.00     0.123 A 
ATOM      9  C   UNL     1       1.497  13.806  30.801  1.00  0.00     0.094 A 
ATOM     10  C   UNL     1       1.524  15.193  30.629  1.00  0.00     0.146 A 
ATOM     11  O   UNL     1       2.618  15.762  30.134  1.00  0.00    -0.452 OA
ENDROOT
BRANCH   1  12
ATOM     12  C   UNL     1       4.013  17.584  29.392  1.00  0.00     0.021 A 
ATOM     13  C   UNL     1       5.074  17.873  30.266  1.00  0.00     0.016 A 
ATOM     14  C   UNL     1       6.280  18.378  29.772  1.00  0.00     0.047 A 
ATOM     15  C   UNL     1       6.436  18.614  28.400  1.00  0.00     0.115 A 
ATOM     16  C   UNL     1       4.171  17.841  28.017  1.00  0.00     0.016 A 
ATOM     17  C   UNL     1       5.378  18.347  27.527  1.00  0.00     0.047 A 
BRANCH  15  18
ATOM     18  O   UNL     1       7.634  19.115  27.897  1.00  0.00    -0.508 OA
ATOM     19  H   UNL     1       8.486  19.105  28.447  1.00  0.00     0.293 HD
ENDBRANCH  15  18
ENDBRANCH   1  12
BRANCH   2  20
ATOM     20  O   UNL     1       1.744  19.295  29.980  1.00  0.00    -0.502 OA
ATOM     21  H   UNL     1       2.565  19.839  30.216  1.00  0.00     0.293 HD
ENDBRANCH   2  20
BRANCH   6  22
ATOM     22  O   UNL     1      -1.875  16.076  31.875  1.00  0.00    -0.507 OA
ATOM     23  H   UNL     1      -1.800  16.959  32.365  1.00  0.00     0.293 HD
ENDBRANCH   6  22
BRANCH   8  24
ATOM     24  O   UNL     1       0.329  11.800  31.500  1.00  0.00    -0.508 OA
ATOM     25  H   UNL     1      -0.544  11.285  31.492  1.00  0.00     0.293 HD
ENDBRANCH   8  24
TORSDOF 5
ENDMDL
MODEL 2
REMARK VINA RESULT:    -4.857      4.743      8.338
REMARK INTER + INTRA:          -5.984
REMARK INTER:                  -5.753
REMARK INTRA:                  -0.230
REMARK UNBOUND:                -0.275
REMARK SMILES O=c1c(O)c(-c2ccc(O)cc2)oc2cc(O)cc(O)c12
REMARK SMILES IDX 5 1 3 2 2 3 1 4 21 5 19 6 18 7 16 8 15 9 14 10 13 11 6 12
REMARK SMILES IDX 7 13 8 14 9 15 12 16 11 17 10 18 4 20 20 22 17 24
REMARK H PARENT 10 19 4 21 20 23 17 25
REMARK Flexibility Score: inf
ROOT
ATOM      1  C   UNL     1      -0.613  11.017  33.163  1.00  0.00     0.180 A 
ATOM      2  C   UNL     1       0.372  10.635  34.096  1.00  0.00     0.208 A 
ATOM      3  C   UNL     1       0.255   9.392  34.736  1.00  0.00     0.238 A 
ATOM      4  O   UNL     1       1.136   9.035  35.564  1.00  0.00    -0.285 OA
ATOM      5  C   UNL     1      -0.850   8.564  34.452  1.00  0.00     0.111 A 
ATOM      6  C   UNL     1      -1.045   7.298  35.057  1.00  0.00     0.134 A 
ATOM      7  C   UNL     1      -2.176   6.536  34.728  1.00  0.00     0.093 A 
ATOM      8  C   UNL     1      -3.114   7.014  33.811  1.00  0.00     0.123 A 
ATOM      9  C   UNL     1      -2.927   8.262  33.209  1.00  0.00     0.094 A 
ATOM     10  C   UNL     1      -1.805   9.036  33.522  1.00  0.00     0.146 A 
ATOM     11  O   UNL     1      -1.648  10.215  32.932  1.00  0.00    -0.452 OA
ENDROOT
BRANCH   1  12
ATOM     12  C   UNL     1      -0.548  12.302  32.432  1.00  0.00     0.021 A 
ATOM     13  C   UNL     1       0.368  12.453  31.378  1.00  0.00     0.016 A 
ATOM     14  C   UNL     1       0.461  13.665  30.689  1.00  0.00     0.047 A 
ATOM     15  C   UNL     1      -0.350  14.748  31.054  1.00  0.00     0.115 A 
ATOM     16  C   UNL     1      -1.345  13.400  32.806  1.00  0.00     0.016 A 
ATOM     17  C   UNL     1      -1.249  14.612  32.115  1.00  0.00     0.047 A 
BRANCH  15  18
ATOM     18  O   UNL     1      -0.266  15.960  30.374  1.00  0.00    -0.508 OA
ATOM     19  H   UNL     1      -0.629  16.818  30.772  1.00  0.00     0.293 HD
ENDBRANCH  15  18
ENDBRANCH   1  12
BRANCH   2  20
ATOM     20  O   UNL     1       1.431  11.496  34.396  1.00  0.00    -0.502 OA
ATOM     21  H   UNL     1       1.283  12.448  34.710  1.00  0.00     0.293 HD
ENDBRANCH   2  20
BRANCH   6  22
ATOM     22  O   UNL     1      -0.127   6.795  35.980  1.00  0.00    -0.507 OA
ATOM     23  H   UNL     1      -0.102   5.811  36.225  1.00  0.00     0.293 HD
ENDBRANCH   6  22
BRANCH   8  24
ATOM     24  O   UNL     1      -4.229   6.238  33.502  1.00  0.00    -0.508 OA
ATOM     25  H   UNL     1      -4.599   6.192  32.559  1.00  0.00     0.293 HD
ENDBRANCH   8  24
TORSDOF 5
ENDMDL
MODEL 3
REMARK VINA RESULT:    -4.827      4.972      8.673
REMARK INTER + INTRA:          -5.948
REMARK INTER:                  -5.725
REMARK INTRA:                  -0.223
REMARK UNBOUND:                -0.275
REMARK SMILES O=c1c(O)c(-c2ccc(O)cc2)oc2cc(O)cc(O)c12
REMARK SMILES IDX 5 1 3 2 2 3 1 4 21 5 19 6 18 7 16 8 15 9 14 10 13 11 6 12
REMARK SMILES IDX 7 13 8 14 9 15 12 16 11 17 10 18 4 20 20 22 17 24
REMARK H PARENT 10 19 4 21 20 23 17 25
REMARK Flexibility Score: inf
ROOT
ATOM      1  C   UNL     1      -0.109  10.842  33.596  1.00  0.00     0.180 A 
ATOM      2  C   UNL     1      -1.055   9.798  33.636  1.00  0.00     0.208 A 
ATOM      3  C   UNL     1      -0.763   8.647  34.383  1.00  0.00     0.238 A 
ATOM      4  O   UNL     1      -1.607   7.710  34.435  1.00  0.00    -0.285 OA
ATOM      5  C   UNL     1       0.472   8.547  35.056  1.00  0.00     0.111 A 
ATOM      6  C   UNL     1       0.845   7.419  35.827  1.00  0.00     0.134 A 
ATOM      7  C   UNL     1       2.096   7.392  36.460  1.00  0.00     0.093 A 
ATOM      8  C   UNL     1       2.979   8.467  36.338  1.00  0.00     0.123 A 
ATOM      9  C   UNL     1       2.616   9.584  35.580  1.00  0.00     0.094 A 
ATOM     10  C   UNL     1       1.373   9.631  34.942  1.00  0.00     0.146 A 
ATOM     11  O   UNL     1       1.051  10.706  34.232  1.00  0.00    -0.452 OA
ENDROOT
BRANCH   1  12
ATOM     12  C   UNL     1      -0.352  12.096  32.847  1.00  0.00     0.021 A 
ATOM     13  C   UNL     1       0.398  12.366  31.691  1.00  0.00     0.016 A 
ATOM     14  C   UNL     1       0.201  13.554  30.981  1.00  0.00     0.047 A 
ATOM     15  C   UNL     1      -0.738  14.494  31.427  1.00  0.00     0.115 A 
ATOM     16  C   UNL     1      -1.279  13.052  33.300  1.00  0.00     0.016 A 
ATOM     17  C   UNL     1      -1.473  14.240  32.588  1.00  0.00     0.047 A 
BRANCH  15  18
ATOM     18  O   UNL     1      -0.943  15.680  30.727  1.00  0.00    -0.508 OA
ATOM     19  H   UNL     1      -0.182  16.158  30.259  1.00  0.00     0.293 HD
ENDBRANCH  15  18
ENDBRANCH   1  12
BRANCH   2  20
ATOM     20  O   UNL     1      -2.250   9.901  32.919  1.00  0.00    -0.502 OA
ATOM     21  H   UNL     1      -3.154   9.742  33.347  1.00  0.00     0.293 HD
ENDBRANCH   2  20
BRANCH   6  22
ATOM     22  O   UNL     1      -0.015   6.328  35.966  1.00  0.00    -0.507 OA
ATOM     23  H   UNL     1      -0.735   6.126  35.282  1.00  0.00     0.293 HD
ENDBRANCH   6  22
BRANCH   8  24
ATOM     24  O   UNL     1       4.216   8.414  36.977  1.00  0.00    -0.508 OA
ATOM     25  H   UNL     1       4.305   8.565  37.975  1.00  0.00     0.293 HD
ENDBRANCH   8  24
TORSDOF 5
ENDMDL
MODEL 4
REMARK VINA RESULT:    -4.790      4.068      7.202
REMARK INTER + INTRA:          -5.906
REMARK INTER:                  -5.697
REMARK INTRA:                  -0.209
REMARK UNBOUND:                -0.275
REMARK SMILES O=c1c(O)c(-c2ccc(O)cc2)oc2cc(O)cc(O)c12
REMARK SMILES IDX 5 1 3 2 2 3 1 4 21 5 19 6 18 7 16 8 15 9 14 10 13 11 6 12
REMARK SMILES IDX 7 13 8 14 9 15 12 16 11 17 10 18 4 20 20 22 17 24
REMARK H PARENT 10 19 4 21 20 23 17 25
REMARK Flexibility Score: inf
ROOT
ATOM      1  C   UNL     1       0.703  12.369  33.177  1.00  0.00     0.180 A 
ATOM      2  C   UNL     1      -0.173  11.272  33.065  1.00  0.00     0.208 A 
ATOM      3  C   UNL     1      -0.016  10.187  33.940  1.00  0.00     0.238 A 
ATOM      4  O   UNL     1      -0.801   9.203  33.856  1.00  0.00    -0.285 OA
ATOM      5  C   UNL     1       1.022  10.205  34.894  1.00  0.00     0.111 A 
ATOM      6  C   UNL     1       1.251   9.150  35.810  1.00  0.00     0.134 A 
ATOM      7  C   UNL     1       2.311   9.240  36.725  1.00  0.00     0.093 A 
ATOM      8  C   UNL     1       3.144  10.360  36.740  1.00  0.00     0.123 A 
ATOM      9  C   UNL     1       2.923  11.406  35.839  1.00  0.00     0.094 A 
ATOM     10  C   UNL     1       1.871  11.336  34.921  1.00  0.00     0.146 A 
ATOM     11  O   UNL     1       1.679  12.345  34.080  1.00  0.00    -0.452 OA
ENDROOT
BRANCH   1  12
ATOM     12  C   UNL     1       0.589  13.560  32.304  1.00  0.00     0.021 A 
ATOM     13  C   UNL     1       1.604  13.833  31.372  1.00  0.00     0.016 A 
ATOM     14  C   UNL     1       1.528  14.964  30.554  1.00  0.00     0.047 A 
ATOM     15  C   UNL     1       0.443  15.843  30.667  1.00  0.00     0.115 A 
ATOM     16  C   UNL     1      -0.487  14.458  32.425  1.00  0.00     0.016 A 
ATOM     17  C   UNL     1      -0.560  15.589  31.605  1.00  0.00     0.047 A 
BRANCH  15  18
ATOM     18  O   UNL     1       0.357  16.972  29.856  1.00  0.00    -0.508 OA
ATOM     19  H   UNL     1       1.180  17.388  29.435  1.00  0.00     0.293 HD
ENDBRANCH  15  18
ENDBRANCH   1  12
BRANCH   2  20
ATOM     20  O   UNL     1      -1.162  11.256  32.077  1.00  0.00    -0.502 OA
ATOM     21  H   UNL     1      -2.019  10.725  32.176  1.00  0.00     0.293 HD
ENDBRANCH   2  20
BRANCH   6  22
ATOM     22  O   UNL     1       0.436   8.016  35.818  1.00  0.00    -0.507 OA
ATOM     23  H   UNL     1       0.823   7.083  35.899  1.00  0.00     0.293 HD
ENDBRANCH   6  22
BRANCH   8  24
ATOM     24  O   UNL     1       4.191  10.424  37.658  1.00  0.00    -0.508 OA
ATOM     25  H   UNL     1       4.019  10.448  38.657  1.00  0.00     0.293 HD
ENDBRANCH   8  24
TORSDOF 5
ENDMDL
MODEL 5
REMARK VINA RESULT:    -4.755      2.671      3.978
REMARK INTER + INTRA:          -5.865
REMARK INTER:                  -5.897
REMARK INTRA:                   0.033
REMARK UNBOUND:                -0.275
REMARK SMILES O=c1c(O)c(-c2ccc(O)cc2)oc2cc(O)cc(O)c12
REMARK SMILES IDX 5 1 3 2 2 3 1 4 21 5 19 6 18 7 16 8 15 9 14 10 13 11 6 12
REMARK SMILES IDX 7 13 8 14 9 15 12 16 11 17 10 18 4 20 20 22 17 24
REMARK H PARENT 10 19 4 21 20 23 17 25
REMARK Flexibility Score: inf
ROOT
ATOM      1  C   UNL     1       1.753  15.530  31.154  1.00  0.00     0.180 A 
ATOM      2  C   UNL     1       0.560  14.782  31.123  1.00  0.00     0.208 A 
ATOM      3  C   UNL     1       0.350  13.799  32.102  1.00  0.00     0.238 A 
ATOM      4  O   UNL     1      -0.719  13.130  32.092  1.00  0.00    -0.285 OA
ATOM      5  C   UNL     1       1.340  13.565  33.078  1.00  0.00     0.111 A 
ATOM      6  C   UNL     1       1.209  12.590  34.097  1.00  0.00     0.134 A 
ATOM      7  C   UNL     1       2.243  12.411  35.027  1.00  0.00     0.093 A 
ATOM      8  C   UNL     1       3.404  13.184  34.958  1.00  0.00     0.123 A 
ATOM      9  C   UNL     1       3.540  14.149  33.955  1.00  0.00     0.094 A 
ATOM     10  C   UNL     1       2.519  14.344  33.020  1.00  0.00     0.146 A 
ATOM     11  O   UNL     1       2.671  15.271  32.081  1.00  0.00    -0.452 OA
ENDROOT
BRANCH   1  12
ATOM     12  C   UNL     1       2.039  16.597  30.169  1.00  0.00     0.021 A 
ATOM     13  C   UNL     1       3.307  16.660  29.566  1.00  0.00     0.016 A 
ATOM     14  C   UNL     1       3.605  17.673  28.650  1.00  0.00     0.047 A 
ATOM     15  C   UNL     1       2.646  18.644  28.335  1.00  0.00     0.115 A 
ATOM     16  C   UNL     1       1.087  17.587  29.862  1.00  0.00     0.016 A 
ATOM     17  C   UNL     1       1.389  18.599  28.946  1.00  0.00     0.047 A 
BRANCH  15  18
ATOM     18  O   UNL     1       2.932  19.656  27.423  1.00  0.00    -0.508 OA
ATOM     19  H   UNL     1       3.361  19.457  26.527  1.00  0.00     0.293 HD
ENDBRANCH  15  18
ENDBRANCH   1  12
BRANCH   2  20
ATOM     20  O   UNL     1      -0.384  14.999  30.115  1.00  0.00    -0.502 OA
ATOM     21  H   UNL     1      -0.629  14.285  29.440  1.00  0.00     0.293 HD
ENDBRANCH   2  20
BRANCH   6  22
ATOM     22  O   UNL     1       0.062  11.799  34.191  1.00  0.00    -0.507 OA
ATOM     23  H   UNL     1       0.113  10.788  34.230  1.00  0.00     0.293 HD
ENDBRANCH   6  22
BRANCH   8  24
ATOM     24  O   UNL     1       4.417  12.986  35.894  1.00  0.00    -0.508 OA
ATOM     25  H   UNL     1       5.261  12.476  35.661  1.00  0.00     0.293 HD
ENDBRANCH   8  24
TORSDOF 5
ENDMDL
MODEL 6
REMARK VINA RESULT:    -4.721      2.281      6.992
REMARK INTER + INTRA:          -5.824
REMARK INTER:                  -5.734
REMARK INTRA:                  -0.090
REMARK UNBOUND:                -0.275
REMARK SMILES O=c1c(O)c(-c2ccc(O)cc2)oc2cc(O)cc(O)c12
REMARK SMILES IDX 5 1 3 2 2 3 1 4 21 5 19 6 18 7 16 8 15 9 14 10 13 11 6 12
REMARK SMILES IDX 7 13 8 14 9 15 12 16 11 17 10 18 4 20 20 22 17 24
REMARK H PARENT 10 19 4 21 20 23 17 25
REMARK Flexibility Score: inf
ROOT
ATOM      1  C   UNL     1       0.208  13.833  32.265  1.00  0.00     0.180 A 
ATOM      2  C   UNL     1      -0.929  14.657  32.142  1.00  0.00     0.208 A 
ATOM      3  C   UNL     1      -0.816  15.869  31.444  1.00  0.00     0.238 A 
ATOM      4  O   UNL     1      -1.829  16.609  31.318  1.00  0.00    -0.285 OA
ATOM      5  C   UNL     1       0.429  16.248  30.902  1.00  0.00     0.111 A 
ATOM      6  C   UNL     1       0.628  17.455  30.189  1.00  0.00     0.134 A 
ATOM      7  C   UNL     1       1.901  17.765  29.687  1.00  0.00     0.093 A 
ATOM      8  C   UNL     1       2.975  16.895  29.885  1.00  0.00     0.123 A 
ATOM      9  C   UNL     1       2.785  15.701  30.587  1.00  0.00     0.094 A 
ATOM     10  C   UNL     1       1.524  15.373  31.094  1.00  0.00     0.146 A 
ATOM     11  O   UNL     1       1.369  14.231  31.753  1.00  0.00    -0.452 OA
ENDROOT
BRANCH   1  12
ATOM     12  C   UNL     1       0.164  12.531  32.968  1.00  0.00     0.021 A 
ATOM     13  C   UNL     1       1.059  12.285  34.023  1.00  0.00     0.016 A 
ATOM     14  C   UNL     1       1.051  11.055  34.685  1.00  0.00     0.047 A 
ATOM     15  C   UNL     1       0.158  10.049  34.293  1.00  0.00     0.115 A 
ATOM     16  C   UNL     1      -0.716  11.510  32.567  1.00  0.00     0.016 A 
ATOM     17  C   UNL     1      -0.721  10.280  33.231  1.00  0.00     0.047 A 
BRANCH  15  18
ATOM     18  O   UNL     1       0.140   8.820  34.947  1.00  0.00    -0.508 OA
ATOM     19  H   UNL     1      -0.689   8.238  34.960  1.00  0.00     0.293 HD
ENDBRANCH  15  18
ENDBRANCH   1  12
BRANCH   2  20
ATOM     20  O   UNL     1      -2.139  14.281  32.732  1.00  0.00    -0.502 OA
ATOM     21  H   UNL     1      -2.670  14.908  33.324  1.00  0.00     0.293 HD
ENDBRANCH   2  20
BRANCH   6  22
ATOM     22  O   UNL     1      -0.425  18.346  29.977  1.00  0.00    -0.507 OA
ATOM     23  H   UNL     1      -1.332  18.212  30.410  1.00  0.00     0.293 HD
ENDBRANCH   6  22
BRANCH   8  24
ATOM     24  O   UNL     1       4.230  17.227  29.377  1.00  0.00    -0.508 OA
ATOM     25  H   UNL     1       4.942  16.523  29.222  1.00  0.00     0.293 HD
ENDBRANCH   8  24
TORSDOF 5
ENDMDL
MODEL 7
REMARK VINA RESULT:    -4.697     10.861     12.922
REMARK INTER + INTRA:          -5.796
REMARK INTER:                  -5.524
REMARK INTRA:                  -0.271
REMARK UNBOUND:                -0.275
REMARK SMILES O=c1c(O)c(-c2ccc(O)cc2)oc2cc(O)cc(O)c12
REMARK SMILES IDX 5 1 3 2 2 3 1 4 21 5 19 6 18 7 16 8 15 9 14 10 13 11 6 12
REMARK SMILES IDX 7 13 8 14 9 15 12 16 11 17 10 18 4 20 20 22 17 24
REMARK H PARENT 10 19 4 21 20 23 17 25
REMARK Flexibility Score: inf
ROOT
ATOM      1  C   UNL     1       7.554   5.469  31.580  1.00  0.00     0.180 A 
ATOM      2  C   UNL     1       8.696   5.941  32.258  1.00  0.00     0.208 A 
ATOM      3  C   UNL     1       8.527   6.691  33.431  1.00  0.00     0.238 A 
ATOM      4  O   UNL     1       9.542   7.109  34.052  1.00  0.00    -0.285 OA
ATOM      5  C   UNL     1       7.226   6.975  33.895  1.00  0.00     0.111 A 
ATOM      6  C   UNL     1       6.970   7.728  35.067  1.00  0.00     0.134 A 
ATOM      7  C   UNL     1       5.646   7.976  35.459  1.00  0.00     0.093 A 
ATOM      8  C   UNL     1       4.577   7.489  34.704  1.00  0.00     0.123 A 
ATOM      9  C   UNL     1       4.824   6.744  33.546  1.00  0.00     0.094 A 
ATOM     10  C   UNL     1       6.136   6.485  33.140  1.00  0.00     0.146 A 
ATOM     11  O   UNL     1       6.343   5.770  32.040  1.00  0.00    -0.452 OA
ENDROOT
BRANCH   1  12
ATOM     12  C   UNL     1       7.650   4.655  30.348  1.00  0.00     0.021 A 
ATOM     13  C   UNL     1       7.910   3.278  30.448  1.00  0.00     0.016 A 
ATOM     14  C   UNL     1       8.027   2.494  29.296  1.00  0.00     0.047 A 
ATOM     15  C   UNL     1       7.900   3.079  28.030  1.00  0.00     0.115 A 
ATOM     16  C   UNL     1       7.543   5.239  29.072  1.00  0.00     0.016 A 
ATOM     17  C   UNL     1       7.661   4.452  27.922  1.00  0.00     0.047 A 
BRANCH  15  18
ATOM     18  O   UNL     1       8.013   2.308  26.876  1.00  0.00    -0.508 OA
ATOM     19  H   UNL     1       7.282   2.291  26.175  1.00  0.00     0.293 HD
ENDBRANCH  15  18
ENDBRANCH   1  12
BRANCH   2  20
ATOM     20  O   UNL     1       9.973   5.687  31.749  1.00  0.00    -0.502 OA
ATOM     21  H   UNL     1      10.809   6.079  32.165  1.00  0.00     0.293 HD
ENDBRANCH   2  20
BRANCH   6  22
ATOM     22  O   UNL     1       8.017   8.231  35.841  1.00  0.00    -0.507 OA
ATOM     23  H   UNL     1       8.986   8.106  35.573  1.00  0.00     0.293 HD
ENDBRANCH   6  22
BRANCH   8  24
ATOM     24  O   UNL     1       3.271   7.750  35.114  1.00  0.00    -0.508 OA
ATOM     25  H   UNL     1       2.529   7.919  34.445  1.00  0.00     0.293 HD
ENDBRANCH   8  24
TORSDOF 5
ENDMDL
MODEL 8
REMARK VINA RESULT:    -4.696     11.529     14.124
REMARK INTER + INTRA:          -5.795
REMARK INTER:                  -5.506
REMARK INTRA:                  -0.289
REMARK UNBOUND:                -0.275
REMARK SMILES O=c1c(O)c(-c2ccc(O)cc2)oc2cc(O)cc(O)c12
REMARK SMILES IDX 5 1 3 2 2 3 1 4 21 5 19 6 18 7 16 8 15 9 14 10 13 11 6 12
REMARK SMILES IDX 7 13 8 14 9 15 12 16 11 17 10 18 4 20 20 22 17 24
REMARK H PARENT 10 19 4 21 20 23 17 25
REMARK Flexibility Score: inf
ROOT
ATOM      1  C   UNL     1       4.420   8.464  39.776  1.00  0.00     0.180 A 
ATOM      2  C   UNL     1       4.217   9.325  40.872  1.00  0.00     0.208 A 
ATOM      3  C   UNL     1       4.879   9.054  42.079  1.00  0.00     0.238 A 
ATOM      4  O   UNL     1       4.714   9.825  43.064  1.00  0.00    -0.285 OA
ATOM      5  C   UNL     1       5.711   7.921  42.179  1.00  0.00     0.111 A 
ATOM      6  C   UNL     1       6.410   7.574  43.360  1.00  0.00     0.134 A 
ATOM      7  C   UNL     1       7.213   6.424  43.382  1.00  0.00     0.093 A 
ATOM      8  C   UNL     1       7.329   5.616  42.250  1.00  0.00     0.123 A 
ATOM      9  C   UNL     1       6.642   5.952  41.080  1.00  0.00     0.094 A 
ATOM     10  C   UNL     1       5.839   7.095  41.037  1.00  0.00     0.146 A 
ATOM     11  O   UNL     1       5.201   7.396  39.911  1.00  0.00    -0.452 OA
ENDROOT
BRANCH   1  12
ATOM     12  C   UNL     1       3.774   8.693  38.464  1.00  0.00     0.021 A 
ATOM     13  C   UNL     1       4.390   9.542  37.529  1.00  0.00     0.016 A 
ATOM     14  C   UNL     1       3.786   9.791  36.293  1.00  0.00     0.047 A 
ATOM     15  C   UNL     1       2.552   9.206  35.981  1.00  0.00     0.115 A 
ATOM     16  C   UNL     1       2.525   8.125  38.151  1.00  0.00     0.016 A 
ATOM     17  C   UNL     1       1.924   8.377  36.914  1.00  0.00     0.047 A 
BRANCH  15  18
ATOM     18  O   UNL     1       1.943   9.446  34.753  1.00  0.00    -0.508 OA
ATOM     19  H   UNL     1       2.455   9.367  33.882  1.00  0.00     0.293 HD
ENDBRANCH  15  18
ENDBRANCH   1  12
BRANCH   2  20
ATOM     20  O   UNL     1       3.348  10.414  40.762  1.00  0.00    -0.502 OA
ATOM     21  H   UNL     1       3.463  11.131  40.056  1.00  0.00     0.293 HD
ENDBRANCH   2  20
BRANCH   6  22
ATOM     22  O   UNL     1       6.313   8.361  44.509  1.00  0.00    -0.507 OA
ATOM     23  H   UNL     1       6.994   9.081  44.721  1.00  0.00     0.293 HD
ENDBRANCH   6  22
BRANCH   8  24
ATOM     24  O   UNL     1       8.132   4.478  42.298  1.00  0.00    -0.508 OA
ATOM     25  H   UNL     1       7.786   3.600  42.667  1.00  0.00     0.293 HD
ENDBRANCH   8  24
TORSDOF 5
ENDMDL
MODEL 9
REMARK VINA RESULT:    -4.617     11.890     13.640
REMARK INTER + INTRA:          -5.702
REMARK INTER:                  -5.406
REMARK INTRA:                  -0.296
REMARK UNBOUND:                -0.275
REMARK SMILES O=c1c(O)c(-c2ccc(O)cc2)oc2cc(O)cc(O)c12
REMARK SMILES IDX 5 1 3 2 2 3 1 4 21 5 19 6 18 7 16 8 15 9 14 10 13 11 6 12
REMARK SMILES IDX 7 13 8 14 9 15 12 16 11 17 10 18 4 20 20 22 17 24
REMARK H PARENT 10 19 4 21 20 23 17 25
REMARK Flexibility Score: inf
ROOT
ATOM      1  C   UNL     1       7.925   5.725  31.859  1.00  0.00     0.180 A 
ATOM      2  C   UNL     1       6.738   5.131  31.384  1.00  0.00     0.208 A 
ATOM      3  C   UNL     1       6.691   4.677  30.058  1.00  0.00     0.238 A 
ATOM      4  O   UNL     1       5.638   4.134  29.625  1.00  0.00    -0.285 OA
ATOM      5  C   UNL     1       7.816   4.842  29.224  1.00  0.00     0.111 A 
ATOM      6  C   UNL     1       7.848   4.415  27.874  1.00  0.00     0.134 A 
ATOM      7  C   UNL     1       9.004   4.623  27.106  1.00  0.00     0.093 A 
ATOM      8  C   UNL     1      10.124   5.247  27.660  1.00  0.00     0.123 A 
ATOM      9  C   UNL     1      10.098   5.670  28.992  1.00  0.00     0.094 A 
ATOM     10  C   UNL     1       8.957   5.470  29.774  1.00  0.00     0.146 A 
ATOM     11  O   UNL     1       8.961   5.876  31.039  1.00  0.00    -0.452 OA
ENDROOT
BRANCH   1  12
ATOM     12  C   UNL     1       8.060   6.211  33.251  1.00  0.00     0.021 A 
ATOM     13  C   UNL     1       7.855   7.572  33.531  1.00  0.00     0.016 A 
ATOM     14  C   UNL     1       7.999   8.056  34.834  1.00  0.00     0.047 A 
ATOM     15  C   UNL     1       8.365   7.189  35.872  1.00  0.00     0.115 A 
ATOM     16  C   UNL     1       8.446   5.349  34.294  1.00  0.00     0.016 A 
ATOM     17  C   UNL     1       8.590   5.837  35.597  1.00  0.00     0.047 A 
BRANCH  15  18
ATOM     18  O   UNL     1       8.510   7.660  37.174  1.00  0.00    -0.508 OA
ATOM     19  H   UNL     1       9.112   7.194  37.843  1.00  0.00     0.293 HD
ENDBRANCH  15  18
ENDBRANCH   1  12
BRANCH   2  20
ATOM     20  O   UNL     1       5.620   5.026  32.217  1.00  0.00    -0.502 OA
ATOM     21  H   UNL     1       4.675   5.142  31.872  1.00  0.00     0.293 HD
ENDBRANCH   2  20
BRANCH   6  22
ATOM     22  O   UNL     1       6.745   3.790  27.292  1.00  0.00    -0.507 OA
ATOM     23  H   UNL     1       5.825   3.827  27.717  1.00  0.00     0.293 HD
ENDBRANCH   6  22
BRANCH   8  24
ATOM     24  O   UNL     1      11.259   5.442  26.875  1.00  0.00    -0.508 OA
ATOM     25  H   UNL     1      12.179   5.161  27.195  1.00  0.00     0.293 HD
ENDBRANCH   8  24
TORSDOF 5
ENDMDL
