MODEL 1
REMARK VINA RESULT:    -3.117      0.000      0.000
REMARK INTER + INTRA:          -8.493
REMARK INTER:                  -7.125
REMARK INTRA:                  -1.368
REMARK UNBOUND:                -1.368
REMARK SMILES CCCCCCCCCCCCCCCCCCCCCCCC(=O)[O-]
REMARK SMILES IDX 13 1 14 2 15 3 16 4 17 5 18 6 19 7 20 8 21 9 22 10 23 11
REMARK SMILES IDX 24 12 25 13 26 14 12 15 11 16 10 17 9 18 8 19 7 20 6 21 5 22
REMARK SMILES IDX 4 23 3 24 2 25 1 26
REMARK H PARENT
REMARK Flexibility Score: inf
ROOT
ATOM      1  C   UNL     1       9.596  79.829   2.685  1.00  0.00     0.000 C 
ENDROOT
BRANCH   1   2
ATOM      2  C   UNL     1      11.121  79.946   2.504  1.00  0.00     0.000 C 
BRANCH   2   3
ATOM      3  C   UNL     1      11.628  79.677   1.076  1.00  0.00     0.000 C 
BRANCH   3   4
ATOM      4  C   UNL     1      10.595  79.032   0.132  1.00  0.00     0.000 C 
BRANCH   4   5
ATOM      5  C   UNL     1       9.970  80.022  -0.875  1.00  0.00     0.000 C 
BRANCH   5   6
ATOM      6  C   UNL     1       8.437  79.915  -0.925  1.00  0.00     0.000 C 
BRANCH   6   7
ATOM      7  C   UNL     1       7.800  79.900   0.477  1.00  0.00     0.000 C 
BRANCH   7   8
ATOM      8  C   UNL     1       6.297  79.562   0.480  1.00  0.00     0.000 C 
BRANCH   8   9
ATOM      9  C   UNL     1       5.835  78.958   1.816  1.00  0.00     0.000 C 
BRANCH   9  10
ATOM     10  C   UNL     1       5.976  77.430   1.809  1.00  0.00     0.006 C 
BRANCH  10  11
ATOM     11  C   UNL     1       5.862  76.874   0.386  1.00  0.00     0.053 C 
BRANCH  11  12
ATOM     12  C   UNL     1       5.164  75.550   0.393  1.00  0.00     0.041 C 
ATOM     13  O   UNL     1       5.221  74.809   1.408  1.00  0.00    -0.550 OA
ATOM     14  O   UNL     1       4.412  75.154  -0.706  1.00  0.00    -0.550 OA
ENDBRANCH  11  12
ENDBRANCH  10  11
ENDBRANCH   9  10
ENDBRANCH   8   9
ENDBRANCH   7   8
ENDBRANCH   6   7
ENDBRANCH   5   6
ENDBRANCH   4   5
ENDBRANCH   3   4
ENDBRANCH   2   3
ENDBRANCH   1   2
BRANCH   1  15
ATOM     15  C   UNL     1       9.170  78.765   3.720  1.00  0.00     0.000 C 
BRANCH  15  16
ATOM     16  C   UNL     1       8.099  79.288   4.690  1.00  0.00     0.000 C 
BRANCH  16  17
ATOM     17  C   UNL     1       7.760  78.231   5.750  1.00  0.00     0.000 C 
BRANCH  17  18
ATOM     18  C   UNL     1       6.261  77.883   5.789  1.00  0.00    -0.000 C 
BRANCH  18  19
ATOM     19  C   UNL     1       5.656  77.749   7.201  1.00  0.00    -0.000 C 
BRANCH  19  20
ATOM     20  C   UNL     1       4.122  77.619   7.250  1.00  0.00    -0.000 C 
BRANCH  20  21
ATOM     21  C   UNL     1       3.465  78.648   8.186  1.00  0.00    -0.000 C 
BRANCH  21  22
ATOM     22  C   UNL     1       3.876  78.459   9.655  1.00  0.00    -0.000 C 
BRANCH  22  23
ATOM     23  C   UNL     1       4.202  79.785  10.359  1.00  0.00    -0.000 C 
BRANCH  23  24
ATOM     24  C   UNL     1       4.500  79.552  11.850  1.00  0.00    -0.000 C 
BRANCH  24  25
ATOM     25  C   UNL     1       5.962  79.157  12.108  1.00  0.00    -0.003 C 
ATOM     26  C   UNL     1       6.188  77.646  12.044  1.00  0.00     0.004 C 
ENDBRANCH  24  25
ENDBRANCH  23  24
ENDBRANCH  22  23
ENDBRANCH  21  22
ENDBRANCH  20  21
ENDBRANCH  19  20
ENDBRANCH  18  19
ENDBRANCH  17  18
ENDBRANCH  16  17
ENDBRANCH  15  16
ENDBRANCH   1  15
TORSDOF 22
ENDMDL
MODEL 2
REMARK VINA RESULT:    -1.931      3.013      4.830
REMARK INTER + INTRA:          -5.782
REMARK INTER:                  -4.751
REMARK INTRA:                  -1.030
REMARK UNBOUND:                -1.368
REMARK SMILES CCCCCCCCCCCCCCCCCCCCCCCC(=O)[O-]
REMARK SMILES IDX 13 1 14 2 15 3 16 4 17 5 18 6 19 7 20 8 21 9 22 10 23 11
REMARK SMILES IDX 24 12 25 13 26 14 12 15 11 16 10 17 9 18 8 19 7 20 6 21 5 22
REMARK SMILES IDX 4 23 3 24 2 25 1 26
REMARK H PARENT
REMARK Flexibility Score: inf
ROOT
ATOM      1  C   UNL     1       8.865  78.982   4.078  1.00  0.00     0.000 C 
ENDROOT
BRANCH   1   2
ATOM      2  C   UNL     1       8.591  79.781   2.791  1.00  0.00     0.000 C 
BRANCH   2   3
ATOM      3  C   UNL     1       8.078  78.946   1.605  1.00  0.00     0.000 C 
BRANCH   3   4
ATOM      4  C   UNL     1       8.259  79.602   0.222  1.00  0.00     0.000 C 
BRANCH   4   5
ATOM      5  C   UNL     1       9.735  79.850  -0.158  1.00  0.00     0.000 C 
BRANCH   5   6
ATOM      6  C   UNL     1      10.712  79.146   0.799  1.00  0.00     0.000 C 
BRANCH   6   7
ATOM      7  C   UNL     1      11.713  80.123   1.445  1.00  0.00     0.000 C 
BRANCH   7   8
ATOM      8  C   UNL     1      12.978  79.447   2.004  1.00  0.00     0.000 C 
BRANCH   8   9
ATOM      9  C   UNL     1      14.229  79.759   1.167  1.00  0.00     0.000 C 
BRANCH   9  10
ATOM     10  C   UNL     1      14.712  78.514   0.412  1.00  0.00     0.006 C 
BRANCH  10  11
ATOM     11  C   UNL     1      14.157  78.486  -1.015  1.00  0.00     0.053 C 
BRANCH  11  12
ATOM     12  C   UNL     1      13.896  77.079  -1.451  1.00  0.00     0.041 C 
ATOM     13  O   UNL     1      14.090  76.122  -0.656  1.00  0.00    -0.550 OA
ATOM     14  O   UNL     1      13.393  76.826  -2.722  1.00  0.00    -0.550 OA
ENDBRANCH  11  12
ENDBRANCH  10  11
ENDBRANCH   9  10
ENDBRANCH   8   9
ENDBRANCH   7   8
ENDBRANCH   6   7
ENDBRANCH   5   6
ENDBRANCH   4   5
ENDBRANCH   3   4
ENDBRANCH   2   3
ENDBRANCH   1   2
BRANCH   1  15
ATOM     15  C   UNL     1       7.594  78.645   4.886  1.00  0.00     0.000 C 
BRANCH  15  16
ATOM     16  C   UNL     1       7.905  77.841   6.159  1.00  0.00     0.000 C 
BRANCH  16  17
ATOM     17  C   UNL     1       6.732  77.907   7.147  1.00  0.00     0.000 C 
BRANCH  17  18
ATOM     18  C   UNL     1       5.388  77.521   6.503  1.00  0.00    -0.000 C 
BRANCH  18  19
ATOM     19  C   UNL     1       4.151  78.222   7.102  1.00  0.00    -0.000 C 
BRANCH  19  20
ATOM     20  C   UNL     1       3.903  77.951   8.598  1.00  0.00    -0.000 C 
BRANCH  20  21
ATOM     21  C   UNL     1       4.014  79.220   9.461  1.00  0.00    -0.000 C 
BRANCH  21  22
ATOM     22  C   UNL     1       3.190  79.130  10.756  1.00  0.00    -0.000 C 
BRANCH  22  23
ATOM     23  C   UNL     1       4.062  78.928  12.005  1.00  0.00    -0.000 C 
BRANCH  23  24
ATOM     24  C   UNL     1       5.380  79.710  11.882  1.00  0.00    -0.000 C 
BRANCH  24  25
ATOM     25  C   UNL     1       6.618  78.805  11.984  1.00  0.00    -0.003 C 
ATOM     26  C   UNL     1       6.260  77.325  12.123  1.00  0.00     0.004 C 
ENDBRANCH  24  25
ENDBRANCH  23  24
ENDBRANCH  22  23
ENDBRANCH  21  22
ENDBRANCH  20  21
ENDBRANCH  19  20
ENDBRANCH  18  19
ENDBRANCH  17  18
ENDBRANCH  16  17
ENDBRANCH  15  16
ENDBRANCH   1  15
TORSDOF 22
ENDMDL
MODEL 3
REMARK VINA RESULT:    -1.894      3.312      4.934
REMARK INTER + INTRA:          -5.699
REMARK INTER:                  -5.214
REMARK INTRA:                  -0.485
REMARK UNBOUND:                -1.368
REMARK SMILES CCCCCCCCCCCCCCCCCCCCCCCC(=O)[O-]
REMARK SMILES IDX 13 1 14 2 15 3 16 4 17 5 18 6 19 7 20 8 21 9 22 10 23 11
REMARK SMILES IDX 24 12 25 13 26 14 12 15 11 16 10 17 9 18 8 19 7 20 6 21 5 22
REMARK SMILES IDX 4 23 3 24 2 25 1 26
REMARK H PARENT
REMARK Flexibility Score: inf
ROOT
ATOM      1  C   UNL     1       7.905  79.077   5.500  1.00  0.00     0.000 C 
ENDROOT
BRANCH   1   2
ATOM      2  C   UNL     1       8.462  79.096   4.064  1.00  0.00     0.000 C 
BRANCH   2   3
ATOM      3  C   UNL     1       7.519  79.704   3.010  1.00  0.00     0.000 C 
BRANCH   3   4
ATOM      4  C   UNL     1       7.051  78.724   1.917  1.00  0.00     0.000 C 
BRANCH   4   5
ATOM      5  C   UNL     1       7.020  79.341   0.502  1.00  0.00     0.000 C 
BRANCH   5   6
ATOM      6  C   UNL     1       8.316  80.098   0.166  1.00  0.00     0.000 C 
BRANCH   6   7
ATOM      7  C   UNL     1       9.539  79.535   0.914  1.00  0.00     0.000 C 
BRANCH   7   8
ATOM      8  C   UNL     1      10.885  80.121   0.447  1.00  0.00     0.000 C 
BRANCH   8   9
ATOM      9  C   UNL     1      11.585  79.227  -0.589  1.00  0.00     0.000 C 
BRANCH   9  10
ATOM     10  C   UNL     1      12.155  77.963   0.068  1.00  0.00     0.006 C 
BRANCH  10  11
ATOM     11  C   UNL     1      13.217  77.311  -0.822  1.00  0.00     0.053 C 
BRANCH  11  12
ATOM     12  C   UNL     1      14.277  78.302  -1.190  1.00  0.00     0.041 C 
ATOM     13  O   UNL     1      14.650  79.169  -0.357  1.00  0.00    -0.550 OA
ATOM     14  O   UNL     1      14.885  78.239  -2.437  1.00  0.00    -0.550 OA
ENDBRANCH  11  12
ENDBRANCH  10  11
ENDBRANCH   9  10
ENDBRANCH   8   9
ENDBRANCH   7   8
ENDBRANCH   6   7
ENDBRANCH   5   6
ENDBRANCH   4   5
ENDBRANCH   3   4
ENDBRANCH   2   3
ENDBRANCH   1   2
BRANCH   1  15
ATOM     15  C   UNL     1       6.852  77.977   5.747  1.00  0.00     0.000 C 
BRANCH  15  16
ATOM     16  C   UNL     1       5.848  78.363   6.844  1.00  0.00     0.000 C 
BRANCH  16  17
ATOM     17  C   UNL     1       4.917  77.186   7.172  1.00  0.00     0.000 C 
BRANCH  17  18
ATOM     18  C   UNL     1       3.744  77.589   8.083  1.00  0.00    -0.000 C 
BRANCH  18  19
ATOM     19  C   UNL     1       2.765  78.614   7.476  1.00  0.00    -0.000 C 
BRANCH  19  20
ATOM     20  C   UNL     1       2.649  79.945   8.240  1.00  0.00    -0.000 C 
BRANCH  20  21
ATOM     21  C   UNL     1       3.475  79.963   9.538  1.00  0.00    -0.000 C 
BRANCH  21  22
ATOM     22  C   UNL     1       2.631  79.647  10.783  1.00  0.00    -0.000 C 
BRANCH  22  23
ATOM     23  C   UNL     1       3.288  80.125  12.087  1.00  0.00    -0.000 C 
BRANCH  23  24
ATOM     24  C   UNL     1       4.775  79.736  12.123  1.00  0.00    -0.000 C 
BRANCH  24  25
ATOM     25  C   UNL     1       4.997  78.225  11.950  1.00  0.00    -0.003 C 
ATOM     26  C   UNL     1       6.419  77.883  11.503  1.00  0.00     0.004 C 
ENDBRANCH  24  25
ENDBRANCH  23  24
ENDBRANCH  22  23
ENDBRANCH  21  22
ENDBRANCH  20  21
ENDBRANCH  19  20
ENDBRANCH  18  19
ENDBRANCH  17  18
ENDBRANCH  16  17
ENDBRANCH  15  16
ENDBRANCH   1  15
TORSDOF 22
ENDMDL
MODEL 4
REMARK VINA RESULT:    -1.852      3.367      8.465
REMARK INTER + INTRA:          -5.603
REMARK INTER:                  -4.706
REMARK INTRA:                  -0.897
REMARK UNBOUND:                -1.368
REMARK SMILES CCCCCCCCCCCCCCCCCCCCCCCC(=O)[O-]
REMARK SMILES IDX 13 1 14 2 15 3 16 4 17 5 18 6 19 7 20 8 21 9 22 10 23 11
REMARK SMILES IDX 24 12 25 13 26 14 12 15 11 16 10 17 9 18 8 19 7 20 6 21 5 22
REMARK SMILES IDX 4 23 3 24 2 25 1 26
REMARK H PARENT
REMARK Flexibility Score: inf
ROOT
ATOM      1  C   UNL     1       9.962  78.780   2.127  1.00  0.00     0.000 C 
ENDROOT
BRANCH   1   2
ATOM      2  C   UNL     1       9.446  78.656   3.573  1.00  0.00     0.000 C 
BRANCH   2   3
ATOM      3  C   UNL     1       8.620  79.854   4.073  1.00  0.00     0.000 C 
BRANCH   3   4
ATOM      4  C   UNL     1       7.593  79.521   5.172  1.00  0.00     0.000 C 
BRANCH   4   5
ATOM      5  C   UNL     1       7.650  78.053   5.651  1.00  0.00     0.000 C 
BRANCH   5   6
ATOM      6  C   UNL     1       6.823  77.822   6.927  1.00  0.00     0.000 C 
BRANCH   6   7
ATOM      7  C   UNL     1       5.311  77.988   6.688  1.00  0.00     0.000 C 
BRANCH   7   8
ATOM      8  C   UNL     1       4.435  77.535   7.872  1.00  0.00     0.000 C 
BRANCH   8   9
ATOM      9  C   UNL     1       3.105  78.302   7.944  1.00  0.00     0.000 C 
BRANCH   9  10
ATOM     10  C   UNL     1       3.227  79.534   8.850  1.00  0.00     0.006 C 
BRANCH  10  11
ATOM     11  C   UNL     1       4.199  79.273  10.005  1.00  0.00     0.053 C 
BRANCH  11  12
ATOM     12  C   UNL     1       3.477  78.698  11.182  1.00  0.00     0.041 C 
ATOM     13  O   UNL     1       3.528  77.461  11.414  1.00  0.00    -0.550 OA
ATOM     14  O   UNL     1       2.785  79.533  12.050  1.00  0.00    -0.550 OA
ENDBRANCH  11  12
ENDBRANCH  10  11
ENDBRANCH   9  10
ENDBRANCH   8   9
ENDBRANCH   7   8
ENDBRANCH   6   7
ENDBRANCH   5   6
ENDBRANCH   4   5
ENDBRANCH   3   4
ENDBRANCH   2   3
ENDBRANCH   1   2
BRANCH   1  15
ATOM     15  C   UNL     1      10.760  80.073   1.858  1.00  0.00     0.000 C 
BRANCH  15  16
ATOM     16  C   UNL     1      11.835  79.883   0.776  1.00  0.00     0.000 C 
BRANCH  16  17
ATOM     17  C   UNL     1      11.330  78.958  -0.340  1.00  0.00     0.000 C 
BRANCH  17  18
ATOM     18  C   UNL     1      10.195  79.587  -1.168  1.00  0.00    -0.000 C 
BRANCH  18  19
ATOM     19  C   UNL     1       9.005  80.124  -0.346  1.00  0.00    -0.000 C 
BRANCH  19  20
ATOM     20  C   UNL     1       7.708  79.301  -0.454  1.00  0.00    -0.000 C 
BRANCH  20  21
ATOM     21  C   UNL     1       6.595  79.815   0.476  1.00  0.00    -0.000 C 
BRANCH  21  22
ATOM     22  C   UNL     1       6.284  78.841   1.623  1.00  0.00    -0.000 C 
BRANCH  22  23
ATOM     23  C   UNL     1       6.452  77.368   1.218  1.00  0.00    -0.000 C 
BRANCH  23  24
ATOM     24  C   UNL     1       5.425  76.483   1.943  1.00  0.00    -0.000 C 
BRANCH  24  25
ATOM     25  C   UNL     1       5.218  75.126   1.251  1.00  0.00    -0.003 C 
ATOM     26  C   UNL     1       5.005  75.257  -0.258  1.00  0.00     0.004 C 
ENDBRANCH  24  25
ENDBRANCH  23  24
ENDBRANCH  22  23
ENDBRANCH  21  22
ENDBRANCH  20  21
ENDBRANCH  19  20
ENDBRANCH  18  19
ENDBRANCH  17  18
ENDBRANCH  16  17
ENDBRANCH  15  16
ENDBRANCH   1  15
TORSDOF 22
ENDMDL
MODEL 5
REMARK VINA RESULT:    -1.816      3.735      9.871
REMARK INTER + INTRA:          -5.519
REMARK INTER:                  -4.009
REMARK INTRA:                  -1.510
REMARK UNBOUND:                -1.368
REMARK SMILES CCCCCCCCCCCCCCCCCCCCCCCC(=O)[O-]
REMARK SMILES IDX 13 1 14 2 15 3 16 4 17 5 18 6 19 7 20 8 21 9 22 10 23 11
REMARK SMILES IDX 24 12 25 13 26 14 12 15 11 16 10 17 9 18 8 19 7 20 6 21 5 22
REMARK SMILES IDX 4 23 3 24 2 25 1 26
REMARK H PARENT
REMARK Flexibility Score: inf
ROOT
ATOM      1  C   UNL     1       8.238  80.087   0.950  1.00  0.00     0.000 C 
ENDROOT
BRANCH   1   2
ATOM      2  C   UNL     1       7.053  79.847   1.904  1.00  0.00     0.000 C 
BRANCH   2   3
ATOM      3  C   UNL     1       7.239  78.681   2.891  1.00  0.00     0.000 C 
BRANCH   3   4
ATOM      4  C   UNL     1       8.198  78.970   4.063  1.00  0.00     0.000 C 
BRANCH   4   5
ATOM      5  C   UNL     1       8.170  77.892   5.168  1.00  0.00     0.000 C 
BRANCH   5   6
ATOM      6  C   UNL     1       7.288  78.300   6.360  1.00  0.00     0.000 C 
BRANCH   6   7
ATOM      7  C   UNL     1       5.785  78.144   6.063  1.00  0.00     0.000 C 
BRANCH   7   8
ATOM      8  C   UNL     1       5.005  77.382   7.151  1.00  0.00     0.000 C 
BRANCH   8   9
ATOM      9  C   UNL     1       3.567  77.900   7.314  1.00  0.00     0.000 C 
BRANCH   9  10
ATOM     10  C   UNL     1       3.498  79.012   8.368  1.00  0.00     0.006 C 
BRANCH  10  11
ATOM     11  C   UNL     1       4.429  78.711   9.547  1.00  0.00     0.053 C 
BRANCH  11  12
ATOM     12  C   UNL     1       3.644  78.256  10.736  1.00  0.00     0.041 C 
ATOM     13  O   UNL     1       3.903  77.152  11.282  1.00  0.00    -0.550 OA
ATOM     14  O   UNL     1       2.655  79.072  11.271  1.00  0.00    -0.550 OA
ENDBRANCH  11  12
ENDBRANCH  10  11
ENDBRANCH   9  10
ENDBRANCH   8   9
ENDBRANCH   7   8
ENDBRANCH   6   7
ENDBRANCH   5   6
ENDBRANCH   4   5
ENDBRANCH   3   4
ENDBRANCH   2   3
ENDBRANCH   1   2
BRANCH   1  15
ATOM     15  C   UNL     1       9.129  78.844   0.738  1.00  0.00     0.000 C 
BRANCH  15  16
ATOM     16  C   UNL     1      10.310  79.125  -0.205  1.00  0.00     0.000 C 
BRANCH  16  17
ATOM     17  C   UNL     1      11.288  80.125   0.428  1.00  0.00     0.000 C 
BRANCH  17  18
ATOM     18  C   UNL     1      11.880  79.622   1.757  1.00  0.00    -0.000 C 
BRANCH  18  19
ATOM     19  C   UNL     1      13.313  80.106   2.060  1.00  0.00    -0.000 C 
BRANCH  19  20
ATOM     20  C   UNL     1      14.411  79.514   1.156  1.00  0.00    -0.000 C 
BRANCH  20  21
ATOM     21  C   UNL     1      14.416  80.125  -0.256  1.00  0.00    -0.000 C 
BRANCH  21  22
ATOM     22  C   UNL     1      14.047  79.104  -1.344  1.00  0.00    -0.000 C 
BRANCH  22  23
ATOM     23  C   UNL     1      14.717  77.737  -1.132  1.00  0.00    -0.000 C 
BRANCH  23  24
ATOM     24  C   UNL     1      13.666  76.655  -0.837  1.00  0.00    -0.000 C 
BRANCH  24  25
ATOM     25  C   UNL     1      13.890  75.963   0.517  1.00  0.00    -0.003 C 
ATOM     26  C   UNL     1      15.084  75.008   0.504  1.00  0.00     0.004 C 
ENDBRANCH  24  25
ENDBRANCH  23  24
ENDBRANCH  22  23
ENDBRANCH  21  22
ENDBRANCH  20  21
ENDBRANCH  19  20
ENDBRANCH  18  19
ENDBRANCH  17  18
ENDBRANCH  16  17
ENDBRANCH  15  16
ENDBRANCH   1  15
TORSDOF 22
ENDMDL
MODEL 6
REMARK VINA RESULT:    -1.684      2.958      4.818
REMARK INTER + INTRA:          -5.218
REMARK INTER:                  -3.916
REMARK INTRA:                  -1.302
REMARK UNBOUND:                -1.368
REMARK SMILES CCCCCCCCCCCCCCCCCCCCCCCC(=O)[O-]
REMARK SMILES IDX 13 1 14 2 15 3 16 4 17 5 18 6 19 7 20 8 21 9 22 10 23 11
REMARK SMILES IDX 24 12 25 13 26 14 12 15 11 16 10 17 9 18 8 19 7 20 6 21 5 22
REMARK SMILES IDX 4 23 3 24 2 25 1 26
REMARK H PARENT
REMARK Flexibility Score: inf
ROOT
ATOM      1  C   UNL     1       6.818  78.181   2.942  1.00  0.00     0.000 C 
ENDROOT
BRANCH   1   2
ATOM      2  C   UNL     1       6.541  79.270   1.889  1.00  0.00     0.000 C 
BRANCH   2   3
ATOM      3  C   UNL     1       7.761  80.125   1.502  1.00  0.00     0.000 C 
BRANCH   3   4
ATOM      4  C   UNL     1       8.735  79.455   0.513  1.00  0.00     0.000 C 
BRANCH   4   5
ATOM      5  C   UNL     1       9.975  78.830   1.189  1.00  0.00     0.000 C 
BRANCH   5   6
ATOM      6  C   UNL     1      10.848  79.882   1.895  1.00  0.00     0.000 C 
BRANCH   6   7
ATOM      7  C   UNL     1      12.234  80.033   1.242  1.00  0.00     0.000 C 
BRANCH   7   8
ATOM      8  C   UNL     1      12.202  80.073  -0.298  1.00  0.00     0.000 C 
BRANCH   8   9
ATOM      9  C   UNL     1      13.279  79.178  -0.931  1.00  0.00     0.000 C 
BRANCH   9  10
ATOM     10  C   UNL     1      14.126  78.489   0.147  1.00  0.00     0.006 C 
BRANCH  10  11
ATOM     11  C   UNL     1      14.846  77.261  -0.420  1.00  0.00     0.053 C 
BRANCH  11  12
ATOM     12  C   UNL     1      14.096  76.010  -0.087  1.00  0.00     0.041 C 
ATOM     13  O   UNL     1      14.719  74.958   0.210  1.00  0.00    -0.550 OA
ATOM     14  O   UNL     1      12.706  76.018  -0.061  1.00  0.00    -0.550 OA
ENDBRANCH  11  12
ENDBRANCH  10  11
ENDBRANCH   9  10
ENDBRANCH   8   9
ENDBRANCH   7   8
ENDBRANCH   6   7
ENDBRANCH   5   6
ENDBRANCH   4   5
ENDBRANCH   3   4
ENDBRANCH   2   3
ENDBRANCH   1   2
BRANCH   1  15
ATOM     15  C   UNL     1       8.194  78.311   3.628  1.00  0.00     0.000 C 
BRANCH  15  16
ATOM     16  C   UNL     1       8.100  78.983   5.007  1.00  0.00     0.000 C 
BRANCH  16  17
ATOM     17  C   UNL     1       7.517  78.016   6.047  1.00  0.00     0.000 C 
BRANCH  17  18
ATOM     18  C   UNL     1       6.080  78.381   6.461  1.00  0.00    -0.000 C 
BRANCH  18  19
ATOM     19  C   UNL     1       5.396  77.373   7.408  1.00  0.00    -0.000 C 
BRANCH  19  20
ATOM     20  C   UNL     1       3.860  77.326   7.318  1.00  0.00    -0.000 C 
BRANCH  20  21
ATOM     21  C   UNL     1       3.233  78.706   7.058  1.00  0.00    -0.000 C 
BRANCH  21  22
ATOM     22  C   UNL     1       2.512  79.272   8.293  1.00  0.00    -0.000 C 
BRANCH  22  23
ATOM     23  C   UNL     1       3.444  80.079   9.211  1.00  0.00    -0.000 C 
BRANCH  23  24
ATOM     24  C   UNL     1       3.375  79.553  10.654  1.00  0.00    -0.000 C 
BRANCH  24  25
ATOM     25  C   UNL     1       4.227  78.292  10.868  1.00  0.00    -0.003 C 
ATOM     26  C   UNL     1       5.100  78.373  12.121  1.00  0.00     0.004 C 
ENDBRANCH  24  25
ENDBRANCH  23  24
ENDBRANCH  22  23
ENDBRANCH  21  22
ENDBRANCH  20  21
ENDBRANCH  19  20
ENDBRANCH  18  19
ENDBRANCH  17  18
ENDBRANCH  16  17
ENDBRANCH  15  16
ENDBRANCH   1  15
TORSDOF 22
ENDMDL
MODEL 7
REMARK VINA RESULT:    -1.578      3.273      5.423
REMARK INTER + INTRA:          -4.977
REMARK INTER:                  -4.355
REMARK INTRA:                  -0.622
REMARK UNBOUND:                -1.368
REMARK SMILES CCCCCCCCCCCCCCCCCCCCCCCC(=O)[O-]
REMARK SMILES IDX 13 1 14 2 15 3 16 4 17 5 18 6 19 7 20 8 21 9 22 10 23 11
REMARK SMILES IDX 24 12 25 13 26 14 12 15 11 16 10 17 9 18 8 19 7 20 6 21 5 22
REMARK SMILES IDX 4 23 3 24 2 25 1 26
REMARK H PARENT
REMARK Flexibility Score: inf
ROOT
ATOM      1  C   UNL     1       5.926  77.530   1.851  1.00  0.00     0.000 C 
ENDROOT
BRANCH   1   2
ATOM      2  C   UNL     1       5.877  78.872   1.096  1.00  0.00     0.000 C 
BRANCH   2   3
ATOM      3  C   UNL     1       6.191  80.111   1.953  1.00  0.00     0.000 C 
BRANCH   3   4
ATOM      4  C   UNL     1       7.579  80.102   2.622  1.00  0.00     0.000 C 
BRANCH   4   5
ATOM      5  C   UNL     1       8.751  80.028   1.619  1.00  0.00     0.000 C 
BRANCH   5   6
ATOM      6  C   UNL     1      10.011  79.399   2.239  1.00  0.00     0.000 C 
BRANCH   6   7
ATOM      7  C   UNL     1      11.305  80.102   1.787  1.00  0.00     0.000 C 
BRANCH   7   8
ATOM      8  C   UNL     1      12.162  79.273   0.812  1.00  0.00     0.000 C 
BRANCH   8   9
ATOM      9  C   UNL     1      13.317  80.088   0.208  1.00  0.00     0.000 C 
BRANCH   9  10
ATOM     10  C   UNL     1      14.548  79.204  -0.033  1.00  0.00     0.006 C 
BRANCH  10  11
ATOM     11  C   UNL     1      14.713  78.886  -1.522  1.00  0.00     0.053 C 
BRANCH  11  12
ATOM     12  C   UNL     1      14.231  77.501  -1.822  1.00  0.00     0.041 C 
ATOM     13  O   UNL     1      14.298  77.047  -2.994  1.00  0.00    -0.550 OA
ATOM     14  O   UNL     1      13.750  76.695  -0.798  1.00  0.00    -0.550 OA
ENDBRANCH  11  12
ENDBRANCH  10  11
ENDBRANCH   9  10
ENDBRANCH   8   9
ENDBRANCH   7   8
ENDBRANCH   6   7
ENDBRANCH   5   6
ENDBRANCH   4   5
ENDBRANCH   3   4
ENDBRANCH   2   3
ENDBRANCH   1   2
BRANCH   1  15
ATOM     15  C   UNL     1       5.754  77.667   3.379  1.00  0.00     0.000 C 
BRANCH  15  16
ATOM     16  C   UNL     1       4.314  78.029   3.775  1.00  0.00     0.000 C 
BRANCH  16  17
ATOM     17  C   UNL     1       4.068  77.742   5.263  1.00  0.00     0.000 C 
BRANCH  17  18
ATOM     18  C   UNL     1       2.580  77.819   5.649  1.00  0.00    -0.000 C 
BRANCH  18  19
ATOM     19  C   UNL     1       2.300  78.325   7.079  1.00  0.00    -0.000 C 
BRANCH  19  20
ATOM     20  C   UNL     1       3.516  78.331   8.023  1.00  0.00    -0.000 C 
BRANCH  20  21
ATOM     21  C   UNL     1       3.669  79.654   8.794  1.00  0.00    -0.000 C 
BRANCH  21  22
ATOM     22  C   UNL     1       2.797  79.707  10.059  1.00  0.00    -0.000 C 
BRANCH  22  23
ATOM     23  C   UNL     1       3.540  79.230  11.316  1.00  0.00    -0.000 C 
BRANCH  23  24
ATOM     24  C   UNL     1       3.794  77.715  11.257  1.00  0.00    -0.000 C 
BRANCH  24  25
ATOM     25  C   UNL     1       4.986  77.279  12.125  1.00  0.00    -0.003 C 
ATOM     26  C   UNL     1       6.285  77.992  11.749  1.00  0.00     0.004 C 
ENDBRANCH  24  25
ENDBRANCH  23  24
ENDBRANCH  22  23
ENDBRANCH  21  22
ENDBRANCH  20  21
ENDBRANCH  19  20
ENDBRANCH  18  19
ENDBRANCH  17  18
ENDBRANCH  16  17
ENDBRANCH  15  16
ENDBRANCH   1  15
TORSDOF 22
ENDMDL
MODEL 8
REMARK VINA RESULT:    -0.589      3.883     10.265
REMARK INTER + INTRA:          -2.715
REMARK INTER:                  -1.451
REMARK INTRA:                  -1.264
REMARK UNBOUND:                -1.368
REMARK SMILES CCCCCCCCCCCCCCCCCCCCCCCC(=O)[O-]
REMARK SMILES IDX 13 1 14 2 15 3 16 4 17 5 18 6 19 7 20 8 21 9 22 10 23 11
REMARK SMILES IDX 24 12 25 13 26 14 12 15 11 16 10 17 9 18 8 19 7 20 6 21 5 22
REMARK SMILES IDX 4 23 3 24 2 25 1 26
REMARK H PARENT
REMARK Flexibility Score: inf
ROOT
ATOM      1  C   UNL     1       7.974  79.898   3.945  1.00  0.00     0.000 C 
ENDROOT
BRANCH   1   2
ATOM      2  C   UNL     1       7.652  78.444   4.340  1.00  0.00     0.000 C 
BRANCH   2   3
ATOM      3  C   UNL     1       7.641  78.170   5.854  1.00  0.00     0.000 C 
BRANCH   3   4
ATOM      4  C   UNL     1       6.336  78.559   6.575  1.00  0.00     0.000 C 
BRANCH   4   5
ATOM      5  C   UNL     1       5.347  77.386   6.746  1.00  0.00     0.000 C 
BRANCH   5   6
ATOM      6  C   UNL     1       4.336  77.633   7.879  1.00  0.00     0.000 C 
BRANCH   6   7
ATOM      7  C   UNL     1       2.950  78.050   7.353  1.00  0.00     0.000 C 
BRANCH   7   8
ATOM      8  C   UNL     1       2.625  79.542   7.551  1.00  0.00     0.000 C 
BRANCH   8   9
ATOM      9  C   UNL     1       2.709  79.970   9.025  1.00  0.00     0.000 C 
BRANCH   9  10
ATOM     10  C   UNL     1       4.157  79.931   9.529  1.00  0.00     0.006 C 
BRANCH  10  11
ATOM     11  C   UNL     1       4.207  79.726  11.046  1.00  0.00     0.053 C 
BRANCH  11  12
ATOM     12  C   UNL     1       4.526  78.301  11.375  1.00  0.00     0.041 C 
ATOM     13  O   UNL     1       5.716  77.893  11.333  1.00  0.00    -0.550 OA
ATOM     14  O   UNL     1       3.515  77.436  11.772  1.00  0.00    -0.550 OA
ENDBRANCH  11  12
ENDBRANCH  10  11
ENDBRANCH   9  10
ENDBRANCH   8   9
ENDBRANCH   7   8
ENDBRANCH   6   7
ENDBRANCH   5   6
ENDBRANCH   4   5
ENDBRANCH   3   4
ENDBRANCH   2   3
ENDBRANCH   1   2
BRANCH   1  15
ATOM     15  C   UNL     1       9.129  80.027   2.930  1.00  0.00     0.000 C 
BRANCH  15  16
ATOM     16  C   UNL     1       9.864  78.696   2.707  1.00  0.00     0.000 C 
BRANCH  16  17
ATOM     17  C   UNL     1      10.401  78.602   1.272  1.00  0.00     0.000 C 
BRANCH  17  18
ATOM     18  C   UNL     1      11.230  79.832   0.862  1.00  0.00    -0.000 C 
BRANCH  18  19
ATOM     19  C   UNL     1      12.750  79.702   1.090  1.00  0.00    -0.000 C 
BRANCH  19  20
ATOM     20  C   UNL     1      13.631  80.125  -0.100  1.00  0.00    -0.000 C 
BRANCH  20  21
ATOM     21  C   UNL     1      15.033  79.493  -0.060  1.00  0.00    -0.000 C 
BRANCH  21  22
ATOM     22  C   UNL     1      15.003  77.970  -0.266  1.00  0.00    -0.000 C 
BRANCH  22  23
ATOM     23  C   UNL     1      14.300  77.557  -1.569  1.00  0.00    -0.000 C 
BRANCH  23  24
ATOM     24  C   UNL     1      13.178  76.545  -1.286  1.00  0.00    -0.000 C 
BRANCH  24  25
ATOM     25  C   UNL     1      12.990  76.272   0.215  1.00  0.00    -0.003 C 
ATOM     26  C   UNL     1      12.162  75.016   0.489  1.00  0.00     0.004 C 
ENDBRANCH  24  25
ENDBRANCH  23  24
ENDBRANCH  22  23
ENDBRANCH  21  22
ENDBRANCH  20  21
ENDBRANCH  19  20
ENDBRANCH  18  19
ENDBRANCH  17  18
ENDBRANCH  16  17
ENDBRANCH  15  16
ENDBRANCH   1  15
TORSDOF 22
ENDMDL
