MODEL 1
REMARK VINA RESULT:    -7.205      0.000      0.000
REMARK INTER + INTRA:          -8.783
REMARK INTER:                  -8.469
REMARK INTRA:                  -0.314
REMARK UNBOUND:                -0.314
REMARK SMILES O=c1cc(-c2ccc(O)c(O)c2)oc2cc(O)cc(O)c12
REMARK SMILES IDX 4 1 3 2 2 3 1 4 21 5 19 6 18 7 16 8 15 9 14 10 13 11 5 12
REMARK SMILES IDX 6 13 7 14 8 15 12 16 10 17 9 18 11 20 20 22 17 24
REMARK H PARENT 9 19 11 21 20 23 17 25
REMARK Flexibility Score: inf
ROOT
ATOM      1  C   UNL     1      59.701  -1.745   4.275  1.00  0.00     0.138 A 
ATOM      2  C   UNL     1      60.638  -0.896   4.880  1.00  0.00     0.100 A 
ATOM      3  C   UNL     1      61.734  -0.440   4.145  1.00  0.00     0.197 A 
ATOM      4  O   UNL     1      62.590   0.270   4.733  1.00  0.00    -0.289 OA
ATOM      5  C   UNL     1      61.873  -0.813   2.787  1.00  0.00     0.107 A 
ATOM      6  C   UNL     1      62.926  -0.377   1.929  1.00  0.00     0.134 A 
ATOM      7  C   UNL     1      63.026  -0.904   0.635  1.00  0.00     0.093 A 
ATOM      8  C   UNL     1      62.076  -1.807   0.150  1.00  0.00     0.123 A 
ATOM      9  C   UNL     1      61.014  -2.197   0.961  1.00  0.00     0.094 A 
ATOM     10  C   UNL     1      60.906  -1.715   2.267  1.00  0.00     0.146 A 
ATOM     11  O   UNL     1      59.885  -2.124   3.015  1.00  0.00    -0.456 OA
ENDROOT
BRANCH   1  12
ATOM     12  C   UNL     1      58.517  -2.258   5.010  1.00  0.00     0.021 A 
ATOM     13  C   UNL     1      58.434  -2.192   6.414  1.00  0.00     0.016 A 
ATOM     14  C   UNL     1      57.304  -2.673   7.079  1.00  0.00     0.051 A 
ATOM     15  C   UNL     1      56.236  -3.220   6.357  1.00  0.00     0.157 A 
ATOM     16  C   UNL     1      57.435  -2.796   4.292  1.00  0.00     0.062 A 
ATOM     17  C   UNL     1      56.303  -3.280   4.956  1.00  0.00     0.158 A 
BRANCH  15  18
ATOM     18  O   UNL     1      55.111  -3.700   7.025  1.00  0.00    -0.504 OA
ATOM     19  H   UNL     1      55.058  -3.712   8.037  1.00  0.00     0.293 HD
ENDBRANCH  15  18
BRANCH  17  20
ATOM     20  O   UNL     1      55.255  -3.815   4.206  1.00  0.00    -0.504 OA
ATOM     21  H   UNL     1      55.292  -3.874   3.196  1.00  0.00     0.293 HD
ENDBRANCH  17  20
ENDBRANCH   1  12
BRANCH   6  22
ATOM     22  O   UNL     1      63.877   0.583   2.286  1.00  0.00    -0.507 OA
ATOM     23  H   UNL     1      63.823   1.173   3.102  1.00  0.00     0.293 HD
ENDBRANCH   6  22
BRANCH   8  24
ATOM     24  O   UNL     1      62.175  -2.315  -1.144  1.00  0.00    -0.508 OA
ATOM     25  H   UNL     1      62.747  -1.864  -1.848  1.00  0.00     0.293 HD
ENDBRANCH   8  24
TORSDOF 5
ENDMDL
MODEL 2
REMARK VINA RESULT:    -7.175      1.277      2.823
REMARK INTER + INTRA:          -8.748
REMARK INTER:                  -8.467
REMARK INTRA:                  -0.282
REMARK UNBOUND:                -0.314
REMARK SMILES O=c1cc(-c2ccc(O)c(O)c2)oc2cc(O)cc(O)c12
REMARK SMILES IDX 4 1 3 2 2 3 1 4 21 5 19 6 18 7 16 8 15 9 14 10 13 11 5 12
REMARK SMILES IDX 6 13 7 14 8 15 12 16 10 17 9 18 11 20 20 22 17 24
REMARK H PARENT 9 19 11 21 20 23 17 25
REMARK Flexibility Score: inf
ROOT
ATOM      1  C   UNL     1      59.519  -1.729   4.252  1.00  0.00     0.138 A 
ATOM      2  C   UNL     1      59.826  -2.246   2.986  1.00  0.00     0.100 A 
ATOM      3  C   UNL     1      60.912  -1.734   2.276  1.00  0.00     0.197 A 
ATOM      4  O   UNL     1      61.125  -2.175   1.117  1.00  0.00    -0.289 OA
ATOM      5  C   UNL     1      61.713  -0.719   2.851  1.00  0.00     0.107 A 
ATOM      6  C   UNL     1      62.869  -0.150   2.237  1.00  0.00     0.134 A 
ATOM      7  C   UNL     1      63.515   0.930   2.852  1.00  0.00     0.093 A 
ATOM      8  C   UNL     1      63.083   1.422   4.086  1.00  0.00     0.123 A 
ATOM      9  C   UNL     1      61.989   0.837   4.719  1.00  0.00     0.094 A 
ATOM     10  C   UNL     1      61.302  -0.219   4.116  1.00  0.00     0.146 A 
ATOM     11  O   UNL     1      60.253  -0.739   4.746  1.00  0.00    -0.456 OA
ENDROOT
BRANCH   1  12
ATOM     12  C   UNL     1      58.374  -2.238   5.051  1.00  0.00     0.021 A 
ATOM     13  C   UNL     1      58.431  -2.315   6.456  1.00  0.00     0.016 A 
ATOM     14  C   UNL     1      57.335  -2.787   7.183  1.00  0.00     0.051 A 
ATOM     15  C   UNL     1      56.165  -3.182   6.524  1.00  0.00     0.157 A 
ATOM     16  C   UNL     1      57.191  -2.623   4.398  1.00  0.00     0.062 A 
ATOM     17  C   UNL     1      56.093  -3.098   5.124  1.00  0.00     0.158 A 
BRANCH  15  18
ATOM     18  O   UNL     1      55.075  -3.654   7.254  1.00  0.00    -0.504 OA
ATOM     19  H   UNL     1      54.830  -3.263   8.156  1.00  0.00     0.293 HD
ENDBRANCH  15  18
BRANCH  17  20
ATOM     20  O   UNL     1      54.940  -3.480   4.438  1.00  0.00    -0.504 OA
ATOM     21  H   UNL     1      54.105  -2.906   4.428  1.00  0.00     0.293 HD
ENDBRANCH  17  20
ENDBRANCH   1  12
BRANCH   6  22
ATOM     22  O   UNL     1      63.433  -0.621   1.048  1.00  0.00    -0.507 OA
ATOM     23  H   UNL     1      63.989  -0.067   0.415  1.00  0.00     0.293 HD
ENDBRANCH   6  22
BRANCH   8  24
ATOM     24  O   UNL     1      63.742   2.487   4.696  1.00  0.00    -0.508 OA
ATOM     25  H   UNL     1      63.264   3.355   4.905  1.00  0.00     0.293 HD
ENDBRANCH   8  24
TORSDOF 5
ENDMDL
MODEL 3
REMARK VINA RESULT:    -6.991      4.259      6.101
REMARK INTER + INTRA:          -8.531
REMARK INTER:                  -8.242
REMARK INTRA:                  -0.289
REMARK UNBOUND:                -0.314
REMARK SMILES O=c1cc(-c2ccc(O)c(O)c2)oc2cc(O)cc(O)c12
REMARK SMILES IDX 4 1 3 2 2 3 1 4 21 5 19 6 18 7 16 8 15 9 14 10 13 11 5 12
REMARK SMILES IDX 6 13 7 14 8 15 12 16 10 17 9 18 11 20 20 22 17 24
REMARK H PARENT 9 19 11 21 20 23 17 25
REMARK Flexibility Score: inf
ROOT
ATOM      1  C   UNL     1      62.052   1.806   4.216  1.00  0.00     0.138 A 
ATOM      2  C   UNL     1      61.816   2.537   3.044  1.00  0.00     0.100 A 
ATOM      3  C   UNL     1      61.688   1.867   1.826  1.00  0.00     0.197 A 
ATOM      4  O   UNL     1      61.539   2.554   0.783  1.00  0.00    -0.289 OA
ATOM      5  C   UNL     1      61.767   0.455   1.789  1.00  0.00     0.107 A 
ATOM      6  C   UNL     1      61.611  -0.337   0.612  1.00  0.00     0.134 A 
ATOM      7  C   UNL     1      61.825  -1.720   0.678  1.00  0.00     0.093 A 
ATOM      8  C   UNL     1      62.130  -2.346   1.889  1.00  0.00     0.123 A 
ATOM      9  C   UNL     1      62.231  -1.588   3.053  1.00  0.00     0.094 A 
ATOM     10  C   UNL     1      62.057  -0.203   3.015  1.00  0.00     0.146 A 
ATOM     11  O   UNL     1      62.176   0.485   4.146  1.00  0.00    -0.456 OA
ENDROOT
BRANCH   1  12
ATOM     12  C   UNL     1      62.196   2.468   5.538  1.00  0.00     0.021 A 
ATOM     13  C   UNL     1      61.245   3.394   6.008  1.00  0.00     0.016 A 
ATOM     14  C   UNL     1      61.399   3.994   7.260  1.00  0.00     0.051 A 
ATOM     15  C   UNL     1      62.498   3.675   8.067  1.00  0.00     0.157 A 
ATOM     16  C   UNL     1      63.289   2.143   6.360  1.00  0.00     0.062 A 
ATOM     17  C   UNL     1      63.446   2.743   7.614  1.00  0.00     0.158 A 
BRANCH  15  18
ATOM     18  O   UNL     1      62.649   4.277   9.315  1.00  0.00    -0.504 OA
ATOM     19  H   UNL     1      63.290   5.048   9.460  1.00  0.00     0.293 HD
ENDBRANCH  15  18
BRANCH  17  20
ATOM     20  O   UNL     1      64.550   2.401   8.395  1.00  0.00    -0.504 OA
ATOM     21  H   UNL     1      64.818   1.437   8.555  1.00  0.00     0.293 HD
ENDBRANCH  17  20
ENDBRANCH   1  12
BRANCH   6  22
ATOM     22  O   UNL     1      61.226   0.176  -0.629  1.00  0.00    -0.507 OA
ATOM     23  H   UNL     1      61.791   0.150  -1.464  1.00  0.00     0.293 HD
ENDBRANCH   6  22
BRANCH   8  24
ATOM     24  O   UNL     1      62.327  -3.724   1.947  1.00  0.00    -0.508 OA
ATOM     25  H   UNL     1      61.603  -4.374   1.667  1.00  0.00     0.293 HD
ENDBRANCH   8  24
TORSDOF 5
ENDMDL
MODEL 4
REMARK VINA RESULT:    -6.937      1.482      6.784
REMARK INTER + INTRA:          -8.468
REMARK INTER:                  -8.149
REMARK INTRA:                  -0.318
REMARK UNBOUND:                -0.314
REMARK SMILES O=c1cc(-c2ccc(O)c(O)c2)oc2cc(O)cc(O)c12
REMARK SMILES IDX 4 1 3 2 2 3 1 4 21 5 19 6 18 7 16 8 15 9 14 10 13 11 5 12
REMARK SMILES IDX 6 13 7 14 8 15 12 16 10 17 9 18 11 20 20 22 17 24
REMARK H PARENT 9 19 11 21 20 23 17 25
REMARK Flexibility Score: inf
ROOT
ATOM      1  C   UNL     1      59.414  -2.101   3.982  1.00  0.00     0.138 A 
ATOM      2  C   UNL     1      59.230  -2.046   5.370  1.00  0.00     0.100 A 
ATOM      3  C   UNL     1      57.975  -2.325   5.913  1.00  0.00     0.197 A 
ATOM      4  O   UNL     1      57.825  -2.206   7.156  1.00  0.00    -0.289 OA
ATOM      5  C   UNL     1      56.907  -2.693   5.060  1.00  0.00     0.107 A 
ATOM      6  C   UNL     1      55.596  -3.041   5.504  1.00  0.00     0.134 A 
ATOM      7  C   UNL     1      54.588  -3.275   4.561  1.00  0.00     0.093 A 
ATOM      8  C   UNL     1      54.859  -3.234   3.191  1.00  0.00     0.123 A 
ATOM      9  C   UNL     1      56.149  -2.950   2.748  1.00  0.00     0.094 A 
ATOM     10  C   UNL     1      57.168  -2.678   3.663  1.00  0.00     0.146 A 
ATOM     11  O   UNL     1      58.381  -2.396   3.200  1.00  0.00    -0.456 OA
ENDROOT
BRANCH   1  12
ATOM     12  C   UNL     1      60.728  -1.813   3.352  1.00  0.00     0.021 A 
ATOM     13  C   UNL     1      61.854  -1.462   4.120  1.00  0.00     0.016 A 
ATOM     14  C   UNL     1      63.081  -1.207   3.502  1.00  0.00     0.051 A 
ATOM     15  C   UNL     1      63.207  -1.305   2.111  1.00  0.00     0.157 A 
ATOM     16  C   UNL     1      60.867  -1.923   1.957  1.00  0.00     0.062 A 
ATOM     17  C   UNL     1      62.094  -1.668   1.336  1.00  0.00     0.158 A 
BRANCH  15  18
ATOM     18  O   UNL     1      64.433  -1.049   1.499  1.00  0.00    -0.504 OA
ATOM     19  H   UNL     1      64.572  -1.198   0.506  1.00  0.00     0.293 HD
ENDBRANCH  15  18
BRANCH  17  20
ATOM     20  O   UNL     1      62.187  -1.778  -0.051  1.00  0.00    -0.504 OA
ATOM     21  H   UNL     1      61.546  -1.300  -0.674  1.00  0.00     0.293 HD
ENDBRANCH  17  20
ENDBRANCH   1  12
BRANCH   6  22
ATOM     22  O   UNL     1      55.241  -3.191   6.847  1.00  0.00    -0.507 OA
ATOM     23  H   UNL     1      55.786  -3.686   7.536  1.00  0.00     0.293 HD
ENDBRANCH   6  22
BRANCH   8  24
ATOM     24  O   UNL     1      53.853  -3.484   2.260  1.00  0.00    -0.508 OA
ATOM     25  H   UNL     1      53.228  -4.275   2.355  1.00  0.00     0.293 HD
ENDBRANCH   8  24
TORSDOF 5
ENDMDL
MODEL 5
REMARK VINA RESULT:    -6.828      2.268      7.044
REMARK INTER + INTRA:          -8.339
REMARK INTER:                  -8.071
REMARK INTRA:                  -0.269
REMARK UNBOUND:                -0.314
REMARK SMILES O=c1cc(-c2ccc(O)c(O)c2)oc2cc(O)cc(O)c12
REMARK SMILES IDX 4 1 3 2 2 3 1 4 21 5 19 6 18 7 16 8 15 9 14 10 13 11 5 12
REMARK SMILES IDX 6 13 7 14 8 15 12 16 10 17 9 18 11 20 20 22 17 24
REMARK H PARENT 9 19 11 21 20 23 17 25
REMARK Flexibility Score: inf
ROOT
ATOM      1  C   UNL     1      59.949  -1.603   4.263  1.00  0.00     0.138 A 
ATOM      2  C   UNL     1      59.627  -2.204   3.039  1.00  0.00     0.100 A 
ATOM      3  C   UNL     1      58.376  -2.798   2.868  1.00  0.00     0.197 A 
ATOM      4  O   UNL     1      58.139  -3.384   1.781  1.00  0.00    -0.289 OA
ATOM      5  C   UNL     1      57.431  -2.761   3.921  1.00  0.00     0.107 A 
ATOM      6  C   UNL     1      56.110  -3.297   3.847  1.00  0.00     0.134 A 
ATOM      7  C   UNL     1      55.304  -3.305   4.992  1.00  0.00     0.093 A 
ATOM      8  C   UNL     1      55.748  -2.743   6.191  1.00  0.00     0.123 A 
ATOM      9  C   UNL     1      57.015  -2.168   6.258  1.00  0.00     0.094 A 
ATOM     10  C   UNL     1      57.857  -2.175   5.144  1.00  0.00     0.146 A 
ATOM     11  O   UNL     1      59.064  -1.630   5.254  1.00  0.00    -0.456 OA
ENDROOT
BRANCH   1  12
ATOM     12  C   UNL     1      61.265  -0.956   4.498  1.00  0.00     0.021 A 
ATOM     13  C   UNL     1      62.453  -1.707   4.577  1.00  0.00     0.016 A 
ATOM     14  C   UNL     1      63.680  -1.072   4.788  1.00  0.00     0.051 A 
ATOM     15  C   UNL     1      63.743   0.321   4.916  1.00  0.00     0.157 A 
ATOM     16  C   UNL     1      61.339   0.443   4.614  1.00  0.00     0.062 A 
ATOM     17  C   UNL     1      62.566   1.081   4.826  1.00  0.00     0.158 A 
BRANCH  15  18
ATOM     18  O   UNL     1      64.968   0.951   5.128  1.00  0.00    -0.504 OA
ATOM     19  H   UNL     1      65.494   1.360   4.365  1.00  0.00     0.293 HD
ENDBRANCH  15  18
BRANCH  17  20
ATOM     20  O   UNL     1      62.595   2.471   4.946  1.00  0.00    -0.504 OA
ATOM     21  H   UNL     1      61.943   2.974   5.537  1.00  0.00     0.293 HD
ENDBRANCH  17  20
ENDBRANCH   1  12
BRANCH   6  22
ATOM     22  O   UNL     1      55.539  -3.806   2.678  1.00  0.00    -0.507 OA
ATOM     23  H   UNL     1      54.732  -3.418   2.214  1.00  0.00     0.293 HD
ENDBRANCH   6  22
BRANCH   8  24
ATOM     24  O   UNL     1      54.933  -2.742   7.321  1.00  0.00    -0.508 OA
ATOM     25  H   UNL     1      53.923  -2.771   7.245  1.00  0.00     0.293 HD
ENDBRANCH   8  24
TORSDOF 5
ENDMDL
MODEL 6
REMARK VINA RESULT:    -6.621      2.626      6.938
REMARK INTER + INTRA:          -8.096
REMARK INTER:                  -7.787
REMARK INTRA:                  -0.309
REMARK UNBOUND:                -0.314
REMARK SMILES O=c1cc(-c2ccc(O)c(O)c2)oc2cc(O)cc(O)c12
REMARK SMILES IDX 4 1 3 2 2 3 1 4 21 5 19 6 18 7 16 8 15 9 14 10 13 11 5 12
REMARK SMILES IDX 6 13 7 14 8 15 12 16 10 17 9 18 11 20 20 22 17 24
REMARK H PARENT 9 19 11 21 20 23 17 25
REMARK Flexibility Score: inf
ROOT
ATOM      1  C   UNL     1      61.146   0.148   4.382  1.00  0.00     0.138 A 
ATOM      2  C   UNL     1      61.339  -0.580   3.200  1.00  0.00     0.100 A 
ATOM      3  C   UNL     1      60.554  -1.706   2.946  1.00  0.00     0.197 A 
ATOM      4  O   UNL     1      60.792  -2.374   1.908  1.00  0.00    -0.289 OA
ATOM      5  C   UNL     1      59.549  -2.084   3.868  1.00  0.00     0.107 A 
ATOM      6  C   UNL     1      58.661  -3.188   3.694  1.00  0.00     0.134 A 
ATOM      7  C   UNL     1      57.784  -3.536   4.728  1.00  0.00     0.093 A 
ATOM      8  C   UNL     1      57.720  -2.785   5.904  1.00  0.00     0.123 A 
ATOM      9  C   UNL     1      58.544  -1.673   6.060  1.00  0.00     0.094 A 
ATOM     10  C   UNL     1      59.454  -1.320   5.062  1.00  0.00     0.146 A 
ATOM     11  O   UNL     1      60.234  -0.260   5.256  1.00  0.00    -0.456 OA
ENDROOT
BRANCH   1  12
ATOM     12  C   UNL     1      61.954   1.353   4.701  1.00  0.00     0.021 A 
ATOM     13  C   UNL     1      63.235   1.551   4.153  1.00  0.00     0.016 A 
ATOM     14  C   UNL     1      63.968   2.699   4.462  1.00  0.00     0.051 A 
ATOM     15  C   UNL     1      63.434   3.672   5.316  1.00  0.00     0.157 A 
ATOM     16  C   UNL     1      61.419   2.341   5.547  1.00  0.00     0.062 A 
ATOM     17  C   UNL     1      62.152   3.491   5.859  1.00  0.00     0.158 A 
BRANCH  15  18
ATOM     18  O   UNL     1      64.169   4.815   5.624  1.00  0.00    -0.504 OA
ATOM     19  H   UNL     1      64.498   5.446   4.901  1.00  0.00     0.293 HD
ENDBRANCH  15  18
BRANCH  17  20
ATOM     20  O   UNL     1      61.589   4.442   6.711  1.00  0.00    -0.504 OA
ATOM     21  H   UNL     1      62.147   5.156   7.164  1.00  0.00     0.293 HD
ENDBRANCH  17  20
ENDBRANCH   1  12
BRANCH   6  22
ATOM     22  O   UNL     1      58.585  -3.952   2.527  1.00  0.00    -0.507 OA
ATOM     23  H   UNL     1      59.237  -3.899   1.759  1.00  0.00     0.293 HD
ENDBRANCH   6  22
BRANCH   8  24
ATOM     24  O   UNL     1      56.833  -3.131   6.921  1.00  0.00    -0.508 OA
ATOM     25  H   UNL     1      56.638  -2.501   7.691  1.00  0.00     0.293 HD
ENDBRANCH   8  24
TORSDOF 5
ENDMDL
MODEL 7
REMARK VINA RESULT:    -6.584      4.176      6.336
REMARK INTER + INTRA:          -8.052
REMARK INTER:                  -7.790
REMARK INTRA:                  -0.263
REMARK UNBOUND:                -0.314
REMARK SMILES O=c1cc(-c2ccc(O)c(O)c2)oc2cc(O)cc(O)c12
REMARK SMILES IDX 4 1 3 2 2 3 1 4 21 5 19 6 18 7 16 8 15 9 14 10 13 11 5 12
REMARK SMILES IDX 6 13 7 14 8 15 12 16 10 17 9 18 11 20 20 22 17 24
REMARK H PARENT 9 19 11 21 20 23 17 25
REMARK Flexibility Score: inf
ROOT
ATOM      1  C   UNL     1      62.234   1.826   4.015  1.00  0.00     0.138 A 
ATOM      2  C   UNL     1      61.622   0.580   3.821  1.00  0.00     0.100 A 
ATOM      3  C   UNL     1      61.536   0.045   2.535  1.00  0.00     0.197 A 
ATOM      4  O   UNL     1      60.926  -1.044   2.383  1.00  0.00    -0.289 OA
ATOM      5  C   UNL     1      62.095   0.750   1.442  1.00  0.00     0.107 A 
ATOM      6  C   UNL     1      62.104   0.283   0.093  1.00  0.00     0.134 A 
ATOM      7  C   UNL     1      62.583   1.119  -0.923  1.00  0.00     0.093 A 
ATOM      8  C   UNL     1      63.109   2.380  -0.631  1.00  0.00     0.123 A 
ATOM      9  C   UNL     1      63.155   2.822   0.689  1.00  0.00     0.094 A 
ATOM     10  C   UNL     1      62.654   2.026   1.721  1.00  0.00     0.146 A 
ATOM     11  O   UNL     1      62.703   2.491   2.965  1.00  0.00    -0.456 OA
ENDROOT
BRANCH   1  12
ATOM     12  C   UNL     1      62.353   2.441   5.362  1.00  0.00     0.021 A 
ATOM     13  C   UNL     1      61.412   3.376   5.832  1.00  0.00     0.016 A 
ATOM     14  C   UNL     1      61.542   3.930   7.108  1.00  0.00     0.051 A 
ATOM     15  C   UNL     1      62.606   3.557   7.938  1.00  0.00     0.157 A 
ATOM     16  C   UNL     1      63.411   2.060   6.206  1.00  0.00     0.062 A 
ATOM     17  C   UNL     1      63.544   2.615   7.484  1.00  0.00     0.158 A 
BRANCH  15  18
ATOM     18  O   UNL     1      62.732   4.113   9.209  1.00  0.00    -0.504 OA
ATOM     19  H   UNL     1      63.073   5.058   9.344  1.00  0.00     0.293 HD
ENDBRANCH  15  18
BRANCH  17  20
ATOM     20  O   UNL     1      64.613   2.219   8.287  1.00  0.00    -0.504 OA
ATOM     21  H   UNL     1      65.573   2.267   7.966  1.00  0.00     0.293 HD
ENDBRANCH  17  20
ENDBRANCH   1  12
BRANCH   6  22
ATOM     22  O   UNL     1      61.680  -0.991  -0.295  1.00  0.00    -0.507 OA
ATOM     23  H   UNL     1      60.812  -1.421  -0.012  1.00  0.00     0.293 HD
ENDBRANCH   6  22
BRANCH   8  24
ATOM     24  O   UNL     1      63.598   3.198  -1.647  1.00  0.00    -0.508 OA
ATOM     25  H   UNL     1      64.086   4.062  -1.443  1.00  0.00     0.293 HD
ENDBRANCH   8  24
TORSDOF 5
ENDMDL
MODEL 8
REMARK VINA RESULT:    -6.385      5.637      6.859
REMARK INTER + INTRA:          -7.819
REMARK INTER:                  -7.550
REMARK INTRA:                  -0.269
REMARK UNBOUND:                -0.314
REMARK SMILES O=c1cc(-c2ccc(O)c(O)c2)oc2cc(O)cc(O)c12
REMARK SMILES IDX 4 1 3 2 2 3 1 4 21 5 19 6 18 7 16 8 15 9 14 10 13 11 5 12
REMARK SMILES IDX 6 13 7 14 8 15 12 16 10 17 9 18 11 20 20 22 17 24
REMARK H PARENT 9 19 11 21 20 23 17 25
REMARK Flexibility Score: inf
ROOT
ATOM      1  C   UNL     1      63.257   3.450   3.318  1.00  0.00     0.138 A 
ATOM      2  C   UNL     1      63.610   4.540   2.511  1.00  0.00     0.100 A 
ATOM      3  C   UNL     1      63.662   4.387   1.125  1.00  0.00     0.197 A 
ATOM      4  O   UNL     1      64.042   5.365   0.432  1.00  0.00    -0.289 OA
ATOM      5  C   UNL     1      63.326   3.141   0.543  1.00  0.00     0.107 A 
ATOM      6  C   UNL     1      63.303   2.879  -0.860  1.00  0.00     0.134 A 
ATOM      7  C   UNL     1      63.069   1.576  -1.314  1.00  0.00     0.093 A 
ATOM      8  C   UNL     1      62.798   0.537  -0.419  1.00  0.00     0.123 A 
ATOM      9  C   UNL     1      62.764   0.795   0.949  1.00  0.00     0.094 A 
ATOM     10  C   UNL     1      63.027   2.077   1.436  1.00  0.00     0.146 A 
ATOM     11  O   UNL     1      63.001   2.277   2.750  1.00  0.00    -0.456 OA
ENDROOT
BRANCH   1  12
ATOM     12  C   UNL     1      63.187   3.559   4.797  1.00  0.00     0.021 A 
ATOM     13  C   UNL     1      64.342   3.752   5.579  1.00  0.00     0.016 A 
ATOM     14  C   UNL     1      64.245   3.861   6.969  1.00  0.00     0.051 A 
ATOM     15  C   UNL     1      62.997   3.789   7.600  1.00  0.00     0.157 A 
ATOM     16  C   UNL     1      61.937   3.501   5.438  1.00  0.00     0.062 A 
ATOM     17  C   UNL     1      61.838   3.609   6.829  1.00  0.00     0.158 A 
BRANCH  15  18
ATOM     18  O   UNL     1      62.906   3.897   8.987  1.00  0.00    -0.504 OA
ATOM     19  H   UNL     1      62.041   4.162   9.443  1.00  0.00     0.293 HD
ENDBRANCH  15  18
BRANCH  17  20
ATOM     20  O   UNL     1      60.579   3.537   7.426  1.00  0.00    -0.504 OA
ATOM     21  H   UNL     1      60.049   2.674   7.460  1.00  0.00     0.293 HD
ENDBRANCH  17  20
ENDBRANCH   1  12
BRANCH   6  22
ATOM     22  O   UNL     1      63.478   3.860  -1.840  1.00  0.00    -0.507 OA
ATOM     23  H   UNL     1      63.907   3.706  -2.739  1.00  0.00     0.293 HD
ENDBRANCH   6  22
BRANCH   8  24
ATOM     24  O   UNL     1      62.551  -0.753  -0.882  1.00  0.00    -0.508 OA
ATOM     25  H   UNL     1      63.002  -1.113  -1.714  1.00  0.00     0.293 HD
ENDBRANCH   8  24
TORSDOF 5
ENDMDL
MODEL 9
REMARK VINA RESULT:    -6.380      5.932      7.544
REMARK INTER + INTRA:          -7.813
REMARK INTER:                  -7.545
REMARK INTRA:                  -0.268
REMARK UNBOUND:                -0.314
REMARK SMILES O=c1cc(-c2ccc(O)c(O)c2)oc2cc(O)cc(O)c12
REMARK SMILES IDX 4 1 3 2 2 3 1 4 21 5 19 6 18 7 16 8 15 9 14 10 13 11 5 12
REMARK SMILES IDX 6 13 7 14 8 15 12 16 10 17 9 18 11 20 20 22 17 24
REMARK H PARENT 9 19 11 21 20 23 17 25
REMARK Flexibility Score: inf
ROOT
ATOM      1  C   UNL     1      63.224   3.448   3.222  1.00  0.00     0.138 A 
ATOM      2  C   UNL     1      62.762   2.287   2.589  1.00  0.00     0.100 A 
ATOM      3  C   UNL     1      62.851   2.174   1.201  1.00  0.00     0.197 A 
ATOM      4  O   UNL     1      62.372   1.147   0.656  1.00  0.00    -0.289 OA
ATOM      5  C   UNL     1      63.435   3.220   0.447  1.00  0.00     0.107 A 
ATOM      6  C   UNL     1      63.616   3.198  -0.968  1.00  0.00     0.134 A 
ATOM      7  C   UNL     1      64.100   4.340  -1.619  1.00  0.00     0.093 A 
ATOM      8  C   UNL     1      64.465   5.480  -0.900  1.00  0.00     0.123 A 
ATOM      9  C   UNL     1      64.343   5.491   0.487  1.00  0.00     0.094 A 
ATOM     10  C   UNL     1      63.832   4.381   1.163  1.00  0.00     0.146 A 
ATOM     11  O   UNL     1      63.718   4.438   2.486  1.00  0.00    -0.456 OA
ENDROOT
BRANCH   1  12
ATOM     12  C   UNL     1      63.154   3.620   4.696  1.00  0.00     0.021 A 
ATOM     13  C   UNL     1      64.290   3.957   5.455  1.00  0.00     0.016 A 
ATOM     14  C   UNL     1      64.193   4.123   6.839  1.00  0.00     0.051 A 
ATOM     15  C   UNL     1      62.962   3.963   7.487  1.00  0.00     0.157 A 
ATOM     16  C   UNL     1      61.919   3.475   5.352  1.00  0.00     0.062 A 
ATOM     17  C   UNL     1      61.820   3.639   6.738  1.00  0.00     0.158 A 
BRANCH  15  18
ATOM     18  O   UNL     1      62.870   4.129   8.868  1.00  0.00    -0.504 OA
ATOM     19  H   UNL     1      63.076   5.016   9.312  1.00  0.00     0.293 HD
ENDBRANCH  15  18
BRANCH  17  20
ATOM     20  O   UNL     1      60.578   3.477   7.352  1.00  0.00    -0.504 OA
ATOM     21  H   UNL     1      60.265   4.082   8.102  1.00  0.00     0.293 HD
ENDBRANCH  17  20
ENDBRANCH   1  12
BRANCH   6  22
ATOM     22  O   UNL     1      63.361   2.083  -1.771  1.00  0.00    -0.507 OA
ATOM     23  H   UNL     1      63.960   1.760  -2.516  1.00  0.00     0.293 HD
ENDBRANCH   6  22
BRANCH   8  24
ATOM     24  O   UNL     1      64.960   6.606  -1.555  1.00  0.00    -0.508 OA
ATOM     25  H   UNL     1      64.943   6.681  -2.565  1.00  0.00     0.293 HD
ENDBRANCH   8  24
TORSDOF 5
ENDMDL
