MODEL 1
REMARK VINA RESULT:    -3.169      0.000      0.000
REMARK INTER + INTRA:         -10.826
REMARK INTER:                  -7.244
REMARK INTRA:                  -3.581
REMARK UNBOUND:                -3.581
REMARK SMILES CCCCCCCCCCCCCCCCCCCCCCCC(=O)[O-]
REMARK SMILES IDX 13 1 14 2 15 3 16 4 17 5 18 6 19 7 20 8 21 9 22 10 23 11
REMARK SMILES IDX 24 12 25 13 26 14 12 15 11 16 10 17 9 18 8 19 7 20 6 21 5 22
REMARK SMILES IDX 4 23 3 24 2 25 1 26
REMARK H PARENT
REMARK Flexibility Score: inf
ROOT
ATOM      1  C   UNL     1      25.182   1.703   6.208  1.00  0.00     0.000 C 
ENDROOT
BRANCH   1   2
ATOM      2  C   UNL     1      26.668   1.944   5.887  1.00  0.00     0.000 C 
BRANCH   2   3
ATOM      3  C   UNL     1      27.595   0.978   6.651  1.00  0.00     0.000 C 
BRANCH   3   4
ATOM      4  C   UNL     1      28.317   1.622   7.851  1.00  0.00     0.000 C 
BRANCH   4   5
ATOM      5  C   UNL     1      27.445   1.756   9.118  1.00  0.00     0.000 C 
BRANCH   5   6
ATOM      6  C   UNL     1      27.841   0.817  10.276  1.00  0.00     0.000 C 
BRANCH   6   7
ATOM      7  C   UNL     1      27.062  -0.513  10.354  1.00  0.00     0.000 C 
BRANCH   7   8
ATOM      8  C   UNL     1      25.707  -0.533   9.625  1.00  0.00     0.000 C 
BRANCH   8   9
ATOM      9  C   UNL     1      25.589  -1.690   8.618  1.00  0.00     0.000 C 
BRANCH   9  10
ATOM     10  C   UNL     1      24.557  -2.749   9.047  1.00  0.00     0.006 C 
BRANCH  10  11
ATOM     11  C   UNL     1      24.610  -3.120  10.539  1.00  0.00     0.053 C 
BRANCH  11  12
ATOM     12  C   UNL     1      23.246  -3.154  11.158  1.00  0.00     0.041 C 
ATOM     13  O   UNL     1      22.609  -2.084  11.348  1.00  0.00    -0.550 OA
ATOM     14  O   UNL     1      22.694  -4.364  11.559  1.00  0.00    -0.550 OA
ENDBRANCH  11  12
ENDBRANCH  10  11
ENDBRANCH   9  10
ENDBRANCH   8   9
ENDBRANCH   7   8
ENDBRANCH   6   7
ENDBRANCH   5   6
ENDBRANCH   4   5
ENDBRANCH   3   4
ENDBRANCH   2   3
ENDBRANCH   1   2
BRANCH   1  15
ATOM     15  C   UNL     1      24.356   2.998   6.185  1.00  0.00     0.000 C 
BRANCH  15  16
ATOM     16  C   UNL     1      23.093   2.876   5.316  1.00  0.00     0.000 C 
BRANCH  16  17
ATOM     17  C   UNL     1      21.892   2.319   6.096  1.00  0.00     0.000 C 
BRANCH  17  18
ATOM     18  C   UNL     1      21.546   0.875   5.694  1.00  0.00    -0.000 C 
BRANCH  18  19
ATOM     19  C   UNL     1      21.929   0.560   4.239  1.00  0.00    -0.000 C 
BRANCH  19  20
ATOM     20  C   UNL     1      22.913  -0.614   4.128  1.00  0.00    -0.000 C 
BRANCH  20  21
ATOM     21  C   UNL     1      23.262  -1.172   5.516  1.00  0.00    -0.000 C 
BRANCH  21  22
ATOM     22  C   UNL     1      23.392  -2.705   5.536  1.00  0.00    -0.000 C 
BRANCH  22  23
ATOM     23  C   UNL     1      22.224  -3.453   6.206  1.00  0.00    -0.000 C 
BRANCH  23  24
ATOM     24  C   UNL     1      21.276  -2.517   6.974  1.00  0.00    -0.000 C 
BRANCH  24  25
ATOM     25  C   UNL     1      20.860  -3.092   8.336  1.00  0.00    -0.003 C 
ATOM     26  C   UNL     1      21.048  -4.607   8.425  1.00  0.00     0.004 C 
ENDBRANCH  24  25
ENDBRANCH  23  24
ENDBRANCH  22  23
ENDBRANCH  21  22
ENDBRANCH  20  21
ENDBRANCH  19  20
ENDBRANCH  18  19
ENDBRANCH  17  18
ENDBRANCH  16  17
ENDBRANCH  15  16
ENDBRANCH   1  15
TORSDOF 22
ENDMDL
MODEL 2
REMARK VINA RESULT:    -3.164      6.540     11.119
REMARK INTER + INTRA:         -10.814
REMARK INTER:                  -8.509
REMARK INTRA:                  -2.305
REMARK UNBOUND:                -3.581
REMARK SMILES CCCCCCCCCCCCCCCCCCCCCCCC(=O)[O-]
REMARK SMILES IDX 13 1 14 2 15 3 16 4 17 5 18 6 19 7 20 8 21 9 22 10 23 11
REMARK SMILES IDX 24 12 25 13 26 14 12 15 11 16 10 17 9 18 8 19 7 20 6 21 5 22
REMARK SMILES IDX 4 23 3 24 2 25 1 26
REMARK H PARENT
REMARK Flexibility Score: inf
ROOT
ATOM      1  C   UNL     1      15.927  -5.193  12.427  1.00  0.00     0.000 C 
ENDROOT
BRANCH   1   2
ATOM      2  C   UNL     1      15.416  -5.628  11.042  1.00  0.00     0.000 C 
BRANCH   2   3
ATOM      3  C   UNL     1      16.319  -6.700  10.397  1.00  0.00     0.000 C 
BRANCH   3   4
ATOM      4  C   UNL     1      17.816  -6.336  10.391  1.00  0.00     0.000 C 
BRANCH   4   5
ATOM      5  C   UNL     1      18.387  -6.028   8.990  1.00  0.00     0.000 C 
BRANCH   5   6
ATOM      6  C   UNL     1      17.465  -5.180   8.089  1.00  0.00     0.000 C 
BRANCH   6   7
ATOM      7  C   UNL     1      18.157  -4.049   7.300  1.00  0.00     0.000 C 
BRANCH   7   8
ATOM      8  C   UNL     1      19.695  -4.029   7.378  1.00  0.00     0.000 C 
BRANCH   8   9
ATOM      9  C   UNL     1      20.253  -2.653   7.778  1.00  0.00     0.000 C 
BRANCH   9  10
ATOM     10  C   UNL     1      21.173  -2.720   9.012  1.00  0.00     0.006 C 
BRANCH  10  11
ATOM     11  C   UNL     1      22.015  -4.003   9.106  1.00  0.00     0.053 C 
BRANCH  11  12
ATOM     12  C   UNL     1      23.078  -3.901  10.156  1.00  0.00     0.041 C 
ATOM     13  O   UNL     1      24.270  -4.203   9.884  1.00  0.00    -0.550 OA
ATOM     14  O   UNL     1      22.746  -3.506  11.447  1.00  0.00    -0.550 OA
ENDBRANCH  11  12
ENDBRANCH  10  11
ENDBRANCH   9  10
ENDBRANCH   8   9
ENDBRANCH   7   8
ENDBRANCH   6   7
ENDBRANCH   5   6
ENDBRANCH   4   5
ENDBRANCH   3   4
ENDBRANCH   2   3
ENDBRANCH   1   2
BRANCH   1  15
ATOM     15  C   UNL     1      15.784  -6.300  13.482  1.00  0.00     0.000 C 
BRANCH  15  16
ATOM     16  C   UNL     1      16.418  -5.915  14.829  1.00  0.00     0.000 C 
BRANCH  16  17
ATOM     17  C   UNL     1      15.438  -5.176  15.753  1.00  0.00     0.000 C 
BRANCH  17  18
ATOM     18  C   UNL     1      15.965  -3.798  16.190  1.00  0.00    -0.000 C 
BRANCH  18  19
ATOM     19  C   UNL     1      14.836  -2.829  16.575  1.00  0.00    -0.000 C 
BRANCH  19  20
ATOM     20  C   UNL     1      14.466  -1.870  15.434  1.00  0.00    -0.000 C 
BRANCH  20  21
ATOM     21  C   UNL     1      15.583  -1.814  14.380  1.00  0.00    -0.000 C 
BRANCH  21  22
ATOM     22  C   UNL     1      16.499  -0.587  14.536  1.00  0.00    -0.000 C 
BRANCH  22  23
ATOM     23  C   UNL     1      15.957   0.521  15.458  1.00  0.00    -0.000 C 
BRANCH  23  24
ATOM     24  C   UNL     1      16.642   0.542  16.835  1.00  0.00    -0.000 C 
BRANCH  24  25
ATOM     25  C   UNL     1      17.796  -0.468  16.933  1.00  0.00    -0.003 C 
ATOM     26  C   UNL     1      17.822  -1.212  18.268  1.00  0.00     0.004 C 
ENDBRANCH  24  25
ENDBRANCH  23  24
ENDBRANCH  22  23
ENDBRANCH  21  22
ENDBRANCH  20  21
ENDBRANCH  19  20
ENDBRANCH  18  19
ENDBRANCH  17  18
ENDBRANCH  16  17
ENDBRANCH  15  16
ENDBRANCH   1  15
TORSDOF 22
ENDMDL
MODEL 3
REMARK VINA RESULT:    -3.130      1.866      5.373
REMARK INTER + INTRA:         -10.738
REMARK INTER:                  -7.150
REMARK INTRA:                  -3.588
REMARK UNBOUND:                -3.581
REMARK SMILES CCCCCCCCCCCCCCCCCCCCCCCC(=O)[O-]
REMARK SMILES IDX 13 1 14 2 15 3 16 4 17 5 18 6 19 7 20 8 21 9 22 10 23 11
REMARK SMILES IDX 24 12 25 13 26 14 12 15 11 16 10 17 9 18 8 19 7 20 6 21 5 22
REMARK SMILES IDX 4 23 3 24 2 25 1 26
REMARK H PARENT
REMARK Flexibility Score: inf
ROOT
ATOM      1  C   UNL     1      22.355   3.346   5.192  1.00  0.00     0.000 C 
ENDROOT
BRANCH   1   2
ATOM      2  C   UNL     1      20.915   2.869   4.932  1.00  0.00     0.000 C 
BRANCH   2   3
ATOM      3  C   UNL     1      20.804   1.332   4.908  1.00  0.00     0.000 C 
BRANCH   3   4
ATOM      4  C   UNL     1      20.794   0.726   3.491  1.00  0.00     0.000 C 
BRANCH   4   5
ATOM      5  C   UNL     1      21.735  -0.484   3.313  1.00  0.00     0.000 C 
BRANCH   5   6
ATOM      6  C   UNL     1      23.196  -0.234   3.742  1.00  0.00     0.000 C 
BRANCH   6   7
ATOM      7  C   UNL     1      23.808  -1.296   4.679  1.00  0.00     0.000 C 
BRANCH   7   8
ATOM      8  C   UNL     1      23.620  -1.041   6.186  1.00  0.00     0.000 C 
BRANCH   8   9
ATOM      9  C   UNL     1      22.767  -2.122   6.871  1.00  0.00     0.000 C 
BRANCH   9  10
ATOM     10  C   UNL     1      21.255  -1.856   6.742  1.00  0.00     0.006 C 
BRANCH  10  11
ATOM     11  C   UNL     1      20.417  -2.378   7.920  1.00  0.00     0.053 C 
BRANCH  11  12
ATOM     12  C   UNL     1      19.684  -3.638   7.574  1.00  0.00     0.041 C 
ATOM     13  O   UNL     1      20.317  -4.651   7.178  1.00  0.00    -0.550 OA
ATOM     14  O   UNL     1      18.298  -3.682   7.657  1.00  0.00    -0.550 OA
ENDBRANCH  11  12
ENDBRANCH  10  11
ENDBRANCH   9  10
ENDBRANCH   8   9
ENDBRANCH   7   8
ENDBRANCH   6   7
ENDBRANCH   5   6
ENDBRANCH   4   5
ENDBRANCH   3   4
ENDBRANCH   2   3
ENDBRANCH   1   2
BRANCH   1  15
ATOM     15  C   UNL     1      23.099   2.452   6.196  1.00  0.00     0.000 C 
BRANCH  15  16
ATOM     16  C   UNL     1      24.579   2.841   6.346  1.00  0.00     0.000 C 
BRANCH  16  17
ATOM     17  C   UNL     1      25.484   2.121   5.333  1.00  0.00     0.000 C 
BRANCH  17  18
ATOM     18  C   UNL     1      26.830   1.694   5.945  1.00  0.00    -0.000 C 
BRANCH  18  19
ATOM     19  C   UNL     1      26.757   1.528   7.471  1.00  0.00    -0.000 C 
BRANCH  19  20
ATOM     20  C   UNL     1      26.646   0.057   7.901  1.00  0.00    -0.000 C 
BRANCH  20  21
ATOM     21  C   UNL     1      25.994  -0.061   9.287  1.00  0.00    -0.000 C 
BRANCH  21  22
ATOM     22  C   UNL     1      26.689  -1.091  10.195  1.00  0.00    -0.000 C 
BRANCH  22  23
ATOM     23  C   UNL     1      25.871  -2.363  10.487  1.00  0.00    -0.000 C 
BRANCH  23  24
ATOM     24  C   UNL     1      24.460  -2.320   9.878  1.00  0.00    -0.000 C 
BRANCH  24  25
ATOM     25  C   UNL     1      23.406  -2.966  10.790  1.00  0.00    -0.003 C 
ATOM     26  C   UNL     1      22.710  -4.163  10.142  1.00  0.00     0.004 C 
ENDBRANCH  24  25
ENDBRANCH  23  24
ENDBRANCH  22  23
ENDBRANCH  21  22
ENDBRANCH  20  21
ENDBRANCH  19  20
ENDBRANCH  18  19
ENDBRANCH  17  18
ENDBRANCH  16  17
ENDBRANCH  15  16
ENDBRANCH   1  15
TORSDOF 22
ENDMDL
MODEL 4
REMARK VINA RESULT:    -3.081      2.569      4.204
REMARK INTER + INTRA:         -10.626
REMARK INTER:                  -7.207
REMARK INTRA:                  -3.419
REMARK UNBOUND:                -3.581
REMARK SMILES CCCCCCCCCCCCCCCCCCCCCCCC(=O)[O-]
REMARK SMILES IDX 13 1 14 2 15 3 16 4 17 5 18 6 19 7 20 8 21 9 22 10 23 11
REMARK SMILES IDX 24 12 25 13 26 14 12 15 11 16 10 17 9 18 8 19 7 20 6 21 5 22
REMARK SMILES IDX 4 23 3 24 2 25 1 26
REMARK H PARENT
REMARK Flexibility Score: inf
ROOT
ATOM      1  C   UNL     1      25.320   0.516   5.566  1.00  0.00     0.000 C 
ENDROOT
BRANCH   1   2
ATOM      2  C   UNL     1      25.575  -0.908   6.091  1.00  0.00     0.000 C 
BRANCH   2   3
ATOM      3  C   UNL     1      25.399  -1.007   7.620  1.00  0.00     0.000 C 
BRANCH   3   4
ATOM      4  C   UNL     1      26.581  -1.680   8.344  1.00  0.00     0.000 C 
BRANCH   4   5
ATOM      5  C   UNL     1      27.110  -0.893   9.563  1.00  0.00     0.000 C 
BRANCH   5   6
ATOM      6  C   UNL     1      26.506   0.516   9.732  1.00  0.00     0.000 C 
BRANCH   6   7
ATOM      7  C   UNL     1      27.284   1.663   9.052  1.00  0.00     0.000 C 
BRANCH   7   8
ATOM      8  C   UNL     1      28.637   1.271   8.431  1.00  0.00     0.000 C 
BRANCH   8   9
ATOM      9  C   UNL     1      29.832   1.652   9.320  1.00  0.00     0.000 C 
BRANCH   9  10
ATOM     10  C   UNL     1      29.486   2.751  10.343  1.00  0.00     0.006 C 
BRANCH  10  11
ATOM     11  C   UNL     1      30.182   2.593  11.705  1.00  0.00     0.053 C 
BRANCH  11  12
ATOM     12  C   UNL     1      29.307   1.907  12.708  1.00  0.00     0.041 C 
ATOM     13  O   UNL     1      28.787   0.792  12.438  1.00  0.00    -0.550 OA
ATOM     14  O   UNL     1      29.036   2.515  13.927  1.00  0.00    -0.550 OA
ENDBRANCH  11  12
ENDBRANCH  10  11
ENDBRANCH   9  10
ENDBRANCH   8   9
ENDBRANCH   7   8
ENDBRANCH   6   7
ENDBRANCH   5   6
ENDBRANCH   4   5
ENDBRANCH   3   4
ENDBRANCH   2   3
ENDBRANCH   1   2
BRANCH   1  15
ATOM     15  C   UNL     1      24.668   1.425   6.619  1.00  0.00     0.000 C 
BRANCH  15  16
ATOM     16  C   UNL     1      24.445   2.857   6.105  1.00  0.00     0.000 C 
BRANCH  16  17
ATOM     17  C   UNL     1      23.081   3.031   5.419  1.00  0.00     0.000 C 
BRANCH  17  18
ATOM     18  C   UNL     1      21.943   2.335   6.187  1.00  0.00    -0.000 C 
BRANCH  18  19
ATOM     19  C   UNL     1      21.036   1.501   5.269  1.00  0.00    -0.000 C 
BRANCH  19  20
ATOM     20  C   UNL     1      21.831   0.653   4.264  1.00  0.00    -0.000 C 
BRANCH  20  21
ATOM     21  C   UNL     1      21.670  -0.846   4.563  1.00  0.00    -0.000 C 
BRANCH  21  22
ATOM     22  C   UNL     1      21.982  -1.207   6.026  1.00  0.00    -0.000 C 
BRANCH  22  23
ATOM     23  C   UNL     1      21.384  -2.539   6.513  1.00  0.00    -0.000 C 
BRANCH  23  24
ATOM     24  C   UNL     1      21.399  -2.679   8.044  1.00  0.00    -0.000 C 
BRANCH  24  25
ATOM     25  C   UNL     1      22.572  -3.535   8.545  1.00  0.00    -0.003 C 
ATOM     26  C   UNL     1      23.176  -3.012   9.849  1.00  0.00     0.004 C 
ENDBRANCH  24  25
ENDBRANCH  23  24
ENDBRANCH  22  23
ENDBRANCH  21  22
ENDBRANCH  20  21
ENDBRANCH  19  20
ENDBRANCH  18  19
ENDBRANCH  17  18
ENDBRANCH  16  17
ENDBRANCH  15  16
ENDBRANCH   1  15
TORSDOF 22
ENDMDL
MODEL 5
REMARK VINA RESULT:    -3.071      3.173      5.891
REMARK INTER + INTRA:         -10.601
REMARK INTER:                  -6.765
REMARK INTRA:                  -3.836
REMARK UNBOUND:                -3.581
REMARK SMILES CCCCCCCCCCCCCCCCCCCCCCCC(=O)[O-]
REMARK SMILES IDX 13 1 14 2 15 3 16 4 17 5 18 6 19 7 20 8 21 9 22 10 23 11
REMARK SMILES IDX 24 12 25 13 26 14 12 15 11 16 10 17 9 18 8 19 7 20 6 21 5 22
REMARK SMILES IDX 4 23 3 24 2 25 1 26
REMARK H PARENT
REMARK Flexibility Score: inf
ROOT
ATOM      1  C   UNL     1      21.905   2.133   6.238  1.00  0.00     0.000 C 
ENDROOT
BRANCH   1   2
ATOM      2  C   UNL     1      22.955   2.956   5.470  1.00  0.00     0.000 C 
BRANCH   2   3
ATOM      3  C   UNL     1      24.292   3.052   6.231  1.00  0.00     0.000 C 
BRANCH   3   4
ATOM      4  C   UNL     1      25.447   2.278   5.567  1.00  0.00     0.000 C 
BRANCH   4   5
ATOM      5  C   UNL     1      26.000   1.112   6.415  1.00  0.00     0.000 C 
BRANCH   5   6
ATOM      6  C   UNL     1      25.224  -0.214   6.270  1.00  0.00     0.000 C 
BRANCH   6   7
ATOM      7  C   UNL     1      24.568  -0.458   4.895  1.00  0.00     0.000 C 
BRANCH   7   8
ATOM      8  C   UNL     1      23.222  -1.205   4.924  1.00  0.00     0.000 C 
BRANCH   8   9
ATOM      9  C   UNL     1      22.872  -1.748   6.319  1.00  0.00     0.000 C 
BRANCH   9  10
ATOM     10  C   UNL     1      21.493  -2.435   6.361  1.00  0.00     0.006 C 
BRANCH  10  11
ATOM     11  C   UNL     1      20.764  -2.311   7.709  1.00  0.00     0.053 C 
BRANCH  11  12
ATOM     12  C   UNL     1      21.249  -3.318   8.706  1.00  0.00     0.041 C 
ATOM     13  O   UNL     1      20.793  -4.492   8.694  1.00  0.00    -0.550 OA
ATOM     14  O   UNL     1      22.180  -2.951   9.670  1.00  0.00    -0.550 OA
ENDBRANCH  11  12
ENDBRANCH  10  11
ENDBRANCH   9  10
ENDBRANCH   8   9
ENDBRANCH   7   8
ENDBRANCH   6   7
ENDBRANCH   5   6
ENDBRANCH   4   5
ENDBRANCH   3   4
ENDBRANCH   2   3
ENDBRANCH   1   2
BRANCH   1  15
ATOM     15  C   UNL     1      20.897   1.445   5.304  1.00  0.00     0.000 C 
BRANCH  15  16
ATOM     16  C   UNL     1      21.215   1.680   3.818  1.00  0.00     0.000 C 
BRANCH  16  17
ATOM     17  C   UNL     1      20.349   0.817   2.887  1.00  0.00     0.000 C 
BRANCH  17  18
ATOM     18  C   UNL     1      18.900   1.324   2.793  1.00  0.00    -0.000 C 
BRANCH  18  19
ATOM     19  C   UNL     1      18.726   2.417   1.726  1.00  0.00    -0.000 C 
BRANCH  19  20
ATOM     20  C   UNL     1      17.364   3.120   1.816  1.00  0.00    -0.000 C 
BRANCH  20  21
ATOM     21  C   UNL     1      16.755   2.959   3.218  1.00  0.00    -0.000 C 
BRANCH  21  22
ATOM     22  C   UNL     1      16.170   4.268   3.776  1.00  0.00    -0.000 C 
BRANCH  22  23
ATOM     23  C   UNL     1      17.178   5.178   4.502  1.00  0.00    -0.000 C 
BRANCH  23  24
ATOM     24  C   UNL     1      18.312   4.393   5.182  1.00  0.00    -0.000 C 
BRANCH  24  25
ATOM     25  C   UNL     1      19.703   4.845   4.713  1.00  0.00    -0.003 C 
ATOM     26  C   UNL     1      19.662   5.635   3.404  1.00  0.00     0.004 C 
ENDBRANCH  24  25
ENDBRANCH  23  24
ENDBRANCH  22  23
ENDBRANCH  21  22
ENDBRANCH  20  21
ENDBRANCH  19  20
ENDBRANCH  18  19
ENDBRANCH  17  18
ENDBRANCH  16  17
ENDBRANCH  15  16
ENDBRANCH   1  15
TORSDOF 22
ENDMDL
MODEL 6
REMARK VINA RESULT:    -3.063      1.654      5.314
REMARK INTER + INTRA:         -10.584
REMARK INTER:                  -5.872
REMARK INTRA:                  -4.713
REMARK UNBOUND:                -3.581
REMARK SMILES CCCCCCCCCCCCCCCCCCCCCCCC(=O)[O-]
REMARK SMILES IDX 13 1 14 2 15 3 16 4 17 5 18 6 19 7 20 8 21 9 22 10 23 11
REMARK SMILES IDX 24 12 25 13 26 14 12 15 11 16 10 17 9 18 8 19 7 20 6 21 5 22
REMARK SMILES IDX 4 23 3 24 2 25 1 26
REMARK H PARENT
REMARK Flexibility Score: inf
ROOT
ATOM      1  C   UNL     1      23.604  -1.035   6.250  1.00  0.00     0.000 C 
ENDROOT
BRANCH   1   2
ATOM      2  C   UNL     1      24.421  -1.819   5.208  1.00  0.00     0.000 C 
BRANCH   2   3
ATOM      3  C   UNL     1      25.031  -3.109   5.794  1.00  0.00     0.000 C 
BRANCH   3   4
ATOM      4  C   UNL     1      24.020  -4.260   5.957  1.00  0.00     0.000 C 
BRANCH   4   5
ATOM      5  C   UNL     1      23.065  -4.441   4.758  1.00  0.00     0.000 C 
BRANCH   5   6
ATOM      6  C   UNL     1      21.567  -4.307   5.100  1.00  0.00     0.000 C 
BRANCH   6   7
ATOM      7  C   UNL     1      21.199  -4.511   6.585  1.00  0.00     0.000 C 
BRANCH   7   8
ATOM      8  C   UNL     1      20.424  -3.355   7.243  1.00  0.00     0.000 C 
BRANCH   8   9
ATOM      9  C   UNL     1      21.110  -2.824   8.513  1.00  0.00     0.000 C 
BRANCH   9  10
ATOM     10  C   UNL     1      22.203  -3.774   9.039  1.00  0.00     0.006 C 
BRANCH  10  11
ATOM     11  C   UNL     1      23.490  -3.069   9.498  1.00  0.00     0.053 C 
BRANCH  11  12
ATOM     12  C   UNL     1      23.629  -3.066  10.989  1.00  0.00     0.041 C 
ATOM     13  O   UNL     1      22.752  -2.516  11.707  1.00  0.00    -0.550 OA
ATOM     14  O   UNL     1      24.744  -3.641  11.585  1.00  0.00    -0.550 OA
ENDBRANCH  11  12
ENDBRANCH  10  11
ENDBRANCH   9  10
ENDBRANCH   8   9
ENDBRANCH   7   8
ENDBRANCH   6   7
ENDBRANCH   5   6
ENDBRANCH   4   5
ENDBRANCH   3   4
ENDBRANCH   2   3
ENDBRANCH   1   2
BRANCH   1  15
ATOM     15  C   UNL     1      22.210  -0.646   5.736  1.00  0.00     0.000 C 
BRANCH  15  16
ATOM     16  C   UNL     1      22.065  -0.847   4.218  1.00  0.00     0.000 C 
BRANCH  16  17
ATOM     17  C   UNL     1      21.227   0.258   3.555  1.00  0.00     0.000 C 
BRANCH  17  18
ATOM     18  C   UNL     1      20.881   1.398   4.528  1.00  0.00    -0.000 C 
BRANCH  18  19
ATOM     19  C   UNL     1      21.668   2.684   4.233  1.00  0.00    -0.000 C 
BRANCH  19  20
ATOM     20  C   UNL     1      22.174   3.374   5.509  1.00  0.00    -0.000 C 
BRANCH  20  21
ATOM     21  C   UNL     1      23.540   2.811   5.932  1.00  0.00    -0.000 C 
BRANCH  21  22
ATOM     22  C   UNL     1      24.408   2.373   4.739  1.00  0.00    -0.000 C 
BRANCH  22  23
ATOM     23  C   UNL     1      25.773   1.766   5.111  1.00  0.00    -0.000 C 
BRANCH  23  24
ATOM     24  C   UNL     1      26.166   2.029   6.574  1.00  0.00    -0.000 C 
BRANCH  24  25
ATOM     25  C   UNL     1      26.597   0.748   7.306  1.00  0.00    -0.003 C 
ATOM     26  C   UNL     1      27.460  -0.170   6.439  1.00  0.00     0.004 C 
ENDBRANCH  24  25
ENDBRANCH  23  24
ENDBRANCH  22  23
ENDBRANCH  21  22
ENDBRANCH  20  21
ENDBRANCH  19  20
ENDBRANCH  18  19
ENDBRANCH  17  18
ENDBRANCH  16  17
ENDBRANCH  15  16
ENDBRANCH   1  15
TORSDOF 22
ENDMDL
MODEL 7
REMARK VINA RESULT:    -3.058      2.298      6.477
REMARK INTER + INTRA:         -10.573
REMARK INTER:                  -7.041
REMARK INTRA:                  -3.532
REMARK UNBOUND:                -3.581
REMARK SMILES CCCCCCCCCCCCCCCCCCCCCCCC(=O)[O-]
REMARK SMILES IDX 13 1 14 2 15 3 16 4 17 5 18 6 19 7 20 8 21 9 22 10 23 11
REMARK SMILES IDX 24 12 25 13 26 14 12 15 11 16 10 17 9 18 8 19 7 20 6 21 5 22
REMARK SMILES IDX 4 23 3 24 2 25 1 26
REMARK H PARENT
REMARK Flexibility Score: inf
ROOT
ATOM      1  C   UNL     1      22.832   3.057   5.767  1.00  0.00     0.000 C 
ENDROOT
BRANCH   1   2
ATOM      2  C   UNL     1      21.964   1.866   6.211  1.00  0.00     0.000 C 
BRANCH   2   3
ATOM      3  C   UNL     1      21.107   1.306   5.058  1.00  0.00     0.000 C 
BRANCH   3   4
ATOM      4  C   UNL     1      21.845   1.238   3.706  1.00  0.00     0.000 C 
BRANCH   4   5
ATOM      5  C   UNL     1      22.208  -0.192   3.254  1.00  0.00     0.000 C 
BRANCH   5   6
ATOM      6  C   UNL     1      23.145  -0.954   4.214  1.00  0.00     0.000 C 
BRANCH   6   7
ATOM      7  C   UNL     1      22.495  -2.109   5.005  1.00  0.00     0.000 C 
BRANCH   7   8
ATOM      8  C   UNL     1      22.517  -1.960   6.538  1.00  0.00     0.000 C 
BRANCH   8   9
ATOM      9  C   UNL     1      21.116  -1.750   7.136  1.00  0.00     0.000 C 
BRANCH   9  10
ATOM     10  C   UNL     1      20.873  -2.606   8.394  1.00  0.00     0.006 C 
BRANCH  10  11
ATOM     11  C   UNL     1      20.434  -4.051   8.103  1.00  0.00     0.053 C 
BRANCH  11  12
ATOM     12  C   UNL     1      19.290  -4.108   7.138  1.00  0.00     0.041 C 
ATOM     13  O   UNL     1      18.129  -3.795   7.513  1.00  0.00    -0.550 OA
ATOM     14  O   UNL     1      19.499  -4.541   5.835  1.00  0.00    -0.550 OA
ENDBRANCH  11  12
ENDBRANCH  10  11
ENDBRANCH   9  10
ENDBRANCH   8   9
ENDBRANCH   7   8
ENDBRANCH   6   7
ENDBRANCH   5   6
ENDBRANCH   4   5
ENDBRANCH   3   4
ENDBRANCH   2   3
ENDBRANCH   1   2
BRANCH   1  15
ATOM     15  C   UNL     1      24.297   2.916   6.211  1.00  0.00     0.000 C 
BRANCH  15  16
ATOM     16  C   UNL     1      25.148   2.135   5.196  1.00  0.00     0.000 C 
BRANCH  16  17
ATOM     17  C   UNL     1      26.018   1.058   5.862  1.00  0.00     0.000 C 
BRANCH  17  18
ATOM     18  C   UNL     1      25.288   0.337   7.009  1.00  0.00    -0.000 C 
BRANCH  18  19
ATOM     19  C   UNL     1      26.009  -0.944   7.454  1.00  0.00    -0.000 C 
BRANCH  19  20
ATOM     20  C   UNL     1      27.059  -0.683   8.545  1.00  0.00    -0.000 C 
BRANCH  20  21
ATOM     21  C   UNL     1      26.584   0.412   9.512  1.00  0.00    -0.000 C 
BRANCH  21  22
ATOM     22  C   UNL     1      27.350   1.737   9.347  1.00  0.00    -0.000 C 
BRANCH  22  23
ATOM     23  C   UNL     1      28.859   1.661   9.644  1.00  0.00    -0.000 C 
BRANCH  23  24
ATOM     24  C   UNL     1      29.695   2.578   8.735  1.00  0.00    -0.000 C 
BRANCH  24  25
ATOM     25  C   UNL     1      29.407   2.348   7.244  1.00  0.00    -0.003 C 
ATOM     26  C   UNL     1      29.840   0.963   6.762  1.00  0.00     0.004 C 
ENDBRANCH  24  25
ENDBRANCH  23  24
ENDBRANCH  22  23
ENDBRANCH  21  22
ENDBRANCH  20  21
ENDBRANCH  19  20
ENDBRANCH  18  19
ENDBRANCH  17  18
ENDBRANCH  16  17
ENDBRANCH  15  16
ENDBRANCH   1  15
TORSDOF 22
ENDMDL
MODEL 8
REMARK VINA RESULT:    -3.057      1.483      2.944
REMARK INTER + INTRA:         -10.570
REMARK INTER:                  -6.586
REMARK INTRA:                  -3.984
REMARK UNBOUND:                -3.581
REMARK SMILES CCCCCCCCCCCCCCCCCCCCCCCC(=O)[O-]
REMARK SMILES IDX 13 1 14 2 15 3 16 4 17 5 18 6 19 7 20 8 21 9 22 10 23 11
REMARK SMILES IDX 24 12 25 13 26 14 12 15 11 16 10 17 9 18 8 19 7 20 6 21 5 22
REMARK SMILES IDX 4 23 3 24 2 25 1 26
REMARK H PARENT
REMARK Flexibility Score: inf
ROOT
ATOM      1  C   UNL     1      28.177   0.306   5.959  1.00  0.00     0.000 C 
ENDROOT
BRANCH   1   2
ATOM      2  C   UNL     1      29.319   0.457   6.978  1.00  0.00     0.000 C 
BRANCH   2   3
ATOM      3  C   UNL     1      29.292   1.827   7.686  1.00  0.00     0.000 C 
BRANCH   3   4
ATOM      4  C   UNL     1      29.034   1.744   9.203  1.00  0.00     0.000 C 
BRANCH   4   5
ATOM      5  C   UNL     1      27.542   1.807   9.596  1.00  0.00     0.000 C 
BRANCH   5   6
ATOM      6  C   UNL     1      26.876   0.434   9.824  1.00  0.00     0.000 C 
BRANCH   6   7
ATOM      7  C   UNL     1      27.843  -0.753  10.023  1.00  0.00     0.000 C 
BRANCH   7   8
ATOM      8  C   UNL     1      27.266  -2.142   9.695  1.00  0.00     0.000 C 
BRANCH   8   9
ATOM      9  C   UNL     1      25.872  -2.367  10.303  1.00  0.00     0.000 C 
BRANCH   9  10
ATOM     10  C   UNL     1      25.183  -3.633   9.759  1.00  0.00     0.006 C 
BRANCH  10  11
ATOM     11  C   UNL     1      23.659  -3.507   9.600  1.00  0.00     0.053 C 
BRANCH  11  12
ATOM     12  C   UNL     1      22.967  -3.357  10.920  1.00  0.00     0.041 C 
ATOM     13  O   UNL     1      23.004  -4.289  11.765  1.00  0.00    -0.550 OA
ATOM     14  O   UNL     1      22.250  -2.200  11.202  1.00  0.00    -0.550 OA
ENDBRANCH  11  12
ENDBRANCH  10  11
ENDBRANCH   9  10
ENDBRANCH   8   9
ENDBRANCH   7   8
ENDBRANCH   6   7
ENDBRANCH   5   6
ENDBRANCH   4   5
ENDBRANCH   3   4
ENDBRANCH   2   3
ENDBRANCH   1   2
BRANCH   1  15
ATOM     15  C   UNL     1      27.912   1.599   5.172  1.00  0.00     0.000 C 
BRANCH  15  16
ATOM     16  C   UNL     1      26.414   1.930   5.069  1.00  0.00     0.000 C 
BRANCH  16  17
ATOM     17  C   UNL     1      25.789   2.264   6.432  1.00  0.00     0.000 C 
BRANCH  17  18
ATOM     18  C   UNL     1      24.324   2.719   6.312  1.00  0.00    -0.000 C 
BRANCH  18  19
ATOM     19  C   UNL     1      23.834   2.752   4.856  1.00  0.00    -0.000 C 
BRANCH  19  20
ATOM     20  C   UNL     1      22.305   2.856   4.749  1.00  0.00    -0.000 C 
BRANCH  20  21
ATOM     21  C   UNL     1      21.620   1.917   5.754  1.00  0.00    -0.000 C 
BRANCH  21  22
ATOM     22  C   UNL     1      21.517   0.466   5.251  1.00  0.00    -0.000 C 
BRANCH  22  23
ATOM     23  C   UNL     1      22.257  -0.578   6.108  1.00  0.00    -0.000 C 
BRANCH  23  24
ATOM     24  C   UNL     1      23.674  -0.880   5.594  1.00  0.00    -0.000 C 
BRANCH  24  25
ATOM     25  C   UNL     1      24.644  -1.249   6.727  1.00  0.00    -0.003 C 
ATOM     26  C   UNL     1      25.686  -2.285   6.303  1.00  0.00     0.004 C 
ENDBRANCH  24  25
ENDBRANCH  23  24
ENDBRANCH  22  23
ENDBRANCH  21  22
ENDBRANCH  20  21
ENDBRANCH  19  20
ENDBRANCH  18  19
ENDBRANCH  17  18
ENDBRANCH  16  17
ENDBRANCH  15  16
ENDBRANCH   1  15
TORSDOF 22
ENDMDL
MODEL 9
REMARK VINA RESULT:    -3.013      4.861      8.703
REMARK INTER + INTRA:         -10.469
REMARK INTER:                  -5.974
REMARK INTRA:                  -4.495
REMARK UNBOUND:                -3.581
REMARK SMILES CCCCCCCCCCCCCCCCCCCCCCCC(=O)[O-]
REMARK SMILES IDX 13 1 14 2 15 3 16 4 17 5 18 6 19 7 20 8 21 9 22 10 23 11
REMARK SMILES IDX 24 12 25 13 26 14 12 15 11 16 10 17 9 18 8 19 7 20 6 21 5 22
REMARK SMILES IDX 4 23 3 24 2 25 1 26
REMARK H PARENT
REMARK Flexibility Score: inf
ROOT
ATOM      1  C   UNL     1      21.766   0.870   3.924  1.00  0.00     0.000 C 
ENDROOT
BRANCH   1   2
ATOM      2  C   UNL     1      20.854   0.117   2.939  1.00  0.00     0.000 C 
BRANCH   2   3
ATOM      3  C   UNL     1      19.837   1.051   2.254  1.00  0.00     0.000 C 
BRANCH   3   4
ATOM      4  C   UNL     1      20.482   2.163   1.403  1.00  0.00     0.000 C 
BRANCH   4   5
ATOM      5  C   UNL     1      19.960   3.582   1.714  1.00  0.00     0.000 C 
BRANCH   5   6
ATOM      6  C   UNL     1      20.794   4.363   2.751  1.00  0.00     0.000 C 
BRANCH   6   7
ATOM      7  C   UNL     1      20.027   4.844   4.001  1.00  0.00     0.000 C 
BRANCH   7   8
ATOM      8  C   UNL     1      18.982   3.860   4.558  1.00  0.00     0.000 C 
BRANCH   8   9
ATOM      9  C   UNL     1      17.881   4.560   5.372  1.00  0.00     0.000 C 
BRANCH   9  10
ATOM     10  C   UNL     1      16.524   4.578   4.643  1.00  0.00     0.006 C 
BRANCH  10  11
ATOM     11  C   UNL     1      16.562   4.006   3.217  1.00  0.00     0.053 C 
BRANCH  11  12
ATOM     12  C   UNL     1      15.815   2.711   3.110  1.00  0.00     0.041 C 
ATOM     13  O   UNL     1      16.421   1.655   2.790  1.00  0.00    -0.550 OA
ATOM     14  O   UNL     1      14.444   2.678   3.331  1.00  0.00    -0.550 OA
ENDBRANCH  11  12
ENDBRANCH  10  11
ENDBRANCH   9  10
ENDBRANCH   8   9
ENDBRANCH   7   8
ENDBRANCH   6   7
ENDBRANCH   5   6
ENDBRANCH   4   5
ENDBRANCH   3   4
ENDBRANCH   2   3
ENDBRANCH   1   2
BRANCH   1  15
ATOM     15  C   UNL     1      21.089   1.118   5.281  1.00  0.00     0.000 C 
BRANCH  15  16
ATOM     16  C   UNL     1      21.950   1.981   6.220  1.00  0.00     0.000 C 
BRANCH  16  17
ATOM     17  C   UNL     1      22.872   2.944   5.455  1.00  0.00     0.000 C 
BRANCH  17  18
ATOM     18  C   UNL     1      24.298   2.977   6.033  1.00  0.00    -0.000 C 
BRANCH  18  19
ATOM     19  C   UNL     1      24.719   1.630   6.642  1.00  0.00    -0.000 C 
BRANCH  19  20
ATOM     20  C   UNL     1      25.748   0.887   5.777  1.00  0.00    -0.000 C 
BRANCH  20  21
ATOM     21  C   UNL     1      25.106  -0.319   5.075  1.00  0.00    -0.000 C 
BRANCH  21  22
ATOM     22  C   UNL     1      25.244  -0.269   3.543  1.00  0.00    -0.000 C 
BRANCH  22  23
ATOM     23  C   UNL     1      25.551   1.123   2.959  1.00  0.00    -0.000 C 
BRANCH  23  24
ATOM     24  C   UNL     1      24.573   1.534   1.846  1.00  0.00    -0.000 C 
BRANCH  24  25
ATOM     25  C   UNL     1      24.074   2.978   2.007  1.00  0.00    -0.003 C 
ATOM     26  C   UNL     1      24.187   3.793   0.719  1.00  0.00     0.004 C 
ENDBRANCH  24  25
ENDBRANCH  23  24
ENDBRANCH  22  23
ENDBRANCH  21  22
ENDBRANCH  20  21
ENDBRANCH  19  20
ENDBRANCH  18  19
ENDBRANCH  17  18
ENDBRANCH  16  17
ENDBRANCH  15  16
ENDBRANCH   1  15
TORSDOF 22
ENDMDL
