MODEL 1
REMARK VINA RESULT:    -5.496      0.000      0.000
REMARK INTER + INTRA:          -8.210
REMARK INTER:                  -7.263
REMARK INTRA:                  -0.947
REMARK UNBOUND:                -0.947
REMARK SMILES CC[C@@H](C=C[C@@H](C)[C@H]1CC[C@H]2C3=CC[C@H]4C[C@@H](O)CC[C@@]4(C)[C@@H]3CC[C@@]12C)C(C)C
REMARK SMILES IDX 6 1 7 2 5 3 4 4 3 5 2 6 1 7 28 8 29 9 30 10 8 11 9 12 26 13
REMARK SMILES IDX 10 14 11 15 25 16 27 17 12 18 24 19 23 20 13 21 21 22 14 23
REMARK SMILES IDX 15 24 20 25 22 26 16 27 19 28 17 29 18 30
REMARK H PARENT 18 31
REMARK Flexibility Score: inf
ROOT
ATOM      1  C   UNL     1       3.733   2.557  -4.056  1.00  0.00     0.012 C 
ATOM      2  C   UNL     1       4.849   2.717  -5.105  1.00  0.00     0.012 C 
ENDROOT
BRANCH   1   3
ATOM      3  C   UNL     1       4.130   1.467  -3.078  1.00  0.00    -0.028 C 
ATOM      4  C   UNL     1       4.772   0.359  -3.490  1.00  0.00    -0.027 C 
BRANCH   4   5
ATOM      5  C   UNL     1       5.125  -0.758  -2.525  1.00  0.00     0.014 C 
BRANCH   5   6
ATOM      6  C   UNL     1       5.758  -0.239  -1.204  1.00  0.00     0.004 C 
ATOM      7  C   UNL     1       4.909  -0.413   0.059  1.00  0.00     0.004 C 
ENDBRANCH   5   6
BRANCH   5   8
ATOM      8  C   UNL     1       5.940  -1.903  -3.202  1.00  0.00    -0.011 C 
ATOM      9  C   UNL     1       6.943  -2.596  -2.265  1.00  0.00     0.008 C 
ATOM     10  C   UNL     1       6.658  -1.402  -4.467  1.00  0.00     0.008 C 
ENDBRANCH   5   8
ENDBRANCH   4   5
ENDBRANCH   1   3
BRANCH   1  11
ATOM     11  C   UNL     1       2.349   2.226  -4.707  1.00  0.00     0.002 C 
ATOM     12  C   UNL     1       1.377   1.582  -3.702  1.00  0.00     0.005 C 
ATOM     13  C   UNL     1       1.538   3.403  -5.342  1.00  0.00    -0.023 C 
ATOM     14  C   UNL     1      -0.036   1.951  -4.145  1.00  0.00     0.009 C 
ATOM     15  C   UNL     1       0.115   2.813  -5.401  1.00  0.00     0.021 C 
ATOM     16  C   UNL     1       1.559   4.669  -4.442  1.00  0.00     0.008 C 
ATOM     17  C   UNL     1       2.016   3.728  -6.779  1.00  0.00     0.012 C 
ATOM     18  C   UNL     1      -1.015   3.827  -5.530  1.00  0.00    -0.067 C 
ATOM     19  C   UNL     1       0.541   5.720  -4.888  1.00  0.00     0.009 C 
ATOM     20  C   UNL     1      -0.916   5.196  -4.851  1.00  0.00     0.021 C 
ATOM     21  C   UNL     1      -2.194   3.379  -5.996  1.00  0.00    -0.027 C 
ATOM     22  C   UNL     1      -2.028   6.277  -5.297  1.00  0.00    -0.023 C 
ATOM     23  C   UNL     1      -3.420   4.224  -5.958  1.00  0.00     0.031 C 
ATOM     24  C   UNL     1      -3.049   5.665  -6.325  1.00  0.00     0.002 C 
ATOM     25  C   UNL     1      -2.788   6.735  -4.009  1.00  0.00     0.010 C 
ATOM     26  C   UNL     1      -1.389   7.535  -5.965  1.00  0.00     0.012 C 
ATOM     27  C   UNL     1      -4.317   6.531  -6.552  1.00  0.00     0.036 C 
ATOM     28  C   UNL     1      -4.016   7.619  -4.272  1.00  0.00     0.032 C 
ATOM     29  C   UNL     1      -5.013   6.973  -5.257  1.00  0.00     0.114 C 
BRANCH  29  30
ATOM     30  O   UNL     1      -5.753   5.904  -4.708  1.00  0.00    -0.393 OA
ATOM     31  H   UNL     1      -5.954   5.231  -5.411  1.00  0.00     0.210 HD
ENDBRANCH  29  30
ENDBRANCH   1  11
TORSDOF 6
ENDMDL
MODEL 2
REMARK VINA RESULT:    -5.477      2.997      9.488
REMARK INTER + INTRA:          -8.185
REMARK INTER:                  -6.977
REMARK INTRA:                  -1.208
REMARK UNBOUND:                -0.947
REMARK SMILES CC[C@@H](C=C[C@@H](C)[C@H]1CC[C@H]2C3=CC[C@H]4C[C@@H](O)CC[C@@]4(C)[C@@H]3CC[C@@]12C)C(C)C
REMARK SMILES IDX 6 1 7 2 5 3 4 4 3 5 2 6 1 7 28 8 29 9 30 10 8 11 9 12 26 13
REMARK SMILES IDX 10 14 11 15 25 16 27 17 12 18 24 19 23 20 13 21 21 22 14 23
REMARK SMILES IDX 15 24 20 25 22 26 16 27 19 28 17 29 18 30
REMARK H PARENT 18 31
REMARK Flexibility Score: inf
ROOT
ATOM      1  C   UNL     1      -2.208   3.769  -4.904  1.00  0.00     0.012 C 
ATOM      2  C   UNL     1      -3.094   3.456  -6.124  1.00  0.00     0.012 C 
ENDROOT
BRANCH   1   3
ATOM      3  C   UNL     1      -2.876   4.849  -4.075  1.00  0.00    -0.028 C 
ATOM      4  C   UNL     1      -4.141   5.236  -4.321  1.00  0.00    -0.027 C 
BRANCH   4   5
ATOM      5  C   UNL     1      -4.797   6.353  -3.529  1.00  0.00     0.014 C 
BRANCH   5   6
ATOM      6  C   UNL     1      -6.000   6.997  -4.274  1.00  0.00     0.004 C 
ATOM      7  C   UNL     1      -6.346   6.391  -5.638  1.00  0.00     0.004 C 
ENDBRANCH   5   6
BRANCH   5   8
ATOM      8  C   UNL     1      -3.769   7.392  -2.987  1.00  0.00    -0.011 C 
ATOM      9  C   UNL     1      -4.163   8.019  -1.639  1.00  0.00     0.008 C 
ATOM     10  C   UNL     1      -3.493   8.495  -4.023  1.00  0.00     0.008 C 
ENDBRANCH   5   8
ENDBRANCH   4   5
ENDBRANCH   1   3
BRANCH   1  11
ATOM     11  C   UNL     1      -0.765   4.212  -5.315  1.00  0.00     0.002 C 
ATOM     12  C   UNL     1      -0.228   5.340  -4.415  1.00  0.00     0.005 C 
ATOM     13  C   UNL     1       0.363   3.130  -5.309  1.00  0.00    -0.023 C 
ATOM     14  C   UNL     1       1.292   5.206  -4.387  1.00  0.00     0.009 C 
ATOM     15  C   UNL     1       1.636   3.999  -5.263  1.00  0.00     0.021 C 
ATOM     16  C   UNL     1       0.286   2.223  -4.050  1.00  0.00     0.008 C 
ATOM     17  C   UNL     1       0.367   2.287  -6.609  1.00  0.00     0.012 C 
ATOM     18  C   UNL     1       2.899   3.294  -4.784  1.00  0.00    -0.067 C 
ATOM     19  C   UNL     1       1.539   1.363  -3.872  1.00  0.00     0.009 C 
ATOM     20  C   UNL     1       2.826   2.207  -3.708  1.00  0.00     0.021 C 
ATOM     21  C   UNL     1       4.078   3.852  -5.112  1.00  0.00    -0.027 C 
ATOM     22  C   UNL     1       4.172   1.342  -3.498  1.00  0.00    -0.023 C 
ATOM     23  C   UNL     1       5.359   3.376  -4.519  1.00  0.00     0.031 C 
ATOM     24  C   UNL     1       5.334   1.846  -4.430  1.00  0.00     0.002 C 
ATOM     25  C   UNL     1       4.599   1.484  -2.000  1.00  0.00     0.010 C 
ATOM     26  C   UNL     1       3.950  -0.172  -3.805  1.00  0.00     0.012 C 
ATOM     27  C   UNL     1       6.732   1.282  -4.062  1.00  0.00     0.036 C 
ATOM     28  C   UNL     1       5.973   0.883  -1.667  1.00  0.00     0.032 C 
ATOM     29  C   UNL     1       7.095   1.426  -2.578  1.00  0.00     0.114 C 
BRANCH  29  30
ATOM     30  O   UNL     1       7.475   2.755  -2.291  1.00  0.00    -0.393 OA
ATOM     31  H   UNL     1       7.507   3.289  -3.128  1.00  0.00     0.210 HD
ENDBRANCH  29  30
ENDBRANCH   1  11
TORSDOF 6
ENDMDL
MODEL 3
REMARK VINA RESULT:    -5.266      0.982      1.760
REMARK INTER + INTRA:          -7.906
REMARK INTER:                  -7.013
REMARK INTRA:                  -0.893
REMARK UNBOUND:                -0.947
REMARK SMILES CC[C@@H](C=C[C@@H](C)[C@H]1CC[C@H]2C3=CC[C@H]4C[C@@H](O)CC[C@@]4(C)[C@@H]3CC[C@@]12C)C(C)C
REMARK SMILES IDX 6 1 7 2 5 3 4 4 3 5 2 6 1 7 28 8 29 9 30 10 8 11 9 12 26 13
REMARK SMILES IDX 10 14 11 15 25 16 27 17 12 18 24 19 23 20 13 21 21 22 14 23
REMARK SMILES IDX 15 24 20 25 22 26 16 27 19 28 17 29 18 30
REMARK H PARENT 18 31
REMARK Flexibility Score: inf
ROOT
ATOM      1  C   UNL     1       3.249   2.997  -4.494  1.00  0.00     0.012 C 
ATOM      2  C   UNL     1       4.273   3.340  -5.591  1.00  0.00     0.012 C 
ENDROOT
BRANCH   1   3
ATOM      3  C   UNL     1       3.753   1.803  -3.706  1.00  0.00    -0.028 C 
ATOM      4  C   UNL     1       5.032   1.397  -3.796  1.00  0.00    -0.027 C 
BRANCH   4   5
ATOM      5  C   UNL     1       5.531   0.172  -3.052  1.00  0.00     0.014 C 
BRANCH   5   6
ATOM      6  C   UNL     1       5.428  -1.131  -3.893  1.00  0.00     0.004 C 
ATOM      7  C   UNL     1       6.741  -1.650  -4.489  1.00  0.00     0.004 C 
ENDBRANCH   5   6
BRANCH   5   8
ATOM      8  C   UNL     1       4.917   0.044  -1.623  1.00  0.00    -0.011 C 
ATOM      9  C   UNL     1       5.533   1.001  -0.589  1.00  0.00     0.008 C 
ATOM     10  C   UNL     1       4.993  -1.405  -1.114  1.00  0.00     0.008 C 
ENDBRANCH   5   8
ENDBRANCH   4   5
ENDBRANCH   1   3
BRANCH   1  11
ATOM     11  C   UNL     1       1.828   2.703  -5.078  1.00  0.00     0.002 C 
ATOM     12  C   UNL     1       0.956   1.896  -4.098  1.00  0.00     0.005 C 
ATOM     13  C   UNL     1       0.937   3.920  -5.488  1.00  0.00    -0.023 C 
ATOM     14  C   UNL     1      -0.498   2.265  -4.382  1.00  0.00     0.009 C 
ATOM     15  C   UNL     1      -0.470   3.290  -5.519  1.00  0.00     0.021 C 
ATOM     16  C   UNL     1       0.993   5.058  -4.430  1.00  0.00     0.008 C 
ATOM     17  C   UNL     1       1.291   4.450  -6.900  1.00  0.00     0.012 C 
ATOM     18  C   UNL     1      -1.634   4.268  -5.427  1.00  0.00    -0.067 C 
ATOM     19  C   UNL     1      -0.086   6.119  -4.656  1.00  0.00     0.009 C 
ATOM     20  C   UNL     1      -1.521   5.539  -4.581  1.00  0.00     0.021 C 
ATOM     21  C   UNL     1      -2.834   3.841  -5.860  1.00  0.00    -0.027 C 
ATOM     22  C   UNL     1      -2.694   6.626  -4.794  1.00  0.00    -0.023 C 
ATOM     23  C   UNL     1      -4.076   4.627  -5.618  1.00  0.00     0.031 C 
ATOM     24  C   UNL     1      -3.775   6.116  -5.816  1.00  0.00     0.002 C 
ATOM     25  C   UNL     1      -3.362   6.882  -3.404  1.00  0.00     0.010 C 
ATOM     26  C   UNL     1      -2.144   7.984  -5.333  1.00  0.00     0.012 C 
ATOM     27  C   UNL     1      -5.080   6.956  -5.830  1.00  0.00     0.036 C 
ATOM     28  C   UNL     1      -4.632   7.746  -3.454  1.00  0.00     0.032 C 
ATOM     29  C   UNL     1      -5.685   7.197  -4.440  1.00  0.00     0.114 C 
BRANCH  29  30
ATOM     30  O   UNL     1      -6.349   6.037  -3.985  1.00  0.00    -0.393 OA
ATOM     31  H   UNL     1      -6.286   5.974  -2.996  1.00  0.00     0.210 HD
ENDBRANCH  29  30
ENDBRANCH   1  11
TORSDOF 6
ENDMDL
MODEL 4
REMARK VINA RESULT:    -4.940      3.736      9.692
REMARK INTER + INTRA:          -7.474
REMARK INTER:                  -6.224
REMARK INTRA:                  -1.251
REMARK UNBOUND:                -0.947
REMARK SMILES CC[C@@H](C=C[C@@H](C)[C@H]1CC[C@H]2C3=CC[C@H]4C[C@@H](O)CC[C@@]4(C)[C@@H]3CC[C@@]12C)C(C)C
REMARK SMILES IDX 6 1 7 2 5 3 4 4 3 5 2 6 1 7 28 8 29 9 30 10 8 11 9 12 26 13
REMARK SMILES IDX 10 14 11 15 25 16 27 17 12 18 24 19 23 20 13 21 21 22 14 23
REMARK SMILES IDX 15 24 20 25 22 26 16 27 19 28 17 29 18 30
REMARK H PARENT 18 31
REMARK Flexibility Score: inf
ROOT
ATOM      1  C   UNL     1      -5.942   8.236  -2.687  1.00  0.00     0.012 C 
ATOM      2  C   UNL     1      -6.859   9.439  -2.976  1.00  0.00     0.012 C 
ENDROOT
BRANCH   1   3
ATOM      3  C   UNL     1      -5.909   7.991  -1.190  1.00  0.00    -0.028 C 
ATOM      4  C   UNL     1      -6.013   6.749  -0.684  1.00  0.00    -0.027 C 
BRANCH   4   5
ATOM      5  C   UNL     1      -6.033   6.501   0.813  1.00  0.00     0.014 C 
BRANCH   5   6
ATOM      6  C   UNL     1      -7.200   5.577   1.258  1.00  0.00     0.004 C 
ATOM      7  C   UNL     1      -8.225   5.222   0.176  1.00  0.00     0.004 C 
ENDBRANCH   5   6
BRANCH   5   8
ATOM      8  C   UNL     1      -5.926   7.817   1.643  1.00  0.00    -0.011 C 
ATOM      9  C   UNL     1      -4.609   7.961   2.423  1.00  0.00     0.008 C 
ATOM     10  C   UNL     1      -7.124   7.973   2.596  1.00  0.00     0.008 C 
ENDBRANCH   5   8
ENDBRANCH   4   5
ENDBRANCH   1   3
BRANCH   1  11
ATOM     11  C   UNL     1      -4.492   8.449  -3.236  1.00  0.00     0.002 C 
ATOM     12  C   UNL     1      -3.460   8.590  -2.102  1.00  0.00     0.005 C 
ATOM     13  C   UNL     1      -3.897   7.352  -4.177  1.00  0.00    -0.023 C 
ATOM     14  C   UNL     1      -2.126   8.082  -2.644  1.00  0.00     0.009 C 
ATOM     15  C   UNL     1      -2.385   7.640  -4.087  1.00  0.00     0.021 C 
ATOM     16  C   UNL     1      -4.203   5.919  -3.660  1.00  0.00     0.008 C 
ATOM     17  C   UNL     1      -4.364   7.530  -5.644  1.00  0.00     0.012 C 
ATOM     18  C   UNL     1      -1.469   6.495  -4.500  1.00  0.00    -0.067 C 
ATOM     19  C   UNL     1      -3.389   4.848  -4.388  1.00  0.00     0.009 C 
ATOM     20  C   UNL     1      -1.861   5.042  -4.223  1.00  0.00     0.021 C 
ATOM     21  C   UNL     1      -0.205   6.809  -4.838  1.00  0.00    -0.027 C 
ATOM     22  C   UNL     1      -0.961   3.924  -4.959  1.00  0.00    -0.023 C 
ATOM     23  C   UNL     1       0.831   5.759  -5.046  1.00  0.00     0.031 C 
ATOM     24  C   UNL     1       0.204   4.575  -5.791  1.00  0.00     0.002 C 
ATOM     25  C   UNL     1      -0.364   2.992  -3.855  1.00  0.00     0.010 C 
ATOM     26  C   UNL     1      -1.802   3.047  -5.941  1.00  0.00     0.012 C 
ATOM     27  C   UNL     1       1.288   3.570  -6.259  1.00  0.00     0.036 C 
ATOM     28  C   UNL     1       0.681   1.986  -4.363  1.00  0.00     0.032 C 
ATOM     29  C   UNL     1       1.827   2.664  -5.143  1.00  0.00     0.114 C 
BRANCH  29  30
ATOM     30  O   UNL     1       2.735   3.375  -4.329  1.00  0.00    -0.393 OA
ATOM     31  H   UNL     1       2.509   4.342  -4.331  1.00  0.00     0.210 HD
ENDBRANCH  29  30
ENDBRANCH   1  11
TORSDOF 6
ENDMDL
MODEL 5
REMARK VINA RESULT:    -4.804      3.228      6.421
REMARK INTER + INTRA:          -7.295
REMARK INTER:                  -6.036
REMARK INTRA:                  -1.259
REMARK UNBOUND:                -0.947
REMARK SMILES CC[C@@H](C=C[C@@H](C)[C@H]1CC[C@H]2C3=CC[C@H]4C[C@@H](O)CC[C@@]4(C)[C@@H]3CC[C@@]12C)C(C)C
REMARK SMILES IDX 6 1 7 2 5 3 4 4 3 5 2 6 1 7 28 8 29 9 30 10 8 11 9 12 26 13
REMARK SMILES IDX 10 14 11 15 25 16 27 17 12 18 24 19 23 20 13 21 21 22 14 23
REMARK SMILES IDX 15 24 20 25 22 26 16 27 19 28 17 29 18 30
REMARK H PARENT 18 31
REMARK Flexibility Score: inf
ROOT
ATOM      1  C   UNL     1      -0.542   6.956  -4.969  1.00  0.00     0.012 C 
ATOM      2  C   UNL     1       0.054   7.437  -6.305  1.00  0.00     0.012 C 
ENDROOT
BRANCH   1   3
ATOM      3  C   UNL     1       0.247   5.754  -4.483  1.00  0.00    -0.028 C 
ATOM      4  C   UNL     1       1.059   5.072  -5.310  1.00  0.00    -0.027 C 
BRANCH   4   5
ATOM      5  C   UNL     1       1.810   3.838  -4.844  1.00  0.00     0.014 C 
BRANCH   5   6
ATOM      6  C   UNL     1       3.309   3.851  -5.254  1.00  0.00     0.004 C 
ATOM      7  C   UNL     1       4.153   2.676  -4.751  1.00  0.00     0.004 C 
ENDBRANCH   5   6
BRANCH   5   8
ATOM      8  C   UNL     1       1.075   2.511  -5.208  1.00  0.00    -0.011 C 
ATOM      9  C   UNL     1       0.282   2.575  -6.524  1.00  0.00     0.008 C 
ATOM     10  C   UNL     1       0.159   2.051  -4.061  1.00  0.00     0.008 C 
ENDBRANCH   5   8
ENDBRANCH   4   5
ENDBRANCH   1   3
BRANCH   1  11
ATOM     11  C   UNL     1      -2.060   6.598  -5.090  1.00  0.00     0.002 C 
ATOM     12  C   UNL     1      -2.343   5.136  -4.695  1.00  0.00     0.005 C 
ATOM     13  C   UNL     1      -3.079   7.436  -4.252  1.00  0.00    -0.023 C 
ATOM     14  C   UNL     1      -3.771   5.084  -4.160  1.00  0.00     0.009 C 
ATOM     15  C   UNL     1      -4.314   6.513  -4.236  1.00  0.00     0.021 C 
ATOM     16  C   UNL     1      -2.573   7.682  -2.804  1.00  0.00     0.008 C 
ATOM     17  C   UNL     1      -3.448   8.769  -4.952  1.00  0.00     0.012 C 
ATOM     18  C   UNL     1      -5.331   6.791  -3.136  1.00  0.00    -0.067 C 
ATOM     19  C   UNL     1      -3.667   8.234  -1.888  1.00  0.00     0.009 C 
ATOM     20  C   UNL     1      -4.877   7.277  -1.758  1.00  0.00     0.021 C 
ATOM     21  C   UNL     1      -6.579   6.321  -3.319  1.00  0.00    -0.027 C 
ATOM     22  C   UNL     1      -6.050   7.810  -0.785  1.00  0.00    -0.023 C 
ATOM     23  C   UNL     1      -7.589   6.343  -2.223  1.00  0.00     0.031 C 
ATOM     24  C   UNL     1      -7.466   7.662  -1.453  1.00  0.00     0.002 C 
ATOM     25  C   UNL     1      -5.996   6.965   0.530  1.00  0.00     0.010 C 
ATOM     26  C   UNL     1      -5.864   9.314  -0.412  1.00  0.00     0.012 C 
ATOM     27  C   UNL     1      -8.653   7.851  -0.471  1.00  0.00     0.036 C 
ATOM     28  C   UNL     1      -7.169   7.205   1.492  1.00  0.00     0.032 C 
ATOM     29  C   UNL     1      -8.543   7.017   0.813  1.00  0.00     0.114 C 
BRANCH  29  30
ATOM     30  O   UNL     1      -8.876   5.670   0.554  1.00  0.00    -0.393 OA
ATOM     31  H   UNL     1      -8.126   5.076   0.818  1.00  0.00     0.210 HD
ENDBRANCH  29  30
ENDBRANCH   1  11
TORSDOF 6
ENDMDL
MODEL 6
REMARK VINA RESULT:    -4.759      3.693     10.017
REMARK INTER + INTRA:          -7.236
REMARK INTER:                  -5.942
REMARK INTRA:                  -1.294
REMARK UNBOUND:                -0.947
REMARK SMILES CC[C@@H](C=C[C@@H](C)[C@H]1CC[C@H]2C3=CC[C@H]4C[C@@H](O)CC[C@@]4(C)[C@@H]3CC[C@@]12C)C(C)C
REMARK SMILES IDX 6 1 7 2 5 3 4 4 3 5 2 6 1 7 28 8 29 9 30 10 8 11 9 12 26 13
REMARK SMILES IDX 10 14 11 15 25 16 27 17 12 18 24 19 23 20 13 21 21 22 14 23
REMARK SMILES IDX 15 24 20 25 22 26 16 27 19 28 17 29 18 30
REMARK H PARENT 18 31
REMARK Flexibility Score: inf
ROOT
ATOM      1  C   UNL     1       4.800   2.972  -5.400  1.00  0.00     0.012 C 
ATOM      2  C   UNL     1       5.430   3.849  -6.498  1.00  0.00     0.012 C 
ENDROOT
BRANCH   1   3
ATOM      3  C   UNL     1       3.466   3.571  -4.997  1.00  0.00    -0.028 C 
ATOM      4  C   UNL     1       2.305   3.028  -5.406  1.00  0.00    -0.027 C 
BRANCH   4   5
ATOM      5  C   UNL     1       0.968   3.652  -5.050  1.00  0.00     0.014 C 
BRANCH   5   6
ATOM      6  C   UNL     1       1.105   5.088  -4.471  1.00  0.00     0.004 C 
ATOM      7  C   UNL     1       0.059   6.103  -4.940  1.00  0.00     0.004 C 
ENDBRANCH   5   6
BRANCH   5   8
ATOM      8  C   UNL     1       0.076   2.711  -4.183  1.00  0.00    -0.011 C 
ATOM      9  C   UNL     1       0.770   1.407  -3.755  1.00  0.00     0.008 C 
ATOM     10  C   UNL     1      -1.252   2.394  -4.893  1.00  0.00     0.008 C 
ENDBRANCH   5   8
ENDBRANCH   4   5
ENDBRANCH   1   3
BRANCH   1  11
ATOM     11  C   UNL     1       5.730   2.825  -4.151  1.00  0.00     0.002 C 
ATOM     12  C   UNL     1       5.093   3.420  -2.881  1.00  0.00     0.005 C 
ATOM     13  C   UNL     1       6.172   1.385  -3.732  1.00  0.00    -0.023 C 
ATOM     14  C   UNL     1       5.654   2.646  -1.692  1.00  0.00     0.009 C 
ATOM     15  C   UNL     1       6.610   1.599  -2.269  1.00  0.00     0.021 C 
ATOM     16  C   UNL     1       4.992   0.377  -3.798  1.00  0.00     0.008 C 
ATOM     17  C   UNL     1       7.384   0.886  -4.560  1.00  0.00     0.012 C 
ATOM     18  C   UNL     1       6.663   0.344  -1.406  1.00  0.00    -0.067 C 
ATOM     19  C   UNL     1       5.320  -0.953  -3.117  1.00  0.00     0.009 C 
ATOM     20  C   UNL     1       5.655  -0.789  -1.614  1.00  0.00     0.021 C 
ATOM     21  C   UNL     1       7.413   0.396  -0.291  1.00  0.00    -0.027 C 
ATOM     22  C   UNL     1       5.990  -2.169  -0.848  1.00  0.00    -0.023 C 
ATOM     23  C   UNL     1       7.365  -0.686   0.732  1.00  0.00     0.031 C 
ATOM     24  C   UNL     1       7.292  -2.044   0.025  1.00  0.00     0.002 C 
ATOM     25  C   UNL     1       4.771  -2.511   0.069  1.00  0.00     0.010 C 
ATOM     26  C   UNL     1       6.206  -3.354  -1.842  1.00  0.00     0.012 C 
ATOM     27  C   UNL     1       7.498  -3.210   1.028  1.00  0.00     0.036 C 
ATOM     28  C   UNL     1       5.000  -3.694   1.023  1.00  0.00     0.032 C 
ATOM     29  C   UNL     1       6.266  -3.521   1.889  1.00  0.00     0.114 C 
BRANCH  29  30
ATOM     30  O   UNL     1       6.132  -2.564   2.918  1.00  0.00    -0.393 OA
ATOM     31  H   UNL     1       5.465  -1.875   2.659  1.00  0.00     0.210 HD
ENDBRANCH  29  30
ENDBRANCH   1  11
TORSDOF 6
ENDMDL
MODEL 7
REMARK VINA RESULT:    -4.692      6.864     11.539
REMARK INTER + INTRA:          -7.147
REMARK INTER:                  -5.921
REMARK INTRA:                  -1.226
REMARK UNBOUND:                -0.947
REMARK SMILES CC[C@@H](C=C[C@@H](C)[C@H]1CC[C@H]2C3=CC[C@H]4C[C@@H](O)CC[C@@]4(C)[C@@H]3CC[C@@]12C)C(C)C
REMARK SMILES IDX 6 1 7 2 5 3 4 4 3 5 2 6 1 7 28 8 29 9 30 10 8 11 9 12 26 13
REMARK SMILES IDX 10 14 11 15 25 16 27 17 12 18 24 19 23 20 13 21 21 22 14 23
REMARK SMILES IDX 15 24 20 25 22 26 16 27 19 28 17 29 18 30
REMARK H PARENT 18 31
REMARK Flexibility Score: inf
ROOT
ATOM      1  C   UNL     1       7.252  -3.365  -1.245  1.00  0.00     0.012 C 
ATOM      2  C   UNL     1       8.760  -3.458  -0.947  1.00  0.00     0.012 C 
ENDROOT
BRANCH   1   3
ATOM      3  C   UNL     1       6.991  -2.127  -2.080  1.00  0.00    -0.028 C 
ATOM      4  C   UNL     1       6.394  -2.209  -3.283  1.00  0.00    -0.027 C 
BRANCH   4   5
ATOM      5  C   UNL     1       6.177  -0.980  -4.147  1.00  0.00     0.014 C 
BRANCH   5   6
ATOM      6  C   UNL     1       7.477  -0.492  -4.844  1.00  0.00     0.004 C 
ATOM      7  C   UNL     1       8.363  -1.584  -5.452  1.00  0.00     0.004 C 
ENDBRANCH   5   6
BRANCH   5   8
ATOM      8  C   UNL     1       5.404   0.151  -3.402  1.00  0.00    -0.011 C 
ATOM      9  C   UNL     1       3.927  -0.175  -3.126  1.00  0.00     0.008 C 
ATOM     10  C   UNL     1       5.519   1.490  -4.151  1.00  0.00     0.008 C 
ENDBRANCH   5   8
ENDBRANCH   4   5
ENDBRANCH   1   3
BRANCH   1  11
ATOM     11  C   UNL     1       6.389  -3.334   0.060  1.00  0.00     0.002 C 
ATOM     12  C   UNL     1       5.252  -2.299  -0.024  1.00  0.00     0.005 C 
ATOM     13  C   UNL     1       5.686  -4.657   0.506  1.00  0.00    -0.023 C 
ATOM     14  C   UNL     1       4.120  -2.804   0.867  1.00  0.00     0.009 C 
ATOM     15  C   UNL     1       4.595  -4.132   1.460  1.00  0.00     0.021 C 
ATOM     16  C   UNL     1       5.038  -5.400  -0.696  1.00  0.00     0.008 C 
ATOM     17  C   UNL     1       6.645  -5.589   1.289  1.00  0.00     0.012 C 
ATOM     18  C   UNL     1       3.433  -5.083   1.721  1.00  0.00    -0.067 C 
ATOM     19  C   UNL     1       4.101  -6.524  -0.252  1.00  0.00     0.009 C 
ATOM     20  C   UNL     1       2.925  -6.015   0.618  1.00  0.00     0.021 C 
ATOM     21  C   UNL     1       2.697  -4.867   2.826  1.00  0.00    -0.027 C 
ATOM     22  C   UNL     1       1.899  -7.165   1.095  1.00  0.00    -0.023 C 
ATOM     23  C   UNL     1       1.418  -5.592   3.065  1.00  0.00     0.031 C 
ATOM     24  C   UNL     1       1.578  -7.053   2.631  1.00  0.00     0.002 C 
ATOM     25  C   UNL     1       0.582  -6.999   0.268  1.00  0.00     0.010 C 
ATOM     26  C   UNL     1       2.463  -8.598   0.839  1.00  0.00     0.012 C 
ATOM     27  C   UNL     1       0.370  -7.911   3.091  1.00  0.00     0.036 C 
ATOM     28  C   UNL     1      -0.581  -7.891   0.731  1.00  0.00     0.032 C 
ATOM     29  C   UNL     1      -0.891  -7.729   2.235  1.00  0.00     0.114 C 
BRANCH  29  30
ATOM     30  O   UNL     1      -1.535  -6.515   2.561  1.00  0.00    -0.393 OA
ATOM     31  H   UNL     1      -1.543  -6.388   3.546  1.00  0.00     0.210 HD
ENDBRANCH  29  30
ENDBRANCH   1  11
TORSDOF 6
ENDMDL
MODEL 8
REMARK VINA RESULT:    -4.682      6.377      9.176
REMARK INTER + INTRA:          -7.134
REMARK INTER:                  -6.012
REMARK INTRA:                  -1.122
REMARK UNBOUND:                -0.947
REMARK SMILES CC[C@@H](C=C[C@@H](C)[C@H]1CC[C@H]2C3=CC[C@H]4C[C@@H](O)CC[C@@]4(C)[C@@H]3CC[C@@]12C)C(C)C
REMARK SMILES IDX 6 1 7 2 5 3 4 4 3 5 2 6 1 7 28 8 29 9 30 10 8 11 9 12 26 13
REMARK SMILES IDX 10 14 11 15 25 16 27 17 12 18 24 19 23 20 13 21 21 22 14 23
REMARK SMILES IDX 15 24 20 25 22 26 16 27 19 28 17 29 18 30
REMARK H PARENT 18 31
REMARK Flexibility Score: inf
ROOT
ATOM      1  C   UNL     1       4.530  -2.881   0.806  1.00  0.00     0.012 C 
ATOM      2  C   UNL     1       4.905  -2.994   2.295  1.00  0.00     0.012 C 
ENDROOT
BRANCH   1   3
ATOM      3  C   UNL     1       3.870  -4.172   0.364  1.00  0.00    -0.028 C 
ATOM      4  C   UNL     1       2.639  -4.509   0.790  1.00  0.00    -0.027 C 
BRANCH   4   5
ATOM      5  C   UNL     1       1.993  -5.824   0.394  1.00  0.00     0.014 C 
BRANCH   5   6
ATOM      6  C   UNL     1       2.789  -6.582  -0.705  1.00  0.00     0.004 C 
ATOM      7  C   UNL     1       1.954  -7.212  -1.823  1.00  0.00     0.004 C 
ENDBRANCH   5   6
BRANCH   5   8
ATOM      8  C   UNL     1       0.473  -5.677   0.077  1.00  0.00    -0.011 C 
ATOM      9  C   UNL     1       0.005  -4.222  -0.089  1.00  0.00     0.008 C 
ATOM     10  C   UNL     1      -0.387  -6.391   1.134  1.00  0.00     0.008 C 
ENDBRANCH   5   8
ENDBRANCH   4   5
ENDBRANCH   1   3
BRANCH   1  11
ATOM     11  C   UNL     1       5.770  -2.567  -0.096  1.00  0.00     0.002 C 
ATOM     12  C   UNL     1       5.707  -3.310  -1.444  1.00  0.00     0.005 C 
ATOM     13  C   UNL     1       6.038  -1.076  -0.480  1.00  0.00    -0.023 C 
ATOM     14  C   UNL     1       6.466  -2.461  -2.460  1.00  0.00     0.009 C 
ATOM     15  C   UNL     1       6.961  -1.224  -1.707  1.00  0.00     0.021 C 
ATOM     16  C   UNL     1       4.730  -0.337  -0.878  1.00  0.00     0.008 C 
ATOM     17  C   UNL     1       6.794  -0.315   0.638  1.00  0.00     0.012 C 
ATOM     18  C   UNL     1       7.049  -0.005  -2.617  1.00  0.00    -0.067 C 
ATOM     19  C   UNL     1       5.000   1.017  -1.536  1.00  0.00     0.009 C 
ATOM     20  C   UNL     1       5.831   0.895  -2.837  1.00  0.00     0.021 C 
ATOM     21  C   UNL     1       8.117   0.079  -3.431  1.00  0.00    -0.027 C 
ATOM     22  C   UNL     1       6.124   2.298  -3.578  1.00  0.00    -0.023 C 
ATOM     23  C   UNL     1       8.198   1.105  -4.509  1.00  0.00     0.031 C 
ATOM     24  C   UNL     1       7.638   2.431  -3.984  1.00  0.00     0.002 C 
ATOM     25  C   UNL     1       5.229   2.356  -4.858  1.00  0.00     0.010 C 
ATOM     26  C   UNL     1       5.773   3.522  -2.676  1.00  0.00     0.012 C 
ATOM     27  C   UNL     1       7.931   3.593  -4.970  1.00  0.00     0.036 C 
ATOM     28  C   UNL     1       5.524   3.539  -5.792  1.00  0.00     0.032 C 
ATOM     29  C   UNL     1       7.011   3.619  -6.199  1.00  0.00     0.114 C 
BRANCH  29  30
ATOM     30  O   UNL     1       7.406   2.633  -7.128  1.00  0.00    -0.393 OA
ATOM     31  H   UNL     1       6.681   1.965  -7.247  1.00  0.00     0.210 HD
ENDBRANCH  29  30
ENDBRANCH   1  11
TORSDOF 6
ENDMDL
MODEL 9
REMARK VINA RESULT:    -4.666      9.857     13.681
REMARK INTER + INTRA:          -7.113
REMARK INTER:                  -5.827
REMARK INTRA:                  -1.287
REMARK UNBOUND:                -0.947
REMARK SMILES CC[C@@H](C=C[C@@H](C)[C@H]1CC[C@H]2C3=CC[C@H]4C[C@@H](O)CC[C@@]4(C)[C@@H]3CC[C@@]12C)C(C)C
REMARK SMILES IDX 6 1 7 2 5 3 4 4 3 5 2 6 1 7 28 8 29 9 30 10 8 11 9 12 26 13
REMARK SMILES IDX 10 14 11 15 25 16 27 17 12 18 24 19 23 20 13 21 21 22 14 23
REMARK SMILES IDX 15 24 20 25 22 26 16 27 19 28 17 29 18 30
REMARK H PARENT 18 31
REMARK Flexibility Score: inf
ROOT
ATOM      1  C   UNL     1       1.938  -1.692   8.417  1.00  0.00     0.012 C 
ATOM      2  C   UNL     1       2.427  -1.630   9.875  1.00  0.00     0.012 C 
ENDROOT
BRANCH   1   3
ATOM      3  C   UNL     1       0.544  -1.100   8.339  1.00  0.00    -0.028 C 
ATOM      4  C   UNL     1       0.339   0.144   7.870  1.00  0.00    -0.027 C 
BRANCH   4   5
ATOM      5  C   UNL     1      -1.047   0.762   7.839  1.00  0.00     0.014 C 
BRANCH   5   6
ATOM      6  C   UNL     1      -1.727   0.653   6.446  1.00  0.00     0.004 C 
ATOM      7  C   UNL     1      -0.797   0.348   5.267  1.00  0.00     0.004 C 
ENDBRANCH   5   6
BRANCH   5   8
ATOM      8  C   UNL     1      -1.079   2.201   8.439  1.00  0.00    -0.011 C 
ATOM      9  C   UNL     1       0.295   2.722   8.892  1.00  0.00     0.008 C 
ATOM     10  C   UNL     1      -2.088   2.299   9.596  1.00  0.00     0.008 C 
ENDBRANCH   5   8
ENDBRANCH   4   5
ENDBRANCH   1   3
BRANCH   1  11
ATOM     11  C   UNL     1       1.942  -3.151   7.850  1.00  0.00     0.002 C 
ATOM     12  C   UNL     1       0.522  -3.741   7.762  1.00  0.00     0.005 C 
ATOM     13  C   UNL     1       2.555  -3.384   6.431  1.00  0.00    -0.023 C 
ATOM     14  C   UNL     1       0.527  -4.752   6.619  1.00  0.00     0.009 C 
ATOM     15  C   UNL     1       1.944  -4.744   6.040  1.00  0.00     0.021 C 
ATOM     16  C   UNL     1       2.113  -2.286   5.424  1.00  0.00     0.008 C 
ATOM     17  C   UNL     1       4.099  -3.512   6.479  1.00  0.00     0.012 C 
ATOM     18  C   UNL     1       1.948  -5.066   4.550  1.00  0.00    -0.067 C 
ATOM     19  C   UNL     1       2.450  -2.651   3.977  1.00  0.00     0.009 C 
ATOM     20  C   UNL     1       1.760  -3.957   3.512  1.00  0.00     0.021 C 
ATOM     21  C   UNL     1       1.826  -6.359   4.199  1.00  0.00    -0.027 C 
ATOM     22  C   UNL     1       2.071  -4.372   1.984  1.00  0.00    -0.023 C 
ATOM     23  C   UNL     1       1.600  -6.765   2.784  1.00  0.00     0.031 C 
ATOM     24  C   UNL     1       2.462  -5.891   1.866  1.00  0.00     0.002 C 
ATOM     25  C   UNL     1       0.783  -4.092   1.144  1.00  0.00     0.010 C 
ATOM     26  C   UNL     1       3.245  -3.539   1.378  1.00  0.00     0.012 C 
ATOM     27  C   UNL     1       2.463  -6.434   0.413  1.00  0.00     0.036 C 
ATOM     28  C   UNL     1       0.836  -4.613  -0.301  1.00  0.00     0.032 C 
ATOM     29  C   UNL     1       1.186  -6.115  -0.377  1.00  0.00     0.114 C 
BRANCH  29  30
ATOM     30  O   UNL     1       0.136  -6.971   0.020  1.00  0.00    -0.393 OA
ATOM     31  H   UNL     1      -0.283  -7.389  -0.777  1.00  0.00     0.210 HD
ENDBRANCH  29  30
ENDBRANCH   1  11
TORSDOF 6
ENDMDL
