MODEL 1
REMARK VINA RESULT:    -4.690      0.000      0.000
REMARK INTER + INTRA:          -5.809
REMARK INTER:                  -5.512
REMARK INTRA:                  -0.297
REMARK UNBOUND:                -0.297
REMARK SMILES O=c1cc(-c2ccc(O)c(O)c2)oc2cc(O)cc(O)c12
REMARK SMILES IDX 4 1 3 2 2 3 1 4 21 5 19 6 18 7 16 8 15 9 14 10 13 11 5 12
REMARK SMILES IDX 6 13 7 14 8 15 12 16 10 17 9 18 11 20 20 22 17 24
REMARK H PARENT 9 19 11 21 20 23 17 25
REMARK Flexibility Score: inf
ROOT
ATOM      1  C   UNL     1     169.230  82.896  18.863  1.00  0.00     0.138 A 
ATOM      2  C   UNL     1     170.205  82.140  18.198  1.00  0.00     0.100 A 
ATOM      3  C   UNL     1     169.977  81.720  16.887  1.00  0.00     0.197 A 
ATOM      4  O   UNL     1     170.843  80.991  16.339  1.00  0.00    -0.289 OA
ATOM      5  C   UNL     1     168.779  82.086  16.229  1.00  0.00     0.107 A 
ATOM      6  C   UNL     1     168.457  81.747  14.880  1.00  0.00     0.134 A 
ATOM      7  C   UNL     1     167.191  82.065  14.373  1.00  0.00     0.093 A 
ATOM      8  C   UNL     1     166.258  82.759  15.144  1.00  0.00     0.123 A 
ATOM      9  C   UNL     1     166.583  83.142  16.446  1.00  0.00     0.094 A 
ATOM     10  C   UNL     1     167.825  82.810  16.992  1.00  0.00     0.146 A 
ATOM     11  O   UNL     1     168.090  83.180  18.241  1.00  0.00    -0.456 OA
ENDROOT
BRANCH   1  12
ATOM     12  C   UNL     1     169.421  83.371  20.256  1.00  0.00     0.021 A 
ATOM     13  C   UNL     1     170.647  83.901  20.694  1.00  0.00     0.016 A 
ATOM     14  C   UNL     1     170.795  84.350  22.008  1.00  0.00     0.051 A 
ATOM     15  C   UNL     1     169.728  84.287  22.910  1.00  0.00     0.157 A 
ATOM     16  C   UNL     1     168.345  83.322  21.160  1.00  0.00     0.062 A 
ATOM     17  C   UNL     1     168.486  83.768  22.479  1.00  0.00     0.158 A 
BRANCH  15  18
ATOM     18  O   UNL     1     169.944  84.750  24.210  1.00  0.00    -0.504 OA
ATOM     19  H   UNL     1     170.831  85.095  24.547  1.00  0.00     0.293 HD
ENDBRANCH  15  18
BRANCH  17  20
ATOM     20  O   UNL     1     167.373  83.678  23.319  1.00  0.00    -0.504 OA
ATOM     21  H   UNL     1     166.424  83.844  23.018  1.00  0.00     0.293 HD
ENDBRANCH  17  20
ENDBRANCH   1  12
BRANCH   6  22
ATOM     22  O   UNL     1     169.345  81.128  13.996  1.00  0.00    -0.507 OA
ATOM     23  H   UNL     1     169.430  80.132  13.869  1.00  0.00     0.293 HD
ENDBRANCH   6  22
BRANCH   8  24
ATOM     24  O   UNL     1     165.013  83.070  14.601  1.00  0.00    -0.508 OA
ATOM     25  H   UNL     1     164.736  82.736  13.686  1.00  0.00     0.293 HD
ENDBRANCH   8  24
TORSDOF 5
ENDMDL
MODEL 2
REMARK VINA RESULT:    -4.455      1.437      6.819
REMARK INTER + INTRA:          -5.533
REMARK INTER:                  -5.251
REMARK INTRA:                  -0.283
REMARK UNBOUND:                -0.297
REMARK SMILES O=c1cc(-c2ccc(O)c(O)c2)oc2cc(O)cc(O)c12
REMARK SMILES IDX 4 1 3 2 2 3 1 4 21 5 19 6 18 7 16 8 15 9 14 10 13 11 5 12
REMARK SMILES IDX 6 13 7 14 8 15 12 16 10 17 9 18 11 20 20 22 17 24
REMARK H PARENT 9 19 11 21 20 23 17 25
REMARK Flexibility Score: inf
ROOT
ATOM      1  C   UNL     1     169.100  82.821  19.168  1.00  0.00     0.138 A 
ATOM      2  C   UNL     1     170.212  83.445  19.750  1.00  0.00     0.100 A 
ATOM      3  C   UNL     1     170.101  84.005  21.024  1.00  0.00     0.197 A 
ATOM      4  O   UNL     1     171.097  84.611  21.494  1.00  0.00    -0.289 OA
ATOM      5  C   UNL     1     168.878  83.911  21.729  1.00  0.00     0.107 A 
ATOM      6  C   UNL     1     168.661  84.410  23.049  1.00  0.00     0.134 A 
ATOM      7  C   UNL     1     167.374  84.363  23.601  1.00  0.00     0.093 A 
ATOM      8  C   UNL     1     166.312  83.784  22.907  1.00  0.00     0.123 A 
ATOM      9  C   UNL     1     166.525  83.245  21.638  1.00  0.00     0.094 A 
ATOM     10  C   UNL     1     167.789  83.306  21.046  1.00  0.00     0.146 A 
ATOM     11  O   UNL     1     167.947  82.795  19.830  1.00  0.00    -0.456 OA
ENDROOT
BRANCH   1  12
ATOM     12  C   UNL     1     169.162  82.208  17.818  1.00  0.00     0.021 A 
ATOM     13  C   UNL     1     170.094  81.202  17.506  1.00  0.00     0.016 A 
ATOM     14  C   UNL     1     170.123  80.636  16.230  1.00  0.00     0.051 A 
ATOM     15  C   UNL     1     169.226  81.052  15.242  1.00  0.00     0.157 A 
ATOM     16  C   UNL     1     168.251  82.615  16.828  1.00  0.00     0.062 A 
ATOM     17  C   UNL     1     168.275  82.053  15.545  1.00  0.00     0.158 A 
BRANCH  15  18
ATOM     18  O   UNL     1     169.311  80.447  13.986  1.00  0.00    -0.504 OA
ATOM     19  H   UNL     1     169.693  79.525  13.828  1.00  0.00     0.293 HD
ENDBRANCH  15  18
BRANCH  17  20
ATOM     20  O   UNL     1     167.343  82.516  14.614  1.00  0.00    -0.504 OA
ATOM     21  H   UNL     1     167.181  82.084  13.716  1.00  0.00     0.293 HD
ENDBRANCH  17  20
ENDBRANCH   1  12
BRANCH   6  22
ATOM     22  O   UNL     1     169.670  84.932  23.863  1.00  0.00    -0.507 OA
ATOM     23  H   UNL     1     170.217  84.396  24.518  1.00  0.00     0.293 HD
ENDBRANCH   6  22
BRANCH   8  24
ATOM     24  O   UNL     1     165.049  83.743  23.494  1.00  0.00    -0.508 OA
ATOM     25  H   UNL     1     164.243  83.391  22.991  1.00  0.00     0.293 HD
ENDBRANCH   8  24
TORSDOF 5
ENDMDL
MODEL 3
REMARK VINA RESULT:    -4.444     10.296     13.030
REMARK INTER + INTRA:          -5.521
REMARK INTER:                  -5.258
REMARK INTRA:                  -0.263
REMARK UNBOUND:                -0.297
REMARK SMILES O=c1cc(-c2ccc(O)c(O)c2)oc2cc(O)cc(O)c12
REMARK SMILES IDX 4 1 3 2 2 3 1 4 21 5 19 6 18 7 16 8 15 9 14 10 13 11 5 12
REMARK SMILES IDX 6 13 7 14 8 15 12 16 10 17 9 18 11 20 20 22 17 24
REMARK H PARENT 9 19 11 21 20 23 17 25
REMARK Flexibility Score: inf
ROOT
ATOM      1  C   UNL     1     156.286  83.427  17.665  1.00  0.00     0.138 A 
ATOM      2  C   UNL     1     157.308  83.958  18.466  1.00  0.00     0.100 A 
ATOM      3  C   UNL     1     158.536  84.287  17.889  1.00  0.00     0.197 A 
ATOM      4  O   UNL     1     159.452  84.702  18.643  1.00  0.00    -0.289 OA
ATOM      5  C   UNL     1     158.729  84.113  16.498  1.00  0.00     0.107 A 
ATOM      6  C   UNL     1     159.924  84.451  15.796  1.00  0.00     0.134 A 
ATOM      7  C   UNL     1     160.042  84.126  14.438  1.00  0.00     0.093 A 
ATOM      8  C   UNL     1     158.989  83.529  13.745  1.00  0.00     0.123 A 
ATOM      9  C   UNL     1     157.796  83.243  14.410  1.00  0.00     0.094 A 
ATOM     10  C   UNL     1     157.659  83.524  15.772  1.00  0.00     0.146 A 
ATOM     11  O   UNL     1     156.513  83.223  16.372  1.00  0.00    -0.456 OA
ENDROOT
BRANCH   1  12
ATOM     12  C   UNL     1     154.962  83.061  18.225  1.00  0.00     0.021 A 
ATOM     13  C   UNL     1     153.876  83.955  18.198  1.00  0.00     0.016 A 
ATOM     14  C   UNL     1     152.638  83.580  18.724  1.00  0.00     0.051 A 
ATOM     15  C   UNL     1     152.452  82.311  19.280  1.00  0.00     0.157 A 
ATOM     16  C   UNL     1     154.769  81.781  18.772  1.00  0.00     0.062 A 
ATOM     17  C   UNL     1     153.531  81.398  19.302  1.00  0.00     0.158 A 
BRANCH  15  18
ATOM     18  O   UNL     1     151.189  82.001  19.791  1.00  0.00    -0.504 OA
ATOM     19  H   UNL     1     150.863  81.060  19.958  1.00  0.00     0.293 HD
ENDBRANCH  15  18
BRANCH  17  20
ATOM     20  O   UNL     1     153.420  80.111  19.835  1.00  0.00    -0.504 OA
ATOM     21  H   UNL     1     153.737  79.276  19.363  1.00  0.00     0.293 HD
ENDBRANCH  17  20
ENDBRANCH   1  12
BRANCH   6  22
ATOM     22  O   UNL     1     161.005  85.125  16.371  1.00  0.00    -0.507 OA
ATOM     23  H   UNL     1     161.307  86.053  16.117  1.00  0.00     0.293 HD
ENDBRANCH   6  22
BRANCH   8  24
ATOM     24  O   UNL     1     159.137  83.233  12.392  1.00  0.00    -0.508 OA
ATOM     25  H   UNL     1     158.538  83.651  11.690  1.00  0.00     0.293 HD
ENDBRANCH   8  24
TORSDOF 5
ENDMDL
MODEL 4
REMARK VINA RESULT:    -4.428     19.334     21.996
REMARK INTER + INTRA:          -5.502
REMARK INTER:                  -5.234
REMARK INTRA:                  -0.268
REMARK UNBOUND:                -0.297
REMARK SMILES O=c1cc(-c2ccc(O)c(O)c2)oc2cc(O)cc(O)c12
REMARK SMILES IDX 4 1 3 2 2 3 1 4 21 5 19 6 18 7 16 8 15 9 14 10 13 11 5 12
REMARK SMILES IDX 6 13 7 14 8 15 12 16 10 17 9 18 11 20 20 22 17 24
REMARK H PARENT 9 19 11 21 20 23 17 25
REMARK Flexibility Score: inf
ROOT
ATOM      1  C   UNL     1     151.707  71.030  17.705  1.00  0.00     0.138 A 
ATOM      2  C   UNL     1     151.408  71.866  18.790  1.00  0.00     0.100 A 
ATOM      3  C   UNL     1     151.202  71.310  20.054  1.00  0.00     0.197 A 
ATOM      4  O   UNL     1     150.875  72.078  20.994  1.00  0.00    -0.289 OA
ATOM      5  C   UNL     1     151.329  69.912  20.237  1.00  0.00     0.107 A 
ATOM      6  C   UNL     1     151.181  69.240  21.487  1.00  0.00     0.134 A 
ATOM      7  C   UNL     1     151.213  67.840  21.525  1.00  0.00     0.093 A 
ATOM      8  C   UNL     1     151.446  67.092  20.371  1.00  0.00     0.123 A 
ATOM      9  C   UNL     1     151.645  67.742  19.153  1.00  0.00     0.094 A 
ATOM     10  C   UNL     1     151.586  69.135  19.075  1.00  0.00     0.146 A 
ATOM     11  O   UNL     1     151.766  69.715  17.893  1.00  0.00    -0.456 OA
ENDROOT
BRANCH   1  12
ATOM     12  C   UNL     1     151.936  71.568  16.341  1.00  0.00     0.021 A 
ATOM     13  C   UNL     1     150.875  72.016  15.536  1.00  0.00     0.016 A 
ATOM     14  C   UNL     1     151.122  72.526  14.260  1.00  0.00     0.051 A 
ATOM     15  C   UNL     1     152.426  72.607  13.761  1.00  0.00     0.157 A 
ATOM     16  C   UNL     1     153.248  71.663  15.845  1.00  0.00     0.062 A 
ATOM     17  C   UNL     1     153.504  72.172  14.566  1.00  0.00     0.158 A 
BRANCH  15  18
ATOM     18  O   UNL     1     152.603  73.125  12.477  1.00  0.00    -0.504 OA
ATOM     19  H   UNL     1     152.902  74.071  12.285  1.00  0.00     0.293 HD
ENDBRANCH  15  18
BRANCH  17  20
ATOM     20  O   UNL     1     154.833  72.227  14.141  1.00  0.00    -0.504 OA
ATOM     21  H   UNL     1     155.217  72.977  13.583  1.00  0.00     0.293 HD
ENDBRANCH  17  20
ENDBRANCH   1  12
BRANCH   6  22
ATOM     22  O   UNL     1     151.028  69.893  22.713  1.00  0.00    -0.507 OA
ATOM     23  H   UNL     1     151.175  69.467  23.615  1.00  0.00     0.293 HD
ENDBRANCH   6  22
BRANCH   8  24
ATOM     24  O   UNL     1     151.485  65.701  20.450  1.00  0.00    -0.508 OA
ATOM     25  H   UNL     1     150.864  65.188  21.064  1.00  0.00     0.293 HD
ENDBRANCH   8  24
TORSDOF 5
ENDMDL
MODEL 5
REMARK VINA RESULT:    -4.373     10.600     13.900
REMARK INTER + INTRA:          -5.437
REMARK INTER:                  -5.170
REMARK INTRA:                  -0.267
REMARK UNBOUND:                -0.297
REMARK SMILES O=c1cc(-c2ccc(O)c(O)c2)oc2cc(O)cc(O)c12
REMARK SMILES IDX 4 1 3 2 2 3 1 4 21 5 19 6 18 7 16 8 15 9 14 10 13 11 5 12
REMARK SMILES IDX 6 13 7 14 8 15 12 16 10 17 9 18 11 20 20 22 17 24
REMARK H PARENT 9 19 11 21 20 23 17 25
REMARK Flexibility Score: inf
ROOT
ATOM      1  C   UNL     1     156.579  82.734  16.757  1.00  0.00     0.138 A 
ATOM      2  C   UNL     1     156.611  81.443  17.300  1.00  0.00     0.100 A 
ATOM      3  C   UNL     1     155.712  81.095  18.310  1.00  0.00     0.197 A 
ATOM      4  O   UNL     1     155.806  79.949  18.820  1.00  0.00    -0.289 OA
ATOM      5  C   UNL     1     154.754  82.037  18.753  1.00  0.00     0.107 A 
ATOM      6  C   UNL     1     153.762  81.781  19.747  1.00  0.00     0.134 A 
ATOM      7  C   UNL     1     152.942  82.827  20.189  1.00  0.00     0.093 A 
ATOM      8  C   UNL     1     153.038  84.103  19.633  1.00  0.00     0.123 A 
ATOM      9  C   UNL     1     153.967  84.350  18.623  1.00  0.00     0.094 A 
ATOM     10  C   UNL     1     154.823  83.337  18.184  1.00  0.00     0.146 A 
ATOM     11  O   UNL     1     155.705  83.617  17.230  1.00  0.00    -0.456 OA
ENDROOT
BRANCH   1  12
ATOM     12  C   UNL     1     157.510  83.157  15.682  1.00  0.00     0.021 A 
ATOM     13  C   UNL     1     157.284  82.822  14.335  1.00  0.00     0.016 A 
ATOM     14  C   UNL     1     158.172  83.242  13.343  1.00  0.00     0.051 A 
ATOM     15  C   UNL     1     159.298  84.006  13.667  1.00  0.00     0.157 A 
ATOM     16  C   UNL     1     158.634  83.937  16.005  1.00  0.00     0.062 A 
ATOM     17  C   UNL     1     159.531  84.360  15.016  1.00  0.00     0.158 A 
BRANCH  15  18
ATOM     18  O   UNL     1     160.148  84.391  12.628  1.00  0.00    -0.504 OA
ATOM     19  H   UNL     1     159.931  84.273  11.649  1.00  0.00     0.293 HD
ENDBRANCH  15  18
BRANCH  17  20
ATOM     20  O   UNL     1     160.629  85.125  15.416  1.00  0.00    -0.504 OA
ATOM     21  H   UNL     1     161.514  85.139  14.931  1.00  0.00     0.293 HD
ENDBRANCH  17  20
ENDBRANCH   1  12
BRANCH   6  22
ATOM     22  O   UNL     1     153.525  80.523  20.308  1.00  0.00    -0.507 OA
ATOM     23  H   UNL     1     154.175  79.752  20.290  1.00  0.00     0.293 HD
ENDBRANCH   6  22
BRANCH   8  24
ATOM     24  O   UNL     1     152.195  85.115  20.088  1.00  0.00    -0.508 OA
ATOM     25  H   UNL     1     151.309  85.309  19.637  1.00  0.00     0.293 HD
ENDBRANCH   8  24
TORSDOF 5
ENDMDL
MODEL 6
REMARK VINA RESULT:    -4.238     11.235     13.723
REMARK INTER + INTRA:          -5.278
REMARK INTER:                  -4.999
REMARK INTRA:                  -0.280
REMARK UNBOUND:                -0.297
REMARK SMILES O=c1cc(-c2ccc(O)c(O)c2)oc2cc(O)cc(O)c12
REMARK SMILES IDX 4 1 3 2 2 3 1 4 21 5 19 6 18 7 16 8 15 9 14 10 13 11 5 12
REMARK SMILES IDX 6 13 7 14 8 15 12 16 10 17 9 18 11 20 20 22 17 24
REMARK H PARENT 9 19 11 21 20 23 17 25
REMARK Flexibility Score: inf
ROOT
ATOM      1  C   UNL     1     155.308  82.735  17.884  1.00  0.00     0.138 A 
ATOM      2  C   UNL     1     155.829  81.459  18.141  1.00  0.00     0.100 A 
ATOM      3  C   UNL     1     156.912  80.992  17.393  1.00  0.00     0.197 A 
ATOM      4  O   UNL     1     157.316  79.820  17.604  1.00  0.00    -0.289 OA
ATOM      5  C   UNL     1     157.495  81.821  16.407  1.00  0.00     0.107 A 
ATOM      6  C   UNL     1     158.627  81.466  15.613  1.00  0.00     0.134 A 
ATOM      7  C   UNL     1     159.045  82.322  14.586  1.00  0.00     0.093 A 
ATOM      8  C   UNL     1     158.411  83.544  14.362  1.00  0.00     0.123 A 
ATOM      9  C   UNL     1     157.338  83.925  15.168  1.00  0.00     0.094 A 
ATOM     10  C   UNL     1     156.875  83.079  16.179  1.00  0.00     0.146 A 
ATOM     11  O   UNL     1     155.841  83.472  16.914  1.00  0.00    -0.456 OA
ENDROOT
BRANCH   1  12
ATOM     12  C   UNL     1     154.160  83.281  18.649  1.00  0.00     0.021 A 
ATOM     13  C   UNL     1     154.100  84.635  19.024  1.00  0.00     0.016 A 
ATOM     14  C   UNL     1     153.002  85.124  19.735  1.00  0.00     0.051 A 
ATOM     15  C   UNL     1     151.941  84.282  20.081  1.00  0.00     0.157 A 
ATOM     16  C   UNL     1     153.086  82.439  18.985  1.00  0.00     0.062 A 
ATOM     17  C   UNL     1     151.982  82.921  19.699  1.00  0.00     0.158 A 
BRANCH  15  18
ATOM     18  O   UNL     1     150.875  84.834  20.795  1.00  0.00    -0.504 OA
ATOM     19  H   UNL     1     150.674  84.625  21.762  1.00  0.00     0.293 HD
ENDBRANCH  15  18
BRANCH  17  20
ATOM     20  O   UNL     1     150.959  82.021  20.002  1.00  0.00    -0.504 OA
ATOM     21  H   UNL     1     150.791  81.647  20.926  1.00  0.00     0.293 HD
ENDBRANCH  17  20
ENDBRANCH   1  12
BRANCH   6  22
ATOM     22  O   UNL     1     159.385  80.307  15.806  1.00  0.00    -0.507 OA
ATOM     23  H   UNL     1     160.383  80.244  15.677  1.00  0.00     0.293 HD
ENDBRANCH   6  22
BRANCH   8  24
ATOM     24  O   UNL     1     158.863  84.376  13.341  1.00  0.00    -0.508 OA
ATOM     25  H   UNL     1     158.225  84.779  12.664  1.00  0.00     0.293 HD
ENDBRANCH   8  24
TORSDOF 5
ENDMDL
MODEL 7
REMARK VINA RESULT:    -4.228      3.913      8.512
REMARK INTER + INTRA:          -5.267
REMARK INTER:                  -4.956
REMARK INTRA:                  -0.311
REMARK UNBOUND:                -0.297
REMARK SMILES O=c1cc(-c2ccc(O)c(O)c2)oc2cc(O)cc(O)c12
REMARK SMILES IDX 4 1 3 2 2 3 1 4 21 5 19 6 18 7 16 8 15 9 14 10 13 11 5 12
REMARK SMILES IDX 6 13 7 14 8 15 12 16 10 17 9 18 11 20 20 22 17 24
REMARK H PARENT 9 19 11 21 20 23 17 25
REMARK Flexibility Score: inf
ROOT
ATOM      1  C   UNL     1     163.308  82.616  15.563  1.00  0.00     0.138 A 
ATOM      2  C   UNL     1     163.408  82.327  16.932  1.00  0.00     0.100 A 
ATOM      3  C   UNL     1     164.651  82.004  17.480  1.00  0.00     0.197 A 
ATOM      4  O   UNL     1     164.698  81.690  18.697  1.00  0.00    -0.289 OA
ATOM      5  C   UNL     1     165.802  82.002  16.659  1.00  0.00     0.107 A 
ATOM      6  C   UNL     1     167.126  81.728  17.117  1.00  0.00     0.134 A 
ATOM      7  C   UNL     1     168.173  81.640  16.190  1.00  0.00     0.093 A 
ATOM      8  C   UNL     1     167.955  81.874  14.832  1.00  0.00     0.123 A 
ATOM      9  C   UNL     1     166.675  82.196  14.381  1.00  0.00     0.094 A 
ATOM     10  C   UNL     1     165.604  82.258  15.275  1.00  0.00     0.146 A 
ATOM     11  O   UNL     1     164.397  82.553  14.804  1.00  0.00    -0.456 OA
ENDROOT
BRANCH   1  12
ATOM     12  C   UNL     1     162.013  82.966  14.929  1.00  0.00     0.021 A 
ATOM     13  C   UNL     1     160.785  82.611  15.512  1.00  0.00     0.016 A 
ATOM     14  C   UNL     1     159.581  82.963  14.897  1.00  0.00     0.051 A 
ATOM     15  C   UNL     1     159.574  83.679  13.696  1.00  0.00     0.157 A 
ATOM     16  C   UNL     1     162.005  83.699  13.729  1.00  0.00     0.062 A 
ATOM     17  C   UNL     1     160.803  84.054  13.105  1.00  0.00     0.158 A 
BRANCH  15  18
ATOM     18  O   UNL     1     158.337  83.997  13.132  1.00  0.00    -0.504 OA
ATOM     19  H   UNL     1     157.471  84.028  13.651  1.00  0.00     0.293 HD
ENDBRANCH  15  18
BRANCH  17  20
ATOM     20  O   UNL     1     160.877  84.775  11.911  1.00  0.00    -0.504 OA
ATOM     21  H   UNL     1     161.699  85.274  11.603  1.00  0.00     0.293 HD
ENDBRANCH  17  20
ENDBRANCH   1  12
BRANCH   6  22
ATOM     22  O   UNL     1     167.469  81.562  18.462  1.00  0.00    -0.507 OA
ATOM     23  H   UNL     1     168.314  81.121  18.790  1.00  0.00     0.293 HD
ENDBRANCH   6  22
BRANCH   8  24
ATOM     24  O   UNL     1     169.023  81.792  13.941  1.00  0.00    -0.508 OA
ATOM     25  H   UNL     1     169.981  81.908  14.250  1.00  0.00     0.293 HD
ENDBRANCH   8  24
TORSDOF 5
ENDMDL
MODEL 8
REMARK VINA RESULT:    -4.206      1.977      6.988
REMARK INTER + INTRA:          -5.240
REMARK INTER:                  -4.977
REMARK INTRA:                  -0.263
REMARK UNBOUND:                -0.297
REMARK SMILES O=c1cc(-c2ccc(O)c(O)c2)oc2cc(O)cc(O)c12
REMARK SMILES IDX 4 1 3 2 2 3 1 4 21 5 19 6 18 7 16 8 15 9 14 10 13 11 5 12
REMARK SMILES IDX 6 13 7 14 8 15 12 16 10 17 9 18 11 20 20 22 17 24
REMARK H PARENT 9 19 11 21 20 23 17 25
REMARK Flexibility Score: inf
ROOT
ATOM      1  C   UNL     1     167.909  82.623  19.056  1.00  0.00     0.138 A 
ATOM      2  C   UNL     1     169.291  82.860  19.070  1.00  0.00     0.100 A 
ATOM      3  C   UNL     1     169.881  83.438  20.196  1.00  0.00     0.197 A 
ATOM      4  O   UNL     1     171.111  83.694  20.154  1.00  0.00    -0.289 OA
ATOM      5  C   UNL     1     169.086  83.750  21.324  1.00  0.00     0.107 A 
ATOM      6  C   UNL     1     169.586  84.304  22.541  1.00  0.00     0.134 A 
ATOM      7  C   UNL     1     168.687  84.681  23.547  1.00  0.00     0.093 A 
ATOM      8  C   UNL     1     167.316  84.469  23.406  1.00  0.00     0.123 A 
ATOM      9  C   UNL     1     166.822  83.878  22.242  1.00  0.00     0.094 A 
ATOM     10  C   UNL     1     167.689  83.523  21.206  1.00  0.00     0.146 A 
ATOM     11  O   UNL     1     167.177  82.976  20.108  1.00  0.00    -0.456 OA
ENDROOT
BRANCH   1  12
ATOM     12  C   UNL     1     167.231  82.010  17.887  1.00  0.00     0.021 A 
ATOM     13  C   UNL     1     167.064  80.618  17.776  1.00  0.00     0.016 A 
ATOM     14  C   UNL     1     166.412  80.070  16.670  1.00  0.00     0.051 A 
ATOM     15  C   UNL     1     165.909  80.891  15.656  1.00  0.00     0.157 A 
ATOM     16  C   UNL     1     166.712  82.835  16.875  1.00  0.00     0.062 A 
ATOM     17  C   UNL     1     166.059  82.293  15.761  1.00  0.00     0.158 A 
BRANCH  15  18
ATOM     18  O   UNL     1     165.271  80.278  14.576  1.00  0.00    -0.504 OA
ATOM     19  H   UNL     1     164.304  80.434  14.328  1.00  0.00     0.293 HD
ENDBRANCH  15  18
BRANCH  17  20
ATOM     20  O   UNL     1     165.578  83.177  14.793  1.00  0.00    -0.504 OA
ATOM     21  H   UNL     1     165.239  82.891  13.886  1.00  0.00     0.293 HD
ENDBRANCH  17  20
ENDBRANCH   1  12
BRANCH   6  22
ATOM     22  O   UNL     1     170.944  84.481  22.820  1.00  0.00    -0.507 OA
ATOM     23  H   UNL     1     171.583  83.739  23.062  1.00  0.00     0.293 HD
ENDBRANCH   6  22
BRANCH   8  24
ATOM     24  O   UNL     1     166.453  84.843  24.434  1.00  0.00    -0.508 OA
ATOM     25  H   UNL     1     165.932  85.712  24.399  1.00  0.00     0.293 HD
ENDBRANCH   8  24
TORSDOF 5
ENDMDL
MODEL 9
REMARK VINA RESULT:    -4.204      1.895      7.433
REMARK INTER + INTRA:          -5.238
REMARK INTER:                  -4.942
REMARK INTRA:                  -0.296
REMARK UNBOUND:                -0.297
REMARK SMILES O=c1cc(-c2ccc(O)c(O)c2)oc2cc(O)cc(O)c12
REMARK SMILES IDX 4 1 3 2 2 3 1 4 21 5 19 6 18 7 16 8 15 9 14 10 13 11 5 12
REMARK SMILES IDX 6 13 7 14 8 15 12 16 10 17 9 18 11 20 20 22 17 24
REMARK H PARENT 9 19 11 21 20 23 17 25
REMARK Flexibility Score: inf
ROOT
ATOM      1  C   UNL     1     167.174  82.624  19.703  1.00  0.00     0.138 A 
ATOM      2  C   UNL     1     165.992  82.068  20.211  1.00  0.00     0.100 A 
ATOM      3  C   UNL     1     165.666  82.251  21.557  1.00  0.00     0.197 A 
ATOM      4  O   UNL     1     164.632  81.688  21.998  1.00  0.00    -0.289 OA
ATOM      5  C   UNL     1     166.513  83.022  22.387  1.00  0.00     0.107 A 
ATOM      6  C   UNL     1     166.261  83.309  23.762  1.00  0.00     0.134 A 
ATOM      7  C   UNL     1     167.229  83.986  24.514  1.00  0.00     0.093 A 
ATOM      8  C   UNL     1     168.411  84.438  23.929  1.00  0.00     0.123 A 
ATOM      9  C   UNL     1     168.644  84.210  22.572  1.00  0.00     0.094 A 
ATOM     10  C   UNL     1     167.714  83.508  21.802  1.00  0.00     0.146 A 
ATOM     11  O   UNL     1     167.979  83.299  20.517  1.00  0.00    -0.456 OA
ENDROOT
BRANCH   1  12
ATOM     12  C   UNL     1     167.568  82.462  18.281  1.00  0.00     0.021 A 
ATOM     13  C   UNL     1     166.639  82.605  17.236  1.00  0.00     0.016 A 
ATOM     14  C   UNL     1     167.041  82.457  15.907  1.00  0.00     0.051 A 
ATOM     15  C   UNL     1     168.372  82.170  15.590  1.00  0.00     0.157 A 
ATOM     16  C   UNL     1     168.909  82.188  17.960  1.00  0.00     0.062 A 
ATOM     17  C   UNL     1     169.320  82.036  16.630  1.00  0.00     0.158 A 
BRANCH  15  18
ATOM     18  O   UNL     1     168.706  82.032  14.241  1.00  0.00    -0.504 OA
ATOM     19  H   UNL     1     168.044  81.797  13.516  1.00  0.00     0.293 HD
ENDBRANCH  15  18
BRANCH  17  20
ATOM     20  O   UNL     1     170.667  81.757  16.392  1.00  0.00    -0.504 OA
ATOM     21  H   UNL     1     171.262  82.314  15.796  1.00  0.00     0.293 HD
ENDBRANCH  17  20
ENDBRANCH   1  12
BRANCH   6  22
ATOM     22  O   UNL     1     165.075  82.978  24.425  1.00  0.00    -0.507 OA
ATOM     23  H   UNL     1     164.244  83.549  24.439  1.00  0.00     0.293 HD
ENDBRANCH   6  22
BRANCH   8  24
ATOM     24  O   UNL     1     169.346  85.121  24.705  1.00  0.00    -0.508 OA
ATOM     25  H   UNL     1     169.899  85.878  24.323  1.00  0.00     0.293 HD
ENDBRANCH   8  24
TORSDOF 5
ENDMDL
