MODEL 1
REMARK VINA RESULT:     0.000      0.000      0.000
REMARK INTER + INTRA:          -0.300
REMARK INTER:                   0.000
REMARK INTRA:                  -0.300
REMARK UNBOUND:                -0.300
REMARK SMILES O=c1c(O)c(-c2ccc(O)cc2)oc2cc(O)cc(O)c12
REMARK SMILES IDX 5 1 3 2 2 3 1 4 21 5 19 6 18 7 16 8 15 9 14 10 13 11 6 12
REMARK SMILES IDX 7 13 8 14 9 15 12 16 11 17 10 18 4 20 20 22 17 24
REMARK H PARENT 10 19 4 21 20 23 17 25
REMARK Flexibility Score: inf
ROOT
ATOM      1  C   UNL     1      11.707  16.166  59.841  1.00  0.00     0.180 A 
ATOM      2  C   UNL     1      12.242  17.288  60.498  1.00  0.00     0.208 A 
ATOM      3  C   UNL     1      13.611  17.306  60.810  1.00  0.00     0.238 A 
ATOM      4  O   UNL     1      14.073  18.290  61.445  1.00  0.00    -0.285 OA
ATOM      5  C   UNL     1      14.431  16.211  60.447  1.00  0.00     0.111 A 
ATOM      6  C   UNL     1      15.838  16.140  60.676  1.00  0.00     0.134 A 
ATOM      7  C   UNL     1      16.525  14.953  60.394  1.00  0.00     0.093 A 
ATOM      8  C   UNL     1      15.868  13.857  59.828  1.00  0.00     0.123 A 
ATOM      9  C   UNL     1      14.507  13.938  59.545  1.00  0.00     0.094 A 
ATOM     10  C   UNL     1      13.787  15.095  59.850  1.00  0.00     0.146 A 
ATOM     11  O   UNL     1      12.489  15.127  59.573  1.00  0.00    -0.452 OA
ENDROOT
BRANCH   1  12
ATOM     12  C   UNL     1      10.279  16.084  59.457  1.00  0.00     0.021 A 
ATOM     13  C   UNL     1       9.363  15.468  60.326  1.00  0.00     0.016 A 
ATOM     14  C   UNL     1       8.015  15.360  59.973  1.00  0.00     0.047 A 
ATOM     15  C   UNL     1       7.569  15.852  58.740  1.00  0.00     0.115 A 
ATOM     16  C   UNL     1       9.827  16.558  58.212  1.00  0.00     0.016 A 
ATOM     17  C   UNL     1       8.477  16.448  57.861  1.00  0.00     0.047 A 
BRANCH  15  18
ATOM     18  O   UNL     1       6.227  15.750  58.378  1.00  0.00    -0.508 OA
ATOM     19  H   UNL     1       5.496  15.664  59.074  1.00  0.00     0.293 HD
ENDBRANCH  15  18
ENDBRANCH   1  12
BRANCH   2  20
ATOM     20  O   UNL     1      11.411  18.349  60.866  1.00  0.00    -0.502 OA
ATOM     21  H   UNL     1      11.588  18.921  61.683  1.00  0.00     0.293 HD
ENDBRANCH   2  20
BRANCH   6  22
ATOM     22  O   UNL     1      16.605  17.208  61.151  1.00  0.00    -0.507 OA
ATOM     23  H   UNL     1      17.342  17.127  61.836  1.00  0.00     0.293 HD
ENDBRANCH   6  22
BRANCH   8  24
ATOM     24  O   UNL     1      16.563  12.686  59.536  1.00  0.00    -0.508 OA
ATOM     25  H   UNL     1      16.247  12.048  58.815  1.00  0.00     0.293 HD
ENDBRANCH   8  24
TORSDOF 5
ENDMDL
MODEL 2
REMARK VINA RESULT:     0.000      6.474      9.525
REMARK INTER + INTRA:          -0.300
REMARK INTER:                   0.000
REMARK INTRA:                  -0.300
REMARK UNBOUND:                -0.300
REMARK SMILES O=c1c(O)c(-c2ccc(O)cc2)oc2cc(O)cc(O)c12
REMARK SMILES IDX 5 1 3 2 2 3 1 4 21 5 19 6 18 7 16 8 15 9 14 10 13 11 6 12
REMARK SMILES IDX 7 13 8 14 9 15 12 16 11 17 10 18 4 20 20 22 17 24
REMARK H PARENT 10 19 4 21 20 23 17 25
REMARK Flexibility Score: inf
ROOT
ATOM      1  C   UNL     1      13.211  15.715  53.083  1.00  0.00     0.180 A 
ATOM      2  C   UNL     1      13.387  15.934  51.706  1.00  0.00     0.208 A 
ATOM      3  C   UNL     1      12.496  16.784  51.031  1.00  0.00     0.238 A 
ATOM      4  O   UNL     1      12.627  16.933  49.788  1.00  0.00    -0.285 OA
ATOM      5  C   UNL     1      11.451  17.418  51.745  1.00  0.00     0.111 A 
ATOM      6  C   UNL     1      10.516  18.331  51.172  1.00  0.00     0.134 A 
ATOM      7  C   UNL     1       9.443  18.796  51.944  1.00  0.00     0.093 A 
ATOM      8  C   UNL     1       9.311  18.433  53.286  1.00  0.00     0.123 A 
ATOM      9  C   UNL     1      10.252  17.590  53.871  1.00  0.00     0.094 A 
ATOM     10  C   UNL     1      11.312  17.081  53.117  1.00  0.00     0.146 A 
ATOM     11  O   UNL     1      12.183  16.272  53.711  1.00  0.00    -0.452 OA
ENDROOT
BRANCH   1  12
ATOM     12  C   UNL     1      14.124  14.852  53.868  1.00  0.00     0.021 A 
ATOM     13  C   UNL     1      13.805  13.497  54.055  1.00  0.00     0.016 A 
ATOM     14  C   UNL     1      14.641  12.670  54.811  1.00  0.00     0.047 A 
ATOM     15  C   UNL     1      15.799  13.192  55.402  1.00  0.00     0.115 A 
ATOM     16  C   UNL     1      15.278  15.373  54.481  1.00  0.00     0.016 A 
ATOM     17  C   UNL     1      16.113  14.544  55.237  1.00  0.00     0.047 A 
BRANCH  15  18
ATOM     18  O   UNL     1      16.641  12.377  56.157  1.00  0.00    -0.508 OA
ATOM     19  H   UNL     1      17.546  12.702  56.474  1.00  0.00     0.293 HD
ENDBRANCH  15  18
ENDBRANCH   1  12
BRANCH   2  20
ATOM     20  O   UNL     1      14.412  15.281  51.017  1.00  0.00    -0.502 OA
ATOM     21  H   UNL     1      15.390  15.515  51.145  1.00  0.00     0.293 HD
ENDBRANCH   2  20
BRANCH   6  22
ATOM     22  O   UNL     1      10.609  18.828  49.869  1.00  0.00    -0.507 OA
ATOM     23  H   UNL     1       9.883  19.347  49.398  1.00  0.00     0.293 HD
ENDBRANCH   6  22
BRANCH   8  24
ATOM     24  O   UNL     1       8.250  18.914  54.051  1.00  0.00    -0.508 OA
ATOM     25  H   UNL     1       8.402  19.532  54.838  1.00  0.00     0.293 HD
ENDBRANCH   8  24
TORSDOF 5
ENDMDL
MODEL 3
REMARK VINA RESULT:     0.000     11.578     12.622
REMARK INTER + INTRA:          -0.300
REMARK INTER:                   0.000
REMARK INTRA:                  -0.300
REMARK UNBOUND:                -0.300
REMARK SMILES O=c1c(O)c(-c2ccc(O)cc2)oc2cc(O)cc(O)c12
REMARK SMILES IDX 5 1 3 2 2 3 1 4 21 5 19 6 18 7 16 8 15 9 14 10 13 11 6 12
REMARK SMILES IDX 7 13 8 14 9 15 12 16 11 17 10 18 4 20 20 22 17 24
REMARK H PARENT 10 19 4 21 20 23 17 25
REMARK Flexibility Score: inf
ROOT
ATOM      1  C   UNL     1      15.562  18.179  49.431  1.00  0.00     0.180 A 
ATOM      2  C   UNL     1      16.933  18.233  49.128  1.00  0.00     0.208 A 
ATOM      3  C   UNL     1      17.439  19.362  48.463  1.00  0.00     0.238 A 
ATOM      4  O   UNL     1      18.657  19.381  48.147  1.00  0.00    -0.285 OA
ATOM      5  C   UNL     1      16.572  20.429  48.126  1.00  0.00     0.111 A 
ATOM      6  C   UNL     1      16.983  21.638  47.489  1.00  0.00     0.134 A 
ATOM      7  C   UNL     1      16.018  22.569  47.084  1.00  0.00     0.093 A 
ATOM      8  C   UNL     1      14.663  22.364  47.353  1.00  0.00     0.123 A 
ATOM      9  C   UNL     1      14.257  21.216  48.027  1.00  0.00     0.094 A 
ATOM     10  C   UNL     1      15.193  20.251  48.411  1.00  0.00     0.146 A 
ATOM     11  O   UNL     1      14.763  19.166  49.043  1.00  0.00    -0.452 OA
ENDROOT
BRANCH   1  12
ATOM     12  C   UNL     1      14.958  17.034  50.152  1.00  0.00     0.021 A 
ATOM     13  C   UNL     1      14.394  15.976  49.420  1.00  0.00     0.016 A 
ATOM     14  C   UNL     1      13.799  14.896  50.080  1.00  0.00     0.047 A 
ATOM     15  C   UNL     1      13.748  14.869  51.480  1.00  0.00     0.115 A 
ATOM     16  C   UNL     1      14.885  17.009  51.557  1.00  0.00     0.016 A 
ATOM     17  C   UNL     1      14.290  15.928  52.214  1.00  0.00     0.047 A 
BRANCH  15  18
ATOM     18  O   UNL     1      13.159  13.798  52.149  1.00  0.00    -0.508 OA
ATOM     19  H   UNL     1      13.303  12.842  51.846  1.00  0.00     0.293 HD
ENDBRANCH  15  18
ENDBRANCH   1  12
BRANCH   2  20
ATOM     20  O   UNL     1      17.767  17.160  49.451  1.00  0.00    -0.502 OA
ATOM     21  H   UNL     1      18.650  16.997  48.982  1.00  0.00     0.293 HD
ENDBRANCH   2  20
BRANCH   6  22
ATOM     22  O   UNL     1      18.319  21.982  47.257  1.00  0.00    -0.507 OA
ATOM     23  H   UNL     1      18.805  21.843  46.384  1.00  0.00     0.293 HD
ENDBRANCH   6  22
BRANCH   8  24
ATOM     24  O   UNL     1      13.712  23.303  46.961  1.00  0.00    -0.508 OA
ATOM     25  H   UNL     1      12.803  23.023  46.610  1.00  0.00     0.293 HD
ENDBRANCH   8  24
TORSDOF 5
ENDMDL
MODEL 4
REMARK VINA RESULT:     0.000     11.607     13.698
REMARK INTER + INTRA:          -0.300
REMARK INTER:                   0.000
REMARK INTRA:                  -0.300
REMARK UNBOUND:                -0.300
REMARK SMILES O=c1c(O)c(-c2ccc(O)cc2)oc2cc(O)cc(O)c12
REMARK SMILES IDX 5 1 3 2 2 3 1 4 21 5 19 6 18 7 16 8 15 9 14 10 13 11 6 12
REMARK SMILES IDX 7 13 8 14 9 15 12 16 11 17 10 18 4 20 20 22 17 24
REMARK H PARENT 10 19 4 21 20 23 17 25
REMARK Flexibility Score: inf
ROOT
ATOM      1  C   UNL     1       8.910  16.719  47.411  1.00  0.00     0.180 A 
ATOM      2  C   UNL     1       8.490  17.084  46.120  1.00  0.00     0.208 A 
ATOM      3  C   UNL     1       9.216  16.617  45.011  1.00  0.00     0.238 A 
ATOM      4  O   UNL     1       8.867  16.990  43.861  1.00  0.00    -0.285 OA
ATOM      5  C   UNL     1      10.340  15.780  45.207  1.00  0.00     0.111 A 
ATOM      6  C   UNL     1      11.124  15.216  44.156  1.00  0.00     0.134 A 
ATOM      7  C   UNL     1      12.292  14.509  44.468  1.00  0.00     0.093 A 
ATOM      8  C   UNL     1      12.668  14.290  45.795  1.00  0.00     0.123 A 
ATOM      9  C   UNL     1      11.878  14.784  46.829  1.00  0.00     0.094 A 
ATOM     10  C   UNL     1      10.727  15.525  46.549  1.00  0.00     0.146 A 
ATOM     11  O   UNL     1      10.006  15.987  47.564  1.00  0.00    -0.452 OA
ENDROOT
BRANCH   1  12
ATOM     12  C   UNL     1       8.183  17.151  48.627  1.00  0.00     0.021 A 
ATOM     13  C   UNL     1       8.586  18.318  49.297  1.00  0.00     0.016 A 
ATOM     14  C   UNL     1       7.928  18.731  50.459  1.00  0.00     0.047 A 
ATOM     15  C   UNL     1       6.868  17.974  50.974  1.00  0.00     0.115 A 
ATOM     16  C   UNL     1       7.130  16.386  49.162  1.00  0.00     0.016 A 
ATOM     17  C   UNL     1       6.473  16.801  50.324  1.00  0.00     0.047 A 
BRANCH  15  18
ATOM     18  O   UNL     1       6.204  18.376  52.132  1.00  0.00    -0.508 OA
ATOM     19  H   UNL     1       6.659  18.953  52.828  1.00  0.00     0.293 HD
ENDBRANCH  15  18
ENDBRANCH   1  12
BRANCH   2  20
ATOM     20  O   UNL     1       7.391  17.929  45.950  1.00  0.00    -0.502 OA
ATOM     21  H   UNL     1       7.481  18.937  45.906  1.00  0.00     0.293 HD
ENDBRANCH   2  20
BRANCH   6  22
ATOM     22  O   UNL     1      10.787  15.298  42.801  1.00  0.00    -0.507 OA
ATOM     23  H   UNL     1      11.015  14.601  42.109  1.00  0.00     0.293 HD
ENDBRANCH   6  22
BRANCH   8  24
ATOM     24  O   UNL     1      13.823  13.571  46.096  1.00  0.00    -0.508 OA
ATOM     25  H   UNL     1      14.203  13.548  47.035  1.00  0.00     0.293 HD
ENDBRANCH   8  24
TORSDOF 5
ENDMDL
MODEL 5
REMARK VINA RESULT:     0.000      7.455      9.837
REMARK INTER + INTRA:          -0.300
REMARK INTER:                   0.000
REMARK INTRA:                  -0.300
REMARK UNBOUND:                -0.300
REMARK SMILES O=c1c(O)c(-c2ccc(O)cc2)oc2cc(O)cc(O)c12
REMARK SMILES IDX 5 1 3 2 2 3 1 4 21 5 19 6 18 7 16 8 15 9 14 10 13 11 6 12
REMARK SMILES IDX 7 13 8 14 9 15 12 16 11 17 10 18 4 20 20 22 17 24
REMARK H PARENT 10 19 4 21 20 23 17 25
REMARK Flexibility Score: inf
ROOT
ATOM      1  C   UNL     1       9.841  16.805  52.042  1.00  0.00     0.180 A 
ATOM      2  C   UNL     1      10.186  17.118  53.368  1.00  0.00     0.208 A 
ATOM      3  C   UNL     1      10.285  18.467  53.744  1.00  0.00     0.238 A 
ATOM      4  O   UNL     1      10.647  18.742  54.918  1.00  0.00    -0.285 OA
ATOM      5  C   UNL     1      10.022  19.485  52.796  1.00  0.00     0.111 A 
ATOM      6  C   UNL     1      10.052  20.884  53.078  1.00  0.00     0.134 A 
ATOM      7  C   UNL     1       9.904  21.803  52.032  1.00  0.00     0.093 A 
ATOM      8  C   UNL     1       9.660  21.374  50.725  1.00  0.00     0.123 A 
ATOM      9  C   UNL     1       9.569  20.012  50.450  1.00  0.00     0.094 A 
ATOM     10  C   UNL     1       9.750  19.070  51.466  1.00  0.00     0.146 A 
ATOM     11  O   UNL     1       9.664  17.781  51.160  1.00  0.00    -0.452 OA
ENDROOT
BRANCH   1  12
ATOM     12  C   UNL     1       9.692  15.406  51.575  1.00  0.00     0.021 A 
ATOM     13  C   UNL     1      10.787  14.754  50.985  1.00  0.00     0.016 A 
ATOM     14  C   UNL     1      10.662  13.443  50.518  1.00  0.00     0.047 A 
ATOM     15  C   UNL     1       9.437  12.772  50.621  1.00  0.00     0.115 A 
ATOM     16  C   UNL     1       8.459  14.734  51.658  1.00  0.00     0.016 A 
ATOM     17  C   UNL     1       8.337  13.421  51.189  1.00  0.00     0.047 A 
BRANCH  15  18
ATOM     18  O   UNL     1       9.301  11.464  50.159  1.00  0.00    -0.508 OA
ATOM     19  H   UNL     1      10.107  10.872  50.003  1.00  0.00     0.293 HD
ENDBRANCH  15  18
ENDBRANCH   1  12
BRANCH   2  20
ATOM     20  O   UNL     1      10.463  16.099  54.281  1.00  0.00    -0.502 OA
ATOM     21  H   UNL     1      10.731  15.166  53.991  1.00  0.00     0.293 HD
ENDBRANCH   2  20
BRANCH   6  22
ATOM     22  O   UNL     1      10.197  21.418  54.362  1.00  0.00    -0.507 OA
ATOM     23  H   UNL     1      10.469  20.889  55.177  1.00  0.00     0.293 HD
ENDBRANCH   6  22
BRANCH   8  24
ATOM     24  O   UNL     1       9.498  22.295  49.693  1.00  0.00    -0.508 OA
ATOM     25  H   UNL     1      10.154  22.350  48.923  1.00  0.00     0.293 HD
ENDBRANCH   8  24
TORSDOF 5
ENDMDL
MODEL 6
REMARK VINA RESULT:     0.000      7.205      9.330
REMARK INTER + INTRA:          -0.300
REMARK INTER:                   0.000
REMARK INTRA:                  -0.300
REMARK UNBOUND:                -0.300
REMARK SMILES O=c1c(O)c(-c2ccc(O)cc2)oc2cc(O)cc(O)c12
REMARK SMILES IDX 5 1 3 2 2 3 1 4 21 5 19 6 18 7 16 8 15 9 14 10 13 11 6 12
REMARK SMILES IDX 7 13 8 14 9 15 12 16 11 17 10 18 4 20 20 22 17 24
REMARK H PARENT 10 19 4 21 20 23 17 25
REMARK Flexibility Score: inf
ROOT
ATOM      1  C   UNL     1      16.832  16.680  53.299  1.00  0.00     0.180 A 
ATOM      2  C   UNL     1      17.633  17.802  53.575  1.00  0.00     0.208 A 
ATOM      3  C   UNL     1      17.138  18.798  54.432  1.00  0.00     0.238 A 
ATOM      4  O   UNL     1      17.837  19.825  54.633  1.00  0.00    -0.285 OA
ATOM      5  C   UNL     1      15.856  18.652  55.015  1.00  0.00     0.111 A 
ATOM      6  C   UNL     1      15.271  19.578  55.930  1.00  0.00     0.134 A 
ATOM      7  C   UNL     1      13.944  19.399  56.341  1.00  0.00     0.093 A 
ATOM      8  C   UNL     1      13.204  18.291  55.923  1.00  0.00     0.123 A 
ATOM      9  C   UNL     1      13.785  17.350  55.078  1.00  0.00     0.094 A 
ATOM     10  C   UNL     1      15.095  17.520  54.621  1.00  0.00     0.146 A 
ATOM     11  O   UNL     1      15.608  16.604  53.808  1.00  0.00    -0.452 OA
ENDROOT
BRANCH   1  12
ATOM     12  C   UNL     1      17.294  15.577  52.425  1.00  0.00     0.021 A 
ATOM     13  C   UNL     1      16.976  15.598  51.057  1.00  0.00     0.016 A 
ATOM     14  C   UNL     1      17.383  14.556  50.219  1.00  0.00     0.047 A 
ATOM     15  C   UNL     1      18.101  13.473  50.741  1.00  0.00     0.115 A 
ATOM     16  C   UNL     1      17.998  14.476  52.946  1.00  0.00     0.016 A 
ATOM     17  C   UNL     1      18.404  13.434  52.105  1.00  0.00     0.047 A 
BRANCH  15  18
ATOM     18  O   UNL     1      18.512  12.428  49.915  1.00  0.00    -0.508 OA
ATOM     19  H   UNL     1      17.880  11.998  49.252  1.00  0.00     0.293 HD
ENDBRANCH  15  18
ENDBRANCH   1  12
BRANCH   2  20
ATOM     20  O   UNL     1      18.886  17.936  52.972  1.00  0.00    -0.502 OA
ATOM     21  H   UNL     1      19.420  18.796  53.012  1.00  0.00     0.293 HD
ENDBRANCH   2  20
BRANCH   6  22
ATOM     22  O   UNL     1      15.954  20.667  56.480  1.00  0.00    -0.507 OA
ATOM     23  H   UNL     1      15.572  21.295  57.172  1.00  0.00     0.293 HD
ENDBRANCH   6  22
BRANCH   8  24
ATOM     24  O   UNL     1      11.890  18.112  56.350  1.00  0.00    -0.508 OA
ATOM     25  H   UNL     1      11.298  17.391  55.956  1.00  0.00     0.293 HD
ENDBRANCH   8  24
TORSDOF 5
ENDMDL
MODEL 7
REMARK VINA RESULT:     0.000      7.368     10.270
REMARK INTER + INTRA:          -0.300
REMARK INTER:                   0.000
REMARK INTRA:                  -0.300
REMARK UNBOUND:                -0.300
REMARK SMILES O=c1c(O)c(-c2ccc(O)cc2)oc2cc(O)cc(O)c12
REMARK SMILES IDX 5 1 3 2 2 3 1 4 21 5 19 6 18 7 16 8 15 9 14 10 13 11 6 12
REMARK SMILES IDX 7 13 8 14 9 15 12 16 11 17 10 18 4 20 20 22 17 24
REMARK H PARENT 10 19 4 21 20 23 17 25
REMARK Flexibility Score: inf
ROOT
ATOM      1  C   UNL     1      11.461  24.458  58.944  1.00  0.00     0.180 A 
ATOM      2  C   UNL     1      10.552  25.281  59.631  1.00  0.00     0.208 A 
ATOM      3  C   UNL     1       9.303  24.757  60.001  1.00  0.00     0.238 A 
ATOM      4  O   UNL     1       8.474  25.515  60.569  1.00  0.00    -0.285 OA
ATOM      5  C   UNL     1       8.986  23.411  59.695  1.00  0.00     0.111 A 
ATOM      6  C   UNL     1       7.767  22.764  60.059  1.00  0.00     0.134 A 
ATOM      7  C   UNL     1       7.505  21.470  59.590  1.00  0.00     0.093 A 
ATOM      8  C   UNL     1       8.447  20.777  58.826  1.00  0.00     0.123 A 
ATOM      9  C   UNL     1       9.664  21.378  58.516  1.00  0.00     0.094 A 
ATOM     10  C   UNL     1       9.939  22.681  58.939  1.00  0.00     0.146 A 
ATOM     11  O   UNL     1      11.108  23.221  58.614  1.00  0.00    -0.452 OA
ENDROOT
BRANCH   1  12
ATOM     12  C   UNL     1      12.806  24.931  58.542  1.00  0.00     0.021 A 
ATOM     13  C   UNL     1      12.995  25.470  57.258  1.00  0.00     0.016 A 
ATOM     14  C   UNL     1      14.260  25.902  56.851  1.00  0.00     0.047 A 
ATOM     15  C   UNL     1      15.355  25.786  57.716  1.00  0.00     0.115 A 
ATOM     16  C   UNL     1      13.915  24.800  59.398  1.00  0.00     0.016 A 
ATOM     17  C   UNL     1      15.180  25.233  58.987  1.00  0.00     0.047 A 
BRANCH  15  18
ATOM     18  O   UNL     1      16.622  26.214  57.321  1.00  0.00    -0.508 OA
ATOM     19  H   UNL     1      16.837  26.399  56.349  1.00  0.00     0.293 HD
ENDBRANCH  15  18
ENDBRANCH   1  12
BRANCH   2  20
ATOM     20  O   UNL     1      10.878  26.612  59.903  1.00  0.00    -0.502 OA
ATOM     21  H   UNL     1      10.659  27.368  59.265  1.00  0.00     0.293 HD
ENDBRANCH   2  20
BRANCH   6  22
ATOM     22  O   UNL     1       6.800  23.332  60.894  1.00  0.00    -0.507 OA
ATOM     23  H   UNL     1       5.839  23.029  60.951  1.00  0.00     0.293 HD
ENDBRANCH   6  22
BRANCH   8  24
ATOM     24  O   UNL     1       8.186  19.484  58.377  1.00  0.00    -0.508 OA
ATOM     25  H   UNL     1       7.238  19.142  58.270  1.00  0.00     0.293 HD
ENDBRANCH   8  24
TORSDOF 5
ENDMDL
MODEL 8
REMARK VINA RESULT:     0.000      5.526      8.178
REMARK INTER + INTRA:          -0.300
REMARK INTER:                   0.000
REMARK INTRA:                  -0.300
REMARK UNBOUND:                -0.300
REMARK SMILES O=c1c(O)c(-c2ccc(O)cc2)oc2cc(O)cc(O)c12
REMARK SMILES IDX 5 1 3 2 2 3 1 4 21 5 19 6 18 7 16 8 15 9 14 10 13 11 6 12
REMARK SMILES IDX 7 13 8 14 9 15 12 16 11 17 10 18 4 20 20 22 17 24
REMARK H PARENT 10 19 4 21 20 23 17 25
REMARK Flexibility Score: inf
ROOT
ATOM      1  C   UNL     1       7.413  19.498  54.937  1.00  0.00     0.180 A 
ATOM      2  C   UNL     1       6.419  20.091  55.734  1.00  0.00     0.208 A 
ATOM      3  C   UNL     1       6.763  20.565  57.010  1.00  0.00     0.238 A 
ATOM      4  O   UNL     1       5.857  21.047  57.740  1.00  0.00    -0.285 OA
ATOM      5  C   UNL     1       8.098  20.455  57.467  1.00  0.00     0.111 A 
ATOM      6  C   UNL     1       8.568  20.938  58.725  1.00  0.00     0.134 A 
ATOM      7  C   UNL     1       9.879  20.656  59.127  1.00  0.00     0.093 A 
ATOM      8  C   UNL     1      10.759  19.968  58.288  1.00  0.00     0.123 A 
ATOM      9  C   UNL     1      10.328  19.545  57.033  1.00  0.00     0.094 A 
ATOM     10  C   UNL     1       9.014  19.778  56.619  1.00  0.00     0.146 A 
ATOM     11  O   UNL     1       8.641  19.349  55.419  1.00  0.00    -0.452 OA
ENDROOT
BRANCH   1  12
ATOM     12  C   UNL     1       7.133  18.997  53.571  1.00  0.00     0.021 A 
ATOM     13  C   UNL     1       6.791  17.647  53.385  1.00  0.00     0.016 A 
ATOM     14  C   UNL     1       6.545  17.149  52.103  1.00  0.00     0.047 A 
ATOM     15  C   UNL     1       6.653  17.990  50.988  1.00  0.00     0.115 A 
ATOM     16  C   UNL     1       7.259  19.831  52.445  1.00  0.00     0.016 A 
ATOM     17  C   UNL     1       7.013  19.330  51.163  1.00  0.00     0.047 A 
BRANCH  15  18
ATOM     18  O   UNL     1       6.410  17.505  49.704  1.00  0.00    -0.508 OA
ATOM     19  H   UNL     1       5.759  17.965  49.080  1.00  0.00     0.293 HD
ENDBRANCH  15  18
ENDBRANCH   1  12
BRANCH   2  20
ATOM     20  O   UNL     1       5.103  20.171  55.273  1.00  0.00    -0.502 OA
ATOM     21  H   UNL     1       4.728  19.529  54.583  1.00  0.00     0.293 HD
ENDBRANCH   2  20
BRANCH   6  22
ATOM     22  O   UNL     1       7.800  21.714  59.598  1.00  0.00    -0.507 OA
ATOM     23  H   UNL     1       6.793  21.685  59.659  1.00  0.00     0.293 HD
ENDBRANCH   6  22
BRANCH   8  24
ATOM     24  O   UNL     1      12.067  19.707  58.689  1.00  0.00    -0.508 OA
ATOM     25  H   UNL     1      12.844  19.784  58.045  1.00  0.00     0.293 HD
ENDBRANCH   8  24
TORSDOF 5
ENDMDL
MODEL 9
REMARK VINA RESULT:     0.000     11.949     13.197
REMARK INTER + INTRA:          -0.300
REMARK INTER:                   0.000
REMARK INTRA:                  -0.300
REMARK UNBOUND:                -0.300
REMARK SMILES O=c1c(O)c(-c2ccc(O)cc2)oc2cc(O)cc(O)c12
REMARK SMILES IDX 5 1 3 2 2 3 1 4 21 5 19 6 18 7 16 8 15 9 14 10 13 11 6 12
REMARK SMILES IDX 7 13 8 14 9 15 12 16 11 17 10 18 4 20 20 22 17 24
REMARK H PARENT 10 19 4 21 20 23 17 25
REMARK Flexibility Score: inf
ROOT
ATOM      1  C   UNL     1      14.371  21.637  48.608  1.00  0.00     0.180 A 
ATOM      2  C   UNL     1      14.308  22.411  49.780  1.00  0.00     0.208 A 
ATOM      3  C   UNL     1      13.799  21.830  50.952  1.00  0.00     0.238 A 
ATOM      4  O   UNL     1      13.696  22.543  51.984  1.00  0.00    -0.285 OA
ATOM      5  C   UNL     1      13.374  20.480  50.942  1.00  0.00     0.111 A 
ATOM      6  C   UNL     1      12.880  19.777  52.083  1.00  0.00     0.134 A 
ATOM      7  C   UNL     1      12.365  18.484  51.927  1.00  0.00     0.093 A 
ATOM      8  C   UNL     1      12.388  17.843  50.686  1.00  0.00     0.123 A 
ATOM      9  C   UNL     1      12.923  18.498  49.580  1.00  0.00     0.094 A 
ATOM     10  C   UNL     1      13.411  19.803  49.695  1.00  0.00     0.146 A 
ATOM     11  O   UNL     1      13.904  20.395  48.614  1.00  0.00    -0.452 OA
ENDROOT
BRANCH   1  12
ATOM     12  C   UNL     1      14.918  22.171  47.338  1.00  0.00     0.021 A 
ATOM     13  C   UNL     1      14.048  22.742  46.395  1.00  0.00     0.016 A 
ATOM     14  C   UNL     1      14.541  23.231  45.182  1.00  0.00     0.047 A 
ATOM     15  C   UNL     1      15.908  23.142  44.891  1.00  0.00     0.115 A 
ATOM     16  C   UNL     1      16.287  22.067  47.030  1.00  0.00     0.016 A 
ATOM     17  C   UNL     1      16.777  22.557  45.816  1.00  0.00     0.047 A 
BRANCH  15  18
ATOM     18  O   UNL     1      16.411  23.627  43.685  1.00  0.00    -0.508 OA
ATOM     19  H   UNL     1      17.403  23.618  43.484  1.00  0.00     0.293 HD
ENDBRANCH  15  18
ENDBRANCH   1  12
BRANCH   2  20
ATOM     20  O   UNL     1      14.713  23.748  49.761  1.00  0.00    -0.502 OA
ATOM     21  H   UNL     1      14.056  24.514  49.667  1.00  0.00     0.293 HD
ENDBRANCH   2  20
BRANCH   6  22
ATOM     22  O   UNL     1      12.896  20.291  53.383  1.00  0.00    -0.507 OA
ATOM     23  H   UNL     1      12.983  21.269  53.613  1.00  0.00     0.293 HD
ENDBRANCH   6  22
BRANCH   8  24
ATOM     24  O   UNL     1      11.889  16.551  50.544  1.00  0.00    -0.508 OA
ATOM     25  H   UNL     1      11.528  16.032  51.336  1.00  0.00     0.293 HD
ENDBRANCH   8  24
TORSDOF 5
ENDMDL
