MODEL 1
REMARK VINA RESULT:    -3.778      0.000      0.000
REMARK INTER + INTRA:          -3.778
REMARK INTER:                  -3.778
REMARK INTRA:                   0.000
REMARK UNBOUND:                 0.000
REMARK SMILES CC1(C)O[C@]2(C)CC[C@H]1CC2
REMARK SMILES IDX 1 1 2 2 9 3 8 4 7 5 5 6 4 7 11 8 10 9 6 10 3 11
REMARK H PARENT
REMARK Flexibility Score: inf
ROOT
ATOM      1  C   UNL     1       9.399  28.113   4.058  1.00  0.00     0.042 C 
ATOM      2  C   UNL     1      10.459  28.195   5.179  1.00  0.00     0.066 C 
ATOM      3  C   UNL     1      11.877  28.539   4.579  1.00  0.00     0.021 C 
ATOM      4  C   UNL     1      12.305  27.382   3.643  1.00  0.00     0.009 C 
ATOM      5  C   UNL     1      12.172  26.039   4.399  1.00  0.00     0.035 C 
ATOM      6  C   UNL     1      11.743  26.303   5.871  1.00  0.00     0.066 C 
ATOM      7  O   UNL     1      10.465  26.942   5.880  1.00  0.00    -0.369 OA
ATOM      8  C   UNL     1      12.788  27.241   6.542  1.00  0.00     0.035 C 
ATOM      9  C   UNL     1      12.906  28.557   5.735  1.00  0.00     0.009 C 
ATOM     10  C   UNL     1      11.640  24.983   6.641  1.00  0.00     0.042 C 
ATOM     11  C   UNL     1      10.003  29.294   6.163  1.00  0.00     0.042 C 
ENDROOT
TORSDOF 0
ENDMDL
MODEL 2
REMARK VINA RESULT:    -3.756      1.334      2.729
REMARK INTER + INTRA:          -3.756
REMARK INTER:                  -3.756
REMARK INTRA:                   0.000
REMARK UNBOUND:                 0.000
REMARK SMILES CC1(C)O[C@]2(C)CC[C@H]1CC2
REMARK SMILES IDX 1 1 2 2 9 3 8 4 7 5 5 6 4 7 11 8 10 9 6 10 3 11
REMARK H PARENT
REMARK Flexibility Score: inf
ROOT
ATOM      1  C   UNL     1      11.351  26.784   8.179  1.00  0.00     0.042 C 
ATOM      2  C   UNL     1      12.093  27.237   6.903  1.00  0.00     0.066 C 
ATOM      3  C   UNL     1      11.249  28.318   6.122  1.00  0.00     0.021 C 
ATOM      4  C   UNL     1       9.924  27.664   5.661  1.00  0.00     0.009 C 
ATOM      5  C   UNL     1      10.240  26.348   4.910  1.00  0.00     0.035 C 
ATOM      6  C   UNL     1      11.781  26.167   4.789  1.00  0.00     0.066 C 
ATOM      7  O   UNL     1      12.347  26.076   6.098  1.00  0.00    -0.369 OA
ATOM      8  C   UNL     1      12.379  27.405   4.060  1.00  0.00     0.035 C 
ATOM      9  C   UNL     1      12.012  28.696   4.831  1.00  0.00     0.009 C 
ATOM     10  C   UNL     1      12.108  24.885   4.019  1.00  0.00     0.042 C 
ATOM     11  C   UNL     1      13.452  27.822   7.344  1.00  0.00     0.042 C 
ENDROOT
TORSDOF 0
ENDMDL
MODEL 3
REMARK VINA RESULT:    -3.755      1.296      2.799
REMARK INTER + INTRA:          -3.755
REMARK INTER:                  -3.755
REMARK INTRA:                   0.000
REMARK UNBOUND:                 0.000
REMARK SMILES CC1(C)O[C@]2(C)CC[C@H]1CC2
REMARK SMILES IDX 1 1 2 2 9 3 8 4 7 5 5 6 4 7 11 8 10 9 6 10 3 11
REMARK H PARENT
REMARK Flexibility Score: inf
ROOT
ATOM      1  C   UNL     1      12.076  24.879   4.046  1.00  0.00     0.042 C 
ATOM      2  C   UNL     1      11.372  25.672   5.168  1.00  0.00     0.066 C 
ATOM      3  C   UNL     1      10.668  26.958   4.584  1.00  0.00     0.021 C 
ATOM      4  C   UNL     1      11.758  27.887   3.997  1.00  0.00     0.009 C 
ATOM      5  C   UNL     1      12.860  28.114   5.059  1.00  0.00     0.035 C 
ATOM      6  C   UNL     1      12.463  27.412   6.389  1.00  0.00     0.066 C 
ATOM      7  O   UNL     1      12.352  26.006   6.162  1.00  0.00    -0.369 OA
ATOM      8  C   UNL     1      11.086  27.963   6.860  1.00  0.00     0.035 C 
ATOM      9  C   UNL     1      10.025  27.738   5.755  1.00  0.00     0.009 C 
ATOM     10  C   UNL     1      13.529  27.657   7.461  1.00  0.00     0.042 C 
ATOM     11  C   UNL     1      10.334  24.729   5.815  1.00  0.00     0.042 C 
ENDROOT
TORSDOF 0
ENDMDL
MODEL 4
REMARK VINA RESULT:    -3.743      1.430      3.083
REMARK INTER + INTRA:          -3.743
REMARK INTER:                  -3.743
REMARK INTRA:                   0.000
REMARK UNBOUND:                 0.000
REMARK SMILES CC1(C)O[C@]2(C)CC[C@H]1CC2
REMARK SMILES IDX 1 1 2 2 9 3 8 4 7 5 5 6 4 7 11 8 10 9 6 10 3 11
REMARK H PARENT
REMARK Flexibility Score: inf
ROOT
ATOM      1  C   UNL     1      11.236  28.869   3.710  1.00  0.00     0.042 C 
ATOM      2  C   UNL     1      11.807  27.778   4.643  1.00  0.00     0.066 C 
ATOM      3  C   UNL     1      10.678  27.204   5.584  1.00  0.00     0.021 C 
ATOM      4  C   UNL     1      10.171  28.349   6.494  1.00  0.00     0.009 C 
ATOM      5  C   UNL     1      11.381  29.025   7.184  1.00  0.00     0.035 C 
ATOM      6  C   UNL     1      12.690  28.273   6.807  1.00  0.00     0.066 C 
ATOM      7  O   UNL     1      12.886  28.353   5.394  1.00  0.00    -0.369 OA
ATOM      8  C   UNL     1      12.552  26.779   7.220  1.00  0.00     0.035 C 
ATOM      9  C   UNL     1      11.315  26.156   6.529  1.00  0.00     0.009 C 
ATOM     10  C   UNL     1      13.892  28.911   7.509  1.00  0.00     0.042 C 
ATOM     11  C   UNL     1      12.386  26.663   3.745  1.00  0.00     0.042 C 
ENDROOT
TORSDOF 0
ENDMDL
MODEL 5
REMARK VINA RESULT:    -3.693      1.906      3.323
REMARK INTER + INTRA:          -3.693
REMARK INTER:                  -3.693
REMARK INTRA:                   0.000
REMARK UNBOUND:                 0.000
REMARK SMILES CC1(C)O[C@]2(C)CC[C@H]1CC2
REMARK SMILES IDX 1 1 2 2 9 3 8 4 7 5 5 6 4 7 11 8 10 9 6 10 3 11
REMARK H PARENT
REMARK Flexibility Score: inf
ROOT
ATOM      1  C   UNL     1      11.100  30.196   8.255  1.00  0.00     0.042 C 
ATOM      2  C   UNL     1      11.415  28.704   8.008  1.00  0.00     0.066 C 
ATOM      3  C   UNL     1      12.884  28.361   8.471  1.00  0.00     0.021 C 
ATOM      4  C   UNL     1      13.872  29.176   7.601  1.00  0.00     0.009 C 
ATOM      5  C   UNL     1      13.539  28.953   6.106  1.00  0.00     0.035 C 
ATOM      6  C   UNL     1      12.386  27.917   5.972  1.00  0.00     0.066 C 
ATOM      7  O   UNL     1      11.217  28.431   6.613  1.00  0.00    -0.369 OA
ATOM      8  C   UNL     1      12.812  26.593   6.672  1.00  0.00     0.035 C 
ATOM      9  C   UNL     1      13.161  26.872   8.153  1.00  0.00     0.009 C 
ATOM     10  C   UNL     1      12.068  27.662   4.496  1.00  0.00     0.042 C 
ATOM     11  C   UNL     1      10.385  27.879   8.810  1.00  0.00     0.042 C 
ENDROOT
TORSDOF 0
ENDMDL
MODEL 6
REMARK VINA RESULT:    -3.653      1.214      2.994
REMARK INTER + INTRA:          -3.653
REMARK INTER:                  -3.653
REMARK INTRA:                   0.000
REMARK UNBOUND:                 0.000
REMARK SMILES CC1(C)O[C@]2(C)CC[C@H]1CC2
REMARK SMILES IDX 1 1 2 2 9 3 8 4 7 5 5 6 4 7 11 8 10 9 6 10 3 11
REMARK H PARENT
REMARK Flexibility Score: inf
ROOT
ATOM      1  C   UNL     1      13.125  28.858   6.288  1.00  0.00     0.042 C 
ATOM      2  C   UNL     1      12.311  27.557   6.114  1.00  0.00     0.066 C 
ATOM      3  C   UNL     1      12.520  26.958   4.670  1.00  0.00     0.021 C 
ATOM      4  C   UNL     1      11.970  27.970   3.636  1.00  0.00     0.009 C 
ATOM      5  C   UNL     1      10.525  28.364   4.028  1.00  0.00     0.035 C 
ATOM      6  C   UNL     1      10.075  27.546   5.272  1.00  0.00     0.066 C 
ATOM      7  O   UNL     1      10.931  27.857   6.373  1.00  0.00    -0.369 OA
ATOM      8  C   UNL     1      10.191  26.028   4.948  1.00  0.00     0.035 C 
ATOM      9  C   UNL     1      11.644  25.690   4.535  1.00  0.00     0.009 C 
ATOM     10  C   UNL     1       8.634  27.901   5.651  1.00  0.00     0.042 C 
ATOM     11  C   UNL     1      12.797  26.564   7.192  1.00  0.00     0.042 C 
ENDROOT
TORSDOF 0
ENDMDL
MODEL 7
REMARK VINA RESULT:    -3.640     15.058     16.569
REMARK INTER + INTRA:          -3.640
REMARK INTER:                  -3.640
REMARK INTRA:                   0.000
REMARK UNBOUND:                 0.000
REMARK SMILES CC1(C)O[C@]2(C)CC[C@H]1CC2
REMARK SMILES IDX 1 1 2 2 9 3 8 4 7 5 5 6 4 7 11 8 10 9 6 10 3 11
REMARK H PARENT
REMARK Flexibility Score: inf
ROOT
ATOM      1  C   UNL     1      25.258  28.975  -7.087  1.00  0.00     0.042 C 
ATOM      2  C   UNL     1      24.185  28.549  -6.061  1.00  0.00     0.066 C 
ATOM      3  C   UNL     1      23.337  29.795  -5.593  1.00  0.00     0.021 C 
ATOM      4  C   UNL     1      24.282  30.784  -4.868  1.00  0.00     0.009 C 
ATOM      5  C   UNL     1      25.072  30.025  -3.775  1.00  0.00     0.035 C 
ATOM      6  C   UNL     1      24.590  28.547  -3.707  1.00  0.00     0.066 C 
ATOM      7  O   UNL     1      24.848  27.911  -4.960  1.00  0.00    -0.369 OA
ATOM      8  C   UNL     1      23.058  28.527  -3.430  1.00  0.00     0.035 C 
ATOM      9  C   UNL     1      22.316  29.321  -4.532  1.00  0.00     0.009 C 
ATOM     10  C   UNL     1      25.340  27.792  -2.606  1.00  0.00     0.042 C 
ATOM     11  C   UNL     1      23.281  27.503  -6.749  1.00  0.00     0.042 C 
ENDROOT
TORSDOF 0
ENDMDL
MODEL 8
REMARK VINA RESULT:    -3.624     16.360     17.733
REMARK INTER + INTRA:          -3.624
REMARK INTER:                  -3.624
REMARK INTRA:                   0.000
REMARK UNBOUND:                 0.000
REMARK SMILES CC1(C)O[C@]2(C)CC[C@H]1CC2
REMARK SMILES IDX 1 1 2 2 9 3 8 4 7 5 5 6 4 7 11 8 10 9 6 10 3 11
REMARK H PARENT
REMARK Flexibility Score: inf
ROOT
ATOM      1  C   UNL     1      23.259  31.489  -8.355  1.00  0.00     0.042 C 
ATOM      2  C   UNL     1      23.999  30.914  -7.127  1.00  0.00     0.066 C 
ATOM      3  C   UNL     1      22.979  30.566  -5.975  1.00  0.00     0.021 C 
ATOM      4  C   UNL     1      22.298  31.877  -5.513  1.00  0.00     0.009 C 
ATOM      5  C   UNL     1      23.385  32.929  -5.189  1.00  0.00     0.035 C 
ATOM      6  C   UNL     1      24.797  32.294  -5.348  1.00  0.00     0.066 C 
ATOM      7  O   UNL     1      24.975  31.877  -6.703  1.00  0.00    -0.369 OA
ATOM      8  C   UNL     1      24.900  31.053  -4.414  1.00  0.00     0.035 C 
ATOM      9  C   UNL     1      23.777  30.045  -4.756  1.00  0.00     0.009 C 
ATOM     10  C   UNL     1      25.883  33.315  -4.998  1.00  0.00     0.042 C 
ATOM     11  C   UNL     1      24.747  29.647  -7.594  1.00  0.00     0.042 C 
ENDROOT
TORSDOF 0
ENDMDL
MODEL 9
REMARK VINA RESULT:    -3.616      2.873      4.270
REMARK INTER + INTRA:          -3.616
REMARK INTER:                  -3.616
REMARK INTRA:                   0.000
REMARK UNBOUND:                 0.000
REMARK SMILES CC1(C)O[C@]2(C)CC[C@H]1CC2
REMARK SMILES IDX 1 1 2 2 9 3 8 4 7 5 5 6 4 7 11 8 10 9 6 10 3 11
REMARK H PARENT
REMARK Flexibility Score: inf
ROOT
ATOM      1  C   UNL     1       9.804  28.517   8.759  1.00  0.00     0.042 C 
ATOM      2  C   UNL     1      11.084  28.879   7.974  1.00  0.00     0.066 C 
ATOM      3  C   UNL     1      11.938  27.586   7.677  1.00  0.00     0.021 C 
ATOM      4  C   UNL     1      12.398  26.983   9.026  1.00  0.00     0.009 C 
ATOM      5  C   UNL     1      13.072  28.087   9.875  1.00  0.00     0.035 C 
ATOM      6  C   UNL     1      13.147  29.409   9.056  1.00  0.00     0.066 C 
ATOM      7  O   UNL     1      11.822  29.841   8.742  1.00  0.00    -0.369 OA
ATOM      8  C   UNL     1      13.924  29.141   7.735  1.00  0.00     0.035 C 
ATOM      9  C   UNL     1      13.229  28.012   6.937  1.00  0.00     0.009 C 
ATOM     10  C   UNL     1      13.843  30.502   9.872  1.00  0.00     0.042 C 
ATOM     11  C   UNL     1      10.641  29.553   6.657  1.00  0.00     0.042 C 
ENDROOT
TORSDOF 0
ENDMDL
