MODEL 1
REMARK VINA RESULT:    -7.392      0.000      0.000
REMARK INTER + INTRA:          -9.132
REMARK INTER:                  -8.905
REMARK INTRA:                  -0.227
REMARK UNBOUND:                -0.227
REMARK SMILES O=c1c(O)c(-c2ccc(O)c(O)c2)oc2cc(O)cc(O)c12
REMARK SMILES IDX 5 1 3 2 2 3 1 4 22 5 20 6 19 7 17 8 16 9 15 10 14 11 6 12
REMARK SMILES IDX 7 13 8 14 9 15 13 16 11 17 10 18 12 20 4 22 21 24 18 26
REMARK H PARENT 10 19 12 21 4 23 21 25 18 27
REMARK Flexibility Score: inf
ROOT
ATOM      1  C   UNL     1      32.145  -0.251  10.172  1.00  0.00     0.180 A 
ATOM      2  C   UNL     1      31.598  -0.185  11.465  1.00  0.00     0.208 A 
ATOM      3  C   UNL     1      32.462  -0.107  12.568  1.00  0.00     0.238 A 
ATOM      4  O   UNL     1      31.967   0.007  13.719  1.00  0.00    -0.285 OA
ATOM      5  C   UNL     1      33.864  -0.112  12.365  1.00  0.00     0.111 A 
ATOM      6  C   UNL     1      34.834  -0.078  13.411  1.00  0.00     0.134 A 
ATOM      7  C   UNL     1      36.192   0.045  13.090  1.00  0.00     0.093 A 
ATOM      8  C   UNL     1      36.619   0.068  11.763  1.00  0.00     0.123 A 
ATOM      9  C   UNL     1      35.683  -0.025  10.732  1.00  0.00     0.094 A 
ATOM     10  C   UNL     1      34.319  -0.111  11.021  1.00  0.00     0.146 A 
ATOM     11  O   UNL     1      33.461  -0.188  10.011  1.00  0.00    -0.452 OA
ENDROOT
BRANCH   1  12
ATOM     12  C   UNL     1      31.297  -0.360   8.962  1.00  0.00     0.025 A 
ATOM     13  C   UNL     1      30.551  -1.522   8.693  1.00  0.00     0.016 A 
ATOM     14  C   UNL     1      29.778  -1.611   7.533  1.00  0.00     0.051 A 
ATOM     15  C   UNL     1      29.747  -0.554   6.621  1.00  0.00     0.157 A 
ATOM     16  C   UNL     1      31.280   0.692   8.033  1.00  0.00     0.062 A 
ATOM     17  C   UNL     1      30.504   0.604   6.868  1.00  0.00     0.158 A 
BRANCH  15  18
ATOM     18  O   UNL     1      28.964  -0.672   5.472  1.00  0.00    -0.504 OA
ATOM     19  H   UNL     1      28.062  -0.218   5.386  1.00  0.00     0.293 HD
ENDBRANCH  15  18
BRANCH  17  20
ATOM     20  O   UNL     1      30.483   1.659   5.959  1.00  0.00    -0.504 OA
ATOM     21  H   UNL     1      31.281   2.271   5.836  1.00  0.00     0.293 HD
ENDBRANCH  17  20
ENDBRANCH   1  12
BRANCH   2  22
ATOM     22  O   UNL     1      30.211  -0.159  11.642  1.00  0.00    -0.502 OA
ATOM     23  H   UNL     1      29.745  -0.691  12.367  1.00  0.00     0.293 HD
ENDBRANCH   2  22
BRANCH   6  24
ATOM     24  O   UNL     1      34.522  -0.187  14.770  1.00  0.00    -0.507 OA
ATOM     25  H   UNL     1      35.197  -0.328  15.506  1.00  0.00     0.293 HD
ENDBRANCH   6  24
BRANCH   8  26
ATOM     26  O   UNL     1      37.979   0.176  11.481  1.00  0.00    -0.508 OA
ATOM     27  H   UNL     1      38.681   0.054  12.202  1.00  0.00     0.293 HD
ENDBRANCH   8  26
TORSDOF 6
ENDMDL
MODEL 2
REMARK VINA RESULT:    -7.380      1.775      3.162
REMARK INTER + INTRA:          -9.117
REMARK INTER:                  -8.887
REMARK INTRA:                  -0.230
REMARK UNBOUND:                -0.227
REMARK SMILES O=c1c(O)c(-c2ccc(O)c(O)c2)oc2cc(O)cc(O)c12
REMARK SMILES IDX 5 1 3 2 2 3 1 4 22 5 20 6 19 7 17 8 16 9 15 10 14 11 6 12
REMARK SMILES IDX 7 13 8 14 9 15 13 16 11 17 10 18 12 20 4 22 21 24 18 26
REMARK H PARENT 10 19 12 21 4 23 21 25 18 27
REMARK Flexibility Score: inf
ROOT
ATOM      1  C   UNL     1      33.233  -0.742   9.727  1.00  0.00     0.180 A 
ATOM      2  C   UNL     1      34.324  -1.592   9.478  1.00  0.00     0.208 A 
ATOM      3  C   UNL     1      35.494  -1.439  10.238  1.00  0.00     0.238 A 
ATOM      4  O   UNL     1      36.448  -2.238  10.048  1.00  0.00    -0.285 OA
ATOM      5  C   UNL     1      35.566  -0.426  11.225  1.00  0.00     0.111 A 
ATOM      6  C   UNL     1      36.716  -0.153  12.024  1.00  0.00     0.134 A 
ATOM      7  C   UNL     1      36.631   0.786  13.060  1.00  0.00     0.093 A 
ATOM      8  C   UNL     1      35.460   1.508  13.281  1.00  0.00     0.123 A 
ATOM      9  C   UNL     1      34.347   1.293  12.467  1.00  0.00     0.094 A 
ATOM     10  C   UNL     1      34.391   0.337  11.450  1.00  0.00     0.146 A 
ATOM     11  O   UNL     1      33.308   0.154  10.704  1.00  0.00    -0.452 OA
ENDROOT
BRANCH   1  12
ATOM     12  C   UNL     1      31.974  -0.827   8.951  1.00  0.00     0.025 A 
ATOM     13  C   UNL     1      31.925  -0.464   7.594  1.00  0.00     0.016 A 
ATOM     14  C   UNL     1      30.721  -0.529   6.889  1.00  0.00     0.051 A 
ATOM     15  C   UNL     1      29.549  -0.943   7.527  1.00  0.00     0.157 A 
ATOM     16  C   UNL     1      30.790  -1.222   9.595  1.00  0.00     0.062 A 
ATOM     17  C   UNL     1      29.581  -1.289   8.889  1.00  0.00     0.158 A 
BRANCH  15  18
ATOM     18  O   UNL     1      28.362  -1.000   6.796  1.00  0.00    -0.504 OA
ATOM     19  H   UNL     1      27.916  -0.169   6.428  1.00  0.00     0.293 HD
ENDBRANCH  15  18
BRANCH  17  20
ATOM     20  O   UNL     1      28.415  -1.695   9.533  1.00  0.00    -0.504 OA
ATOM     21  H   UNL     1      27.753  -1.025   9.908  1.00  0.00     0.293 HD
ENDBRANCH  17  20
ENDBRANCH   1  12
BRANCH   2  22
ATOM     22  O   UNL     1      34.225  -2.600   8.515  1.00  0.00    -0.502 OA
ATOM     23  H   UNL     1      35.035  -3.087   8.151  1.00  0.00     0.293 HD
ENDBRANCH   2  22
BRANCH   6  24
ATOM     24  O   UNL     1      37.964  -0.753  11.828  1.00  0.00    -0.507 OA
ATOM     25  H   UNL     1      38.246  -1.232  10.985  1.00  0.00     0.293 HD
ENDBRANCH   6  24
BRANCH   8  26
ATOM     26  O   UNL     1      35.416   2.446  14.310  1.00  0.00    -0.508 OA
ATOM     27  H   UNL     1      36.185   2.554  14.963  1.00  0.00     0.293 HD
ENDBRANCH   8  26
TORSDOF 6
ENDMDL
MODEL 3
REMARK VINA RESULT:    -7.167      2.053      6.968
REMARK INTER + INTRA:          -8.861
REMARK INTER:                  -8.626
REMARK INTRA:                  -0.235
REMARK UNBOUND:                -0.227
REMARK SMILES O=c1c(O)c(-c2ccc(O)c(O)c2)oc2cc(O)cc(O)c12
REMARK SMILES IDX 5 1 3 2 2 3 1 4 22 5 20 6 19 7 17 8 16 9 15 10 14 11 6 12
REMARK SMILES IDX 7 13 8 14 9 15 13 16 11 17 10 18 12 20 4 22 21 24 18 26
REMARK H PARENT 10 19 12 21 4 23 21 25 18 27
REMARK Flexibility Score: inf
ROOT
ATOM      1  C   UNL     1      32.706  -0.505  11.726  1.00  0.00     0.180 A 
ATOM      2  C   UNL     1      33.556  -1.429  11.093  1.00  0.00     0.208 A 
ATOM      3  C   UNL     1      33.334  -1.746   9.745  1.00  0.00     0.238 A 
ATOM      4  O   UNL     1      34.130  -2.532   9.168  1.00  0.00    -0.285 OA
ATOM      5  C   UNL     1      32.254  -1.149   9.049  1.00  0.00     0.111 A 
ATOM      6  C   UNL     1      31.910  -1.429   7.693  1.00  0.00     0.134 A 
ATOM      7  C   UNL     1      30.903  -0.683   7.068  1.00  0.00     0.093 A 
ATOM      8  C   UNL     1      30.183   0.283   7.768  1.00  0.00     0.123 A 
ATOM      9  C   UNL     1      30.471   0.523   9.113  1.00  0.00     0.094 A 
ATOM     10  C   UNL     1      31.494  -0.179   9.752  1.00  0.00     0.146 A 
ATOM     11  O   UNL     1      31.744   0.086  11.029  1.00  0.00    -0.452 OA
ENDROOT
BRANCH   1  12
ATOM     12  C   UNL     1      32.863  -0.139  13.153  1.00  0.00     0.025 A 
ATOM     13  C   UNL     1      31.939  -0.563  14.123  1.00  0.00     0.016 A 
ATOM     14  C   UNL     1      32.094  -0.184  15.459  1.00  0.00     0.051 A 
ATOM     15  C   UNL     1      33.161   0.631  15.844  1.00  0.00     0.157 A 
ATOM     16  C   UNL     1      33.922   0.699  13.539  1.00  0.00     0.062 A 
ATOM     17  C   UNL     1      34.080   1.079  14.879  1.00  0.00     0.158 A 
BRANCH  15  18
ATOM     18  O   UNL     1      33.290   0.991  17.185  1.00  0.00    -0.504 OA
ATOM     19  H   UNL     1      33.648   0.350  17.883  1.00  0.00     0.293 HD
ENDBRANCH  15  18
BRANCH  17  20
ATOM     20  O   UNL     1      35.142   1.899  15.255  1.00  0.00    -0.504 OA
ATOM     21  H   UNL     1      35.636   2.471  14.580  1.00  0.00     0.293 HD
ENDBRANCH  17  20
ENDBRANCH   1  12
BRANCH   2  22
ATOM     22  O   UNL     1      34.629  -1.989  11.791  1.00  0.00    -0.502 OA
ATOM     23  H   UNL     1      34.588  -2.188  12.784  1.00  0.00     0.293 HD
ENDBRANCH   2  22
BRANCH   6  24
ATOM     24  O   UNL     1      32.504  -2.438   6.929  1.00  0.00    -0.507 OA
ATOM     25  H   UNL     1      32.734  -2.359   5.949  1.00  0.00     0.293 HD
ENDBRANCH   6  24
BRANCH   8  26
ATOM     26  O   UNL     1      29.177   0.995   7.119  1.00  0.00    -0.508 OA
ATOM     27  H   UNL     1      28.201   0.882   7.370  1.00  0.00     0.293 HD
ENDBRANCH   8  26
TORSDOF 6
ENDMDL
MODEL 4
REMARK VINA RESULT:    -7.159      1.452      2.902
REMARK INTER + INTRA:          -8.851
REMARK INTER:                  -8.527
REMARK INTRA:                  -0.323
REMARK UNBOUND:                -0.227
REMARK SMILES O=c1c(O)c(-c2ccc(O)c(O)c2)oc2cc(O)cc(O)c12
REMARK SMILES IDX 5 1 3 2 2 3 1 4 22 5 20 6 19 7 17 8 16 9 15 10 14 11 6 12
REMARK SMILES IDX 7 13 8 14 9 15 13 16 11 17 10 18 12 20 4 22 21 24 18 26
REMARK H PARENT 10 19 12 21 4 23 21 25 18 27
REMARK Flexibility Score: inf
ROOT
ATOM      1  C   UNL     1      32.952  -0.381  10.662  1.00  0.00     0.180 A 
ATOM      2  C   UNL     1      34.254  -0.854  10.423  1.00  0.00     0.208 A 
ATOM      3  C   UNL     1      35.241  -0.654  11.400  1.00  0.00     0.238 A 
ATOM      4  O   UNL     1      36.391  -1.127  11.205  1.00  0.00    -0.285 OA
ATOM      5  C   UNL     1      34.919   0.030  12.598  1.00  0.00     0.111 A 
ATOM      6  C   UNL     1      35.850   0.325  13.639  1.00  0.00     0.134 A 
ATOM      7  C   UNL     1      35.392   0.891  14.835  1.00  0.00     0.093 A 
ATOM      8  C   UNL     1      34.051   1.233  15.002  1.00  0.00     0.123 A 
ATOM      9  C   UNL     1      33.143   1.005  13.968  1.00  0.00     0.094 A 
ATOM     10  C   UNL     1      33.563   0.408  12.777  1.00  0.00     0.146 A 
ATOM     11  O   UNL     1      32.665   0.198  11.822  1.00  0.00    -0.452 OA
ENDROOT
BRANCH   1  12
ATOM     12  C   UNL     1      31.863  -0.533   9.668  1.00  0.00     0.025 A 
ATOM     13  C   UNL     1      31.052  -1.681   9.643  1.00  0.00     0.016 A 
ATOM     14  C   UNL     1      30.047  -1.813   8.681  1.00  0.00     0.051 A 
ATOM     15  C   UNL     1      29.846  -0.813   7.725  1.00  0.00     0.157 A 
ATOM     16  C   UNL     1      31.673   0.460   8.694  1.00  0.00     0.062 A 
ATOM     17  C   UNL     1      30.665   0.329   7.728  1.00  0.00     0.158 A 
BRANCH  15  18
ATOM     18  O   UNL     1      28.834  -0.973   6.779  1.00  0.00    -0.504 OA
ATOM     19  H   UNL     1      28.337  -1.848   6.665  1.00  0.00     0.293 HD
ENDBRANCH  15  18
BRANCH  17  20
ATOM     20  O   UNL     1      30.475   1.326   6.774  1.00  0.00    -0.504 OA
ATOM     21  H   UNL     1      30.739   2.289   6.951  1.00  0.00     0.293 HD
ENDBRANCH  17  20
ENDBRANCH   1  12
BRANCH   2  22
ATOM     22  O   UNL     1      34.545  -1.546   9.244  1.00  0.00    -0.502 OA
ATOM     23  H   UNL     1      34.905  -1.085   8.418  1.00  0.00     0.293 HD
ENDBRANCH   2  22
BRANCH   6  24
ATOM     24  O   UNL     1      37.228   0.107  13.538  1.00  0.00    -0.507 OA
ATOM     25  H   UNL     1      37.930   0.827  13.610  1.00  0.00     0.293 HD
ENDBRANCH   6  24
BRANCH   8  26
ATOM     26  O   UNL     1      33.634   1.810  16.200  1.00  0.00    -0.508 OA
ATOM     27  H   UNL     1      32.690   1.685  16.547  1.00  0.00     0.293 HD
ENDBRANCH   8  26
TORSDOF 6
ENDMDL
MODEL 5
REMARK VINA RESULT:    -7.044      1.341      6.610
REMARK INTER + INTRA:          -8.712
REMARK INTER:                  -8.540
REMARK INTRA:                  -0.173
REMARK UNBOUND:                -0.227
REMARK SMILES O=c1c(O)c(-c2ccc(O)c(O)c2)oc2cc(O)cc(O)c12
REMARK SMILES IDX 5 1 3 2 2 3 1 4 22 5 20 6 19 7 17 8 16 9 15 10 14 11 6 12
REMARK SMILES IDX 7 13 8 14 9 15 13 16 11 17 10 18 12 20 4 22 21 24 18 26
REMARK H PARENT 10 19 12 21 4 23 21 25 18 27
REMARK Flexibility Score: inf
ROOT
ATOM      1  C   UNL     1      32.950  -0.322  10.708  1.00  0.00     0.180 A 
ATOM      2  C   UNL     1      31.964  -0.871  11.546  1.00  0.00     0.208 A 
ATOM      3  C   UNL     1      30.721  -1.221  10.996  1.00  0.00     0.238 A 
ATOM      4  O   UNL     1      29.862  -1.762  11.740  1.00  0.00    -0.285 OA
ATOM      5  C   UNL     1      30.473  -1.003   9.619  1.00  0.00     0.111 A 
ATOM      6  C   UNL     1      29.236  -1.282   8.964  1.00  0.00     0.134 A 
ATOM      7  C   UNL     1      29.146  -1.150   7.573  1.00  0.00     0.093 A 
ATOM      8  C   UNL     1      30.225  -0.685   6.823  1.00  0.00     0.123 A 
ATOM      9  C   UNL     1      31.421  -0.353   7.460  1.00  0.00     0.094 A 
ATOM     10  C   UNL     1      31.553  -0.509   8.842  1.00  0.00     0.146 A 
ATOM     11  O   UNL     1      32.710  -0.191   9.408  1.00  0.00    -0.452 OA
ENDROOT
BRANCH   1  12
ATOM     12  C   UNL     1      34.277   0.094  11.219  1.00  0.00     0.025 A 
ATOM     13  C   UNL     1      34.404   1.119  12.173  1.00  0.00     0.016 A 
ATOM     14  C   UNL     1      35.668   1.512  12.623  1.00  0.00     0.051 A 
ATOM     15  C   UNL     1      36.819   0.900  12.120  1.00  0.00     0.157 A 
ATOM     16  C   UNL     1      35.437  -0.503  10.700  1.00  0.00     0.062 A 
ATOM     17  C   UNL     1      36.705  -0.111  11.150  1.00  0.00     0.158 A 
BRANCH  15  18
ATOM     18  O   UNL     1      38.066   1.312  12.589  1.00  0.00    -0.504 OA
ATOM     19  H   UNL     1      38.796   0.652  12.830  1.00  0.00     0.293 HD
ENDBRANCH  15  18
BRANCH  17  20
ATOM     20  O   UNL     1      37.849  -0.720  10.639  1.00  0.00    -0.504 OA
ATOM     21  H   UNL     1      38.081  -0.674   9.654  1.00  0.00     0.293 HD
ENDBRANCH  17  20
ENDBRANCH   1  12
BRANCH   2  22
ATOM     22  O   UNL     1      32.237  -1.098  12.897  1.00  0.00    -0.502 OA
ATOM     23  H   UNL     1      31.528  -1.406  13.551  1.00  0.00     0.293 HD
ENDBRANCH   2  22
BRANCH   6  24
ATOM     24  O   UNL     1      28.068  -1.664   9.632  1.00  0.00    -0.507 OA
ATOM     25  H   UNL     1      27.938  -2.546  10.104  1.00  0.00     0.293 HD
ENDBRANCH   6  24
BRANCH   8  26
ATOM     26  O   UNL     1      30.094  -0.551   5.442  1.00  0.00    -0.508 OA
ATOM     27  H   UNL     1      30.843  -0.811   4.811  1.00  0.00     0.293 HD
ENDBRANCH   8  26
TORSDOF 6
ENDMDL
MODEL 6
REMARK VINA RESULT:    -7.032      1.868      6.871
REMARK INTER + INTRA:          -8.698
REMARK INTER:                  -8.426
REMARK INTRA:                  -0.272
REMARK UNBOUND:                -0.227
REMARK SMILES O=c1c(O)c(-c2ccc(O)c(O)c2)oc2cc(O)cc(O)c12
REMARK SMILES IDX 5 1 3 2 2 3 1 4 22 5 20 6 19 7 17 8 16 9 15 10 14 11 6 12
REMARK SMILES IDX 7 13 8 14 9 15 13 16 11 17 10 18 12 20 4 22 21 24 18 26
REMARK H PARENT 10 19 12 21 4 23 21 25 18 27
REMARK Flexibility Score: inf
ROOT
ATOM      1  C   UNL     1      32.819  -0.201  11.998  1.00  0.00     0.180 A 
ATOM      2  C   UNL     1      31.523  -0.295  12.536  1.00  0.00     0.208 A 
ATOM      3  C   UNL     1      30.446  -0.554  11.675  1.00  0.00     0.238 A 
ATOM      4  O   UNL     1      29.296  -0.692  12.169  1.00  0.00    -0.285 OA
ATOM      5  C   UNL     1      30.673  -0.698  10.285  1.00  0.00     0.111 A 
ATOM      6  C   UNL     1      29.650  -0.921   9.315  1.00  0.00     0.134 A 
ATOM      7  C   UNL     1      30.004  -1.178   7.985  1.00  0.00     0.093 A 
ATOM      8  C   UNL     1      31.336  -1.155   7.577  1.00  0.00     0.123 A 
ATOM      9  C   UNL     1      32.341  -0.879   8.505  1.00  0.00     0.094 A 
ATOM     10  C   UNL     1      32.022  -0.655   9.846  1.00  0.00     0.146 A 
ATOM     11  O   UNL     1      33.008  -0.406  10.700  1.00  0.00    -0.452 OA
ENDROOT
BRANCH   1  12
ATOM     12  C   UNL     1      34.002   0.093  12.839  1.00  0.00     0.025 A 
ATOM     13  C   UNL     1      34.606   1.363  12.834  1.00  0.00     0.016 A 
ATOM     14  C   UNL     1      35.736   1.611  13.617  1.00  0.00     0.051 A 
ATOM     15  C   UNL     1      36.288   0.596  14.404  1.00  0.00     0.157 A 
ATOM     16  C   UNL     1      34.571  -0.930  13.614  1.00  0.00     0.062 A 
ATOM     17  C   UNL     1      35.705  -0.684  14.401  1.00  0.00     0.158 A 
BRANCH  15  18
ATOM     18  O   UNL     1      37.415   0.873  15.176  1.00  0.00    -0.504 OA
ATOM     19  H   UNL     1      37.429   1.620  15.861  1.00  0.00     0.293 HD
ENDBRANCH  15  18
BRANCH  17  20
ATOM     20  O   UNL     1      36.255  -1.702  15.177  1.00  0.00    -0.504 OA
ATOM     21  H   UNL     1      36.996  -1.521  15.843  1.00  0.00     0.293 HD
ENDBRANCH  17  20
ENDBRANCH   1  12
BRANCH   2  22
ATOM     22  O   UNL     1      31.324  -0.172  13.914  1.00  0.00    -0.502 OA
ATOM     23  H   UNL     1      31.987   0.297  14.519  1.00  0.00     0.293 HD
ENDBRANCH   2  22
BRANCH   6  24
ATOM     24  O   UNL     1      28.282  -0.874   9.599  1.00  0.00    -0.507 OA
ATOM     25  H   UNL     1      27.662  -1.669   9.576  1.00  0.00     0.293 HD
ENDBRANCH   6  24
BRANCH   8  26
ATOM     26  O   UNL     1      31.650  -1.400   6.242  1.00  0.00    -0.508 OA
ATOM     27  H   UNL     1      30.936  -1.410   5.523  1.00  0.00     0.293 HD
ENDBRANCH   8  26
TORSDOF 6
ENDMDL
MODEL 7
REMARK VINA RESULT:    -6.815      2.543      4.321
REMARK INTER + INTRA:          -8.436
REMARK INTER:                  -8.151
REMARK INTRA:                  -0.285
REMARK UNBOUND:                -0.227
REMARK SMILES O=c1c(O)c(-c2ccc(O)c(O)c2)oc2cc(O)cc(O)c12
REMARK SMILES IDX 5 1 3 2 2 3 1 4 22 5 20 6 19 7 17 8 16 9 15 10 14 11 6 12
REMARK SMILES IDX 7 13 8 14 9 15 13 16 11 17 10 18 12 20 4 22 21 24 18 26
REMARK H PARENT 10 19 12 21 4 23 21 25 18 27
REMARK Flexibility Score: inf
ROOT
ATOM      1  C   UNL     1      33.137  -0.199  12.173  1.00  0.00     0.180 A 
ATOM      2  C   UNL     1      34.137   0.764  12.398  1.00  0.00     0.208 A 
ATOM      3  C   UNL     1      34.416   1.161  13.714  1.00  0.00     0.238 A 
ATOM      4  O   UNL     1      35.349   1.983  13.913  1.00  0.00    -0.285 OA
ATOM      5  C   UNL     1      33.681   0.605  14.789  1.00  0.00     0.111 A 
ATOM      6  C   UNL     1      33.851   0.965  16.160  1.00  0.00     0.134 A 
ATOM      7  C   UNL     1      33.161   0.256  17.151  1.00  0.00     0.093 A 
ATOM      8  C   UNL     1      32.259  -0.753  16.818  1.00  0.00     0.123 A 
ATOM      9  C   UNL     1      32.040  -1.073  15.477  1.00  0.00     0.094 A 
ATOM     10  C   UNL     1      32.741  -0.409  14.469  1.00  0.00     0.146 A 
ATOM     11  O   UNL     1      32.511  -0.750  13.206  1.00  0.00    -0.452 OA
ENDROOT
BRANCH   1  12
ATOM     12  C   UNL     1      32.769  -0.651  10.811  1.00  0.00     0.025 A 
ATOM     13  C   UNL     1      31.603  -0.189  10.177  1.00  0.00     0.016 A 
ATOM     14  C   UNL     1      31.264  -0.648   8.902  1.00  0.00     0.051 A 
ATOM     15  C   UNL     1      32.072  -1.581   8.247  1.00  0.00     0.157 A 
ATOM     16  C   UNL     1      33.568  -1.605  10.160  1.00  0.00     0.062 A 
ATOM     17  C   UNL     1      33.230  -2.066   8.880  1.00  0.00     0.158 A 
BRANCH  15  18
ATOM     18  O   UNL     1      31.709  -2.019   6.974  1.00  0.00    -0.504 OA
ATOM     19  H   UNL     1      32.383  -2.115   6.225  1.00  0.00     0.293 HD
ENDBRANCH  15  18
BRANCH  17  20
ATOM     20  O   UNL     1      34.036  -3.002   8.237  1.00  0.00    -0.504 OA
ATOM     21  H   UNL     1      33.666  -3.887   7.908  1.00  0.00     0.293 HD
ENDBRANCH  17  20
ENDBRANCH   1  12
BRANCH   2  22
ATOM     22  O   UNL     1      34.865   1.283  11.324  1.00  0.00    -0.502 OA
ATOM     23  H   UNL     1      34.427   1.788  10.563  1.00  0.00     0.293 HD
ENDBRANCH   2  22
BRANCH   6  24
ATOM     24  O   UNL     1      34.659   2.020  16.595  1.00  0.00    -0.507 OA
ATOM     25  H   UNL     1      34.317   2.867  17.024  1.00  0.00     0.293 HD
ENDBRANCH   6  24
BRANCH   8  26
ATOM     26  O   UNL     1      31.578  -1.427  17.830  1.00  0.00    -0.508 OA
ATOM     27  H   UNL     1      31.515  -2.438  17.843  1.00  0.00     0.293 HD
ENDBRANCH   8  26
TORSDOF 6
ENDMDL
MODEL 8
REMARK VINA RESULT:    -6.748      2.234      7.375
REMARK INTER + INTRA:          -8.356
REMARK INTER:                  -8.059
REMARK INTRA:                  -0.297
REMARK UNBOUND:                -0.227
REMARK SMILES O=c1c(O)c(-c2ccc(O)c(O)c2)oc2cc(O)cc(O)c12
REMARK SMILES IDX 5 1 3 2 2 3 1 4 22 5 20 6 19 7 17 8 16 9 15 10 14 11 6 12
REMARK SMILES IDX 7 13 8 14 9 15 13 16 11 17 10 18 12 20 4 22 21 24 18 26
REMARK H PARENT 10 19 12 21 4 23 21 25 18 27
REMARK Flexibility Score: inf
ROOT
ATOM      1  C   UNL     1      33.958  -1.530  11.610  1.00  0.00     0.180 A 
ATOM      2  C   UNL     1      34.457  -2.111  10.431  1.00  0.00     0.208 A 
ATOM      3  C   UNL     1      33.654  -2.115   9.281  1.00  0.00     0.238 A 
ATOM      4  O   UNL     1      34.127  -2.588   8.214  1.00  0.00    -0.285 OA
ATOM      5  C   UNL     1      32.355  -1.554   9.327  1.00  0.00     0.111 A 
ATOM      6  C   UNL     1      31.439  -1.541   8.232  1.00  0.00     0.134 A 
ATOM      7  C   UNL     1      30.230  -0.844   8.351  1.00  0.00     0.093 A 
ATOM      8  C   UNL     1      29.876  -0.217   9.544  1.00  0.00     0.123 A 
ATOM      9  C   UNL     1      30.738  -0.274  10.640  1.00  0.00     0.094 A 
ATOM     10  C   UNL     1      31.966  -0.931  10.540  1.00  0.00     0.146 A 
ATOM     11  O   UNL     1      32.762  -0.954  11.603  1.00  0.00    -0.452 OA
ENDROOT
BRANCH   1  12
ATOM     12  C   UNL     1      34.737  -1.508  12.870  1.00  0.00     0.025 A 
ATOM     13  C   UNL     1      34.480  -2.426  13.904  1.00  0.00     0.016 A 
ATOM     14  C   UNL     1      35.211  -2.371  15.094  1.00  0.00     0.051 A 
ATOM     15  C   UNL     1      36.196  -1.396  15.275  1.00  0.00     0.157 A 
ATOM     16  C   UNL     1      35.711  -0.517  13.063  1.00  0.00     0.062 A 
ATOM     17  C   UNL     1      36.446  -0.460  14.256  1.00  0.00     0.158 A 
BRANCH  15  18
ATOM     18  O   UNL     1      36.910  -1.367  16.472  1.00  0.00    -0.504 OA
ATOM     19  H   UNL     1      37.223  -0.500  16.892  1.00  0.00     0.293 HD
ENDBRANCH  15  18
BRANCH  17  20
ATOM     20  O   UNL     1      37.421   0.519  14.433  1.00  0.00    -0.504 OA
ATOM     21  H   UNL     1      37.271   1.478  14.143  1.00  0.00     0.293 HD
ENDBRANCH  17  20
ENDBRANCH   1  12
BRANCH   2  22
ATOM     22  O   UNL     1      35.751  -2.639  10.402  1.00  0.00    -0.502 OA
ATOM     23  H   UNL     1      36.002  -3.432   9.825  1.00  0.00     0.293 HD
ENDBRANCH   2  22
BRANCH   6  24
ATOM     24  O   UNL     1      31.655  -2.214   7.025  1.00  0.00    -0.507 OA
ATOM     25  H   UNL     1      31.689  -1.773   6.119  1.00  0.00     0.293 HD
ENDBRANCH   6  24
BRANCH   8  26
ATOM     26  O   UNL     1      28.658   0.455   9.632  1.00  0.00    -0.508 OA
ATOM     27  H   UNL     1      28.221   0.868   8.816  1.00  0.00     0.293 HD
ENDBRANCH   8  26
TORSDOF 6
ENDMDL
MODEL 9
REMARK VINA RESULT:    -6.732      2.618      4.216
REMARK INTER + INTRA:          -8.337
REMARK INTER:                  -8.216
REMARK INTRA:                  -0.120
REMARK UNBOUND:                -0.227
REMARK SMILES O=c1c(O)c(-c2ccc(O)c(O)c2)oc2cc(O)cc(O)c12
REMARK SMILES IDX 5 1 3 2 2 3 1 4 22 5 20 6 19 7 17 8 16 9 15 10 14 11 6 12
REMARK SMILES IDX 7 13 8 14 9 15 13 16 11 17 10 18 12 20 4 22 21 24 18 26
REMARK H PARENT 10 19 12 21 4 23 21 25 18 27
REMARK Flexibility Score: inf
ROOT
ATOM      1  C   UNL     1      32.299   0.080  12.929  1.00  0.00     0.180 A 
ATOM      2  C   UNL     1      33.365   0.925  12.572  1.00  0.00     0.208 A 
ATOM      3  C   UNL     1      34.326   1.254  13.540  1.00  0.00     0.238 A 
ATOM      4  O   UNL     1      35.307   1.965  13.202  1.00  0.00    -0.285 OA
ATOM      5  C   UNL     1      34.200   0.749  14.858  1.00  0.00     0.111 A 
ATOM      6  C   UNL     1      35.092   1.051  15.930  1.00  0.00     0.134 A 
ATOM      7  C   UNL     1      34.946   0.392  17.157  1.00  0.00     0.093 A 
ATOM      8  C   UNL     1      33.902  -0.506  17.372  1.00  0.00     0.123 A 
ATOM      9  C   UNL     1      32.988  -0.763  16.349  1.00  0.00     0.094 A 
ATOM     10  C   UNL     1      33.130  -0.149  15.103  1.00  0.00     0.146 A 
ATOM     11  O   UNL     1      32.245  -0.429  14.153  1.00  0.00    -0.452 OA
ENDROOT
BRANCH   1  12
ATOM     12  C   UNL     1      31.233  -0.292  11.969  1.00  0.00     0.025 A 
ATOM     13  C   UNL     1      29.886   0.028  12.211  1.00  0.00     0.016 A 
ATOM     14  C   UNL     1      28.896  -0.355  11.303  1.00  0.00     0.051 A 
ATOM     15  C   UNL     1      29.230  -1.072  10.151  1.00  0.00     0.157 A 
ATOM     16  C   UNL     1      31.564  -1.032  10.822  1.00  0.00     0.062 A 
ATOM     17  C   UNL     1      30.571  -1.417   9.910  1.00  0.00     0.158 A 
BRANCH  15  18
ATOM     18  O   UNL     1      28.220  -1.439   9.263  1.00  0.00    -0.504 OA
ATOM     19  H   UNL     1      27.244  -1.451   9.533  1.00  0.00     0.293 HD
ENDBRANCH  15  18
BRANCH  17  20
ATOM     20  O   UNL     1      30.911  -2.138   8.768  1.00  0.00    -0.504 OA
ATOM     21  H   UNL     1      30.372  -2.066   7.913  1.00  0.00     0.293 HD
ENDBRANCH  17  20
ENDBRANCH   1  12
BRANCH   2  22
ATOM     22  O   UNL     1      33.482   1.393  11.261  1.00  0.00    -0.502 OA
ATOM     23  H   UNL     1      34.170   2.086  10.990  1.00  0.00     0.293 HD
ENDBRANCH   2  22
BRANCH   6  24
ATOM     24  O   UNL     1      36.115   2.002  15.850  1.00  0.00    -0.507 OA
ATOM     25  H   UNL     1      36.180   2.826  16.428  1.00  0.00     0.293 HD
ENDBRANCH   6  24
BRANCH   8  26
ATOM     26  O   UNL     1      33.777  -1.131  18.610  1.00  0.00    -0.508 OA
ATOM     27  H   UNL     1      33.538  -0.609  19.445  1.00  0.00     0.293 HD
ENDBRANCH   8  26
TORSDOF 6
ENDMDL
