MODEL 1
REMARK VINA RESULT:    -3.497      0.000      0.000
REMARK INTER + INTRA:          -8.029
REMARK INTER:                  -5.950
REMARK INTRA:                  -2.079
REMARK UNBOUND:                -2.079
REMARK SMILES CCCCCCCCCCCCCC(=O)[O-]
REMARK SMILES IDX 8 1 9 2 10 3 11 4 12 5 13 6 14 7 15 8 16 9 7 10 6 11 5 12
REMARK SMILES IDX 4 13 3 14 2 15 1 16
REMARK H PARENT
REMARK Flexibility Score: inf
ROOT
ATOM      1  C   UNL     1       3.762  38.139  -8.467  1.00  0.00     0.000 C 
ENDROOT
BRANCH   1   2
ATOM      2  C   UNL     1       3.914  39.306  -7.470  1.00  0.00     0.000 C 
BRANCH   2   3
ATOM      3  C   UNL     1       5.342  39.525  -6.929  1.00  0.00     0.000 C 
BRANCH   3   4
ATOM      4  C   UNL     1       5.906  38.363  -6.093  1.00  0.00     0.000 C 
BRANCH   4   5
ATOM      5  C   UNL     1       5.176  38.185  -4.751  1.00  0.00     0.006 C 
BRANCH   5   6
ATOM      6  C   UNL     1       4.521  36.801  -4.628  1.00  0.00     0.053 C 
BRANCH   6   7
ATOM      7  C   UNL     1       3.047  36.901  -4.387  1.00  0.00     0.041 C 
ATOM      8  O   UNL     1       2.455  38.003  -4.529  1.00  0.00    -0.550 OA
ATOM      9  O   UNL     1       2.331  35.784  -3.975  1.00  0.00    -0.550 OA
ENDBRANCH   6   7
ENDBRANCH   5   6
ENDBRANCH   4   5
ENDBRANCH   3   4
ENDBRANCH   2   3
ENDBRANCH   1   2
BRANCH   1  10
ATOM     10  C   UNL     1       2.734  37.065  -8.067  1.00  0.00     0.000 C 
BRANCH  10  11
ATOM     11  C   UNL     1       3.359  35.666  -7.921  1.00  0.00    -0.000 C 
BRANCH  11  12
ATOM     12  C   UNL     1       4.848  35.630  -8.313  1.00  0.00    -0.000 C 
BRANCH  12  13
ATOM     13  C   UNL     1       5.651  34.458  -7.721  1.00  0.00    -0.000 C 
BRANCH  13  14
ATOM     14  C   UNL     1       6.860  34.919  -6.889  1.00  0.00    -0.000 C 
BRANCH  14  15
ATOM     15  C   UNL     1       6.976  34.170  -5.552  1.00  0.00    -0.003 C 
ATOM     16  C   UNL     1       5.747  33.312  -5.250  1.00  0.00     0.004 C 
ENDBRANCH  14  15
ENDBRANCH  13  14
ENDBRANCH  12  13
ENDBRANCH  11  12
ENDBRANCH  10  11
ENDBRANCH   1  10
TORSDOF 12
ENDMDL
MODEL 2
REMARK VINA RESULT:    -3.420      2.107      4.329
REMARK INTER + INTRA:          -7.899
REMARK INTER:                  -5.767
REMARK INTRA:                  -2.132
REMARK UNBOUND:                -2.079
REMARK SMILES CCCCCCCCCCCCCC(=O)[O-]
REMARK SMILES IDX 8 1 9 2 10 3 11 4 12 5 13 6 14 7 15 8 16 9 7 10 6 11 5 12
REMARK SMILES IDX 4 13 3 14 2 15 1 16
REMARK H PARENT
REMARK Flexibility Score: inf
ROOT
ATOM      1  C   UNL     1       3.654  38.549  -8.547  1.00  0.00     0.000 C 
ENDROOT
BRANCH   1   2
ATOM      2  C   UNL     1       2.688  37.449  -8.062  1.00  0.00     0.000 C 
BRANCH   2   3
ATOM      3  C   UNL     1       3.194  36.003  -8.243  1.00  0.00     0.000 C 
BRANCH   3   4
ATOM      4  C   UNL     1       4.722  35.859  -8.357  1.00  0.00     0.000 C 
BRANCH   4   5
ATOM      5  C   UNL     1       5.196  34.404  -8.196  1.00  0.00     0.006 C 
BRANCH   5   6
ATOM      6  C   UNL     1       5.024  33.896  -6.757  1.00  0.00     0.053 C 
BRANCH   6   7
ATOM      7  C   UNL     1       6.335  33.799  -6.040  1.00  0.00     0.041 C 
ATOM      8  O   UNL     1       7.185  34.722  -6.145  1.00  0.00    -0.550 OA
ATOM      9  O   UNL     1       6.630  32.676  -5.277  1.00  0.00    -0.550 OA
ENDBRANCH   6   7
ENDBRANCH   5   6
ENDBRANCH   4   5
ENDBRANCH   3   4
ENDBRANCH   2   3
ENDBRANCH   1   2
BRANCH   1  10
ATOM     10  C   UNL     1       4.121  39.537  -7.463  1.00  0.00     0.000 C 
BRANCH  10  11
ATOM     11  C   UNL     1       5.641  39.492  -7.228  1.00  0.00    -0.000 C 
BRANCH  11  12
ATOM     12  C   UNL     1       6.050  38.483  -6.138  1.00  0.00    -0.000 C 
BRANCH  12  13
ATOM     13  C   UNL     1       5.060  38.350  -4.967  1.00  0.00    -0.000 C 
BRANCH  13  14
ATOM     14  C   UNL     1       4.715  36.887  -4.637  1.00  0.00    -0.000 C 
BRANCH  14  15
ATOM     15  C   UNL     1       3.204  36.658  -4.486  1.00  0.00    -0.003 C 
ATOM     16  C   UNL     1       2.414  37.964  -4.415  1.00  0.00     0.004 C 
ENDBRANCH  14  15
ENDBRANCH  13  14
ENDBRANCH  12  13
ENDBRANCH  11  12
ENDBRANCH  10  11
ENDBRANCH   1  10
TORSDOF 12
ENDMDL
MODEL 3
REMARK VINA RESULT:    -3.410      1.296      2.656
REMARK INTER + INTRA:          -7.882
REMARK INTER:                  -6.252
REMARK INTRA:                  -1.630
REMARK UNBOUND:                -2.079
REMARK SMILES CCCCCCCCCCCCCC(=O)[O-]
REMARK SMILES IDX 8 1 9 2 10 3 11 4 12 5 13 6 14 7 15 8 16 9 7 10 6 11 5 12
REMARK SMILES IDX 4 13 3 14 2 15 1 16
REMARK H PARENT
REMARK Flexibility Score: inf
ROOT
ATOM      1  C   UNL     1       4.575  39.866  -6.647  1.00  0.00     0.000 C 
ENDROOT
BRANCH   1   2
ATOM      2  C   UNL     1       3.884  39.623  -8.004  1.00  0.00     0.000 C 
BRANCH   2   3
ATOM      3  C   UNL     1       3.401  38.178  -8.245  1.00  0.00     0.000 C 
BRANCH   3   4
ATOM      4  C   UNL     1       2.009  37.854  -7.675  1.00  0.00     0.000 C 
BRANCH   4   5
ATOM      5  C   UNL     1       2.064  36.883  -6.483  1.00  0.00     0.006 C 
BRANCH   5   6
ATOM      6  C   UNL     1       1.718  37.576  -5.157  1.00  0.00     0.053 C 
BRANCH   6   7
ATOM      7  C   UNL     1       1.610  36.598  -4.028  1.00  0.00     0.041 C 
ATOM      8  O   UNL     1       0.714  36.734  -3.155  1.00  0.00    -0.550 OA
ATOM      9  O   UNL     1       2.519  35.552  -3.924  1.00  0.00    -0.550 OA
ENDBRANCH   6   7
ENDBRANCH   5   6
ENDBRANCH   4   5
ENDBRANCH   3   4
ENDBRANCH   2   3
ENDBRANCH   1   2
BRANCH   1  10
ATOM     10  C   UNL     1       5.678  38.856  -6.282  1.00  0.00     0.000 C 
BRANCH  10  11
ATOM     11  C   UNL     1       5.330  38.012  -5.045  1.00  0.00    -0.000 C 
BRANCH  11  12
ATOM     12  C   UNL     1       5.517  36.501  -5.277  1.00  0.00    -0.000 C 
BRANCH  12  13
ATOM     13  C   UNL     1       6.045  36.116  -6.671  1.00  0.00    -0.000 C 
BRANCH  13  14
ATOM     14  C   UNL     1       6.893  34.832  -6.657  1.00  0.00    -0.000 C 
BRANCH  14  15
ATOM     15  C   UNL     1       6.856  34.116  -5.298  1.00  0.00    -0.003 C 
ATOM     16  C   UNL     1       6.426  32.653  -5.415  1.00  0.00     0.004 C 
ENDBRANCH  14  15
ENDBRANCH  13  14
ENDBRANCH  12  13
ENDBRANCH  11  12
ENDBRANCH  10  11
ENDBRANCH   1  10
TORSDOF 12
ENDMDL
MODEL 4
REMARK VINA RESULT:    -3.401      1.536      2.921
REMARK INTER + INTRA:          -7.867
REMARK INTER:                  -6.331
REMARK INTRA:                  -1.536
REMARK UNBOUND:                -2.079
REMARK SMILES CCCCCCCCCCCCCC(=O)[O-]
REMARK SMILES IDX 8 1 9 2 10 3 11 4 12 5 13 6 14 7 15 8 16 9 7 10 6 11 5 12
REMARK SMILES IDX 4 13 3 14 2 15 1 16
REMARK H PARENT
REMARK Flexibility Score: inf
ROOT
ATOM      1  C   UNL     1       3.811  40.010  -8.329  1.00  0.00     0.000 C 
ENDROOT
BRANCH   1   2
ATOM      2  C   UNL     1       3.549  38.572  -8.821  1.00  0.00     0.000 C 
BRANCH   2   3
ATOM      3  C   UNL     1       2.210  37.956  -8.366  1.00  0.00     0.000 C 
BRANCH   3   4
ATOM      4  C   UNL     1       2.255  37.231  -7.010  1.00  0.00     0.000 C 
BRANCH   4   5
ATOM      5  C   UNL     1       1.602  38.043  -5.878  1.00  0.00     0.006 C 
BRANCH   5   6
ATOM      6  C   UNL     1       2.093  37.601  -4.492  1.00  0.00     0.053 C 
BRANCH   6   7
ATOM      7  C   UNL     1       1.079  36.759  -3.783  1.00  0.00     0.041 C 
ATOM      8  O   UNL     1       0.122  36.246  -4.421  1.00  0.00    -0.550 OA
ATOM      9  O   UNL     1       1.172  36.564  -2.410  1.00  0.00    -0.550 OA
ENDBRANCH   6   7
ENDBRANCH   5   6
ENDBRANCH   4   5
ENDBRANCH   3   4
ENDBRANCH   2   3
ENDBRANCH   1   2
BRANCH   1  10
ATOM     10  C   UNL     1       4.544  40.118  -6.980  1.00  0.00     0.000 C 
BRANCH  10  11
ATOM     11  C   UNL     1       5.814  39.252  -6.919  1.00  0.00    -0.000 C 
BRANCH  11  12
ATOM     12  C   UNL     1       5.717  38.116  -5.883  1.00  0.00    -0.000 C 
BRANCH  12  13
ATOM     13  C   UNL     1       5.933  36.700  -6.446  1.00  0.00    -0.000 C 
BRANCH  13  14
ATOM     14  C   UNL     1       5.659  35.595  -5.410  1.00  0.00    -0.000 C 
BRANCH  14  15
ATOM     15  C   UNL     1       6.609  34.397  -5.561  1.00  0.00    -0.003 C 
ATOM     16  C   UNL     1       7.015  34.147  -7.013  1.00  0.00     0.004 C 
ENDBRANCH  14  15
ENDBRANCH  13  14
ENDBRANCH  12  13
ENDBRANCH  11  12
ENDBRANCH  10  11
ENDBRANCH   1  10
TORSDOF 12
ENDMDL
MODEL 5
REMARK VINA RESULT:    -3.399      2.509      4.899
REMARK INTER + INTRA:          -7.863
REMARK INTER:                  -6.060
REMARK INTRA:                  -1.802
REMARK UNBOUND:                -2.079
REMARK SMILES CCCCCCCCCCCCCC(=O)[O-]
REMARK SMILES IDX 8 1 9 2 10 3 11 4 12 5 13 6 14 7 15 8 16 9 7 10 6 11 5 12
REMARK SMILES IDX 4 13 3 14 2 15 1 16
REMARK H PARENT
REMARK Flexibility Score: inf
ROOT
ATOM      1  C   UNL     1       6.000  38.516  -5.746  1.00  0.00     0.000 C 
ENDROOT
BRANCH   1   2
ATOM      2  C   UNL     1       4.661  38.469  -4.984  1.00  0.00     0.000 C 
BRANCH   2   3
ATOM      3  C   UNL     1       4.141  37.055  -4.655  1.00  0.00     0.000 C 
BRANCH   3   4
ATOM      4  C   UNL     1       5.214  35.952  -4.653  1.00  0.00     0.000 C 
BRANCH   4   5
ATOM      5  C   UNL     1       5.073  34.980  -5.837  1.00  0.00     0.006 C 
BRANCH   5   6
ATOM      6  C   UNL     1       6.311  34.992  -6.746  1.00  0.00     0.053 C 
BRANCH   6   7
ATOM      7  C   UNL     1       6.877  33.619  -6.935  1.00  0.00     0.041 C 
ATOM      8  O   UNL     1       6.743  32.748  -6.035  1.00  0.00    -0.550 OA
ATOM      9  O   UNL     1       7.578  33.308  -8.093  1.00  0.00    -0.550 OA
ENDBRANCH   6   7
ENDBRANCH   5   6
ENDBRANCH   4   5
ENDBRANCH   3   4
ENDBRANCH   2   3
ENDBRANCH   1   2
BRANCH   1  10
ATOM     10  C   UNL     1       5.947  39.202  -7.124  1.00  0.00     0.000 C 
BRANCH  10  11
ATOM     11  C   UNL     1       4.678  40.048  -7.321  1.00  0.00    -0.000 C 
BRANCH  11  12
ATOM     12  C   UNL     1       3.742  39.482  -8.406  1.00  0.00    -0.000 C 
BRANCH  12  13
ATOM     13  C   UNL     1       4.000  38.014  -8.789  1.00  0.00    -0.000 C 
BRANCH  13  14
ATOM     14  C   UNL     1       2.988  37.043  -8.157  1.00  0.00    -0.000 C 
BRANCH  14  15
ATOM     15  C   UNL     1       1.803  37.770  -7.502  1.00  0.00    -0.003 C 
ATOM     16  C   UNL     1       0.507  37.620  -8.300  1.00  0.00     0.004 C 
ENDBRANCH  14  15
ENDBRANCH  13  14
ENDBRANCH  12  13
ENDBRANCH  11  12
ENDBRANCH  10  11
ENDBRANCH   1  10
TORSDOF 12
ENDMDL
MODEL 6
REMARK VINA RESULT:    -3.394      2.597      4.573
REMARK INTER + INTRA:          -7.854
REMARK INTER:                  -6.172
REMARK INTRA:                  -1.682
REMARK UNBOUND:                -2.079
REMARK SMILES CCCCCCCCCCCCCC(=O)[O-]
REMARK SMILES IDX 8 1 9 2 10 3 11 4 12 5 13 6 14 7 15 8 16 9 7 10 6 11 5 12
REMARK SMILES IDX 4 13 3 14 2 15 1 16
REMARK H PARENT
REMARK Flexibility Score: inf
ROOT
ATOM      1  C   UNL     1       5.455  39.809  -7.225  1.00  0.00     0.000 C 
ENDROOT
BRANCH   1   2
ATOM      2  C   UNL     1       6.197  38.774  -6.355  1.00  0.00     0.000 C 
BRANCH   2   3
ATOM      3  C   UNL     1       5.366  38.166  -5.207  1.00  0.00     0.000 C 
BRANCH   3   4
ATOM      4  C   UNL     1       5.233  36.633  -5.239  1.00  0.00     0.000 C 
BRANCH   4   5
ATOM      5  C   UNL     1       5.606  36.032  -6.606  1.00  0.00     0.006 C 
BRANCH   5   6
ATOM      6  C   UNL     1       6.766  35.032  -6.501  1.00  0.00     0.053 C 
BRANCH   6   7
ATOM      7  C   UNL     1       6.733  34.022  -7.606  1.00  0.00     0.041 C 
ATOM      8  O   UNL     1       7.453  32.991  -7.545  1.00  0.00    -0.550 OA
ATOM      9  O   UNL     1       5.928  34.234  -8.719  1.00  0.00    -0.550 OA
ENDBRANCH   6   7
ENDBRANCH   5   6
ENDBRANCH   4   5
ENDBRANCH   3   4
ENDBRANCH   2   3
ENDBRANCH   1   2
BRANCH   1  10
ATOM     10  C   UNL     1       3.923  39.659  -7.260  1.00  0.00     0.000 C 
BRANCH  10  11
ATOM     11  C   UNL     1       3.446  38.644  -8.313  1.00  0.00    -0.000 C 
BRANCH  11  12
ATOM     12  C   UNL     1       2.281  37.767  -7.816  1.00  0.00    -0.000 C 
BRANCH  12  13
ATOM     13  C   UNL     1       1.782  38.089  -6.395  1.00  0.00    -0.000 C 
BRANCH  13  14
ATOM     14  C   UNL     1       1.246  36.852  -5.654  1.00  0.00    -0.000 C 
BRANCH  14  15
ATOM     15  C   UNL     1       1.279  37.020  -4.127  1.00  0.00    -0.003 C 
ATOM     16  C   UNL     1       1.984  35.862  -3.421  1.00  0.00     0.004 C 
ENDBRANCH  14  15
ENDBRANCH  13  14
ENDBRANCH  12  13
ENDBRANCH  11  12
ENDBRANCH  10  11
ENDBRANCH   1  10
TORSDOF 12
ENDMDL
MODEL 7
REMARK VINA RESULT:    -3.389      2.028      3.038
REMARK INTER + INTRA:          -7.847
REMARK INTER:                  -5.897
REMARK INTRA:                  -1.950
REMARK UNBOUND:                -2.079
REMARK SMILES CCCCCCCCCCCCCC(=O)[O-]
REMARK SMILES IDX 8 1 9 2 10 3 11 4 12 5 13 6 14 7 15 8 16 9 7 10 6 11 5 12
REMARK SMILES IDX 4 13 3 14 2 15 1 16
REMARK H PARENT
REMARK Flexibility Score: inf
ROOT
ATOM      1  C   UNL     1       2.232  36.470  -6.842  1.00  0.00     0.000 C 
ENDROOT
BRANCH   1   2
ATOM      2  C   UNL     1       2.325  37.540  -5.736  1.00  0.00     0.000 C 
BRANCH   2   3
ATOM      3  C   UNL     1       3.523  37.390  -4.777  1.00  0.00     0.000 C 
BRANCH   3   4
ATOM      4  C   UNL     1       4.585  38.499  -4.883  1.00  0.00     0.000 C 
BRANCH   4   5
ATOM      5  C   UNL     1       5.718  38.146  -5.863  1.00  0.00     0.006 C 
BRANCH   5   6
ATOM      6  C   UNL     1       6.015  39.292  -6.840  1.00  0.00     0.053 C 
BRANCH   6   7
ATOM      7  C   UNL     1       4.785  39.736  -7.569  1.00  0.00     0.041 C 
ATOM      8  O   UNL     1       4.210  38.959  -8.375  1.00  0.00    -0.550 OA
ATOM      9  O   UNL     1       4.289  41.021  -7.380  1.00  0.00    -0.550 OA
ENDBRANCH   6   7
ENDBRANCH   5   6
ENDBRANCH   4   5
ENDBRANCH   3   4
ENDBRANCH   2   3
ENDBRANCH   1   2
BRANCH   1  10
ATOM     10  C   UNL     1       3.291  35.355  -6.767  1.00  0.00     0.000 C 
BRANCH  10  11
ATOM     11  C   UNL     1       4.330  35.440  -7.899  1.00  0.00    -0.000 C 
BRANCH  11  12
ATOM     12  C   UNL     1       5.511  34.472  -7.703  1.00  0.00    -0.000 C 
BRANCH  12  13
ATOM     13  C   UNL     1       6.626  34.981  -6.771  1.00  0.00    -0.000 C 
BRANCH  13  14
ATOM     14  C   UNL     1       6.840  34.079  -5.543  1.00  0.00    -0.000 C 
BRANCH  14  15
ATOM     15  C   UNL     1       6.076  34.576  -4.306  1.00  0.00    -0.003 C 
ATOM     16  C   UNL     1       4.870  33.700  -3.967  1.00  0.00     0.004 C 
ENDBRANCH  14  15
ENDBRANCH  13  14
ENDBRANCH  12  13
ENDBRANCH  11  12
ENDBRANCH  10  11
ENDBRANCH   1  10
TORSDOF 12
ENDMDL
MODEL 8
REMARK VINA RESULT:    -3.353      2.229      3.955
REMARK INTER + INTRA:          -7.785
REMARK INTER:                  -5.914
REMARK INTRA:                  -1.871
REMARK UNBOUND:                -2.079
REMARK SMILES CCCCCCCCCCCCCC(=O)[O-]
REMARK SMILES IDX 8 1 9 2 10 3 11 4 12 5 13 6 14 7 15 8 16 9 7 10 6 11 5 12
REMARK SMILES IDX 4 13 3 14 2 15 1 16
REMARK H PARENT
REMARK Flexibility Score: inf
ROOT
ATOM      1  C   UNL     1       3.792  39.346  -7.232  1.00  0.00     0.000 C 
ENDROOT
BRANCH   1   2
ATOM      2  C   UNL     1       5.330  39.433  -7.157  1.00  0.00     0.000 C 
BRANCH   2   3
ATOM      3  C   UNL     1       5.979  38.615  -6.022  1.00  0.00     0.000 C 
BRANCH   3   4
ATOM      4  C   UNL     1       5.031  38.233  -4.870  1.00  0.00     0.000 C 
BRANCH   4   5
ATOM      5  C   UNL     1       5.049  36.726  -4.559  1.00  0.00     0.006 C 
BRANCH   5   6
ATOM      6  C   UNL     1       4.867  35.872  -5.822  1.00  0.00     0.053 C 
BRANCH   6   7
ATOM      7  C   UNL     1       5.864  34.758  -5.889  1.00  0.00     0.041 C 
ATOM      8  O   UNL     1       5.650  33.677  -5.280  1.00  0.00    -0.550 OA
ATOM      9  O   UNL     1       7.046  34.922  -6.602  1.00  0.00    -0.550 OA
ENDBRANCH   6   7
ENDBRANCH   5   6
ENDBRANCH   4   5
ENDBRANCH   3   4
ENDBRANCH   2   3
ENDBRANCH   1   2
BRANCH   1  10
ATOM     10  C   UNL     1       3.241  38.179  -8.071  1.00  0.00     0.000 C 
BRANCH  10  11
ATOM     11  C   UNL     1       1.864  37.693  -7.586  1.00  0.00    -0.000 C 
BRANCH  11  12
ATOM     12  C   UNL     1       1.556  38.112  -6.136  1.00  0.00    -0.000 C 
BRANCH  12  13
ATOM     13  C   UNL     1       1.049  36.980  -5.224  1.00  0.00    -0.000 C 
BRANCH  13  14
ATOM     14  C   UNL     1       1.614  37.063  -3.795  1.00  0.00    -0.000 C 
BRANCH  14  15
ATOM     15  C   UNL     1       1.437  35.751  -3.015  1.00  0.00    -0.003 C 
ATOM     16  C   UNL     1       2.088  34.557  -3.714  1.00  0.00     0.004 C 
ENDBRANCH  14  15
ENDBRANCH  13  14
ENDBRANCH  12  13
ENDBRANCH  11  12
ENDBRANCH  10  11
ENDBRANCH   1  10
TORSDOF 12
ENDMDL
MODEL 9
REMARK VINA RESULT:    -3.334      1.818      3.031
REMARK INTER + INTRA:          -7.753
REMARK INTER:                  -5.813
REMARK INTRA:                  -1.940
REMARK UNBOUND:                -2.079
REMARK SMILES CCCCCCCCCCCCCC(=O)[O-]
REMARK SMILES IDX 8 1 9 2 10 3 11 4 12 5 13 6 14 7 15 8 16 9 7 10 6 11 5 12
REMARK SMILES IDX 4 13 3 14 2 15 1 16
REMARK H PARENT
REMARK Flexibility Score: inf
ROOT
ATOM      1  C   UNL     1       5.230  36.612  -7.471  1.00  0.00     0.000 C 
ENDROOT
BRANCH   1   2
ATOM      2  C   UNL     1       6.314  37.515  -6.849  1.00  0.00     0.000 C 
BRANCH   2   3
ATOM      3  C   UNL     1       5.819  38.468  -5.741  1.00  0.00     0.000 C 
BRANCH   3   4
ATOM      4  C   UNL     1       4.977  37.802  -4.639  1.00  0.00     0.000 C 
BRANCH   4   5
ATOM      5  C   UNL     1       3.598  38.463  -4.462  1.00  0.00     0.006 C 
BRANCH   5   6
ATOM      6  C   UNL     1       2.465  37.598  -5.033  1.00  0.00     0.053 C 
BRANCH   6   7
ATOM      7  C   UNL     1       1.916  38.168  -6.304  1.00  0.00     0.041 C 
ATOM      8  O   UNL     1       2.618  38.941  -7.008  1.00  0.00    -0.550 OA
ATOM      9  O   UNL     1       0.618  37.869  -6.698  1.00  0.00    -0.550 OA
ENDBRANCH   6   7
ENDBRANCH   5   6
ENDBRANCH   4   5
ENDBRANCH   3   4
ENDBRANCH   2   3
ENDBRANCH   1   2
BRANCH   1  10
ATOM     10  C   UNL     1       5.497  35.100  -7.368  1.00  0.00     0.000 C 
BRANCH  10  11
ATOM     11  C   UNL     1       6.888  34.776  -6.797  1.00  0.00    -0.000 C 
BRANCH  11  12
ATOM     12  C   UNL     1       6.830  33.853  -5.565  1.00  0.00    -0.000 C 
BRANCH  12  13
ATOM     13  C   UNL     1       6.098  34.439  -4.344  1.00  0.00    -0.000 C 
BRANCH  13  14
ATOM     14  C   UNL     1       4.946  33.546  -3.851  1.00  0.00    -0.000 C 
BRANCH  14  15
ATOM     15  C   UNL     1       3.574  34.220  -3.999  1.00  0.00    -0.003 C 
ATOM     16  C   UNL     1       2.848  33.804  -5.279  1.00  0.00     0.004 C 
ENDBRANCH  14  15
ENDBRANCH  13  14
ENDBRANCH  12  13
ENDBRANCH  11  12
ENDBRANCH  10  11
ENDBRANCH   1  10
TORSDOF 12
ENDMDL
