MODEL 1
REMARK VINA RESULT:    -6.440      0.000      0.000
REMARK INTER + INTRA:          -8.194
REMARK INTER:                  -7.946
REMARK INTRA:                  -0.249
REMARK UNBOUND:                -0.249
REMARK SMILES Oc1cc(O)c2cc(O)c(-c3cc(O)c(O)c(O)c3)[o+]c2c1
REMARK SMILES IDX 10 1 20 2 21 3 22 4 2 5 3 6 4 7 6 8 7 9 8 10 11 11 12 12
REMARK SMILES IDX 13 13 19 14 15 15 17 16 14 17 16 19 18 21 9 23 1 25 5 27
REMARK H PARENT 14 18 16 20 18 22 9 24 1 26 5 28
REMARK Flexibility Score: inf
ROOT
ATOM      1  C   UNL     1     179.077 182.007 174.914  1.00  0.00     0.402 A 
ATOM      2  O   UNL     1     180.319 181.552 174.778  1.00  0.00    -0.202 OA
ATOM      3  C   UNL     1     180.889 180.715 175.639  1.00  0.00     0.368 A 
ATOM      4  C   UNL     1     182.199 180.290 175.408  1.00  0.00     0.162 A 
ATOM      5  C   UNL     1     182.821 179.409 176.293  1.00  0.00     0.128 A 
ATOM      6  C   UNL     1     182.129 178.948 177.418  1.00  0.00     0.093 A 
ATOM      7  C   UNL     1     180.815 179.358 177.672  1.00  0.00     0.136 A 
ATOM      8  C   UNL     1     180.180 180.257 176.775  1.00  0.00     0.125 A 
ATOM      9  C   UNL     1     178.871 180.732 176.956  1.00  0.00     0.078 A 
ATOM     10  C   UNL     1     178.313 181.619 176.032  1.00  0.00     0.223 A 
ENDROOT
BRANCH   1  11
ATOM     11  C   UNL     1     178.550 182.929 173.882  1.00  0.00     0.091 A 
ATOM     12  C   UNL     1     177.458 182.574 173.072  1.00  0.00     0.068 A 
ATOM     13  C   UNL     1     176.990 183.452 172.085  1.00  0.00     0.162 A 
ATOM     14  C   UNL     1     179.188 184.160 173.667  1.00  0.00     0.068 A 
ATOM     15  C   UNL     1     177.617 184.689 171.890  1.00  0.00     0.200 A 
ATOM     16  C   UNL     1     178.723 185.043 172.682  1.00  0.00     0.162 A 
BRANCH  13  17
ATOM     17  O   UNL     1     175.901 183.099 171.288  1.00  0.00    -0.504 OA
ATOM     18  H   UNL     1     175.146 183.749 171.102  1.00  0.00     0.293 HD
ENDBRANCH  13  17
BRANCH  15  19
ATOM     19  O   UNL     1     177.135 185.552 170.906  1.00  0.00    -0.502 OA
ATOM     20  H   UNL     1     177.088 185.286 169.931  1.00  0.00     0.293 HD
ENDBRANCH  15  19
BRANCH  16  21
ATOM     21  O   UNL     1     179.356 186.270 172.487  1.00  0.00    -0.504 OA
ATOM     22  H   UNL     1     180.133 186.371 171.843  1.00  0.00     0.293 HD
ENDBRANCH  16  21
ENDBRANCH   1  11
BRANCH  10  23
ATOM     23  O   UNL     1     177.031 182.132 176.238  1.00  0.00    -0.500 OA
ATOM     24  H   UNL     1     176.303 182.041 175.539  1.00  0.00     0.294 HD
ENDBRANCH  10  23
BRANCH   5  25
ATOM     25  O   UNL     1     184.129 178.997 176.045  1.00  0.00    -0.507 OA
ATOM     26  H   UNL     1     184.837 179.646 175.724  1.00  0.00     0.293 HD
ENDBRANCH   5  25
BRANCH   7  27
ATOM     27  O   UNL     1     180.191 178.850 178.815  1.00  0.00    -0.507 OA
ATOM     28  H   UNL     1     180.447 177.985 179.268  1.00  0.00     0.293 HD
ENDBRANCH   7  27
TORSDOF 7
ENDMDL
MODEL 2
REMARK VINA RESULT:    -6.394      3.080      6.573
REMARK INTER + INTRA:          -8.138
REMARK INTER:                  -7.762
REMARK INTRA:                  -0.376
REMARK UNBOUND:                -0.249
REMARK SMILES Oc1cc(O)c2cc(O)c(-c3cc(O)c(O)c(O)c3)[o+]c2c1
REMARK SMILES IDX 10 1 20 2 21 3 22 4 2 5 3 6 4 7 6 8 7 9 8 10 11 11 12 12
REMARK SMILES IDX 13 13 19 14 15 15 17 16 14 17 16 19 18 21 9 23 1 25 5 27
REMARK H PARENT 14 18 16 20 18 22 9 24 1 26 5 28
REMARK Flexibility Score: inf
ROOT
ATOM      1  C   UNL     1     182.255 179.317 174.877  1.00  0.00     0.402 A 
ATOM      2  O   UNL     1     181.078 179.890 174.638  1.00  0.00    -0.202 OA
ATOM      3  C   UNL     1     180.293 180.373 175.596  1.00  0.00     0.368 A 
ATOM      4  C   UNL     1     179.075 180.961 175.244  1.00  0.00     0.162 A 
ATOM      5  C   UNL     1     178.233 181.479 176.228  1.00  0.00     0.128 A 
ATOM      6  C   UNL     1     178.609 181.410 177.574  1.00  0.00     0.093 A 
ATOM      7  C   UNL     1     179.824 180.827 177.953  1.00  0.00     0.136 A 
ATOM      8  C   UNL     1     180.683 180.296 176.954  1.00  0.00     0.125 A 
ATOM      9  C   UNL     1     181.913 179.682 177.241  1.00  0.00     0.078 A 
ATOM     10  C   UNL     1     182.703 179.179 176.204  1.00  0.00     0.223 A 
ENDROOT
BRANCH   1  11
ATOM     11  C   UNL     1     183.043 178.827 173.724  1.00  0.00     0.091 A 
ATOM     12  C   UNL     1     182.849 177.538 173.199  1.00  0.00     0.068 A 
ATOM     13  C   UNL     1     183.623 177.084 172.122  1.00  0.00     0.162 A 
ATOM     14  C   UNL     1     184.046 179.642 173.177  1.00  0.00     0.068 A 
ATOM     15  C   UNL     1     184.606 177.912 171.567  1.00  0.00     0.200 A 
ATOM     16  C   UNL     1     184.822 179.194 172.099  1.00  0.00     0.162 A 
BRANCH  13  17
ATOM     17  O   UNL     1     183.422 175.807 171.599  1.00  0.00    -0.504 OA
ATOM     18  H   UNL     1     183.948 175.008 171.934  1.00  0.00     0.293 HD
ENDBRANCH  13  17
BRANCH  15  19
ATOM     19  O   UNL     1     185.364 177.445 170.492  1.00  0.00    -0.502 OA
ATOM     20  H   UNL     1     185.628 176.473 170.400  1.00  0.00     0.293 HD
ENDBRANCH  15  19
BRANCH  16  21
ATOM     21  O   UNL     1     185.806 180.019 171.554  1.00  0.00    -0.504 OA
ATOM     22  H   UNL     1     186.011 180.931 171.947  1.00  0.00     0.293 HD
ENDBRANCH  16  21
ENDBRANCH   1  11
BRANCH  10  23
ATOM     23  O   UNL     1     183.902 178.523 176.492  1.00  0.00    -0.500 OA
ATOM     24  H   UNL     1     184.318 178.555 177.415  1.00  0.00     0.294 HD
ENDBRANCH  10  23
BRANCH   5  25
ATOM     25  O   UNL     1     177.022 182.061 175.858  1.00  0.00    -0.507 OA
ATOM     26  H   UNL     1     176.499 181.729 175.057  1.00  0.00     0.293 HD
ENDBRANCH   5  25
BRANCH   7  27
ATOM     27  O   UNL     1     180.129 180.799 179.316  1.00  0.00    -0.507 OA
ATOM     28  H   UNL     1     179.488 181.065 180.050  1.00  0.00     0.293 HD
ENDBRANCH   7  27
TORSDOF 7
ENDMDL
MODEL 3
REMARK VINA RESULT:    -6.374      3.031      6.791
REMARK INTER + INTRA:          -8.114
REMARK INTER:                  -7.729
REMARK INTRA:                  -0.384
REMARK UNBOUND:                -0.249
REMARK SMILES Oc1cc(O)c2cc(O)c(-c3cc(O)c(O)c(O)c3)[o+]c2c1
REMARK SMILES IDX 10 1 20 2 21 3 22 4 2 5 3 6 4 7 6 8 7 9 8 10 11 11 12 12
REMARK SMILES IDX 13 13 19 14 15 15 17 16 14 17 16 19 18 21 9 23 1 25 5 27
REMARK H PARENT 14 18 16 20 18 22 9 24 1 26 5 28
REMARK Flexibility Score: inf
ROOT
ATOM      1  C   UNL     1     182.259 179.335 174.855  1.00  0.00     0.402 A 
ATOM      2  O   UNL     1     181.083 179.895 174.585  1.00  0.00    -0.202 OA
ATOM      3  C   UNL     1     180.277 180.385 175.521  1.00  0.00     0.368 A 
ATOM      4  C   UNL     1     179.061 180.959 175.139  1.00  0.00     0.162 A 
ATOM      5  C   UNL     1     178.197 181.484 176.099  1.00  0.00     0.128 A 
ATOM      6  C   UNL     1     178.547 181.437 177.452  1.00  0.00     0.093 A 
ATOM      7  C   UNL     1     179.760 180.869 177.862  1.00  0.00     0.136 A 
ATOM      8  C   UNL     1     180.641 180.331 176.888  1.00  0.00     0.125 A 
ATOM      9  C   UNL     1     181.870 179.730 177.207  1.00  0.00     0.078 A 
ATOM     10  C   UNL     1     182.684 179.218 176.193  1.00  0.00     0.223 A 
ENDROOT
BRANCH   1  11
ATOM     11  C   UNL     1     183.073 178.834 173.724  1.00  0.00     0.091 A 
ATOM     12  C   UNL     1     184.019 179.652 173.083  1.00  0.00     0.068 A 
ATOM     13  C   UNL     1     184.762 179.165 171.999  1.00  0.00     0.162 A 
ATOM     14  C   UNL     1     182.857 177.533 173.243  1.00  0.00     0.068 A 
ATOM     15  C   UNL     1     184.558 177.859 171.538  1.00  0.00     0.200 A 
ATOM     16  C   UNL     1     183.599 177.041 172.159  1.00  0.00     0.162 A 
BRANCH  13  17
ATOM     17  O   UNL     1     185.705 179.978 171.371  1.00  0.00    -0.504 OA
ATOM     18  H   UNL     1     186.689 179.739 171.360  1.00  0.00     0.293 HD
ENDBRANCH  13  17
BRANCH  15  19
ATOM     19  O   UNL     1     185.310 177.390 170.461  1.00  0.00    -0.502 OA
ATOM     20  H   UNL     1     185.211 176.449 170.102  1.00  0.00     0.293 HD
ENDBRANCH  15  19
BRANCH  16  21
ATOM     21  O   UNL     1     183.387 175.742 171.699  1.00  0.00    -0.504 OA
ATOM     22  H   UNL     1     183.834 175.397 170.856  1.00  0.00     0.293 HD
ENDBRANCH  16  21
ENDBRANCH   1  11
BRANCH  10  23
ATOM     23  O   UNL     1     183.881 178.576 176.512  1.00  0.00    -0.500 OA
ATOM     24  H   UNL     1     184.773 178.911 176.167  1.00  0.00     0.294 HD
ENDBRANCH  10  23
BRANCH   5  25
ATOM     25  O   UNL     1     176.989 182.052 175.698  1.00  0.00    -0.507 OA
ATOM     26  H   UNL     1     176.724 182.098 174.721  1.00  0.00     0.293 HD
ENDBRANCH   5  25
BRANCH   7  27
ATOM     27  O   UNL     1     180.039 180.864 179.232  1.00  0.00    -0.507 OA
ATOM     28  H   UNL     1     179.364 180.648 179.951  1.00  0.00     0.293 HD
ENDBRANCH   7  27
TORSDOF 7
ENDMDL
MODEL 4
REMARK VINA RESULT:    -6.350      3.641      6.540
REMARK INTER + INTRA:          -8.083
REMARK INTER:                  -7.772
REMARK INTRA:                  -0.311
REMARK UNBOUND:                -0.249
REMARK SMILES Oc1cc(O)c2cc(O)c(-c3cc(O)c(O)c(O)c3)[o+]c2c1
REMARK SMILES IDX 10 1 20 2 21 3 22 4 2 5 3 6 4 7 6 8 7 9 8 10 11 11 12 12
REMARK SMILES IDX 13 13 19 14 15 15 17 16 14 17 16 19 18 21 9 23 1 25 5 27
REMARK H PARENT 14 18 16 20 18 22 9 24 1 26 5 28
REMARK Flexibility Score: inf
ROOT
ATOM      1  C   UNL     1     180.670 178.509 174.573  1.00  0.00     0.402 A 
ATOM      2  O   UNL     1     181.107 178.634 175.823  1.00  0.00    -0.202 OA
ATOM      3  C   UNL     1     180.547 179.446 176.714  1.00  0.00     0.368 A 
ATOM      4  C   UNL     1     181.077 179.507 178.006  1.00  0.00     0.162 A 
ATOM      5  C   UNL     1     180.507 180.347 178.963  1.00  0.00     0.128 A 
ATOM      6  C   UNL     1     179.400 181.134 178.628  1.00  0.00     0.093 A 
ATOM      7  C   UNL     1     178.849 181.091 177.341  1.00  0.00     0.136 A 
ATOM      8  C   UNL     1     179.428 180.239 176.364  1.00  0.00     0.125 A 
ATOM      9  C   UNL     1     178.952 180.141 175.047  1.00  0.00     0.078 A 
ATOM     10  C   UNL     1     179.576 179.282 174.138  1.00  0.00     0.223 A 
ENDROOT
BRANCH   1  11
ATOM     11  C   UNL     1     181.372 177.563 173.676  1.00  0.00     0.091 A 
ATOM     12  C   UNL     1     180.770 176.363 173.261  1.00  0.00     0.068 A 
ATOM     13  C   UNL     1     181.462 175.471 172.430  1.00  0.00     0.162 A 
ATOM     14  C   UNL     1     182.689 177.841 173.277  1.00  0.00     0.068 A 
ATOM     15  C   UNL     1     182.767 175.764 172.017  1.00  0.00     0.200 A 
ATOM     16  C   UNL     1     183.385 176.952 172.445  1.00  0.00     0.162 A 
BRANCH  13  17
ATOM     17  O   UNL     1     180.858 174.285 172.014  1.00  0.00    -0.504 OA
ATOM     18  H   UNL     1     181.062 173.400 172.463  1.00  0.00     0.293 HD
ENDBRANCH  13  17
BRANCH  15  19
ATOM     19  O   UNL     1     183.438 174.867 171.187  1.00  0.00    -0.502 OA
ATOM     20  H   UNL     1     184.424 174.666 171.295  1.00  0.00     0.293 HD
ENDBRANCH  15  19
BRANCH  16  21
ATOM     21  O   UNL     1     184.687 177.245 172.043  1.00  0.00    -0.504 OA
ATOM     22  H   UNL     1     185.047 176.941 171.145  1.00  0.00     0.293 HD
ENDBRANCH  16  21
ENDBRANCH   1  11
BRANCH  10  23
ATOM     23  O   UNL     1     179.137 179.222 172.815  1.00  0.00    -0.500 OA
ATOM     24  H   UNL     1     179.731 178.872 172.072  1.00  0.00     0.294 HD
ENDBRANCH  10  23
BRANCH   5  25
ATOM     25  O   UNL     1     181.050 180.394 180.245  1.00  0.00    -0.507 OA
ATOM     26  H   UNL     1     181.042 179.584 180.853  1.00  0.00     0.293 HD
ENDBRANCH   5  25
BRANCH   7  27
ATOM     27  O   UNL     1     177.741 181.904 177.087  1.00  0.00    -0.507 OA
ATOM     28  H   UNL     1     177.493 182.718 177.631  1.00  0.00     0.293 HD
ENDBRANCH   7  27
TORSDOF 7
ENDMDL
MODEL 5
REMARK VINA RESULT:    -6.334      1.186      3.136
REMARK INTER + INTRA:          -8.063
REMARK INTER:                  -7.747
REMARK INTRA:                  -0.316
REMARK UNBOUND:                -0.249
REMARK SMILES Oc1cc(O)c2cc(O)c(-c3cc(O)c(O)c(O)c3)[o+]c2c1
REMARK SMILES IDX 10 1 20 2 21 3 22 4 2 5 3 6 4 7 6 8 7 9 8 10 11 11 12 12
REMARK SMILES IDX 13 13 19 14 15 15 17 16 14 17 16 19 18 21 9 23 1 25 5 27
REMARK H PARENT 14 18 16 20 18 22 9 24 1 26 5 28
REMARK Flexibility Score: inf
ROOT
ATOM      1  C   UNL     1     180.064 182.184 174.540  1.00  0.00     0.402 A 
ATOM      2  O   UNL     1     179.641 182.028 175.792  1.00  0.00    -0.202 OA
ATOM      3  C   UNL     1     180.225 181.212 176.663  1.00  0.00     0.368 A 
ATOM      4  C   UNL     1     179.708 181.119 177.958  1.00  0.00     0.162 A 
ATOM      5  C   UNL     1     180.303 180.273 178.895  1.00  0.00     0.128 A 
ATOM      6  C   UNL     1     181.422 179.514 178.537  1.00  0.00     0.093 A 
ATOM      7  C   UNL     1     181.960 179.590 177.246  1.00  0.00     0.136 A 
ATOM      8  C   UNL     1     181.355 180.447 176.289  1.00  0.00     0.125 A 
ATOM      9  C   UNL     1     181.817 180.577 174.969  1.00  0.00     0.078 A 
ATOM     10  C   UNL     1     181.167 181.439 174.082  1.00  0.00     0.223 A 
ENDROOT
BRANCH   1  11
ATOM     11  C   UNL     1     179.335 183.131 173.666  1.00  0.00     0.091 A 
ATOM     12  C   UNL     1     179.904 184.355 173.277  1.00  0.00     0.068 A 
ATOM     13  C   UNL     1     179.187 185.248 172.469  1.00  0.00     0.162 A 
ATOM     14  C   UNL     1     178.025 182.828 173.263  1.00  0.00     0.068 A 
ATOM     15  C   UNL     1     177.889 184.930 172.051  1.00  0.00     0.200 A 
ATOM     16  C   UNL     1     177.304 183.717 172.453  1.00  0.00     0.162 A 
BRANCH  13  17
ATOM     17  O   UNL     1     179.759 186.459 172.079  1.00  0.00    -0.504 OA
ATOM     18  H   UNL     1     179.283 187.342 172.223  1.00  0.00     0.293 HD
ENDBRANCH  13  17
BRANCH  15  19
ATOM     19  O   UNL     1     177.193 185.829 171.243  1.00  0.00    -0.502 OA
ATOM     20  H   UNL     1     176.432 186.394 171.596  1.00  0.00     0.293 HD
ENDBRANCH  15  19
BRANCH  16  21
ATOM     21  O   UNL     1     176.009 183.399 172.046  1.00  0.00    -0.504 OA
ATOM     22  H   UNL     1     175.255 184.076 172.095  1.00  0.00     0.293 HD
ENDBRANCH  16  21
ENDBRANCH   1  11
BRANCH  10  23
ATOM     23  O   UNL     1     181.593 181.531 172.756  1.00  0.00    -0.500 OA
ATOM     24  H   UNL     1     180.935 181.580 171.987  1.00  0.00     0.294 HD
ENDBRANCH  10  23
BRANCH   5  25
ATOM     25  O   UNL     1     179.773 180.194 180.182  1.00  0.00    -0.507 OA
ATOM     26  H   UNL     1     179.774 179.325 180.702  1.00  0.00     0.293 HD
ENDBRANCH   5  25
BRANCH   7  27
ATOM     27  O   UNL     1     183.081 178.803 176.968  1.00  0.00    -0.507 OA
ATOM     28  H   UNL     1     183.373 178.535 176.039  1.00  0.00     0.293 HD
ENDBRANCH   7  27
TORSDOF 7
ENDMDL
MODEL 6
REMARK VINA RESULT:    -6.311      1.018      2.253
REMARK INTER + INTRA:          -8.036
REMARK INTER:                  -7.660
REMARK INTRA:                  -0.376
REMARK UNBOUND:                -0.249
REMARK SMILES Oc1cc(O)c2cc(O)c(-c3cc(O)c(O)c(O)c3)[o+]c2c1
REMARK SMILES IDX 10 1 20 2 21 3 22 4 2 5 3 6 4 7 6 8 7 9 8 10 11 11 12 12
REMARK SMILES IDX 13 13 19 14 15 15 17 16 14 17 16 19 18 21 9 23 1 25 5 27
REMARK H PARENT 14 18 16 20 18 22 9 24 1 26 5 28
REMARK Flexibility Score: inf
ROOT
ATOM      1  C   UNL     1     178.525 181.409 174.882  1.00  0.00     0.402 A 
ATOM      2  O   UNL     1     179.700 180.841 174.624  1.00  0.00    -0.202 OA
ATOM      3  C   UNL     1     180.486 180.329 175.566  1.00  0.00     0.368 A 
ATOM      4  C   UNL     1     181.703 179.750 175.196  1.00  0.00     0.162 A 
ATOM      5  C   UNL     1     182.546 179.203 176.163  1.00  0.00     0.128 A 
ATOM      6  C   UNL     1     182.173 179.234 177.511  1.00  0.00     0.093 A 
ATOM      7  C   UNL     1     180.959 179.808 177.909  1.00  0.00     0.136 A 
ATOM      8  C   UNL     1     180.099 180.368 176.927  1.00  0.00     0.125 A 
ATOM      9  C   UNL     1     178.871 180.976 177.234  1.00  0.00     0.078 A 
ATOM     10  C   UNL     1     178.079 181.510 176.214  1.00  0.00     0.223 A 
ENDROOT
BRANCH   1  11
ATOM     11  C   UNL     1     177.736 181.933 173.745  1.00  0.00     0.091 A 
ATOM     12  C   UNL     1     177.930 183.237 173.258  1.00  0.00     0.068 A 
ATOM     13  C   UNL     1     177.155 183.723 172.196  1.00  0.00     0.162 A 
ATOM     14  C   UNL     1     176.732 181.135 173.176  1.00  0.00     0.068 A 
ATOM     15  C   UNL     1     176.170 182.912 171.618  1.00  0.00     0.200 A 
ATOM     16  C   UNL     1     175.955 181.615 172.112  1.00  0.00     0.162 A 
BRANCH  13  17
ATOM     17  O   UNL     1     177.356 185.015 171.711  1.00  0.00    -0.504 OA
ATOM     18  H   UNL     1     178.220 185.516 171.880  1.00  0.00     0.293 HD
ENDBRANCH  13  17
BRANCH  15  19
ATOM     19  O   UNL     1     175.412 183.411 170.558  1.00  0.00    -0.502 OA
ATOM     20  H   UNL     1     174.430 183.635 170.656  1.00  0.00     0.293 HD
ENDBRANCH  15  19
BRANCH  16  21
ATOM     21  O   UNL     1     174.970 180.807 171.544  1.00  0.00    -0.504 OA
ATOM     22  H   UNL     1     174.150 181.203 171.099  1.00  0.00     0.293 HD
ENDBRANCH  16  21
ENDBRANCH   1  11
BRANCH  10  23
ATOM     23  O   UNL     1     176.883 182.159 176.522  1.00  0.00    -0.500 OA
ATOM     24  H   UNL     1     176.462 182.829 175.888  1.00  0.00     0.294 HD
ENDBRANCH  10  23
BRANCH   5  25
ATOM     25  O   UNL     1     183.755 178.630 175.774  1.00  0.00    -0.507 OA
ATOM     26  H   UNL     1     184.436 178.317 176.456  1.00  0.00     0.293 HD
ENDBRANCH   5  25
BRANCH   7  27
ATOM     27  O   UNL     1     180.656 179.796 179.273  1.00  0.00    -0.507 OA
ATOM     28  H   UNL     1     179.977 180.401 179.712  1.00  0.00     0.293 HD
ENDBRANCH   7  27
TORSDOF 7
ENDMDL
MODEL 7
REMARK VINA RESULT:    -6.215      3.916      6.765
REMARK INTER + INTRA:          -7.917
REMARK INTER:                  -7.545
REMARK INTRA:                  -0.372
REMARK UNBOUND:                -0.249
REMARK SMILES Oc1cc(O)c2cc(O)c(-c3cc(O)c(O)c(O)c3)[o+]c2c1
REMARK SMILES IDX 10 1 20 2 21 3 22 4 2 5 3 6 4 7 6 8 7 9 8 10 11 11 12 12
REMARK SMILES IDX 13 13 19 14 15 15 17 16 14 17 16 19 18 21 9 23 1 25 5 27
REMARK H PARENT 14 18 16 20 18 22 9 24 1 26 5 28
REMARK Flexibility Score: inf
ROOT
ATOM      1  C   UNL     1     181.664 178.810 175.096  1.00  0.00     0.402 A 
ATOM      2  O   UNL     1     181.095 177.707 174.618  1.00  0.00    -0.202 OA
ATOM      3  C   UNL     1     181.578 177.027 173.582  1.00  0.00     0.368 A 
ATOM      4  C   UNL     1     180.911 175.877 173.154  1.00  0.00     0.162 A 
ATOM      5  C   UNL     1     181.396 175.142 172.072  1.00  0.00     0.128 A 
ATOM      6  C   UNL     1     182.557 175.558 171.412  1.00  0.00     0.093 A 
ATOM      7  C   UNL     1     183.245 176.708 171.821  1.00  0.00     0.136 A 
ATOM      8  C   UNL     1     182.752 177.459 172.920  1.00  0.00     0.125 A 
ATOM      9  C   UNL     1     183.367 178.631 173.392  1.00  0.00     0.078 A 
ATOM     10  C   UNL     1     182.821 179.321 174.478  1.00  0.00     0.223 A 
ENDROOT
BRANCH   1  11
ATOM     11  C   UNL     1     181.036 179.473 176.262  1.00  0.00     0.091 A 
ATOM     12  C   UNL     1     181.526 179.280 177.565  1.00  0.00     0.068 A 
ATOM     13  C   UNL     1     180.903 179.899 178.658  1.00  0.00     0.162 A 
ATOM     14  C   UNL     1     179.894 180.265 176.072  1.00  0.00     0.068 A 
ATOM     15  C   UNL     1     179.776 180.707 178.459  1.00  0.00     0.200 A 
ATOM     16  C   UNL     1     179.267 180.888 177.161  1.00  0.00     0.162 A 
BRANCH  13  17
ATOM     17  O   UNL     1     181.396 179.711 179.948  1.00  0.00    -0.504 OA
ATOM     18  H   UNL     1     181.262 180.405 180.675  1.00  0.00     0.293 HD
ENDBRANCH  13  17
BRANCH  15  19
ATOM     19  O   UNL     1     179.172 181.318 179.558  1.00  0.00    -0.502 OA
ATOM     20  H   UNL     1     178.194 181.182 179.781  1.00  0.00     0.293 HD
ENDBRANCH  15  19
BRANCH  16  21
ATOM     21  O   UNL     1     178.141 181.685 176.959  1.00  0.00    -0.504 OA
ATOM     22  H   UNL     1     178.162 182.685 177.124  1.00  0.00     0.293 HD
ENDBRANCH  16  21
ENDBRANCH   1  11
BRANCH  10  23
ATOM     23  O   UNL     1     183.402 180.512 174.915  1.00  0.00    -0.500 OA
ATOM     24  H   UNL     1     184.019 181.052 174.320  1.00  0.00     0.294 HD
ENDBRANCH  10  23
BRANCH   5  25
ATOM     25  O   UNL     1     180.717 173.997 171.660  1.00  0.00    -0.507 OA
ATOM     26  H   UNL     1     181.205 173.128 171.480  1.00  0.00     0.293 HD
ENDBRANCH   5  25
BRANCH   7  27
ATOM     27  O   UNL     1     184.398 177.056 171.113  1.00  0.00    -0.507 OA
ATOM     28  H   UNL     1     185.133 176.409 170.866  1.00  0.00     0.293 HD
ENDBRANCH   7  27
TORSDOF 7
ENDMDL
MODEL 8
REMARK VINA RESULT:    -6.173      1.331      7.007
REMARK INTER + INTRA:          -7.865
REMARK INTER:                  -7.505
REMARK INTRA:                  -0.360
REMARK UNBOUND:                -0.249
REMARK SMILES Oc1cc(O)c2cc(O)c(-c3cc(O)c(O)c(O)c3)[o+]c2c1
REMARK SMILES IDX 10 1 20 2 21 3 22 4 2 5 3 6 4 7 6 8 7 9 8 10 11 11 12 12
REMARK SMILES IDX 13 13 19 14 15 15 17 16 14 17 16 19 18 21 9 23 1 25 5 27
REMARK H PARENT 14 18 16 20 18 22 9 24 1 26 5 28
REMARK Flexibility Score: inf
ROOT
ATOM      1  C   UNL     1     179.124 181.908 175.121  1.00  0.00     0.402 A 
ATOM      2  O   UNL     1     179.670 183.019 174.634  1.00  0.00    -0.202 OA
ATOM      3  C   UNL     1     179.175 183.680 173.592  1.00  0.00     0.368 A 
ATOM      4  C   UNL     1     179.819 184.841 173.157  1.00  0.00     0.162 A 
ATOM      5  C   UNL     1     179.321 185.557 172.068  1.00  0.00     0.128 A 
ATOM      6  C   UNL     1     178.170 185.111 171.408  1.00  0.00     0.093 A 
ATOM      7  C   UNL     1     177.506 183.951 171.826  1.00  0.00     0.136 A 
ATOM      8  C   UNL     1     178.012 183.218 172.932  1.00  0.00     0.125 A 
ATOM      9  C   UNL     1     177.420 182.038 173.411  1.00  0.00     0.078 A 
ATOM     10  C   UNL     1     177.978 181.368 174.503  1.00  0.00     0.223 A 
ENDROOT
BRANCH   1  11
ATOM     11  C   UNL     1     179.762 181.267 176.293  1.00  0.00     0.091 A 
ATOM     12  C   UNL     1     180.862 180.405 176.148  1.00  0.00     0.068 A 
ATOM     13  C   UNL     1     181.437 179.791 177.269  1.00  0.00     0.162 A 
ATOM     14  C   UNL     1     179.224 181.478 177.571  1.00  0.00     0.068 A 
ATOM     15  C   UNL     1     180.909 180.023 178.544  1.00  0.00     0.200 A 
ATOM     16  C   UNL     1     179.795 180.866 178.697  1.00  0.00     0.162 A 
BRANCH  13  17
ATOM     17  O   UNL     1     182.534 178.942 177.121  1.00  0.00    -0.504 OA
ATOM     18  H   UNL     1     183.458 179.300 176.912  1.00  0.00     0.293 HD
ENDBRANCH  13  17
BRANCH  15  19
ATOM     19  O   UNL     1     181.497 179.406 179.649  1.00  0.00    -0.502 OA
ATOM     20  H   UNL     1     182.475 179.529 179.878  1.00  0.00     0.293 HD
ENDBRANCH  15  19
BRANCH  16  21
ATOM     21  O   UNL     1     179.261 181.095 179.964  1.00  0.00    -0.504 OA
ATOM     22  H   UNL     1     178.525 180.510 180.343  1.00  0.00     0.293 HD
ENDBRANCH  16  21
ENDBRANCH   1  11
BRANCH  10  23
ATOM     23  O   UNL     1     177.422 180.168 174.949  1.00  0.00    -0.500 OA
ATOM     24  H   UNL     1     176.815 179.612 174.358  1.00  0.00     0.294 HD
ENDBRANCH  10  23
BRANCH   5  25
ATOM     25  O   UNL     1     179.977 186.712 171.648  1.00  0.00    -0.507 OA
ATOM     26  H   UNL     1     179.515 187.401 171.066  1.00  0.00     0.293 HD
ENDBRANCH   5  25
BRANCH   7  27
ATOM     27  O   UNL     1     176.362 183.573 171.117  1.00  0.00    -0.507 OA
ATOM     28  H   UNL     1     175.623 184.206 170.848  1.00  0.00     0.293 HD
ENDBRANCH   7  27
TORSDOF 7
ENDMDL
MODEL 9
REMARK VINA RESULT:    -6.034      2.061      7.150
REMARK INTER + INTRA:          -7.693
REMARK INTER:                  -7.359
REMARK INTRA:                  -0.334
REMARK UNBOUND:                -0.249
REMARK SMILES Oc1cc(O)c2cc(O)c(-c3cc(O)c(O)c(O)c3)[o+]c2c1
REMARK SMILES IDX 10 1 20 2 21 3 22 4 2 5 3 6 4 7 6 8 7 9 8 10 11 11 12 12
REMARK SMILES IDX 13 13 19 14 15 15 17 16 14 17 16 19 18 21 9 23 1 25 5 27
REMARK H PARENT 14 18 16 20 18 22 9 24 1 26 5 28
REMARK Flexibility Score: inf
ROOT
ATOM      1  C   UNL     1     177.793 180.861 174.384  1.00  0.00     0.402 A 
ATOM      2  O   UNL     1     177.916 181.973 173.664  1.00  0.00    -0.202 OA
ATOM      3  C   UNL     1     177.139 182.260 172.624  1.00  0.00     0.368 A 
ATOM      4  C   UNL     1     177.344 183.456 171.932  1.00  0.00     0.162 A 
ATOM      5  C   UNL     1     176.541 183.784 170.839  1.00  0.00     0.128 A 
ATOM      6  C   UNL     1     175.526 182.911 170.434  1.00  0.00     0.093 A 
ATOM      7  C   UNL     1     175.299 181.707 171.111  1.00  0.00     0.136 A 
ATOM      8  C   UNL     1     176.116 181.368 172.222  1.00  0.00     0.125 A 
ATOM      9  C   UNL     1     175.971 180.177 172.951  1.00  0.00     0.078 A 
ATOM     10  C   UNL     1     176.816 179.910 174.032  1.00  0.00     0.223 A 
ENDROOT
BRANCH   1  11
ATOM     11  C   UNL     1     178.713 180.660 175.526  1.00  0.00     0.091 A 
ATOM     12  C   UNL     1     179.817 179.796 175.433  1.00  0.00     0.068 A 
ATOM     13  C   UNL     1     180.663 179.601 176.535  1.00  0.00     0.162 A 
ATOM     14  C   UNL     1     178.447 181.299 176.746  1.00  0.00     0.068 A 
ATOM     15  C   UNL     1     180.404 180.260 177.743  1.00  0.00     0.200 A 
ATOM     16  C   UNL     1     179.290 181.109 177.851  1.00  0.00     0.162 A 
BRANCH  13  17
ATOM     17  O   UNL     1     181.762 178.748 176.436  1.00  0.00    -0.504 OA
ATOM     18  H   UNL     1     181.650 177.757 176.256  1.00  0.00     0.293 HD
ENDBRANCH  13  17
BRANCH  15  19
ATOM     19  O   UNL     1     181.259 180.057 178.827  1.00  0.00    -0.502 OA
ATOM     20  H   UNL     1     180.925 180.046 179.782  1.00  0.00     0.293 HD
ENDBRANCH  15  19
BRANCH  16  21
ATOM     21  O   UNL     1     179.024 181.761 179.054  1.00  0.00    -0.504 OA
ATOM     22  H   UNL     1     178.528 182.645 179.081  1.00  0.00     0.293 HD
ENDBRANCH  16  21
ENDBRANCH   1  11
BRANCH  10  23
ATOM     23  O   UNL     1     176.706 178.704 174.726  1.00  0.00    -0.500 OA
ATOM     24  H   UNL     1     177.514 178.120 174.908  1.00  0.00     0.294 HD
ENDBRANCH  10  23
BRANCH   5  25
ATOM     25  O   UNL     1     176.761 184.981 170.162  1.00  0.00    -0.507 OA
ATOM     26  H   UNL     1     176.039 185.408 169.593  1.00  0.00     0.293 HD
ENDBRANCH   5  25
BRANCH   7  27
ATOM     27  O   UNL     1     174.264 180.891 170.647  1.00  0.00    -0.507 OA
ATOM     28  H   UNL     1     173.368 181.232 170.327  1.00  0.00     0.293 HD
ENDBRANCH   7  27
TORSDOF 7
ENDMDL
