MODEL 1
REMARK VINA RESULT:    -7.524      0.000      0.000
REMARK INTER + INTRA:          -9.130
REMARK INTER:                  -8.843
REMARK INTRA:                  -0.287
REMARK UNBOUND:                -0.287
REMARK SMILES O=c1cc(-c2ccc(O)c(O)c2)oc2cc(O)cc(O)c12
REMARK SMILES IDX 4 1 3 2 2 3 1 4 21 5 19 6 18 7 16 8 15 9 14 10 13 11 5 12
REMARK SMILES IDX 6 13 7 14 8 15 12 16 10 17 9 18 11 20 20 22 17 24
REMARK H PARENT 9 19 11 21 20 23 17 25
REMARK Flexibility Score: inf
ROOT
ATOM      1  C   UNL     1     -18.889  32.486 -22.959  1.00  0.00     0.138 A 
ATOM      2  C   UNL     1     -19.001  33.717 -23.624  1.00  0.00     0.100 A 
ATOM      3  C   UNL     1     -20.153  34.487 -23.452  1.00  0.00     0.197 A 
ATOM      4  O   UNL     1     -20.245  35.592 -24.052  1.00  0.00    -0.289 OA
ATOM      5  C   UNL     1     -21.183  34.020 -22.612  1.00  0.00     0.107 A 
ATOM      6  C   UNL     1     -22.382  34.737 -22.384  1.00  0.00     0.134 A 
ATOM      7  C   UNL     1     -23.358  34.205 -21.528  1.00  0.00     0.093 A 
ATOM      8  C   UNL     1     -23.156  32.972 -20.896  1.00  0.00     0.123 A 
ATOM      9  C   UNL     1     -21.975  32.262 -21.119  1.00  0.00     0.094 A 
ATOM     10  C   UNL     1     -20.991  32.774 -21.969  1.00  0.00     0.146 A 
ATOM     11  O   UNL     1     -19.876  32.077 -22.165  1.00  0.00    -0.456 OA
ENDROOT
BRANCH   1  12
ATOM     12  C   UNL     1     -17.688  31.624 -23.103  1.00  0.00     0.021 A 
ATOM     13  C   UNL     1     -17.293  30.802 -22.033  1.00  0.00     0.016 A 
ATOM     14  C   UNL     1     -16.171  29.978 -22.146  1.00  0.00     0.051 A 
ATOM     15  C   UNL     1     -15.429  29.953 -23.333  1.00  0.00     0.157 A 
ATOM     16  C   UNL     1     -16.944  31.585 -24.299  1.00  0.00     0.062 A 
ATOM     17  C   UNL     1     -15.820  30.758 -24.416  1.00  0.00     0.158 A 
BRANCH  15  18
ATOM     18  O   UNL     1     -14.309  29.130 -23.442  1.00  0.00    -0.504 OA
ATOM     19  H   UNL     1     -14.026  28.734 -24.331  1.00  0.00     0.293 HD
ENDBRANCH  15  18
BRANCH  17  20
ATOM     20  O   UNL     1     -15.109  30.747 -25.615  1.00  0.00    -0.504 OA
ATOM     21  H   UNL     1     -15.498  31.113 -26.476  1.00  0.00     0.293 HD
ENDBRANCH  17  20
ENDBRANCH   1  12
BRANCH   6  22
ATOM     22  O   UNL     1     -22.609  35.968 -22.999  1.00  0.00    -0.507 OA
ATOM     23  H   UNL     1     -22.309  36.839 -22.577  1.00  0.00     0.293 HD
ENDBRANCH   6  22
BRANCH   8  24
ATOM     24  O   UNL     1     -24.125  32.443 -20.046  1.00  0.00    -0.508 OA
ATOM     25  H   UNL     1     -23.898  31.730 -19.363  1.00  0.00     0.293 HD
ENDBRANCH   8  24
TORSDOF 5
ENDMDL
MODEL 2
REMARK VINA RESULT:    -7.322      0.855      1.618
REMARK INTER + INTRA:          -8.893
REMARK INTER:                  -8.586
REMARK INTRA:                  -0.308
REMARK UNBOUND:                -0.287
REMARK SMILES O=c1cc(-c2ccc(O)c(O)c2)oc2cc(O)cc(O)c12
REMARK SMILES IDX 4 1 3 2 2 3 1 4 21 5 19 6 18 7 16 8 15 9 14 10 13 11 5 12
REMARK SMILES IDX 6 13 7 14 8 15 12 16 10 17 9 18 11 20 20 22 17 24
REMARK H PARENT 9 19 11 21 20 23 17 25
REMARK Flexibility Score: inf
ROOT
ATOM      1  C   UNL     1     -18.633  32.275 -22.873  1.00  0.00     0.138 A 
ATOM      2  C   UNL     1     -18.606  33.510 -23.541  1.00  0.00     0.100 A 
ATOM      3  C   UNL     1     -19.722  34.347 -23.481  1.00  0.00     0.197 A 
ATOM      4  O   UNL     1     -19.688  35.454 -24.082  1.00  0.00    -0.289 OA
ATOM      5  C   UNL     1     -20.856  33.943 -22.748  1.00  0.00     0.107 A 
ATOM      6  C   UNL     1     -22.026  34.730 -22.637  1.00  0.00     0.134 A 
ATOM      7  C   UNL     1     -23.112  34.258 -21.884  1.00  0.00     0.093 A 
ATOM      8  C   UNL     1     -23.047  33.016 -21.241  1.00  0.00     0.123 A 
ATOM      9  C   UNL     1     -21.894  32.237 -21.348  1.00  0.00     0.094 A 
ATOM     10  C   UNL     1     -20.802  32.689 -22.095  1.00  0.00     0.146 A 
ATOM     11  O   UNL     1     -19.716  31.927 -22.182  1.00  0.00    -0.456 OA
ENDROOT
BRANCH   1  12
ATOM     12  C   UNL     1     -17.476  31.344 -22.901  1.00  0.00     0.021 A 
ATOM     13  C   UNL     1     -16.602  31.360 -24.002  1.00  0.00     0.016 A 
ATOM     14  C   UNL     1     -15.502  30.499 -24.049  1.00  0.00     0.051 A 
ATOM     15  C   UNL     1     -15.252  29.615 -22.993  1.00  0.00     0.157 A 
ATOM     16  C   UNL     1     -17.210  30.462 -21.835  1.00  0.00     0.062 A 
ATOM     17  C   UNL     1     -16.108  29.599 -21.879  1.00  0.00     0.158 A 
BRANCH  15  18
ATOM     18  O   UNL     1     -14.154  28.756 -23.043  1.00  0.00    -0.504 OA
ATOM     19  H   UNL     1     -14.242  27.801 -23.372  1.00  0.00     0.293 HD
ENDBRANCH  15  18
BRANCH  17  20
ATOM     20  O   UNL     1     -15.878  28.739 -20.807  1.00  0.00    -0.504 OA
ATOM     21  H   UNL     1     -16.635  28.295 -20.300  1.00  0.00     0.293 HD
ENDBRANCH  17  20
ENDBRANCH   1  12
BRANCH   6  22
ATOM     22  O   UNL     1     -22.119  35.971 -23.267  1.00  0.00    -0.507 OA
ATOM     23  H   UNL     1     -22.398  36.058 -24.237  1.00  0.00     0.293 HD
ENDBRANCH   6  22
BRANCH   8  24
ATOM     24  O   UNL     1     -24.125  32.547 -20.493  1.00  0.00    -0.508 OA
ATOM     25  H   UNL     1     -24.849  31.974 -20.909  1.00  0.00     0.293 HD
ENDBRANCH   8  24
TORSDOF 5
ENDMDL
MODEL 3
REMARK VINA RESULT:    -7.319      3.456      4.123
REMARK INTER + INTRA:          -8.889
REMARK INTER:                  -8.581
REMARK INTRA:                  -0.309
REMARK UNBOUND:                -0.287
REMARK SMILES O=c1cc(-c2ccc(O)c(O)c2)oc2cc(O)cc(O)c12
REMARK SMILES IDX 4 1 3 2 2 3 1 4 21 5 19 6 18 7 16 8 15 9 14 10 13 11 5 12
REMARK SMILES IDX 6 13 7 14 8 15 12 16 10 17 9 18 11 20 20 22 17 24
REMARK H PARENT 9 19 11 21 20 23 17 25
REMARK Flexibility Score: inf
ROOT
ATOM      1  C   UNL     1     -19.756  33.123 -22.954  1.00  0.00     0.138 A 
ATOM      2  C   UNL     1     -20.163  33.181 -24.296  1.00  0.00     0.100 A 
ATOM      3  C   UNL     1     -21.318  32.503 -24.693  1.00  0.00     0.197 A 
ATOM      4  O   UNL     1     -21.677  32.562 -25.900  1.00  0.00    -0.289 OA
ATOM      5  C   UNL     1     -22.058  31.774 -23.741  1.00  0.00     0.107 A 
ATOM      6  C   UNL     1     -23.237  31.059 -24.059  1.00  0.00     0.134 A 
ATOM      7  C   UNL     1     -23.920  30.362 -23.052  1.00  0.00     0.093 A 
ATOM      8  C   UNL     1     -23.447  30.367 -21.734  1.00  0.00     0.123 A 
ATOM      9  C   UNL     1     -22.284  31.071 -21.417  1.00  0.00     0.094 A 
ATOM     10  C   UNL     1     -21.588  31.771 -22.406  1.00  0.00     0.146 A 
ATOM     11  O   UNL     1     -20.482  32.433 -22.078  1.00  0.00    -0.456 OA
ENDROOT
BRANCH   1  12
ATOM     12  C   UNL     1     -18.538  33.824 -22.474  1.00  0.00     0.021 A 
ATOM     13  C   UNL     1     -17.492  34.090 -23.375  1.00  0.00     0.016 A 
ATOM     14  C   UNL     1     -16.339  34.754 -22.950  1.00  0.00     0.051 A 
ATOM     15  C   UNL     1     -16.215  35.173 -21.620  1.00  0.00     0.157 A 
ATOM     16  C   UNL     1     -18.412  34.260 -21.140  1.00  0.00     0.062 A 
ATOM     17  C   UNL     1     -17.258  34.928 -20.712  1.00  0.00     0.158 A 
BRANCH  15  18
ATOM     18  O   UNL     1     -15.062  35.835 -21.199  1.00  0.00    -0.504 OA
ATOM     19  H   UNL     1     -14.392  35.393 -20.580  1.00  0.00     0.293 HD
ENDBRANCH  15  18
BRANCH  17  20
ATOM     20  O   UNL     1     -17.169  35.343 -19.384  1.00  0.00    -0.504 OA
ATOM     21  H   UNL     1     -16.390  35.894 -19.042  1.00  0.00     0.293 HD
ENDBRANCH  17  20
ENDBRANCH   1  12
BRANCH   6  22
ATOM     22  O   UNL     1     -23.732  31.036 -25.363  1.00  0.00    -0.507 OA
ATOM     23  H   UNL     1     -23.372  31.653 -26.082  1.00  0.00     0.293 HD
ENDBRANCH   6  22
BRANCH   8  24
ATOM     24  O   UNL     1     -24.125  29.675 -20.734  1.00  0.00    -0.508 OA
ATOM     25  H   UNL     1     -24.274  30.080 -19.817  1.00  0.00     0.293 HD
ENDBRANCH   8  24
TORSDOF 5
ENDMDL
MODEL 4
REMARK VINA RESULT:    -7.310      1.969      3.464
REMARK INTER + INTRA:          -8.879
REMARK INTER:                  -8.611
REMARK INTRA:                  -0.268
REMARK UNBOUND:                -0.287
REMARK SMILES O=c1cc(-c2ccc(O)c(O)c2)oc2cc(O)cc(O)c12
REMARK SMILES IDX 4 1 3 2 2 3 1 4 21 5 19 6 18 7 16 8 15 9 14 10 13 11 5 12
REMARK SMILES IDX 6 13 7 14 8 15 12 16 10 17 9 18 11 20 20 22 17 24
REMARK H PARENT 9 19 11 21 20 23 17 25
REMARK Flexibility Score: inf
ROOT
ATOM      1  C   UNL     1     -18.410  31.344 -24.694  1.00  0.00     0.138 A 
ATOM      2  C   UNL     1     -19.553  30.570 -24.436  1.00  0.00     0.100 A 
ATOM      3  C   UNL     1     -20.707  31.190 -23.953  1.00  0.00     0.197 A 
ATOM      4  O   UNL     1     -21.728  30.487 -23.725  1.00  0.00    -0.289 OA
ATOM      5  C   UNL     1     -20.710  32.582 -23.736  1.00  0.00     0.107 A 
ATOM      6  C   UNL     1     -21.834  33.288 -23.248  1.00  0.00     0.134 A 
ATOM      7  C   UNL     1     -21.758  34.676 -23.063  1.00  0.00     0.093 A 
ATOM      8  C   UNL     1     -20.578  35.370 -23.358  1.00  0.00     0.123 A 
ATOM      9  C   UNL     1     -19.466  34.678 -23.840  1.00  0.00     0.094 A 
ATOM     10  C   UNL     1     -19.522  33.294 -24.029  1.00  0.00     0.146 A 
ATOM     11  O   UNL     1     -18.448  32.658 -24.488  1.00  0.00    -0.456 OA
ENDROOT
BRANCH   1  12
ATOM     12  C   UNL     1     -17.155  30.740 -25.210  1.00  0.00     0.021 A 
ATOM     13  C   UNL     1     -17.079  30.346 -26.557  1.00  0.00     0.016 A 
ATOM     14  C   UNL     1     -15.907  29.782 -27.068  1.00  0.00     0.051 A 
ATOM     15  C   UNL     1     -14.789  29.610 -26.244  1.00  0.00     0.157 A 
ATOM     16  C   UNL     1     -16.021  30.576 -24.390  1.00  0.00     0.062 A 
ATOM     17  C   UNL     1     -14.845  30.012 -24.900  1.00  0.00     0.158 A 
BRANCH  15  18
ATOM     18  O   UNL     1     -13.621  29.045 -26.757  1.00  0.00    -0.504 OA
ATOM     19  H   UNL     1     -12.913  29.611 -27.210  1.00  0.00     0.293 HD
ENDBRANCH  15  18
BRANCH  17  20
ATOM     20  O   UNL     1     -13.744  29.865 -24.057  1.00  0.00    -0.504 OA
ATOM     21  H   UNL     1     -13.279  28.974 -23.929  1.00  0.00     0.293 HD
ENDBRANCH  17  20
ENDBRANCH   1  12
BRANCH   6  22
ATOM     22  O   UNL     1     -23.023  32.622 -22.946  1.00  0.00    -0.507 OA
ATOM     23  H   UNL     1     -23.850  32.719 -23.524  1.00  0.00     0.293 HD
ENDBRANCH   6  22
BRANCH   8  24
ATOM     24  O   UNL     1     -20.502  36.749 -23.176  1.00  0.00    -0.508 OA
ATOM     25  H   UNL     1     -21.225  37.258 -22.681  1.00  0.00     0.293 HD
ENDBRANCH   8  24
TORSDOF 5
ENDMDL
MODEL 5
REMARK VINA RESULT:    -7.245      1.180      2.743
REMARK INTER + INTRA:          -8.803
REMARK INTER:                  -8.502
REMARK INTRA:                  -0.302
REMARK UNBOUND:                -0.287
REMARK SMILES O=c1cc(-c2ccc(O)c(O)c2)oc2cc(O)cc(O)c12
REMARK SMILES IDX 4 1 3 2 2 3 1 4 21 5 19 6 18 7 16 8 15 9 14 10 13 11 5 12
REMARK SMILES IDX 6 13 7 14 8 15 12 16 10 17 9 18 11 20 20 22 17 24
REMARK H PARENT 9 19 11 21 20 23 17 25
REMARK Flexibility Score: inf
ROOT
ATOM      1  C   UNL     1     -18.491  31.518 -22.592  1.00  0.00     0.138 A 
ATOM      2  C   UNL     1     -19.484  30.906 -21.812  1.00  0.00     0.100 A 
ATOM      3  C   UNL     1     -20.680  31.583 -21.568  1.00  0.00     0.197 A 
ATOM      4  O   UNL     1     -21.568  31.025 -20.868  1.00  0.00    -0.289 OA
ATOM      5  C   UNL     1     -20.875  32.869 -22.111  1.00  0.00     0.107 A 
ATOM      6  C   UNL     1     -22.055  33.624 -21.912  1.00  0.00     0.134 A 
ATOM      7  C   UNL     1     -22.173  34.896 -22.491  1.00  0.00     0.093 A 
ATOM      8  C   UNL     1     -21.133  35.425 -23.266  1.00  0.00     0.123 A 
ATOM      9  C   UNL     1     -19.967  34.684 -23.464  1.00  0.00     0.094 A 
ATOM     10  C   UNL     1     -19.830  33.415 -22.894  1.00  0.00     0.146 A 
ATOM     11  O   UNL     1     -18.709  32.730 -23.098  1.00  0.00    -0.456 OA
ENDROOT
BRANCH   1  12
ATOM     12  C   UNL     1     -17.199  30.846 -22.885  1.00  0.00     0.021 A 
ATOM     13  C   UNL     1     -16.610  30.023 -21.908  1.00  0.00     0.016 A 
ATOM     14  C   UNL     1     -15.400  29.374 -22.162  1.00  0.00     0.051 A 
ATOM     15  C   UNL     1     -14.762  29.527 -23.399  1.00  0.00     0.157 A 
ATOM     16  C   UNL     1     -16.559  30.984 -24.132  1.00  0.00     0.062 A 
ATOM     17  C   UNL     1     -15.346  30.334 -24.389  1.00  0.00     0.158 A 
BRANCH  15  18
ATOM     18  O   UNL     1     -13.553  28.878 -23.649  1.00  0.00    -0.504 OA
ATOM     19  H   UNL     1     -13.481  28.135 -24.334  1.00  0.00     0.293 HD
ENDBRANCH  15  18
BRANCH  17  20
ATOM     20  O   UNL     1     -14.741  30.496 -25.635  1.00  0.00    -0.504 OA
ATOM     21  H   UNL     1     -14.746  31.383 -26.125  1.00  0.00     0.293 HD
ENDBRANCH  17  20
ENDBRANCH   1  12
BRANCH   6  22
ATOM     22  O   UNL     1     -23.107  33.121 -21.146  1.00  0.00    -0.507 OA
ATOM     23  H   UNL     1     -23.794  33.731 -20.717  1.00  0.00     0.293 HD
ENDBRANCH   6  22
BRANCH   8  24
ATOM     24  O   UNL     1     -21.250  36.688 -23.842  1.00  0.00    -0.508 OA
ATOM     25  H   UNL     1     -22.121  37.205 -23.813  1.00  0.00     0.293 HD
ENDBRANCH   8  24
TORSDOF 5
ENDMDL
MODEL 6
REMARK VINA RESULT:    -7.171      3.207      4.371
REMARK INTER + INTRA:          -8.716
REMARK INTER:                  -8.448
REMARK INTRA:                  -0.268
REMARK UNBOUND:                -0.287
REMARK SMILES O=c1cc(-c2ccc(O)c(O)c2)oc2cc(O)cc(O)c12
REMARK SMILES IDX 4 1 3 2 2 3 1 4 21 5 19 6 18 7 16 8 15 9 14 10 13 11 5 12
REMARK SMILES IDX 6 13 7 14 8 15 12 16 10 17 9 18 11 20 20 22 17 24
REMARK H PARENT 9 19 11 21 20 23 17 25
REMARK Flexibility Score: inf
ROOT
ATOM      1  C   UNL     1     -18.214  31.831 -24.536  1.00  0.00     0.138 A 
ATOM      2  C   UNL     1     -19.375  32.552 -24.855  1.00  0.00     0.100 A 
ATOM      3  C   UNL     1     -19.575  33.815 -24.295  1.00  0.00     0.197 A 
ATOM      4  O   UNL     1     -20.620  34.456 -24.589  1.00  0.00    -0.289 OA
ATOM      5  C   UNL     1     -18.607  34.349 -23.421  1.00  0.00     0.107 A 
ATOM      6  C   UNL     1     -18.732  35.619 -22.809  1.00  0.00     0.134 A 
ATOM      7  C   UNL     1     -17.721  36.081 -21.954  1.00  0.00     0.093 A 
ATOM      8  C   UNL     1     -16.589  35.298 -21.700  1.00  0.00     0.123 A 
ATOM      9  C   UNL     1     -16.462  34.044 -22.301  1.00  0.00     0.094 A 
ATOM     10  C   UNL     1     -17.459  33.565 -23.155  1.00  0.00     0.146 A 
ATOM     11  O   UNL     1     -17.315  32.367 -23.714  1.00  0.00    -0.456 OA
ENDROOT
BRANCH   1  12
ATOM     12  C   UNL     1     -17.947  30.484 -25.102  1.00  0.00     0.021 A 
ATOM     13  C   UNL     1     -17.557  30.364 -26.447  1.00  0.00     0.016 A 
ATOM     14  C   UNL     1     -17.294  29.109 -27.002  1.00  0.00     0.051 A 
ATOM     15  C   UNL     1     -17.407  27.953 -26.220  1.00  0.00     0.157 A 
ATOM     16  C   UNL     1     -18.046  29.318 -24.317  1.00  0.00     0.062 A 
ATOM     17  C   UNL     1     -17.782  28.059 -24.870  1.00  0.00     0.158 A 
BRANCH  15  18
ATOM     18  O   UNL     1     -17.145  26.702 -26.777  1.00  0.00    -0.504 OA
ATOM     19  H   UNL     1     -16.239  26.257 -26.679  1.00  0.00     0.293 HD
ENDBRANCH  15  18
BRANCH  17  20
ATOM     20  O   UNL     1     -17.892  26.928 -24.062  1.00  0.00    -0.504 OA
ATOM     21  H   UNL     1     -17.853  25.989 -24.442  1.00  0.00     0.293 HD
ENDBRANCH  17  20
ENDBRANCH   1  12
BRANCH   6  22
ATOM     22  O   UNL     1     -19.849  36.422 -23.045  1.00  0.00    -0.507 OA
ATOM     23  H   UNL     1     -20.036  37.250 -22.492  1.00  0.00     0.293 HD
ENDBRANCH   6  22
BRANCH   8  24
ATOM     24  O   UNL     1     -15.584  35.756 -20.850  1.00  0.00    -0.508 OA
ATOM     25  H   UNL     1     -14.905  36.443 -21.157  1.00  0.00     0.293 HD
ENDBRANCH   8  24
TORSDOF 5
ENDMDL
MODEL 7
REMARK VINA RESULT:    -7.094      1.906      6.839
REMARK INTER + INTRA:          -8.625
REMARK INTER:                  -8.360
REMARK INTRA:                  -0.265
REMARK UNBOUND:                -0.287
REMARK SMILES O=c1cc(-c2ccc(O)c(O)c2)oc2cc(O)cc(O)c12
REMARK SMILES IDX 4 1 3 2 2 3 1 4 21 5 19 6 18 7 16 8 15 9 14 10 13 11 5 12
REMARK SMILES IDX 6 13 7 14 8 15 12 16 10 17 9 18 11 20 20 22 17 24
REMARK H PARENT 9 19 11 21 20 23 17 25
REMARK Flexibility Score: inf
ROOT
ATOM      1  C   UNL     1     -19.603  32.168 -23.806  1.00  0.00     0.138 A 
ATOM      2  C   UNL     1     -19.416  31.800 -25.148  1.00  0.00     0.100 A 
ATOM      3  C   UNL     1     -18.570  30.733 -25.456  1.00  0.00     0.197 A 
ATOM      4  O   UNL     1     -18.409  30.409 -26.663  1.00  0.00    -0.289 OA
ATOM      5  C   UNL     1     -17.919  30.039 -24.416  1.00  0.00     0.107 A 
ATOM      6  C   UNL     1     -17.046  28.949 -24.640  1.00  0.00     0.134 A 
ATOM      7  C   UNL     1     -16.441  28.307 -23.550  1.00  0.00     0.093 A 
ATOM      8  C   UNL     1     -16.694  28.736 -22.241  1.00  0.00     0.123 A 
ATOM      9  C   UNL     1     -17.555  29.811 -22.016  1.00  0.00     0.094 A 
ATOM     10  C   UNL     1     -18.166  30.464 -23.089  1.00  0.00     0.146 A 
ATOM     11  O   UNL     1     -18.981  31.487 -22.847  1.00  0.00    -0.456 OA
ENDROOT
BRANCH   1  12
ATOM     12  C   UNL     1     -20.491  33.294 -23.419  1.00  0.00     0.021 A 
ATOM     13  C   UNL     1     -21.733  33.020 -22.820  1.00  0.00     0.016 A 
ATOM     14  C   UNL     1     -22.584  34.062 -22.440  1.00  0.00     0.051 A 
ATOM     15  C   UNL     1     -22.205  35.393 -22.644  1.00  0.00     0.157 A 
ATOM     16  C   UNL     1     -20.111  34.637 -23.609  1.00  0.00     0.062 A 
ATOM     17  C   UNL     1     -20.961  35.682 -23.229  1.00  0.00     0.158 A 
BRANCH  15  18
ATOM     18  O   UNL     1     -23.057  36.431 -22.265  1.00  0.00    -0.504 OA
ATOM     19  H   UNL     1     -23.931  36.251 -21.784  1.00  0.00     0.293 HD
ENDBRANCH  15  18
BRANCH  17  20
ATOM     20  O   UNL     1     -20.550  36.999 -23.434  1.00  0.00    -0.504 OA
ATOM     21  H   UNL     1     -19.944  37.482 -22.781  1.00  0.00     0.293 HD
ENDBRANCH  17  20
ENDBRANCH   1  12
BRANCH   6  22
ATOM     22  O   UNL     1     -16.776  28.500 -25.933  1.00  0.00    -0.507 OA
ATOM     23  H   UNL     1     -16.798  27.516 -26.172  1.00  0.00     0.293 HD
ENDBRANCH   6  22
BRANCH   8  24
ATOM     24  O   UNL     1     -16.093  28.098 -21.157  1.00  0.00    -0.508 OA
ATOM     25  H   UNL     1     -16.558  28.029 -20.260  1.00  0.00     0.293 HD
ENDBRANCH   8  24
TORSDOF 5
ENDMDL
MODEL 8
REMARK VINA RESULT:    -7.058      2.648      7.244
REMARK INTER + INTRA:          -8.583
REMARK INTER:                  -8.281
REMARK INTRA:                  -0.303
REMARK UNBOUND:                -0.287
REMARK SMILES O=c1cc(-c2ccc(O)c(O)c2)oc2cc(O)cc(O)c12
REMARK SMILES IDX 4 1 3 2 2 3 1 4 21 5 19 6 18 7 16 8 15 9 14 10 13 11 5 12
REMARK SMILES IDX 6 13 7 14 8 15 12 16 10 17 9 18 11 20 20 22 17 24
REMARK H PARENT 9 19 11 21 20 23 17 25
REMARK Flexibility Score: inf
ROOT
ATOM      1  C   UNL     1     -17.963  31.957 -24.480  1.00  0.00     0.138 A 
ATOM      2  C   UNL     1     -18.203  31.325 -25.710  1.00  0.00     0.100 A 
ATOM      3  C   UNL     1     -17.524  30.144 -26.019  1.00  0.00     0.197 A 
ATOM      4  O   UNL     1     -17.748  29.582 -27.125  1.00  0.00    -0.289 OA
ATOM      5  C   UNL     1     -16.612  29.603 -25.091  1.00  0.00     0.107 A 
ATOM      6  C   UNL     1     -15.883  28.414 -25.326  1.00  0.00     0.134 A 
ATOM      7  C   UNL     1     -14.997  27.937 -24.348  1.00  0.00     0.093 A 
ATOM      8  C   UNL     1     -14.827  28.629 -23.142  1.00  0.00     0.123 A 
ATOM      9  C   UNL     1     -15.544  29.803 -22.908  1.00  0.00     0.094 A 
ATOM     10  C   UNL     1     -16.431  30.294 -23.869  1.00  0.00     0.146 A 
ATOM     11  O   UNL     1     -17.101  31.416 -23.622  1.00  0.00    -0.456 OA
ENDROOT
BRANCH   1  12
ATOM     12  C   UNL     1     -18.655  33.214 -24.097  1.00  0.00     0.021 A 
ATOM     13  C   UNL     1     -19.985  33.423 -24.504  1.00  0.00     0.016 A 
ATOM     14  C   UNL     1     -20.661  34.593 -24.150  1.00  0.00     0.051 A 
ATOM     15  C   UNL     1     -20.024  35.570 -23.376  1.00  0.00     0.157 A 
ATOM     16  C   UNL     1     -18.025  34.195 -23.306  1.00  0.00     0.062 A 
ATOM     17  C   UNL     1     -18.701  35.369 -22.950  1.00  0.00     0.158 A 
BRANCH  15  18
ATOM     18  O   UNL     1     -20.701  36.738 -23.026  1.00  0.00    -0.504 OA
ATOM     19  H   UNL     1     -21.566  37.007 -23.481  1.00  0.00     0.293 HD
ENDBRANCH  15  18
BRANCH  17  20
ATOM     20  O   UNL     1     -18.044  36.318 -22.168  1.00  0.00    -0.504 OA
ATOM     21  H   UNL     1     -18.030  36.266 -21.156  1.00  0.00     0.293 HD
ENDBRANCH  17  20
ENDBRANCH   1  12
BRANCH   6  22
ATOM     22  O   UNL     1     -16.032  27.704 -26.517  1.00  0.00    -0.507 OA
ATOM     23  H   UNL     1     -16.797  27.888 -27.156  1.00  0.00     0.293 HD
ENDBRANCH   6  22
BRANCH   8  24
ATOM     24  O   UNL     1     -13.947  28.156 -22.171  1.00  0.00    -0.508 OA
ATOM     25  H   UNL     1     -12.957  28.368 -22.206  1.00  0.00     0.293 HD
ENDBRANCH   8  24
TORSDOF 5
ENDMDL
MODEL 9
REMARK VINA RESULT:    -7.025      2.808      3.935
REMARK INTER + INTRA:          -8.545
REMARK INTER:                  -8.259
REMARK INTRA:                  -0.286
REMARK UNBOUND:                -0.287
REMARK SMILES O=c1cc(-c2ccc(O)c(O)c2)oc2cc(O)cc(O)c12
REMARK SMILES IDX 4 1 3 2 2 3 1 4 21 5 19 6 18 7 16 8 15 9 14 10 13 11 5 12
REMARK SMILES IDX 6 13 7 14 8 15 12 16 10 17 9 18 11 20 20 22 17 24
REMARK H PARENT 9 19 11 21 20 23 17 25
REMARK Flexibility Score: inf
ROOT
ATOM      1  C   UNL     1     -16.907  31.559 -24.142  1.00  0.00     0.138 A 
ATOM      2  C   UNL     1     -18.127  31.566 -24.836  1.00  0.00     0.100 A 
ATOM      3  C   UNL     1     -19.000  32.645 -24.679  1.00  0.00     0.197 A 
ATOM      4  O   UNL     1     -20.093  32.644 -25.308  1.00  0.00    -0.289 OA
ATOM      5  C   UNL     1     -18.642  33.712 -23.832  1.00  0.00     0.107 A 
ATOM      6  C   UNL     1     -19.467  34.841 -23.616  1.00  0.00     0.134 A 
ATOM      7  C   UNL     1     -19.035  35.865 -22.760  1.00  0.00     0.093 A 
ATOM      8  C   UNL     1     -17.794  35.779 -22.116  1.00  0.00     0.123 A 
ATOM      9  C   UNL     1     -16.978  34.667 -22.325  1.00  0.00     0.094 A 
ATOM     10  C   UNL     1     -17.391  33.636 -23.174  1.00  0.00     0.146 A 
ATOM     11  O   UNL     1     -16.594  32.587 -23.356  1.00  0.00    -0.456 OA
ENDROOT
BRANCH   1  12
ATOM     12  C   UNL     1     -15.940  30.440 -24.270  1.00  0.00     0.021 A 
ATOM     13  C   UNL     1     -15.524  30.028 -25.548  1.00  0.00     0.016 A 
ATOM     14  C   UNL     1     -14.609  28.982 -25.695  1.00  0.00     0.051 A 
ATOM     15  C   UNL     1     -14.088  28.336 -24.567  1.00  0.00     0.157 A 
ATOM     16  C   UNL     1     -15.400  29.795 -23.139  1.00  0.00     0.062 A 
ATOM     17  C   UNL     1     -14.483  28.747 -23.284  1.00  0.00     0.158 A 
BRANCH  15  18
ATOM     18  O   UNL     1     -13.176  27.291 -24.717  1.00  0.00    -0.504 OA
ATOM     19  H   UNL     1     -12.716  27.111 -25.603  1.00  0.00     0.293 HD
ENDBRANCH  15  18
BRANCH  17  20
ATOM     20  O   UNL     1     -13.972  28.132 -22.141  1.00  0.00    -0.504 OA
ATOM     21  H   UNL     1     -13.675  27.163 -22.138  1.00  0.00     0.293 HD
ENDBRANCH  17  20
ENDBRANCH   1  12
BRANCH   6  22
ATOM     22  O   UNL     1     -20.707  34.953 -24.245  1.00  0.00    -0.507 OA
ATOM     23  H   UNL     1     -20.946  34.396 -25.057  1.00  0.00     0.293 HD
ENDBRANCH   6  22
BRANCH   8  24
ATOM     24  O   UNL     1     -17.365  36.796 -21.265  1.00  0.00    -0.508 OA
ATOM     25  H   UNL     1     -16.475  37.260 -21.402  1.00  0.00     0.293 HD
ENDBRANCH   8  24
TORSDOF 5
ENDMDL
