MODEL 1
REMARK VINA RESULT:    -5.435      0.000      0.000
REMARK INTER + INTRA:          -9.921
REMARK INTER:                  -8.612
REMARK INTRA:                  -1.309
REMARK UNBOUND:                -1.309
REMARK SMILES CCCCCCCCCCCC(=O)[O-]
REMARK SMILES IDX 7 1 8 2 9 3 10 4 11 5 12 6 13 7 14 8 6 9 5 10 4 11 3 12 2 13
REMARK SMILES IDX 1 14
REMARK H PARENT
REMARK Flexibility Score: inf
ROOT
ATOM      1  C   UNL     1       8.287  14.765   1.649  1.00  0.00     0.000 C 
ENDROOT
BRANCH   1   2
ATOM      2  C   UNL     1       7.791  14.536   3.088  1.00  0.00     0.000 C 
BRANCH   2   3
ATOM      3  C   UNL     1       7.341  15.838   3.771  1.00  0.00     0.000 C 
BRANCH   3   4
ATOM      4  C   UNL     1       5.851  16.140   3.552  1.00  0.00     0.006 C 
BRANCH   4   5
ATOM      5  C   UNL     1       4.976  15.020   4.124  1.00  0.00     0.053 C 
BRANCH   5   6
ATOM      6  C   UNL     1       3.915  15.587   5.013  1.00  0.00     0.041 C 
ATOM      7  O   UNL     1       4.206  16.468   5.864  1.00  0.00    -0.550 OA
ATOM      8  O   UNL     1       2.595  15.177   4.869  1.00  0.00    -0.550 OA
ENDBRANCH   5   6
ENDBRANCH   4   5
ENDBRANCH   3   4
ENDBRANCH   2   3
ENDBRANCH   1   2
BRANCH   1   9
ATOM      9  C   UNL     1       7.678  13.768   0.650  1.00  0.00     0.000 C 
BRANCH   9  10
ATOM     10  C   UNL     1       6.146  13.675   0.763  1.00  0.00    -0.000 C 
BRANCH  10  11
ATOM     11  C   UNL     1       5.430  14.888   0.142  1.00  0.00    -0.000 C 
BRANCH  11  12
ATOM     12  C   UNL     1       3.951  15.050   0.551  1.00  0.00    -0.000 C 
BRANCH  12  13
ATOM     13  C   UNL     1       3.270  13.763   1.049  1.00  0.00    -0.003 C 
ATOM     14  C   UNL     1       1.851  14.001   1.564  1.00  0.00     0.004 C 
ENDBRANCH  12  13
ENDBRANCH  11  12
ENDBRANCH  10  11
ENDBRANCH   9  10
ENDBRANCH   1   9
TORSDOF 10
ENDMDL
MODEL 2
REMARK VINA RESULT:    -5.425      1.362      2.535
REMARK INTER + INTRA:          -9.906
REMARK INTER:                  -8.932
REMARK INTRA:                  -0.974
REMARK UNBOUND:                -1.309
REMARK SMILES CCCCCCCCCCCC(=O)[O-]
REMARK SMILES IDX 7 1 8 2 9 3 10 4 11 5 12 6 13 7 14 8 6 9 5 10 4 11 3 12 2 13
REMARK SMILES IDX 1 14
REMARK H PARENT
REMARK Flexibility Score: inf
ROOT
ATOM      1  C   UNL     1       6.239  14.435   0.416  1.00  0.00     0.000 C 
ENDROOT
BRANCH   1   2
ATOM      2  C   UNL     1       7.592  13.792   0.767  1.00  0.00     0.000 C 
BRANCH   2   3
ATOM      3  C   UNL     1       8.375  14.600   1.815  1.00  0.00     0.000 C 
BRANCH   3   4
ATOM      4  C   UNL     1       7.737  14.538   3.211  1.00  0.00     0.006 C 
BRANCH   4   5
ATOM      5  C   UNL     1       7.379  15.941   3.712  1.00  0.00     0.053 C 
BRANCH   5   6
ATOM      6  C   UNL     1       5.895  16.121   3.749  1.00  0.00     0.041 C 
ATOM      7  O   UNL     1       5.232  15.719   4.740  1.00  0.00    -0.550 OA
ATOM      8  O   UNL     1       5.248  16.777   2.708  1.00  0.00    -0.550 OA
ENDBRANCH   5   6
ENDBRANCH   4   5
ENDBRANCH   3   4
ENDBRANCH   2   3
ENDBRANCH   1   2
BRANCH   1   9
ATOM      9  C   UNL     1       5.082  13.424   0.443  1.00  0.00     0.000 C 
BRANCH   9  10
ATOM     10  C   UNL     1       4.604  13.108   1.871  1.00  0.00    -0.000 C 
BRANCH  10  11
ATOM     11  C   UNL     1       3.326  13.876   2.254  1.00  0.00    -0.000 C 
BRANCH  11  12
ATOM     12  C   UNL     1       2.246  13.932   1.154  1.00  0.00    -0.000 C 
BRANCH  12  13
ATOM     13  C   UNL     1       0.795  13.866   1.663  1.00  0.00    -0.003 C 
ATOM     14  C   UNL     1       0.585  14.639   2.964  1.00  0.00     0.004 C 
ENDBRANCH  12  13
ENDBRANCH  11  12
ENDBRANCH  10  11
ENDBRANCH   9  10
ENDBRANCH   1   9
TORSDOF 10
ENDMDL
MODEL 3
REMARK VINA RESULT:    -5.403      2.146      4.304
REMARK INTER + INTRA:          -9.870
REMARK INTER:                  -8.701
REMARK INTRA:                  -1.169
REMARK UNBOUND:                -1.309
REMARK SMILES CCCCCCCCCCCC(=O)[O-]
REMARK SMILES IDX 7 1 8 2 9 3 10 4 11 5 12 6 13 7 14 8 6 9 5 10 4 11 3 12 2 13
REMARK SMILES IDX 1 14
REMARK H PARENT
REMARK Flexibility Score: inf
ROOT
ATOM      1  C   UNL     1       5.187  13.168   1.014  1.00  0.00     0.000 C 
ENDROOT
BRANCH   1   2
ATOM      2  C   UNL     1       3.878  13.178   1.824  1.00  0.00     0.000 C 
BRANCH   2   3
ATOM      3  C   UNL     1       2.885  14.241   1.327  1.00  0.00     0.000 C 
BRANCH   3   4
ATOM      4  C   UNL     1       1.422  13.864   1.604  1.00  0.00     0.006 C 
BRANCH   4   5
ATOM      5  C   UNL     1       0.889  14.608   2.832  1.00  0.00     0.053 C 
BRANCH   5   6
ATOM      6  C   UNL     1      -0.528  14.215   3.108  1.00  0.00     0.041 C 
ATOM      7  O   UNL     1      -0.967  14.212   4.288  1.00  0.00    -0.550 OA
ATOM      8  O   UNL     1      -1.379  13.898   2.056  1.00  0.00    -0.550 OA
ENDBRANCH   5   6
ENDBRANCH   4   5
ENDBRANCH   3   4
ENDBRANCH   2   3
ENDBRANCH   1   2
BRANCH   1   9
ATOM      9  C   UNL     1       5.994  14.465   1.184  1.00  0.00     0.000 C 
BRANCH   9  10
ATOM     10  C   UNL     1       6.970  14.406   2.373  1.00  0.00    -0.000 C 
BRANCH  10  11
ATOM     11  C   UNL     1       6.591  15.379   3.503  1.00  0.00    -0.000 C 
BRANCH  11  12
ATOM     12  C   UNL     1       5.329  16.225   3.237  1.00  0.00    -0.000 C 
BRANCH  12  13
ATOM     13  C   UNL     1       4.406  16.417   4.453  1.00  0.00    -0.003 C 
ATOM     14  C   UNL     1       3.840  15.100   4.984  1.00  0.00     0.004 C 
ENDBRANCH  12  13
ENDBRANCH  11  12
ENDBRANCH  10  11
ENDBRANCH   9  10
ENDBRANCH   1   9
TORSDOF 10
ENDMDL
MODEL 4
REMARK VINA RESULT:    -5.347      3.352      4.918
REMARK INTER + INTRA:          -9.782
REMARK INTER:                  -8.512
REMARK INTRA:                  -1.270
REMARK UNBOUND:                -1.309
REMARK SMILES CCCCCCCCCCCC(=O)[O-]
REMARK SMILES IDX 7 1 8 2 9 3 10 4 11 5 12 6 13 7 14 8 6 9 5 10 4 11 3 12 2 13
REMARK SMILES IDX 1 14
REMARK H PARENT
REMARK Flexibility Score: inf
ROOT
ATOM      1  C   UNL     1       4.906  15.900   4.506  1.00  0.00     0.000 C 
ENDROOT
BRANCH   1   2
ATOM      2  C   UNL     1       6.125  16.188   3.612  1.00  0.00     0.000 C 
BRANCH   2   3
ATOM      3  C   UNL     1       7.023  14.955   3.423  1.00  0.00     0.000 C 
BRANCH   3   4
ATOM      4  C   UNL     1       8.447  15.319   2.979  1.00  0.00     0.006 C 
BRANCH   4   5
ATOM      5  C   UNL     1       8.893  14.446   1.801  1.00  0.00     0.053 C 
BRANCH   5   6
ATOM      6  C   UNL     1      10.287  14.797   1.388  1.00  0.00     0.041 C 
ATOM      7  O   UNL     1      10.608  15.999   1.194  1.00  0.00    -0.550 OA
ATOM      8  O   UNL     1      11.247  13.800   1.264  1.00  0.00    -0.550 OA
ENDBRANCH   5   6
ENDBRANCH   4   5
ENDBRANCH   3   4
ENDBRANCH   2   3
ENDBRANCH   1   2
BRANCH   1   9
ATOM      9  C   UNL     1       4.125  14.655   4.054  1.00  0.00     0.000 C 
BRANCH   9  10
ATOM     10  C   UNL     1       3.070  14.974   2.980  1.00  0.00    -0.000 C 
BRANCH  10  11
ATOM     11  C   UNL     1       3.122  14.001   1.788  1.00  0.00    -0.000 C 
BRANCH  11  12
ATOM     12  C   UNL     1       4.398  13.137   1.709  1.00  0.00    -0.000 C 
BRANCH  12  13
ATOM     13  C   UNL     1       5.292  13.408   0.486  1.00  0.00    -0.003 C 
ATOM     14  C   UNL     1       5.396  14.894   0.142  1.00  0.00     0.004 C 
ENDBRANCH  12  13
ENDBRANCH  11  12
ENDBRANCH  10  11
ENDBRANCH   9  10
ENDBRANCH   1   9
TORSDOF 10
ENDMDL
MODEL 5
REMARK VINA RESULT:    -5.334      1.376      3.950
REMARK INTER + INTRA:          -9.762
REMARK INTER:                  -8.711
REMARK INTRA:                  -1.051
REMARK UNBOUND:                -1.309
REMARK SMILES CCCCCCCCCCCC(=O)[O-]
REMARK SMILES IDX 7 1 8 2 9 3 10 4 11 5 12 6 13 7 14 8 6 9 5 10 4 11 3 12 2 13
REMARK SMILES IDX 1 14
REMARK H PARENT
REMARK Flexibility Score: inf
ROOT
ATOM      1  C   UNL     1       6.976  13.486   0.890  1.00  0.00     0.000 C 
ENDROOT
BRANCH   1   2
ATOM      2  C   UNL     1       5.653  13.986   0.283  1.00  0.00     0.000 C 
BRANCH   2   3
ATOM      3  C   UNL     1       4.422  13.468   1.044  1.00  0.00     0.000 C 
BRANCH   3   4
ATOM      4  C   UNL     1       3.316  14.526   1.176  1.00  0.00     0.006 C 
BRANCH   4   5
ATOM      5  C   UNL     1       1.933  13.901   0.972  1.00  0.00     0.053 C 
BRANCH   5   6
ATOM      6  C   UNL     1       1.030  14.244   2.114  1.00  0.00     0.041 C 
ATOM      7  O   UNL     1      -0.158  13.826   2.131  1.00  0.00    -0.550 OA
ATOM      8  O   UNL     1       1.515  14.984   3.185  1.00  0.00    -0.550 OA
ENDBRANCH   5   6
ENDBRANCH   4   5
ENDBRANCH   3   4
ENDBRANCH   2   3
ENDBRANCH   1   2
BRANCH   1   9
ATOM      9  C   UNL     1       7.846  14.633   1.431  1.00  0.00     0.000 C 
BRANCH   9  10
ATOM     10  C   UNL     1       8.096  14.523   2.946  1.00  0.00    -0.000 C 
BRANCH  10  11
ATOM     11  C   UNL     1       7.612  15.762   3.720  1.00  0.00    -0.000 C 
BRANCH  11  12
ATOM     12  C   UNL     1       6.128  16.125   3.503  1.00  0.00    -0.000 C 
BRANCH  12  13
ATOM     13  C   UNL     1       5.125  15.237   4.260  1.00  0.00    -0.003 C 
ATOM     14  C   UNL     1       4.227  16.030   5.210  1.00  0.00     0.004 C 
ENDBRANCH  12  13
ENDBRANCH  11  12
ENDBRANCH  10  11
ENDBRANCH   9  10
ENDBRANCH   1   9
TORSDOF 10
ENDMDL
MODEL 6
REMARK VINA RESULT:    -5.330      1.995      4.023
REMARK INTER + INTRA:          -9.754
REMARK INTER:                  -8.551
REMARK INTRA:                  -1.203
REMARK UNBOUND:                -1.309
REMARK SMILES CCCCCCCCCCCC(=O)[O-]
REMARK SMILES IDX 7 1 8 2 9 3 10 4 11 5 12 6 13 7 14 8 6 9 5 10 4 11 3 12 2 13
REMARK SMILES IDX 1 14
REMARK H PARENT
REMARK Flexibility Score: inf
ROOT
ATOM      1  C   UNL     1       5.270  14.068   0.262  1.00  0.00     0.000 C 
ENDROOT
BRANCH   1   2
ATOM      2  C   UNL     1       5.137  12.999   1.361  1.00  0.00     0.000 C 
BRANCH   2   3
ATOM      3  C   UNL     1       4.033  13.332   2.377  1.00  0.00     0.000 C 
BRANCH   3   4
ATOM      4  C   UNL     1       3.294  14.637   2.045  1.00  0.00     0.006 C 
BRANCH   4   5
ATOM      5  C   UNL     1       2.251  14.964   3.118  1.00  0.00     0.053 C 
BRANCH   5   6
ATOM      6  C   UNL     1       0.903  14.463   2.708  1.00  0.00     0.041 C 
ATOM      7  O   UNL     1      -0.086  14.604   3.473  1.00  0.00    -0.550 OA
ATOM      8  O   UNL     1       0.728  13.885   1.456  1.00  0.00    -0.550 OA
ENDBRANCH   5   6
ENDBRANCH   4   5
ENDBRANCH   3   4
ENDBRANCH   2   3
ENDBRANCH   1   2
BRANCH   1   9
ATOM      9  C   UNL     1       6.620  14.803   0.315  1.00  0.00     0.000 C 
BRANCH   9  10
ATOM     10  C   UNL     1       7.780  13.884   0.736  1.00  0.00    -0.000 C 
BRANCH  10  11
ATOM     11  C   UNL     1       8.721  14.544   1.760  1.00  0.00    -0.000 C 
BRANCH  11  12
ATOM     12  C   UNL     1       8.197  14.557   3.211  1.00  0.00    -0.000 C 
BRANCH  12  13
ATOM     13  C   UNL     1       7.707  15.928   3.713  1.00  0.00    -0.003 C 
ATOM     14  C   UNL     1       6.199  15.968   3.959  1.00  0.00     0.004 C 
ENDBRANCH  12  13
ENDBRANCH  11  12
ENDBRANCH  10  11
ENDBRANCH   9  10
ENDBRANCH   1   9
TORSDOF 10
ENDMDL
MODEL 7
REMARK VINA RESULT:    -5.309      3.434      5.337
REMARK INTER + INTRA:          -9.722
REMARK INTER:                  -8.556
REMARK INTRA:                  -1.166
REMARK UNBOUND:                -1.309
REMARK SMILES CCCCCCCCCCCC(=O)[O-]
REMARK SMILES IDX 7 1 8 2 9 3 10 4 11 5 12 6 13 7 14 8 6 9 5 10 4 11 3 12 2 13
REMARK SMILES IDX 1 14
REMARK H PARENT
REMARK Flexibility Score: inf
ROOT
ATOM      1  C   UNL     1       4.844  13.153   0.929  1.00  0.00     0.000 C 
ENDROOT
BRANCH   1   2
ATOM      2  C   UNL     1       5.135  14.531   0.309  1.00  0.00     0.000 C 
BRANCH   2   3
ATOM      3  C   UNL     1       6.615  14.930   0.427  1.00  0.00     0.000 C 
BRANCH   3   4
ATOM      4  C   UNL     1       7.491  13.802   0.991  1.00  0.00     0.006 C 
BRANCH   4   5
ATOM      5  C   UNL     1       8.659  14.370   1.804  1.00  0.00     0.053 C 
BRANCH   5   6
ATOM      6  C   UNL     1       9.929  14.298   1.016  1.00  0.00     0.041 C 
ATOM      7  O   UNL     1      10.073  14.998  -0.020  1.00  0.00    -0.550 OA
ATOM      8  O   UNL     1      10.974  13.494   1.455  1.00  0.00    -0.550 OA
ENDBRANCH   5   6
ENDBRANCH   4   5
ENDBRANCH   3   4
ENDBRANCH   2   3
ENDBRANCH   1   2
BRANCH   1   9
ATOM      9  C   UNL     1       3.891  13.239   2.133  1.00  0.00     0.000 C 
BRANCH   9  10
ATOM     10  C   UNL     1       2.995  14.489   2.093  1.00  0.00    -0.000 C 
BRANCH  10  11
ATOM     11  C   UNL     1       2.783  15.114   3.484  1.00  0.00    -0.000 C 
BRANCH  11  12
ATOM     12  C   UNL     1       3.933  14.880   4.484  1.00  0.00    -0.000 C 
BRANCH  12  13
ATOM     13  C   UNL     1       4.847  16.095   4.720  1.00  0.00    -0.003 C 
ATOM     14  C   UNL     1       6.167  16.004   3.954  1.00  0.00     0.004 C 
ENDBRANCH  12  13
ENDBRANCH  11  12
ENDBRANCH  10  11
ENDBRANCH   9  10
ENDBRANCH   1   9
TORSDOF 10
ENDMDL
MODEL 8
REMARK VINA RESULT:    -5.228      1.474      4.251
REMARK INTER + INTRA:          -9.593
REMARK INTER:                  -8.739
REMARK INTRA:                  -0.853
REMARK UNBOUND:                -1.309
REMARK SMILES CCCCCCCCCCCC(=O)[O-]
REMARK SMILES IDX 7 1 8 2 9 3 10 4 11 5 12 6 13 7 14 8 6 9 5 10 4 11 3 12 2 13
REMARK SMILES IDX 1 14
REMARK H PARENT
REMARK Flexibility Score: inf
ROOT
ATOM      1  C   UNL     1       4.963  13.430   0.452  1.00  0.00     0.000 C 
ENDROOT
BRANCH   1   2
ATOM      2  C   UNL     1       4.218  13.084   1.753  1.00  0.00     0.000 C 
BRANCH   2   3
ATOM      3  C   UNL     1       2.952  13.933   1.952  1.00  0.00     0.000 C 
BRANCH   3   4
ATOM      4  C   UNL     1       3.090  14.949   3.096  1.00  0.00     0.006 C 
BRANCH   4   5
ATOM      5  C   UNL     1       4.247  14.571   4.026  1.00  0.00     0.053 C 
BRANCH   5   6
ATOM      6  C   UNL     1       4.814  15.791   4.679  1.00  0.00     0.041 C 
ATOM      7  O   UNL     1       5.950  16.219   4.348  1.00  0.00    -0.550 OA
ATOM      8  O   UNL     1       4.064  16.486   5.621  1.00  0.00    -0.550 OA
ENDBRANCH   5   6
ENDBRANCH   4   5
ENDBRANCH   3   4
ENDBRANCH   2   3
ENDBRANCH   1   2
BRANCH   1   9
ATOM      9  C   UNL     1       5.670  14.794   0.523  1.00  0.00     0.000 C 
BRANCH   9  10
ATOM     10  C   UNL     1       7.200  14.663   0.630  1.00  0.00    -0.000 C 
BRANCH  10  11
ATOM     11  C   UNL     1       7.665  14.256   2.040  1.00  0.00    -0.000 C 
BRANCH  11  12
ATOM     12  C   UNL     1       8.960  14.942   2.520  1.00  0.00    -0.000 C 
BRANCH  12  13
ATOM     13  C   UNL     1      10.036  15.133   1.436  1.00  0.00    -0.003 C 
ATOM     14  C   UNL     1      10.901  13.890   1.231  1.00  0.00     0.004 C 
ENDBRANCH  12  13
ENDBRANCH  11  12
ENDBRANCH  10  11
ENDBRANCH   9  10
ENDBRANCH   1   9
TORSDOF 10
ENDMDL
MODEL 9
REMARK VINA RESULT:    -5.214      3.530      5.431
REMARK INTER + INTRA:          -9.571
REMARK INTER:                  -8.616
REMARK INTRA:                  -0.956
REMARK UNBOUND:                -1.309
REMARK SMILES CCCCCCCCCCCC(=O)[O-]
REMARK SMILES IDX 7 1 8 2 9 3 10 4 11 5 12 6 13 7 14 8 6 9 5 10 4 11 3 12 2 13
REMARK SMILES IDX 1 14
REMARK H PARENT
REMARK Flexibility Score: inf
ROOT
ATOM      1  C   UNL     1       5.048  13.498   0.399  1.00  0.00     0.000 C 
ENDROOT
BRANCH   1   2
ATOM      2  C   UNL     1       6.224  14.460   0.643  1.00  0.00     0.000 C 
BRANCH   2   3
ATOM      3  C   UNL     1       7.501  13.731   1.090  1.00  0.00     0.000 C 
BRANCH   3   4
ATOM      4  C   UNL     1       8.781  14.390   0.554  1.00  0.00     0.006 C 
BRANCH   4   5
ATOM      5  C   UNL     1       9.562  15.066   1.685  1.00  0.00     0.053 C 
BRANCH   5   6
ATOM      6  C   UNL     1      10.790  15.731   1.148  1.00  0.00     0.041 C 
ATOM      7  O   UNL     1      11.555  15.112   0.363  1.00  0.00    -0.550 OA
ATOM      8  O   UNL     1      11.065  17.053   1.478  1.00  0.00    -0.550 OA
ENDBRANCH   5   6
ENDBRANCH   4   5
ENDBRANCH   3   4
ENDBRANCH   2   3
ENDBRANCH   1   2
BRANCH   1   9
ATOM      9  C   UNL     1       4.308  13.132   1.696  1.00  0.00     0.000 C 
BRANCH   9  10
ATOM     10  C   UNL     1       2.932  13.812   1.806  1.00  0.00    -0.000 C 
BRANCH  10  11
ATOM     11  C   UNL     1       2.892  14.899   2.897  1.00  0.00    -0.000 C 
BRANCH  11  12
ATOM     12  C   UNL     1       4.072  14.868   3.889  1.00  0.00    -0.000 C 
BRANCH  12  13
ATOM     13  C   UNL     1       4.872  16.179   3.989  1.00  0.00    -0.003 C 
ATOM     14  C   UNL     1       6.383  15.963   3.905  1.00  0.00     0.004 C 
ENDBRANCH  12  13
ENDBRANCH  11  12
ENDBRANCH  10  11
ENDBRANCH   9  10
ENDBRANCH   1   9
TORSDOF 10
ENDMDL
