MODEL 1
REMARK VINA RESULT:    -2.168      0.000      0.000
REMARK INTER + INTRA:          -6.998
REMARK INTER:                  -5.464
REMARK INTRA:                  -1.535
REMARK UNBOUND:                -1.535
REMARK SMILES CCCCCCCCCCCCCCCCCCCCCCCCCCCC(=O)[O-]
REMARK SMILES IDX 15 1 16 2 17 3 18 4 19 5 20 6 21 7 22 8 23 9 24 10 25 11
REMARK SMILES IDX 26 12 27 13 28 14 29 15 30 16 14 17 13 18 12 19 11 20 10 21
REMARK SMILES IDX 9 22 8 23 7 24 6 25 5 26 4 27 3 28 2 29 1 30
REMARK H PARENT
REMARK Flexibility Score: inf
ROOT
ATOM      1  C   UNL     1       3.730  -9.528   7.123  1.00  0.00     0.000 C 
ENDROOT
BRANCH   1   2
ATOM      2  C   UNL     1       3.939  -9.640   8.641  1.00  0.00     0.000 C 
BRANCH   2   3
ATOM      3  C   UNL     1       3.992  -8.250   9.292  1.00  0.00     0.000 C 
BRANCH   3   4
ATOM      4  C   UNL     1       5.123  -7.374   8.729  1.00  0.00     0.000 C 
BRANCH   4   5
ATOM      5  C   UNL     1       6.414  -7.473   9.559  1.00  0.00     0.000 C 
BRANCH   5   6
ATOM      6  C   UNL     1       7.573  -6.656   8.959  1.00  0.00     0.000 C 
BRANCH   6   7
ATOM      7  C   UNL     1       7.247  -5.155   8.795  1.00  0.00     0.000 C 
BRANCH   7   8
ATOM      8  C   UNL     1       7.367  -4.388  10.125  1.00  0.00     0.000 C 
BRANCH   8   9
ATOM      9  C   UNL     1       8.110  -3.051   9.977  1.00  0.00     0.000 C 
BRANCH   9  10
ATOM     10  C   UNL     1       7.181  -1.891   9.577  1.00  0.00     0.000 C 
BRANCH  10  11
ATOM     11  C   UNL     1       7.785  -0.519   9.917  1.00  0.00     0.000 C 
BRANCH  11  12
ATOM     12  C   UNL     1       7.363   0.573   8.918  1.00  0.00     0.006 C 
BRANCH  12  13
ATOM     13  C   UNL     1       6.961   1.874   9.625  1.00  0.00     0.053 C 
BRANCH  13  14
ATOM     14  C   UNL     1       6.376   2.862   8.661  1.00  0.00     0.041 C 
ATOM     15  O   UNL     1       6.141   4.044   9.028  1.00  0.00    -0.550 OA
ATOM     16  O   UNL     1       6.060   2.466   7.367  1.00  0.00    -0.550 OA
ENDBRANCH  13  14
ENDBRANCH  12  13
ENDBRANCH  11  12
ENDBRANCH  10  11
ENDBRANCH   9  10
ENDBRANCH   8   9
ENDBRANCH   7   8
ENDBRANCH   6   7
ENDBRANCH   5   6
ENDBRANCH   4   5
ENDBRANCH   3   4
ENDBRANCH   2   3
ENDBRANCH   1   2
BRANCH   1  17
ATOM     17  C   UNL     1       5.012  -9.810   6.320  1.00  0.00     0.000 C 
BRANCH  17  18
ATOM     18  C   UNL     1       4.961 -11.066   5.429  1.00  0.00     0.000 C 
BRANCH  18  19
ATOM     19  C   UNL     1       3.775 -11.123   4.450  1.00  0.00     0.000 C 
BRANCH  19  20
ATOM     20  C   UNL     1       4.214 -11.044   2.980  1.00  0.00     0.000 C 
BRANCH  20  21
ATOM     21  C   UNL     1       3.888  -9.666   2.386  1.00  0.00     0.000 C 
BRANCH  21  22
ATOM     22  C   UNL     1       4.615  -8.518   3.108  1.00  0.00    -0.000 C 
BRANCH  22  23
ATOM     23  C   UNL     1       6.147  -8.664   3.052  1.00  0.00    -0.000 C 
BRANCH  23  24
ATOM     24  C   UNL     1       6.877  -7.523   3.780  1.00  0.00    -0.000 C 
BRANCH  24  25
ATOM     25  C   UNL     1       7.980  -8.038   4.720  1.00  0.00    -0.000 C 
BRANCH  25  26
ATOM     26  C   UNL     1       7.462  -8.318   6.143  1.00  0.00    -0.000 C 
BRANCH  26  27
ATOM     27  C   UNL     1       8.186  -9.457   6.891  1.00  0.00    -0.000 C 
BRANCH  27  28
ATOM     28  C   UNL     1       9.539  -9.070   7.514  1.00  0.00    -0.000 C 
BRANCH  28  29
ATOM     29  C   UNL     1      10.124 -10.176   8.404  1.00  0.00    -0.003 C 
ATOM     30  C   UNL     1       9.747  -9.963   9.867  1.00  0.00     0.004 C 
ENDBRANCH  28  29
ENDBRANCH  27  28
ENDBRANCH  26  27
ENDBRANCH  25  26
ENDBRANCH  24  25
ENDBRANCH  23  24
ENDBRANCH  22  23
ENDBRANCH  21  22
ENDBRANCH  20  21
ENDBRANCH  19  20
ENDBRANCH  18  19
ENDBRANCH  17  18
ENDBRANCH   1  17
TORSDOF 26
ENDMDL
MODEL 2
REMARK VINA RESULT:    -2.093      3.521      7.992
REMARK INTER + INTRA:          -6.809
REMARK INTER:                  -3.955
REMARK INTRA:                  -2.854
REMARK UNBOUND:                -1.535
REMARK SMILES CCCCCCCCCCCCCCCCCCCCCCCCCCCC(=O)[O-]
REMARK SMILES IDX 15 1 16 2 17 3 18 4 19 5 20 6 21 7 22 8 23 9 24 10 25 11
REMARK SMILES IDX 26 12 27 13 28 14 29 15 30 16 14 17 13 18 12 19 11 20 10 21
REMARK SMILES IDX 9 22 8 23 7 24 6 25 5 26 4 27 3 28 2 29 1 30
REMARK H PARENT
REMARK Flexibility Score: inf
ROOT
ATOM      1  C   UNL     1       3.158 -10.680   5.592  1.00  0.00     0.000 C 
ENDROOT
BRANCH   1   2
ATOM      2  C   UNL     1       1.796 -10.004   5.811  1.00  0.00     0.000 C 
BRANCH   2   3
ATOM      3  C   UNL     1       0.890 -10.870   6.698  1.00  0.00     0.000 C 
BRANCH   3   4
ATOM      4  C   UNL     1       1.446 -11.047   8.120  1.00  0.00     0.000 C 
BRANCH   4   5
ATOM      5  C   UNL     1       1.687  -9.704   8.831  1.00  0.00     0.000 C 
BRANCH   5   6
ATOM      6  C   UNL     1       3.142  -9.218   8.710  1.00  0.00     0.000 C 
BRANCH   6   7
ATOM      7  C   UNL     1       3.856  -9.068  10.071  1.00  0.00     0.000 C 
BRANCH   7   8
ATOM      8  C   UNL     1       5.174  -9.864  10.124  1.00  0.00     0.000 C 
BRANCH   8   9
ATOM      9  C   UNL     1       5.405 -10.721   8.870  1.00  0.00     0.000 C 
BRANCH   9  10
ATOM     10  C   UNL     1       6.892 -11.027   8.620  1.00  0.00     0.000 C 
BRANCH  10  11
ATOM     11  C   UNL     1       7.800 -10.412   9.697  1.00  0.00     0.000 C 
BRANCH  11  12
ATOM     12  C   UNL     1       9.162 -11.121   9.793  1.00  0.00     0.006 C 
BRANCH  12  13
ATOM     13  C   UNL     1      10.081 -10.761   8.617  1.00  0.00     0.053 C 
BRANCH  13  14
ATOM     14  C   UNL     1      10.097  -9.284   8.366  1.00  0.00     0.041 C 
ATOM     15  O   UNL     1      10.082  -8.475   9.332  1.00  0.00    -0.550 OA
ATOM     16  O   UNL     1      10.093  -8.801   7.063  1.00  0.00    -0.550 OA
ENDBRANCH  13  14
ENDBRANCH  12  13
ENDBRANCH  11  12
ENDBRANCH  10  11
ENDBRANCH   9  10
ENDBRANCH   8   9
ENDBRANCH   7   8
ENDBRANCH   6   7
ENDBRANCH   5   6
ENDBRANCH   4   5
ENDBRANCH   3   4
ENDBRANCH   2   3
ENDBRANCH   1   2
BRANCH   1  17
ATOM     17  C   UNL     1       4.114  -9.833   4.733  1.00  0.00     0.000 C 
BRANCH  17  18
ATOM     18  C   UNL     1       5.599  -9.911   5.141  1.00  0.00     0.000 C 
BRANCH  18  19
ATOM     19  C   UNL     1       6.396  -8.609   4.949  1.00  0.00     0.000 C 
BRANCH  19  20
ATOM     20  C   UNL     1       5.987  -7.510   5.939  1.00  0.00     0.000 C 
BRANCH  20  21
ATOM     21  C   UNL     1       6.523  -7.815   7.346  1.00  0.00     0.000 C 
BRANCH  21  22
ATOM     22  C   UNL     1       7.067  -6.567   8.061  1.00  0.00    -0.000 C 
BRANCH  22  23
ATOM     23  C   UNL     1       6.513  -6.418   9.490  1.00  0.00    -0.000 C 
BRANCH  23  24
ATOM     24  C   UNL     1       6.803  -5.036  10.097  1.00  0.00    -0.000 C 
BRANCH  24  25
ATOM     25  C   UNL     1       7.722  -4.184   9.205  1.00  0.00    -0.000 C 
BRANCH  25  26
ATOM     26  C   UNL     1       7.667  -2.686   9.557  1.00  0.00    -0.000 C 
BRANCH  26  27
ATOM     27  C   UNL     1       7.295  -1.751   8.387  1.00  0.00    -0.000 C 
BRANCH  27  28
ATOM     28  C   UNL     1       7.669  -0.273   8.591  1.00  0.00    -0.000 C 
BRANCH  28  29
ATOM     29  C   UNL     1       7.221   0.273   9.955  1.00  0.00    -0.003 C 
ATOM     30  C   UNL     1       6.793   1.734   9.849  1.00  0.00     0.004 C 
ENDBRANCH  28  29
ENDBRANCH  27  28
ENDBRANCH  26  27
ENDBRANCH  25  26
ENDBRANCH  24  25
ENDBRANCH  23  24
ENDBRANCH  22  23
ENDBRANCH  21  22
ENDBRANCH  20  21
ENDBRANCH  19  20
ENDBRANCH  18  19
ENDBRANCH  17  18
ENDBRANCH   1  17
TORSDOF 26
ENDMDL
MODEL 3
REMARK VINA RESULT:    -1.556      4.459      8.286
REMARK INTER + INTRA:          -5.456
REMARK INTER:                  -5.680
REMARK INTRA:                   0.224
REMARK UNBOUND:                -1.535
REMARK SMILES CCCCCCCCCCCCCCCCCCCCCCCCCCCC(=O)[O-]
REMARK SMILES IDX 15 1 16 2 17 3 18 4 19 5 20 6 21 7 22 8 23 9 24 10 25 11
REMARK SMILES IDX 26 12 27 13 28 14 29 15 30 16 14 17 13 18 12 19 11 20 10 21
REMARK SMILES IDX 9 22 8 23 7 24 6 25 5 26 4 27 3 28 2 29 1 30
REMARK H PARENT
REMARK Flexibility Score: inf
ROOT
ATOM      1  C   UNL     1       5.637 -11.124   6.731  1.00  0.00     0.000 C 
ENDROOT
BRANCH   1   2
ATOM      2  C   UNL     1       6.751 -10.237   7.308  1.00  0.00     0.000 C 
BRANCH   2   3
ATOM      3  C   UNL     1       7.365 -10.874   8.563  1.00  0.00     0.000 C 
BRANCH   3   4
ATOM      4  C   UNL     1       7.991  -9.836   9.509  1.00  0.00     0.000 C 
BRANCH   4   5
ATOM      5  C   UNL     1       6.945  -8.892  10.125  1.00  0.00     0.000 C 
BRANCH   5   6
ATOM      6  C   UNL     1       5.643  -8.828   9.305  1.00  0.00     0.000 C 
BRANCH   6   7
ATOM      7  C   UNL     1       4.383  -9.185  10.123  1.00  0.00     0.000 C 
BRANCH   7   8
ATOM      8  C   UNL     1       3.978 -10.661   9.948  1.00  0.00     0.000 C 
BRANCH   8   9
ATOM      9  C   UNL     1       2.545 -10.826   9.418  1.00  0.00     0.000 C 
BRANCH   9  10
ATOM     10  C   UNL     1       2.043  -9.588   8.654  1.00  0.00     0.000 C 
BRANCH  10  11
ATOM     11  C   UNL     1       1.049  -9.956   7.541  1.00  0.00     0.000 C 
BRANCH  11  12
ATOM     12  C   UNL     1      -0.261 -10.545   8.093  1.00  0.00     0.006 C 
BRANCH  12  13
ATOM     13  C   UNL     1      -0.738  -9.806   9.350  1.00  0.00     0.053 C 
BRANCH  13  14
ATOM     14  C   UNL     1      -2.234  -9.722   9.401  1.00  0.00     0.041 C 
ATOM     15  O   UNL     1      -2.927 -10.771   9.467  1.00  0.00    -0.550 OA
ATOM     16  O   UNL     1      -2.862  -8.484   9.341  1.00  0.00    -0.550 OA
ENDBRANCH  13  14
ENDBRANCH  12  13
ENDBRANCH  11  12
ENDBRANCH  10  11
ENDBRANCH   9  10
ENDBRANCH   8   9
ENDBRANCH   7   8
ENDBRANCH   6   7
ENDBRANCH   5   6
ENDBRANCH   4   5
ENDBRANCH   3   4
ENDBRANCH   2   3
ENDBRANCH   1   2
BRANCH   1  17
ATOM     17  C   UNL     1       5.429 -10.915   5.220  1.00  0.00     0.000 C 
BRANCH  17  18
ATOM     18  C   UNL     1       4.755  -9.584   4.833  1.00  0.00     0.000 C 
BRANCH  18  19
ATOM     19  C   UNL     1       5.339  -8.897   3.586  1.00  0.00     0.000 C 
BRANCH  19  20
ATOM     20  C   UNL     1       6.361  -7.805   3.934  1.00  0.00     0.000 C 
BRANCH  20  21
ATOM     21  C   UNL     1       7.332  -8.292   5.019  1.00  0.00     0.000 C 
BRANCH  21  22
ATOM     22  C   UNL     1       6.944  -7.809   6.427  1.00  0.00    -0.000 C 
BRANCH  22  23
ATOM     23  C   UNL     1       7.664  -6.507   6.823  1.00  0.00    -0.000 C 
BRANCH  23  24
ATOM     24  C   UNL     1       7.118  -5.901   8.126  1.00  0.00    -0.000 C 
BRANCH  24  25
ATOM     25  C   UNL     1       8.226  -5.630   9.157  1.00  0.00    -0.000 C 
BRANCH  25  26
ATOM     26  C   UNL     1       7.972  -4.352   9.978  1.00  0.00    -0.000 C 
BRANCH  26  27
ATOM     27  C   UNL     1       7.392  -3.165   9.181  1.00  0.00    -0.000 C 
BRANCH  27  28
ATOM     28  C   UNL     1       7.927  -1.782   9.591  1.00  0.00    -0.000 C 
BRANCH  28  29
ATOM     29  C   UNL     1       7.446  -0.657   8.663  1.00  0.00    -0.003 C 
ATOM     30  C   UNL     1       7.958   0.701   9.133  1.00  0.00     0.004 C 
ENDBRANCH  28  29
ENDBRANCH  27  28
ENDBRANCH  26  27
ENDBRANCH  25  26
ENDBRANCH  24  25
ENDBRANCH  23  24
ENDBRANCH  22  23
ENDBRANCH  21  22
ENDBRANCH  20  21
ENDBRANCH  19  20
ENDBRANCH  18  19
ENDBRANCH  17  18
ENDBRANCH   1  17
TORSDOF 26
ENDMDL
MODEL 4
REMARK VINA RESULT:    -1.554      4.348      7.594
REMARK INTER + INTRA:          -5.450
REMARK INTER:                  -2.716
REMARK INTRA:                  -2.734
REMARK UNBOUND:                -1.535
REMARK SMILES CCCCCCCCCCCCCCCCCCCCCCCCCCCC(=O)[O-]
REMARK SMILES IDX 15 1 16 2 17 3 18 4 19 5 20 6 21 7 22 8 23 9 24 10 25 11
REMARK SMILES IDX 26 12 27 13 28 14 29 15 30 16 14 17 13 18 12 19 11 20 10 21
REMARK SMILES IDX 9 22 8 23 7 24 6 25 5 26 4 27 3 28 2 29 1 30
REMARK H PARENT
REMARK Flexibility Score: inf
ROOT
ATOM      1  C   UNL     1       3.970 -10.449   3.394  1.00  0.00     0.000 C 
ENDROOT
BRANCH   1   2
ATOM      2  C   UNL     1       2.489 -10.485   3.801  1.00  0.00     0.000 C 
BRANCH   2   3
ATOM      3  C   UNL     1       2.319 -11.098   5.199  1.00  0.00     0.000 C 
BRANCH   3   4
ATOM      4  C   UNL     1       1.408 -10.257   6.108  1.00  0.00     0.000 C 
BRANCH   4   5
ATOM      5  C   UNL     1       0.515 -11.125   7.012  1.00  0.00     0.000 C 
BRANCH   5   6
ATOM      6  C   UNL     1       0.778 -10.892   8.510  1.00  0.00     0.000 C 
BRANCH   6   7
ATOM      7  C   UNL     1      -0.497 -10.553   9.314  1.00  0.00     0.000 C 
BRANCH   7   8
ATOM      8  C   UNL     1      -0.373  -9.211  10.058  1.00  0.00     0.000 C 
BRANCH   8   9
ATOM      9  C   UNL     1       0.423  -8.161   9.266  1.00  0.00     0.000 C 
BRANCH   9  10
ATOM     10  C   UNL     1       1.698  -7.702   9.996  1.00  0.00     0.000 C 
BRANCH  10  11
ATOM     11  C   UNL     1       2.878  -7.499   9.032  1.00  0.00     0.000 C 
BRANCH  11  12
ATOM     12  C   UNL     1       4.199  -8.049   9.595  1.00  0.00     0.006 C 
BRANCH  12  13
ATOM     13  C   UNL     1       4.046  -9.482  10.125  1.00  0.00     0.053 C 
BRANCH  13  14
ATOM     14  C   UNL     1       4.850 -10.454   9.314  1.00  0.00     0.041 C 
ATOM     15  O   UNL     1       4.348 -10.998   8.295  1.00  0.00    -0.550 OA
ATOM     16  O   UNL     1       6.141 -10.784   9.707  1.00  0.00    -0.550 OA
ENDBRANCH  13  14
ENDBRANCH  12  13
ENDBRANCH  11  12
ENDBRANCH  10  11
ENDBRANCH   9  10
ENDBRANCH   8   9
ENDBRANCH   7   8
ENDBRANCH   6   7
ENDBRANCH   5   6
ENDBRANCH   4   5
ENDBRANCH   3   4
ENDBRANCH   2   3
ENDBRANCH   1   2
BRANCH   1  17
ATOM     17  C   UNL     1       4.859  -9.745   4.434  1.00  0.00     0.000 C 
BRANCH  17  18
ATOM     18  C   UNL     1       5.617 -10.689   5.389  1.00  0.00     0.000 C 
BRANCH  18  19
ATOM     19  C   UNL     1       6.428  -9.986   6.492  1.00  0.00     0.000 C 
BRANCH  19  20
ATOM     20  C   UNL     1       6.244  -8.462   6.485  1.00  0.00     0.000 C 
BRANCH  20  21
ATOM     21  C   UNL     1       7.594  -7.750   6.314  1.00  0.00     0.000 C 
BRANCH  21  22
ATOM     22  C   UNL     1       8.741  -8.718   5.981  1.00  0.00    -0.000 C 
BRANCH  22  23
ATOM     23  C   UNL     1       9.793  -8.793   7.104  1.00  0.00    -0.000 C 
BRANCH  23  24
ATOM     24  C   UNL     1       9.468  -9.874   8.148  1.00  0.00    -0.000 C 
BRANCH  24  25
ATOM     25  C   UNL     1       9.711  -9.391   9.588  1.00  0.00    -0.000 C 
BRANCH  25  26
ATOM     26  C   UNL     1       9.595  -7.862   9.728  1.00  0.00    -0.000 C 
BRANCH  26  27
ATOM     27  C   UNL     1       8.190  -7.342  10.098  1.00  0.00    -0.000 C 
BRANCH  27  28
ATOM     28  C   UNL     1       7.562  -6.380   9.075  1.00  0.00    -0.000 C 
BRANCH  28  29
ATOM     29  C   UNL     1       8.466  -5.182   8.749  1.00  0.00    -0.003 C 
ATOM     30  C   UNL     1       7.681  -3.873   8.792  1.00  0.00     0.004 C 
ENDBRANCH  28  29
ENDBRANCH  27  28
ENDBRANCH  26  27
ENDBRANCH  25  26
ENDBRANCH  24  25
ENDBRANCH  23  24
ENDBRANCH  22  23
ENDBRANCH  21  22
ENDBRANCH  20  21
ENDBRANCH  19  20
ENDBRANCH  18  19
ENDBRANCH  17  18
ENDBRANCH   1  17
TORSDOF 26
ENDMDL
MODEL 5
REMARK VINA RESULT:    -1.501     17.864     20.088
REMARK INTER + INTRA:          -5.318
REMARK INTER:                  -3.282
REMARK INTRA:                  -2.035
REMARK UNBOUND:                -1.535
REMARK SMILES CCCCCCCCCCCCCCCCCCCCCCCCCCCC(=O)[O-]
REMARK SMILES IDX 15 1 16 2 17 3 18 4 19 5 20 6 21 7 22 8 23 9 24 10 25 11
REMARK SMILES IDX 26 12 27 13 28 14 29 15 30 16 14 17 13 18 12 19 11 20 10 21
REMARK SMILES IDX 9 22 8 23 7 24 6 25 5 26 4 27 3 28 2 29 1 30
REMARK H PARENT
REMARK Flexibility Score: inf
ROOT
ATOM      1  C   UNL     1      -4.998  -8.322  -6.829  1.00  0.00     0.000 C 
ENDROOT
BRANCH   1   2
ATOM      2  C   UNL     1      -4.525  -9.176  -5.643  1.00  0.00     0.000 C 
BRANCH   2   3
ATOM      3  C   UNL     1      -5.548 -10.273  -5.313  1.00  0.00     0.000 C 
BRANCH   3   4
ATOM      4  C   UNL     1      -5.767 -10.445  -3.801  1.00  0.00     0.000 C 
BRANCH   4   5
ATOM      5  C   UNL     1      -6.854  -9.505  -3.252  1.00  0.00     0.000 C 
BRANCH   5   6
ATOM      6  C   UNL     1      -8.279  -9.977  -3.592  1.00  0.00     0.000 C 
BRANCH   6   7
ATOM      7  C   UNL     1      -9.383  -9.053  -3.032  1.00  0.00     0.000 C 
BRANCH   7   8
ATOM      8  C   UNL     1      -9.930  -8.090  -4.103  1.00  0.00     0.000 C 
BRANCH   8   9
ATOM      9  C   UNL     1      -9.946  -8.710  -5.509  1.00  0.00     0.000 C 
BRANCH   9  10
ATOM     10  C   UNL     1     -10.118  -7.661  -6.622  1.00  0.00     0.000 C 
BRANCH  10  11
ATOM     11  C   UNL     1      -9.551  -6.290  -6.221  1.00  0.00     0.000 C 
BRANCH  11  12
ATOM     12  C   UNL     1      -9.344  -5.362  -7.430  1.00  0.00     0.006 C 
BRANCH  12  13
ATOM     13  C   UNL     1      -8.645  -6.080  -8.592  1.00  0.00     0.053 C 
BRANCH  13  14
ATOM     14  C   UNL     1      -7.340  -5.427  -8.934  1.00  0.00     0.041 C 
ATOM     15  O   UNL     1      -6.799  -5.635 -10.052  1.00  0.00    -0.550 OA
ATOM     16  O   UNL     1      -6.705  -4.615  -8.002  1.00  0.00    -0.550 OA
ENDBRANCH  13  14
ENDBRANCH  12  13
ENDBRANCH  11  12
ENDBRANCH  10  11
ENDBRANCH   9  10
ENDBRANCH   8   9
ENDBRANCH   7   8
ENDBRANCH   6   7
ENDBRANCH   5   6
ENDBRANCH   4   5
ENDBRANCH   3   4
ENDBRANCH   2   3
ENDBRANCH   1   2
BRANCH   1  17
ATOM     17  C   UNL     1      -6.531  -8.230  -6.926  1.00  0.00     0.000 C 
BRANCH  17  18
ATOM     18  C   UNL     1      -7.140  -8.821  -8.213  1.00  0.00     0.000 C 
BRANCH  18  19
ATOM     19  C   UNL     1      -8.250  -9.863  -7.989  1.00  0.00     0.000 C 
BRANCH  19  20
ATOM     20  C   UNL     1      -8.416 -10.819  -9.179  1.00  0.00     0.000 C 
BRANCH  20  21
ATOM     21  C   UNL     1      -7.139 -10.855 -10.032  1.00  0.00     0.000 C 
BRANCH  21  22
ATOM     22  C   UNL     1      -5.869 -11.085  -9.196  1.00  0.00    -0.000 C 
BRANCH  22  23
ATOM     23  C   UNL     1      -4.589 -11.064 -10.051  1.00  0.00    -0.000 C 
BRANCH  23  24
ATOM     24  C   UNL     1      -3.457 -10.251  -9.404  1.00  0.00    -0.000 C 
BRANCH  24  25
ATOM     25  C   UNL     1      -2.251 -11.125  -9.019  1.00  0.00    -0.000 C 
BRANCH  25  26
ATOM     26  C   UNL     1      -0.938 -10.641  -9.662  1.00  0.00    -0.000 C 
BRANCH  26  27
ATOM     27  C   UNL     1      -0.690  -9.121  -9.581  1.00  0.00    -0.000 C 
BRANCH  27  28
ATOM     28  C   UNL     1       0.671  -8.653 -10.124  1.00  0.00    -0.000 C 
BRANCH  28  29
ATOM     29  C   UNL     1       1.730  -9.766 -10.117  1.00  0.00    -0.003 C 
ATOM     30  C   UNL     1       3.138  -9.185 -10.020  1.00  0.00     0.004 C 
ENDBRANCH  28  29
ENDBRANCH  27  28
ENDBRANCH  26  27
ENDBRANCH  25  26
ENDBRANCH  24  25
ENDBRANCH  23  24
ENDBRANCH  22  23
ENDBRANCH  21  22
ENDBRANCH  20  21
ENDBRANCH  19  20
ENDBRANCH  18  19
ENDBRANCH  17  18
ENDBRANCH   1  17
TORSDOF 26
ENDMDL
MODEL 6
REMARK VINA RESULT:    -1.489      3.647      5.813
REMARK INTER + INTRA:          -5.286
REMARK INTER:                  -3.645
REMARK INTRA:                  -1.641
REMARK UNBOUND:                -1.535
REMARK SMILES CCCCCCCCCCCCCCCCCCCCCCCCCCCC(=O)[O-]
REMARK SMILES IDX 15 1 16 2 17 3 18 4 19 5 20 6 21 7 22 8 23 9 24 10 25 11
REMARK SMILES IDX 26 12 27 13 28 14 29 15 30 16 14 17 13 18 12 19 11 20 10 21
REMARK SMILES IDX 9 22 8 23 7 24 6 25 5 26 4 27 3 28 2 29 1 30
REMARK H PARENT
REMARK Flexibility Score: inf
ROOT
ATOM      1  C   UNL     1       1.841 -10.257   6.114  1.00  0.00     0.000 C 
ENDROOT
BRANCH   1   2
ATOM      2  C   UNL     1       0.575 -11.125   6.039  1.00  0.00     0.000 C 
BRANCH   2   3
ATOM      3  C   UNL     1      -0.687 -10.252   5.996  1.00  0.00     0.000 C 
BRANCH   3   4
ATOM      4  C   UNL     1      -0.924  -9.485   7.308  1.00  0.00     0.000 C 
BRANCH   4   5
ATOM      5  C   UNL     1      -1.055 -10.420   8.522  1.00  0.00     0.000 C 
BRANCH   5   6
ATOM      6  C   UNL     1       0.304 -10.945   9.020  1.00  0.00     0.000 C 
BRANCH   6   7
ATOM      7  C   UNL     1       0.957 -10.043  10.089  1.00  0.00     0.000 C 
BRANCH   7   8
ATOM      8  C   UNL     1       0.701  -8.548   9.822  1.00  0.00     0.000 C 
BRANCH   8   9
ATOM      9  C   UNL     1       1.925  -7.669  10.125  1.00  0.00     0.000 C 
BRANCH   9  10
ATOM     10  C   UNL     1       3.044  -7.821   9.079  1.00  0.00     0.000 C 
BRANCH  10  11
ATOM     11  C   UNL     1       4.076  -6.685   9.163  1.00  0.00     0.000 C 
BRANCH  11  12
ATOM     12  C   UNL     1       5.502  -7.204   9.411  1.00  0.00     0.006 C 
BRANCH  12  13
ATOM     13  C   UNL     1       6.446  -6.089   9.881  1.00  0.00     0.053 C 
BRANCH  13  14
ATOM     14  C   UNL     1       7.265  -5.551   8.747  1.00  0.00     0.041 C 
ATOM     15  O   UNL     1       7.009  -5.890   7.561  1.00  0.00    -0.550 OA
ATOM     16  O   UNL     1       8.334  -4.700   9.005  1.00  0.00    -0.550 OA
ENDBRANCH  13  14
ENDBRANCH  12  13
ENDBRANCH  11  12
ENDBRANCH  10  11
ENDBRANCH   9  10
ENDBRANCH   8   9
ENDBRANCH   7   8
ENDBRANCH   6   7
ENDBRANCH   5   6
ENDBRANCH   4   5
ENDBRANCH   3   4
ENDBRANCH   2   3
ENDBRANCH   1   2
BRANCH   1  17
ATOM     17  C   UNL     1       3.062 -11.025   6.649  1.00  0.00     0.000 C 
BRANCH  17  18
ATOM     18  C   UNL     1       4.405 -10.659   5.985  1.00  0.00     0.000 C 
BRANCH  18  19
ATOM     19  C   UNL     1       4.292  -9.769   4.735  1.00  0.00     0.000 C 
BRANCH  19  20
ATOM     20  C   UNL     1       5.633  -9.591   4.010  1.00  0.00     0.000 C 
BRANCH  20  21
ATOM     21  C   UNL     1       6.044  -8.111   3.976  1.00  0.00     0.000 C 
BRANCH  21  22
ATOM     22  C   UNL     1       6.958  -7.719   5.150  1.00  0.00    -0.000 C 
BRANCH  22  23
ATOM     23  C   UNL     1       7.626  -8.940   5.809  1.00  0.00    -0.000 C 
BRANCH  23  24
ATOM     24  C   UNL     1       6.859  -9.439   7.045  1.00  0.00    -0.000 C 
BRANCH  24  25
ATOM     25  C   UNL     1       7.607 -10.558   7.789  1.00  0.00    -0.000 C 
BRANCH  25  26
ATOM     26  C   UNL     1       7.487 -10.436   9.319  1.00  0.00    -0.000 C 
BRANCH  26  27
ATOM     27  C   UNL     1       8.715 -10.927  10.114  1.00  0.00    -0.000 C 
BRANCH  27  28
ATOM     28  C   UNL     1       9.914  -9.963  10.121  1.00  0.00    -0.000 C 
BRANCH  28  29
ATOM     29  C   UNL     1       9.498  -8.492   9.972  1.00  0.00    -0.003 C 
ATOM     30  C   UNL     1       9.922  -7.934   8.616  1.00  0.00     0.004 C 
ENDBRANCH  28  29
ENDBRANCH  27  28
ENDBRANCH  26  27
ENDBRANCH  25  26
ENDBRANCH  24  25
ENDBRANCH  23  24
ENDBRANCH  22  23
ENDBRANCH  21  22
ENDBRANCH  20  21
ENDBRANCH  19  20
ENDBRANCH  18  19
ENDBRANCH  17  18
ENDBRANCH   1  17
TORSDOF 26
ENDMDL
MODEL 7
REMARK VINA RESULT:    -1.290      3.648      7.495
REMARK INTER + INTRA:          -4.786
REMARK INTER:                  -2.172
REMARK INTRA:                  -2.613
REMARK UNBOUND:                -1.535
REMARK SMILES CCCCCCCCCCCCCCCCCCCCCCCCCCCC(=O)[O-]
REMARK SMILES IDX 15 1 16 2 17 3 18 4 19 5 20 6 21 7 22 8 23 9 24 10 25 11
REMARK SMILES IDX 26 12 27 13 28 14 29 15 30 16 14 17 13 18 12 19 11 20 10 21
REMARK SMILES IDX 9 22 8 23 7 24 6 25 5 26 4 27 3 28 2 29 1 30
REMARK H PARENT
REMARK Flexibility Score: inf
ROOT
ATOM      1  C   UNL     1       3.882 -10.951   6.137  1.00  0.00     0.000 C 
ENDROOT
BRANCH   1   2
ATOM      2  C   UNL     1       2.416 -10.570   6.393  1.00  0.00     0.000 C 
BRANCH   2   3
ATOM      3  C   UNL     1       1.504 -11.125   5.289  1.00  0.00     0.000 C 
BRANCH   3   4
ATOM      4  C   UNL     1       0.121 -10.453   5.269  1.00  0.00     0.000 C 
BRANCH   4   5
ATOM      5  C   UNL     1      -0.854 -11.081   6.280  1.00  0.00     0.000 C 
BRANCH   5   6
ATOM      6  C   UNL     1      -0.910 -10.311   7.611  1.00  0.00     0.000 C 
BRANCH   6   7
ATOM      7  C   UNL     1      -1.585 -11.103   8.752  1.00  0.00     0.000 C 
BRANCH   7   8
ATOM      8  C   UNL     1      -0.730 -11.118  10.032  1.00  0.00     0.000 C 
BRANCH   8   9
ATOM      9  C   UNL     1       0.255  -9.940  10.106  1.00  0.00     0.000 C 
BRANCH   9  10
ATOM     10  C   UNL     1       1.606 -10.248   9.435  1.00  0.00     0.000 C 
BRANCH  10  11
ATOM     11  C   UNL     1       2.775  -9.526  10.125  1.00  0.00     0.000 C 
BRANCH  11  12
ATOM     12  C   UNL     1       4.134  -9.873   9.494  1.00  0.00     0.006 C 
BRANCH  12  13
ATOM     13  C   UNL     1       5.076  -8.662   9.455  1.00  0.00     0.053 C 
BRANCH  13  14
ATOM     14  C   UNL     1       4.324  -7.392   9.191  1.00  0.00     0.041 C 
ATOM     15  O   UNL     1       4.472  -6.397   9.949  1.00  0.00    -0.550 OA
ATOM     16  O   UNL     1       3.433  -7.321   8.127  1.00  0.00    -0.550 OA
ENDBRANCH  13  14
ENDBRANCH  12  13
ENDBRANCH  11  12
ENDBRANCH  10  11
ENDBRANCH   9  10
ENDBRANCH   8   9
ENDBRANCH   7   8
ENDBRANCH   6   7
ENDBRANCH   5   6
ENDBRANCH   4   5
ENDBRANCH   3   4
ENDBRANCH   2   3
ENDBRANCH   1   2
BRANCH   1  17
ATOM     17  C   UNL     1       4.540 -10.094   5.041  1.00  0.00     0.000 C 
BRANCH  17  18
ATOM     18  C   UNL     1       4.944  -8.672   5.481  1.00  0.00     0.000 C 
BRANCH  18  19
ATOM     19  C   UNL     1       6.234  -8.133   4.838  1.00  0.00     0.000 C 
BRANCH  19  20
ATOM     20  C   UNL     1       7.269  -7.678   5.876  1.00  0.00     0.000 C 
BRANCH  20  21
ATOM     21  C   UNL     1       8.133  -8.859   6.342  1.00  0.00     0.000 C 
BRANCH  21  22
ATOM     22  C   UNL     1       7.671  -9.440   7.690  1.00  0.00    -0.000 C 
BRANCH  22  23
ATOM     23  C   UNL     1       8.634 -10.514   8.229  1.00  0.00    -0.000 C 
BRANCH  23  24
ATOM     24  C   UNL     1       9.986  -9.930   8.669  1.00  0.00    -0.000 C 
BRANCH  24  25
ATOM     25  C   UNL     1       9.931  -9.322  10.081  1.00  0.00    -0.000 C 
BRANCH  25  26
ATOM     26  C   UNL     1       9.348  -7.896  10.090  1.00  0.00    -0.000 C 
BRANCH  26  27
ATOM     27  C   UNL     1      10.075  -6.885   9.178  1.00  0.00    -0.000 C 
BRANCH  27  28
ATOM     28  C   UNL     1       9.160  -5.864   8.480  1.00  0.00    -0.000 C 
BRANCH  28  29
ATOM     29  C   UNL     1       7.748  -5.819   9.081  1.00  0.00    -0.003 C 
ATOM     30  C   UNL     1       7.540  -4.552   9.906  1.00  0.00     0.004 C 
ENDBRANCH  28  29
ENDBRANCH  27  28
ENDBRANCH  26  27
ENDBRANCH  25  26
ENDBRANCH  24  25
ENDBRANCH  23  24
ENDBRANCH  22  23
ENDBRANCH  21  22
ENDBRANCH  20  21
ENDBRANCH  19  20
ENDBRANCH  18  19
ENDBRANCH  17  18
ENDBRANCH   1  17
TORSDOF 26
ENDMDL
MODEL 8
REMARK VINA RESULT:    -1.258      3.839      7.335
REMARK INTER + INTRA:          -4.704
REMARK INTER:                  -3.874
REMARK INTRA:                  -0.831
REMARK UNBOUND:                -1.535
REMARK SMILES CCCCCCCCCCCCCCCCCCCCCCCCCCCC(=O)[O-]
REMARK SMILES IDX 15 1 16 2 17 3 18 4 19 5 20 6 21 7 22 8 23 9 24 10 25 11
REMARK SMILES IDX 26 12 27 13 28 14 29 15 30 16 14 17 13 18 12 19 11 20 10 21
REMARK SMILES IDX 9 22 8 23 7 24 6 25 5 26 4 27 3 28 2 29 1 30
REMARK H PARENT
REMARK Flexibility Score: inf
ROOT
ATOM      1  C   UNL     1       3.312 -10.663   5.691  1.00  0.00     0.000 C 
ENDROOT
BRANCH   1   2
ATOM      2  C   UNL     1       2.075 -10.117   6.419  1.00  0.00     0.000 C 
BRANCH   2   3
ATOM      3  C   UNL     1       1.566 -11.120   7.465  1.00  0.00     0.000 C 
BRANCH   3   4
ATOM      4  C   UNL     1       2.386 -11.088   8.765  1.00  0.00     0.000 C 
BRANCH   4   5
ATOM      5  C   UNL     1       1.916  -9.988   9.732  1.00  0.00     0.000 C 
BRANCH   5   6
ATOM      6  C   UNL     1       1.323  -8.769   9.005  1.00  0.00     0.000 C 
BRANCH   6   7
ATOM      7  C   UNL     1       2.147  -7.477   9.198  1.00  0.00     0.000 C 
BRANCH   7   8
ATOM      8  C   UNL     1       3.635  -7.682   8.857  1.00  0.00     0.000 C 
BRANCH   8   9
ATOM      9  C   UNL     1       4.550  -7.555  10.085  1.00  0.00     0.000 C 
BRANCH   9  10
ATOM     10  C   UNL     1       5.651  -8.630  10.125  1.00  0.00     0.000 C 
BRANCH  10  11
ATOM     11  C   UNL     1       5.229  -9.919   9.401  1.00  0.00     0.000 C 
BRANCH  11  12
ATOM     12  C   UNL     1       6.253 -11.053   9.575  1.00  0.00     0.006 C 
BRANCH  12  13
ATOM     13  C   UNL     1       7.305 -11.055   8.458  1.00  0.00     0.053 C 
BRANCH  13  14
ATOM     14  C   UNL     1       8.630 -10.558   8.953  1.00  0.00     0.041 C 
ATOM     15  O   UNL     1       8.686  -9.758   9.925  1.00  0.00    -0.550 OA
ATOM     16  O   UNL     1       9.801 -10.952   8.316  1.00  0.00    -0.550 OA
ENDBRANCH  13  14
ENDBRANCH  12  13
ENDBRANCH  11  12
ENDBRANCH  10  11
ENDBRANCH   9  10
ENDBRANCH   8   9
ENDBRANCH   7   8
ENDBRANCH   6   7
ENDBRANCH   5   6
ENDBRANCH   4   5
ENDBRANCH   3   4
ENDBRANCH   2   3
ENDBRANCH   1   2
BRANCH   1  17
ATOM     17  C   UNL     1       3.626  -9.901   4.391  1.00  0.00     0.000 C 
BRANCH  17  18
ATOM     18  C   UNL     1       4.949 -10.297   3.706  1.00  0.00     0.000 C 
BRANCH  18  19
ATOM     19  C   UNL     1       5.715  -9.136   3.048  1.00  0.00     0.000 C 
BRANCH  19  20
ATOM     20  C   UNL     1       6.148  -8.063   4.057  1.00  0.00     0.000 C 
BRANCH  20  21
ATOM     21  C   UNL     1       5.671  -8.419   5.473  1.00  0.00     0.000 C 
BRANCH  21  22
ATOM     22  C   UNL     1       6.822  -8.482   6.492  1.00  0.00    -0.000 C 
BRANCH  22  23
ATOM     23  C   UNL     1       6.734  -7.365   7.548  1.00  0.00    -0.000 C 
BRANCH  23  24
ATOM     24  C   UNL     1       7.931  -6.401   7.492  1.00  0.00    -0.000 C 
BRANCH  24  25
ATOM     25  C   UNL     1       8.847  -6.531   8.720  1.00  0.00    -0.000 C 
BRANCH  25  26
ATOM     26  C   UNL     1       9.753  -5.300   8.916  1.00  0.00    -0.000 C 
BRANCH  26  27
ATOM     27  C   UNL     1       9.165  -4.190   9.811  1.00  0.00    -0.000 C 
BRANCH  27  28
ATOM     28  C   UNL     1       8.058  -3.344   9.156  1.00  0.00    -0.000 C 
BRANCH  28  29
ATOM     29  C   UNL     1       7.427  -2.334  10.125  1.00  0.00    -0.003 C 
ATOM     30  C   UNL     1       7.735  -0.900   9.703  1.00  0.00     0.004 C 
ENDBRANCH  28  29
ENDBRANCH  27  28
ENDBRANCH  26  27
ENDBRANCH  25  26
ENDBRANCH  24  25
ENDBRANCH  23  24
ENDBRANCH  22  23
ENDBRANCH  21  22
ENDBRANCH  20  21
ENDBRANCH  19  20
ENDBRANCH  18  19
ENDBRANCH  17  18
ENDBRANCH   1  17
TORSDOF 26
ENDMDL
MODEL 9
REMARK VINA RESULT:    -1.182      3.535      6.880
REMARK INTER + INTRA:          -4.512
REMARK INTER:                  -3.097
REMARK INTRA:                  -1.416
REMARK UNBOUND:                -1.535
REMARK SMILES CCCCCCCCCCCCCCCCCCCCCCCCCCCC(=O)[O-]
REMARK SMILES IDX 15 1 16 2 17 3 18 4 19 5 20 6 21 7 22 8 23 9 24 10 25 11
REMARK SMILES IDX 26 12 27 13 28 14 29 15 30 16 14 17 13 18 12 19 11 20 10 21
REMARK SMILES IDX 9 22 8 23 7 24 6 25 5 26 4 27 3 28 2 29 1 30
REMARK H PARENT
REMARK Flexibility Score: inf
ROOT
ATOM      1  C   UNL     1       2.385 -11.053   5.390  1.00  0.00     0.000 C 
ENDROOT
BRANCH   1   2
ATOM      2  C   UNL     1       1.503 -11.123   6.646  1.00  0.00     0.000 C 
BRANCH   2   3
ATOM      3  C   UNL     1       0.527  -9.938   6.699  1.00  0.00     0.000 C 
BRANCH   3   4
ATOM      4  C   UNL     1       0.995  -8.827   7.653  1.00  0.00     0.000 C 
BRANCH   4   5
ATOM      5  C   UNL     1       2.403  -8.311   7.312  1.00  0.00     0.000 C 
BRANCH   5   6
ATOM      6  C   UNL     1       3.383  -8.427   8.493  1.00  0.00     0.000 C 
BRANCH   6   7
ATOM      7  C   UNL     1       2.941  -9.453   9.560  1.00  0.00     0.000 C 
BRANCH   7   8
ATOM      8  C   UNL     1       4.131 -10.252  10.124  1.00  0.00     0.000 C 
BRANCH   8   9
ATOM      9  C   UNL     1       4.915 -11.001   9.035  1.00  0.00     0.000 C 
BRANCH   9  10
ATOM     10  C   UNL     1       6.415 -11.124   9.357  1.00  0.00     0.000 C 
BRANCH  10  11
ATOM     11  C   UNL     1       7.022  -9.790   9.818  1.00  0.00     0.000 C 
BRANCH  11  12
ATOM     12  C   UNL     1       8.559  -9.790   9.756  1.00  0.00     0.006 C 
BRANCH  12  13
ATOM     13  C   UNL     1       9.079 -10.259   8.391  1.00  0.00     0.053 C 
BRANCH  13  14
ATOM     14  C   UNL     1       9.728  -9.138   7.637  1.00  0.00     0.041 C 
ATOM     15  O   UNL     1      10.125  -9.313   6.454  1.00  0.00    -0.550 OA
ATOM     16  O   UNL     1       9.925  -7.908   8.255  1.00  0.00    -0.550 OA
ENDBRANCH  13  14
ENDBRANCH  12  13
ENDBRANCH  11  12
ENDBRANCH  10  11
ENDBRANCH   9  10
ENDBRANCH   8   9
ENDBRANCH   7   8
ENDBRANCH   6   7
ENDBRANCH   5   6
ENDBRANCH   4   5
ENDBRANCH   3   4
ENDBRANCH   2   3
ENDBRANCH   1   2
BRANCH   1  17
ATOM     17  C   UNL     1       3.613 -10.144   5.572  1.00  0.00     0.000 C 
BRANCH  17  18
ATOM     18  C   UNL     1       4.893 -10.628   4.861  1.00  0.00     0.000 C 
BRANCH  18  19
ATOM     19  C   UNL     1       4.873 -10.503   3.327  1.00  0.00     0.000 C 
BRANCH  19  20
ATOM     20  C   UNL     1       5.211  -9.086   2.843  1.00  0.00     0.000 C 
BRANCH  20  21
ATOM     21  C   UNL     1       5.455  -8.145   4.032  1.00  0.00     0.000 C 
BRANCH  21  22
ATOM     22  C   UNL     1       6.710  -8.517   4.839  1.00  0.00    -0.000 C 
BRANCH  22  23
ATOM     23  C   UNL     1       7.156  -7.389   5.789  1.00  0.00    -0.000 C 
BRANCH  23  24
ATOM     24  C   UNL     1       6.755  -7.652   7.249  1.00  0.00    -0.000 C 
BRANCH  24  25
ATOM     25  C   UNL     1       6.647  -6.357   8.071  1.00  0.00    -0.000 C 
BRANCH  25  26
ATOM     26  C   UNL     1       6.926  -6.580   9.569  1.00  0.00    -0.000 C 
BRANCH  26  27
ATOM     27  C   UNL     1       8.263  -6.004  10.080  1.00  0.00    -0.000 C 
BRANCH  27  28
ATOM     28  C   UNL     1       8.595  -4.587   9.579  1.00  0.00    -0.000 C 
BRANCH  28  29
ATOM     29  C   UNL     1       7.537  -3.549   9.982  1.00  0.00    -0.003 C 
ATOM     30  C   UNL     1       8.055  -2.128   9.774  1.00  0.00     0.004 C 
ENDBRANCH  28  29
ENDBRANCH  27  28
ENDBRANCH  26  27
ENDBRANCH  25  26
ENDBRANCH  24  25
ENDBRANCH  23  24
ENDBRANCH  22  23
ENDBRANCH  21  22
ENDBRANCH  20  21
ENDBRANCH  19  20
ENDBRANCH  18  19
ENDBRANCH  17  18
ENDBRANCH   1  17
TORSDOF 26
ENDMDL
