MODEL 1
REMARK VINA RESULT:    -3.168      0.000      0.000
REMARK INTER + INTRA:          -3.675
REMARK INTER:                  -3.446
REMARK INTRA:                  -0.230
REMARK UNBOUND:                -0.230
REMARK SMILES CC1(C)CC[C@]2(C(=O)[O-])CC[C@@]3(C)C(=CC[C@H]4[C@@]5(C)CC[C@H](O)C(C)(C)[C@H]5CC[C@]43C)[C@@H]2C1
REMARK SMILES IDX 6 1 5 2 10 3 32 4 4 5 11 6 14 7 33 8 2 9 12 10 15 11 1 12
REMARK SMILES IDX 3 13 13 14 30 15 16 16 17 17 29 18 31 19 18 20 28 21 27 22
REMARK SMILES IDX 20 23 19 24 24 25 21 26 22 27 25 28 26 29 7 30 8 31 9 32
REMARK SMILES IDX 23 33
REMARK H PARENT 23 34
REMARK Flexibility Score: inf
ROOT
ATOM      1  C   UNL     1      27.806   2.123  27.921  1.00  0.00     0.017 C 
ATOM      2  C   UNL     1      26.305   2.484  28.238  1.00  0.00     0.014 C 
ATOM      3  C   UNL     1      28.382   3.081  26.844  1.00  0.00     0.014 C 
ATOM      4  C   UNL     1      27.930   0.630  27.456  1.00  0.00     0.028 C 
ATOM      5  C   UNL     1      25.362   1.277  28.379  1.00  0.00     0.007 C 
ATOM      6  C   UNL     1      27.862   2.810  25.425  1.00  0.00     0.013 C 
ATOM      7  C   UNL     1      27.459   0.418  25.986  1.00  0.00    -0.064 C 
ATOM      8  C   UNL     1      27.355  -0.337  28.542  1.00  0.00     0.015 C 
ATOM      9  C   UNL     1      25.969   0.074  29.149  1.00  0.00    -0.035 C 
ATOM     10  C   UNL     1      28.046   1.344  24.892  1.00  0.00    -0.006 C 
ATOM     11  C   UNL     1      26.748  -0.675  25.639  1.00  0.00    -0.027 C 
ATOM     12  C   UNL     1      24.997  -1.125  29.055  1.00  0.00     0.011 C 
ATOM     13  C   UNL     1      26.113   0.431  30.652  1.00  0.00     0.011 C 
ATOM     14  C   UNL     1      29.589   1.061  24.870  1.00  0.00     0.017 C 
ATOM     15  C   UNL     1      27.380   1.157  23.375  1.00  0.00    -0.020 C 
ATOM     16  C   UNL     1      26.607  -1.125  24.232  1.00  0.00     0.032 C 
ATOM     17  C   UNL     1      26.269   0.022  23.273  1.00  0.00     0.006 C 
ATOM     18  C   UNL     1      26.762   2.484  22.801  1.00  0.00     0.008 C 
ATOM     19  C   UNL     1      28.494   0.746  22.337  1.00  0.00     0.012 C 
ATOM     20  C   UNL     1      24.735   0.480  23.216  1.00  0.00    -0.025 C 
ATOM     21  C   UNL     1      25.838   2.240  21.614  1.00  0.00     0.005 C 
ATOM     22  C   UNL     1      24.502   1.567  22.055  1.00  0.00     0.003 C 
ATOM     23  C   UNL     1      24.294   0.994  24.613  1.00  0.00     0.010 C 
ATOM     24  C   UNL     1      23.875  -0.783  22.880  1.00  0.00     0.012 C 
ATOM     25  C   UNL     1      23.237   2.556  22.221  1.00  0.00    -0.006 C 
ATOM     26  C   UNL     1      22.946   1.690  24.627  1.00  0.00     0.033 C 
ATOM     27  C   UNL     1      22.980   2.915  23.720  1.00  0.00     0.120 C 
ATOM     28  C   UNL     1      23.420   3.910  21.469  1.00  0.00     0.014 C 
ATOM     29  C   UNL     1      21.968   1.913  21.578  1.00  0.00     0.014 C 
ENDROOT
BRANCH   1  30
ATOM     30  C   UNL     1      28.664   2.378  29.168  1.00  0.00     0.048 C 
ATOM     31  O   UNL     1      29.868   2.007  29.223  1.00  0.00    -0.550 OA
ATOM     32  O   UNL     1      28.167   3.162  30.203  1.00  0.00    -0.550 OA
ENDBRANCH   1  30
BRANCH  27  33
ATOM     33  O   UNL     1      21.794   3.671  23.886  1.00  0.00    -0.393 OA
ATOM     34  H   UNL     1      21.610   3.757  24.856  1.00  0.00     0.210 HD
ENDBRANCH  27  33
TORSDOF 2
ENDMDL
MODEL 2
REMARK VINA RESULT:    -2.614      1.645      7.085
REMARK INTER + INTRA:          -3.073
REMARK INTER:                  -3.468
REMARK INTRA:                   0.396
REMARK UNBOUND:                -0.230
REMARK SMILES CC1(C)CC[C@]2(C(=O)[O-])CC[C@@]3(C)C(=CC[C@H]4[C@@]5(C)CC[C@H](O)C(C)(C)[C@H]5CC[C@]43C)[C@@H]2C1
REMARK SMILES IDX 6 1 5 2 10 3 32 4 4 5 11 6 14 7 33 8 2 9 12 10 15 11 1 12
REMARK SMILES IDX 3 13 13 14 30 15 16 16 17 17 29 18 31 19 18 20 28 21 27 22
REMARK SMILES IDX 20 23 19 24 24 25 21 26 22 27 25 28 26 29 7 30 8 31 9 32
REMARK SMILES IDX 23 33
REMARK H PARENT 23 34
REMARK Flexibility Score: inf
ROOT
ATOM      1  C   UNL     1      22.634   2.650  23.412  1.00  0.00     0.017 C 
ATOM      2  C   UNL     1      23.819   3.646  23.120  1.00  0.00     0.014 C 
ATOM      3  C   UNL     1      22.166   2.776  24.887  1.00  0.00     0.014 C 
ATOM      4  C   UNL     1      23.058   1.174  23.092  1.00  0.00     0.028 C 
ATOM      5  C   UNL     1      24.967   3.060  22.278  1.00  0.00     0.007 C 
ATOM      6  C   UNL     1      23.134   2.156  25.905  1.00  0.00     0.013 C 
ATOM      7  C   UNL     1      23.980   0.563  24.189  1.00  0.00    -0.064 C 
ATOM      8  C   UNL     1      23.524   1.044  21.605  1.00  0.00     0.015 C 
ATOM      9  C   UNL     1      24.506   2.157  21.103  1.00  0.00    -0.035 C 
ATOM     10  C   UNL     1      23.516   0.652  25.664  1.00  0.00    -0.006 C 
ATOM     11  C   UNL     1      25.028  -0.218  23.854  1.00  0.00    -0.027 C 
ATOM     12  C   UNL     1      25.747   1.493  20.464  1.00  0.00     0.011 C 
ATOM     13  C   UNL     1      23.835   3.026  20.006  1.00  0.00     0.011 C 
ATOM     14  C   UNL     1      22.182  -0.172  25.747  1.00  0.00     0.017 C 
ATOM     15  C   UNL     1      24.624   0.115  26.788  1.00  0.00    -0.020 C 
ATOM     16  C   UNL     1      25.693  -1.125  24.823  1.00  0.00     0.032 C 
ATOM     17  C   UNL     1      25.978  -0.449  26.169  1.00  0.00     0.006 C 
ATOM     18  C   UNL     1      25.004   1.205  27.855  1.00  0.00     0.008 C 
ATOM     19  C   UNL     1      24.019  -1.077  27.624  1.00  0.00     0.012 C 
ATOM     20  C   UNL     1      27.278   0.483  26.241  1.00  0.00    -0.025 C 
ATOM     21  C   UNL     1      26.267   0.857  28.633  1.00  0.00     0.005 C 
ATOM     22  C   UNL     1      27.543   0.986  27.745  1.00  0.00     0.003 C 
ATOM     23  C   UNL     1      27.132   1.658  25.235  1.00  0.00     0.010 C 
ATOM     24  C   UNL     1      28.505  -0.378  25.794  1.00  0.00     0.012 C 
ATOM     25  C   UNL     1      28.389   2.350  27.923  1.00  0.00    -0.006 C 
ATOM     26  C   UNL     1      28.178   2.746  25.389  1.00  0.00     0.033 C 
ATOM     27  C   UNL     1      28.086   3.368  26.778  1.00  0.00     0.120 C 
ATOM     28  C   UNL     1      28.079   3.087  29.262  1.00  0.00     0.014 C 
ATOM     29  C   UNL     1      29.914   2.027  27.992  1.00  0.00     0.014 C 
ENDROOT
BRANCH   1  30
ATOM     30  C   UNL     1      21.411   3.058  22.579  1.00  0.00     0.048 C 
ATOM     31  O   UNL     1      20.850   4.176  22.742  1.00  0.00    -0.550 OA
ATOM     32  O   UNL     1      20.996   2.260  21.520  1.00  0.00    -0.550 OA
ENDBRANCH   1  30
BRANCH  27  33
ATOM     33  O   UNL     1      28.922   4.509  26.851  1.00  0.00    -0.393 OA
ATOM     34  H   UNL     1      28.416   5.291  26.511  1.00  0.00     0.210 HD
ENDBRANCH  27  33
TORSDOF 2
ENDMDL
MODEL 3
REMARK VINA RESULT:    -2.054      1.275      1.654
REMARK INTER + INTRA:          -2.464
REMARK INTER:                  -2.245
REMARK INTRA:                  -0.219
REMARK UNBOUND:                -0.230
REMARK SMILES CC1(C)CC[C@]2(C(=O)[O-])CC[C@@]3(C)C(=CC[C@H]4[C@@]5(C)CC[C@H](O)C(C)(C)[C@H]5CC[C@]43C)[C@@H]2C1
REMARK SMILES IDX 6 1 5 2 10 3 32 4 4 5 11 6 14 7 33 8 2 9 12 10 15 11 1 12
REMARK SMILES IDX 3 13 13 14 30 15 16 16 17 17 29 18 31 19 18 20 28 21 27 22
REMARK SMILES IDX 20 23 19 24 24 25 21 26 22 27 25 28 26 29 7 30 8 31 9 32
REMARK SMILES IDX 23 33
REMARK H PARENT 23 34
REMARK Flexibility Score: inf
ROOT
ATOM      1  C   UNL     1      27.342   1.122  26.788  1.00  0.00     0.017 C 
ATOM      2  C   UNL     1      26.076   1.919  27.284  1.00  0.00     0.014 C 
ATOM      3  C   UNL     1      28.135   1.952  25.743  1.00  0.00     0.014 C 
ATOM      4  C   UNL     1      26.922  -0.266  26.187  1.00  0.00     0.028 C 
ATOM      5  C   UNL     1      24.792   1.082  27.416  1.00  0.00     0.007 C 
ATOM      6  C   UNL     1      27.461   2.031  24.366  1.00  0.00     0.013 C 
ATOM      7  C   UNL     1      26.311  -0.141  24.759  1.00  0.00    -0.064 C 
ATOM      8  C   UNL     1      26.128  -1.106  27.240  1.00  0.00     0.015 C 
ATOM      9  C   UNL     1      25.005  -0.333  28.015  1.00  0.00    -0.035 C 
ATOM     10  C   UNL     1      27.103   0.658  23.694  1.00  0.00    -0.006 C 
ATOM     11  C   UNL     1      25.251  -0.892  24.394  1.00  0.00    -0.027 C 
ATOM     12  C   UNL     1      23.681  -1.125  27.918  1.00  0.00     0.011 C 
ATOM     13  C   UNL     1      25.361  -0.216  29.521  1.00  0.00     0.011 C 
ATOM     14  C   UNL     1      28.455  -0.114  23.494  1.00  0.00     0.017 C 
ATOM     15  C   UNL     1      26.314   0.875  22.242  1.00  0.00    -0.020 C 
ATOM     16  C   UNL     1      24.873  -1.107  22.975  1.00  0.00     0.032 C 
ATOM     17  C   UNL     1      24.881   0.188  22.155  1.00  0.00     0.006 C 
ATOM     18  C   UNL     1      26.145   2.387  21.848  1.00  0.00     0.008 C 
ATOM     19  C   UNL     1      27.152   0.240  21.066  1.00  0.00     0.012 C 
ATOM     20  C   UNL     1      23.592   1.130  22.293  1.00  0.00    -0.025 C 
ATOM     21  C   UNL     1      25.116   2.599  20.743  1.00  0.00     0.005 C 
ATOM     22  C   UNL     1      23.664   2.358  21.258  1.00  0.00     0.003 C 
ATOM     23  C   UNL     1      23.444   1.599  23.766  1.00  0.00     0.010 C 
ATOM     24  C   UNL     1      22.335   0.268  21.938  1.00  0.00     0.012 C 
ATOM     25  C   UNL     1      22.822   3.683  21.634  1.00  0.00    -0.006 C 
ATOM     26  C   UNL     1      22.415   2.693  23.974  1.00  0.00     0.033 C 
ATOM     27  C   UNL     1      22.802   3.934  23.176  1.00  0.00     0.120 C 
ATOM     28  C   UNL     1      23.402   4.977  20.985  1.00  0.00     0.014 C 
ATOM     29  C   UNL     1      21.370   3.572  21.069  1.00  0.00     0.014 C 
ENDROOT
BRANCH   1  30
ATOM     30  C   UNL     1      28.316   0.936  27.960  1.00  0.00     0.048 C 
ATOM     31  O   UNL     1      29.260   0.101  27.902  1.00  0.00    -0.550 OA
ATOM     32  O   UNL     1      28.264   1.799  29.048  1.00  0.00    -0.550 OA
ENDBRANCH   1  30
BRANCH  27  33
ATOM     33  O   UNL     1      21.955   5.014  23.524  1.00  0.00    -0.393 OA
ATOM     34  H   UNL     1      21.828   5.009  24.507  1.00  0.00     0.210 HD
ENDBRANCH  27  33
TORSDOF 2
ENDMDL
MODEL 4
REMARK VINA RESULT:    -1.849      1.942      6.859
REMARK INTER + INTRA:          -2.241
REMARK INTER:                  -2.293
REMARK INTRA:                   0.052
REMARK UNBOUND:                -0.230
REMARK SMILES CC1(C)CC[C@]2(C(=O)[O-])CC[C@@]3(C)C(=CC[C@H]4[C@@]5(C)CC[C@H](O)C(C)(C)[C@H]5CC[C@]43C)[C@@H]2C1
REMARK SMILES IDX 6 1 5 2 10 3 32 4 4 5 11 6 14 7 33 8 2 9 12 10 15 11 1 12
REMARK SMILES IDX 3 13 13 14 30 15 16 16 17 17 29 18 31 19 18 20 28 21 27 22
REMARK SMILES IDX 20 23 19 24 24 25 21 26 22 27 25 28 26 29 7 30 8 31 9 32
REMARK SMILES IDX 23 33
REMARK H PARENT 23 34
REMARK Flexibility Score: inf
ROOT
ATOM      1  C   UNL     1      24.068   0.275  22.145  1.00  0.00     0.017 C 
ATOM      2  C   UNL     1      23.203   0.798  23.354  1.00  0.00     0.014 C 
ATOM      3  C   UNL     1      24.661  -1.124  22.463  1.00  0.00     0.014 C 
ATOM      4  C   UNL     1      25.209   1.293  21.799  1.00  0.00     0.028 C 
ATOM      5  C   UNL     1      23.401   2.284  23.700  1.00  0.00     0.007 C 
ATOM      6  C   UNL     1      25.818  -1.097  23.472  1.00  0.00     0.013 C 
ATOM      7  C   UNL     1      26.395   1.232  22.809  1.00  0.00    -0.064 C 
ATOM      8  C   UNL     1      24.613   2.701  21.473  1.00  0.00     0.015 C 
ATOM      9  C   UNL     1      23.519   3.220  22.467  1.00  0.00    -0.035 C 
ATOM     10  C   UNL     1      27.020  -0.151  23.116  1.00  0.00    -0.006 C 
ATOM     11  C   UNL     1      27.007   2.360  23.224  1.00  0.00    -0.027 C 
ATOM     12  C   UNL     1      23.898   4.639  22.949  1.00  0.00     0.011 C 
ATOM     13  C   UNL     1      22.142   3.329  21.759  1.00  0.00     0.011 C 
ATOM     14  C   UNL     1      27.614  -0.667  21.758  1.00  0.00     0.017 C 
ATOM     15  C   UNL     1      28.176  -0.154  24.317  1.00  0.00    -0.020 C 
ATOM     16  C   UNL     1      28.350   2.356  23.857  1.00  0.00     0.032 C 
ATOM     17  C   UNL     1      28.493   1.277  24.937  1.00  0.00     0.006 C 
ATOM     18  C   UNL     1      27.835  -1.125  25.505  1.00  0.00     0.008 C 
ATOM     19  C   UNL     1      29.552  -0.676  23.749  1.00  0.00     0.012 C 
ATOM     20  C   UNL     1      27.882   1.620  26.377  1.00  0.00    -0.025 C 
ATOM     21  C   UNL     1      28.672  -0.854  26.750  1.00  0.00     0.005 C 
ATOM     22  C   UNL     1      28.251   0.478  27.445  1.00  0.00     0.003 C 
ATOM     23  C   UNL     1      26.351   1.848  26.251  1.00  0.00     0.010 C 
ATOM     24  C   UNL     1      28.526   2.962  26.858  1.00  0.00     0.012 C 
ATOM     25  C   UNL     1      27.275   0.326  28.723  1.00  0.00    -0.006 C 
ATOM     26  C   UNL     1      25.620   1.929  27.577  1.00  0.00     0.033 C 
ATOM     27  C   UNL     1      25.788   0.624  28.349  1.00  0.00     0.120 C 
ATOM     28  C   UNL     1      27.296  -1.108  29.337  1.00  0.00     0.014 C 
ATOM     29  C   UNL     1      27.757   1.260  29.877  1.00  0.00     0.014 C 
ENDROOT
BRANCH   1  30
ATOM     30  C   UNL     1      23.157   0.045  20.931  1.00  0.00     0.048 C 
ATOM     31  O   UNL     1      21.962   0.450  20.922  1.00  0.00    -0.550 OA
ATOM     32  O   UNL     1      23.684  -0.480  19.758  1.00  0.00    -0.550 OA
ENDBRANCH   1  30
BRANCH  27  33
ATOM     33  O   UNL     1      24.947   0.626  29.489  1.00  0.00    -0.393 OA
ATOM     34  H   UNL     1      25.148  -0.181  30.028  1.00  0.00     0.210 HD
ENDBRANCH  27  33
TORSDOF 2
ENDMDL
MODEL 5
REMARK VINA RESULT:    -0.402     17.555     20.347
REMARK INTER + INTRA:          -0.667
REMARK INTER:                  -0.549
REMARK INTRA:                  -0.118
REMARK UNBOUND:                -0.230
REMARK SMILES CC1(C)CC[C@]2(C(=O)[O-])CC[C@@]3(C)C(=CC[C@H]4[C@@]5(C)CC[C@H](O)C(C)(C)[C@H]5CC[C@]43C)[C@@H]2C1
REMARK SMILES IDX 6 1 5 2 10 3 32 4 4 5 11 6 14 7 33 8 2 9 12 10 15 11 1 12
REMARK SMILES IDX 3 13 13 14 30 15 16 16 17 17 29 18 31 19 18 20 28 21 27 22
REMARK SMILES IDX 20 23 19 24 24 25 21 26 22 27 25 28 26 29 7 30 8 31 9 32
REMARK SMILES IDX 23 33
REMARK H PARENT 23 34
REMARK Flexibility Score: inf
ROOT
ATOM      1  C   UNL     1      30.306  17.331  36.360  1.00  0.00     0.017 C 
ATOM      2  C   UNL     1      30.278  16.256  35.207  1.00  0.00     0.014 C 
ATOM      3  C   UNL     1      30.976  18.642  35.868  1.00  0.00     0.014 C 
ATOM      4  C   UNL     1      31.050  16.770  37.622  1.00  0.00     0.028 C 
ATOM      5  C   UNL     1      30.636  14.825  35.645  1.00  0.00     0.007 C 
ATOM      6  C   UNL     1      32.501  18.546  35.718  1.00  0.00     0.013 C 
ATOM      7  C   UNL     1      32.599  16.761  37.451  1.00  0.00    -0.064 C 
ATOM      8  C   UNL     1      30.373  15.453  38.122  1.00  0.00     0.015 C 
ATOM      9  C   UNL     1      30.034  14.401  37.011  1.00  0.00    -0.035 C 
ATOM     10  C   UNL     1      33.290  18.069  36.990  1.00  0.00    -0.006 C 
ATOM     11  C   UNL     1      33.338  15.729  37.908  1.00  0.00    -0.027 C 
ATOM     12  C   UNL     1      30.618  13.027  37.413  1.00  0.00     0.011 C 
ATOM     13  C   UNL     1      28.498  14.224  36.874  1.00  0.00     0.011 C 
ATOM     14  C   UNL     1      33.010  19.124  38.117  1.00  0.00     0.017 C 
ATOM     15  C   UNL     1      34.923  17.936  36.682  1.00  0.00    -0.020 C 
ATOM     16  C   UNL     1      34.803  15.827  38.125  1.00  0.00     0.032 C 
ATOM     17  C   UNL     1      35.534  16.491  36.953  1.00  0.00     0.006 C 
ATOM     18  C   UNL     1      35.315  18.356  35.220  1.00  0.00     0.008 C 
ATOM     19  C   UNL     1      35.735  18.913  37.616  1.00  0.00     0.012 C 
ATOM     20  C   UNL     1      35.846  15.563  35.685  1.00  0.00    -0.025 C 
ATOM     21  C   UNL     1      36.710  17.885  34.823  1.00  0.00     0.005 C 
ATOM     22  C   UNL     1      36.756  16.340  34.613  1.00  0.00     0.003 C 
ATOM     23  C   UNL     1      34.513  15.049  35.076  1.00  0.00     0.010 C 
ATOM     24  C   UNL     1      36.648  14.320  36.194  1.00  0.00     0.012 C 
ATOM     25  C   UNL     1      36.676  15.837  33.081  1.00  0.00    -0.006 C 
ATOM     26  C   UNL     1      34.661  14.371  33.727  1.00  0.00     0.033 C 
ATOM     27  C   UNL     1      35.238  15.350  32.710  1.00  0.00     0.120 C 
ATOM     28  C   UNL     1      37.042  16.952  32.054  1.00  0.00     0.014 C 
ATOM     29  C   UNL     1      37.726  14.708  32.833  1.00  0.00     0.014 C 
ENDROOT
BRANCH   1  30
ATOM     30  C   UNL     1      28.868  17.736  36.711  1.00  0.00     0.048 C 
ATOM     31  O   UNL     1      27.880  17.246  36.098  1.00  0.00    -0.550 OA
ATOM     32  O   UNL     1      28.624  18.538  37.820  1.00  0.00    -0.550 OA
ENDBRANCH   1  30
BRANCH  27  33
ATOM     33  O   UNL     1      35.191  14.782  31.413  1.00  0.00    -0.393 OA
ATOM     34  H   UNL     1      35.176  13.795  31.504  1.00  0.00     0.210 HD
ENDBRANCH  27  33
TORSDOF 2
ENDMDL
