MODEL 1
REMARK VINA RESULT:    24.407      0.000      0.000
REMARK INTER + INTRA:          34.841
REMARK INTER:                  35.822
REMARK INTRA:                  -0.982
REMARK UNBOUND:                -0.982
REMARK SMILES O=c1c(O[C@@H]2O[C@@H](CO)[C@@H](O)[C@H](O)[C@H]2O)c(-c2ccc(O)c(O)c2)oc2cc(O)cc(O)c12
REMARK SMILES IDX 4 1 3 2 16 3 25 4 2 5 26 6 1 7 33 8 27 9 31 10 28 11 30 12
REMARK SMILES IDX 17 13 18 14 19 15 20 16 24 17 22 18 21 19 23 21 32 23 29 25
REMARK SMILES IDX 5 27 14 28 6 29 12 30 7 31 10 32 15 33 13 35 8 37 9 38 11 40
REMARK H PARENT 21 20 23 22 32 24 29 26 15 34 13 36 9 39 11 41
REMARK Flexibility Score: inf
ROOT
ATOM      1  O   UNL     1     109.736 108.386 108.617  1.00  0.00    -0.454 OA
ENDROOT
BRANCH   1   2
ATOM      2  C   UNL     1     109.248 107.923 107.341  1.00  0.00     0.214 A 
ATOM      3  C   UNL     1     108.767 108.831 106.369  1.00  0.00     0.180 A 
ATOM      4  O   UNL     1     107.853 108.419 105.516  1.00  0.00    -0.452 OA
ATOM      5  C   UNL     1     109.191 106.574 107.053  1.00  0.00     0.239 A 
ATOM      6  C   UNL     1     107.497 107.144 105.438  1.00  0.00     0.146 A 
ATOM      7  O   UNL     1     110.029 105.825 107.612  1.00  0.00    -0.285 OA
ATOM      8  C   UNL     1     108.240 106.131 106.134  1.00  0.00     0.111 A 
ATOM      9  C   UNL     1     106.393 106.768 104.664  1.00  0.00     0.094 A 
ATOM     10  C   UNL     1     107.974 104.775 105.858  1.00  0.00     0.134 A 
ATOM     11  C   UNL     1     106.104 105.445 104.441  1.00  0.00     0.123 A 
ATOM     12  C   UNL     1     106.992 104.459 104.897  1.00  0.00     0.093 A 
BRANCH   3  13
ATOM     13  C   UNL     1     109.456 110.101 106.144  1.00  0.00     0.025 A 
ATOM     14  C   UNL     1     110.829 110.006 105.925  1.00  0.00     0.016 A 
ATOM     15  C   UNL     1     111.703 110.952 106.456  1.00  0.00     0.051 A 
ATOM     16  C   UNL     1     111.187 112.082 107.138  1.00  0.00     0.157 A 
ATOM     17  C   UNL     1     108.934 111.286 106.676  1.00  0.00     0.062 A 
ATOM     18  C   UNL     1     109.793 112.301 107.178  1.00  0.00     0.158 A 
BRANCH  16  19
ATOM     19  O   UNL     1     112.054 112.788 107.959  1.00  0.00    -0.504 OA
ATOM     20  H   UNL     1     111.783 113.788 107.999  1.00  0.00     0.293 HD
ENDBRANCH  16  19
BRANCH  18  21
ATOM     21  O   UNL     1     109.250 113.489 107.723  1.00  0.00    -0.504 OA
ATOM     22  H   UNL     1     108.243 113.595 107.713  1.00  0.00     0.293 HD
ENDBRANCH  18  21
ENDBRANCH   3  13
BRANCH  10  23
ATOM     23  O   UNL     1     108.693 103.705 106.403  1.00  0.00    -0.507 OA
ATOM     24  H   UNL     1     109.696 103.682 106.503  1.00  0.00     0.293 HD
ENDBRANCH  10  23
BRANCH  11  25
ATOM     25  O   UNL     1     104.839 105.057 103.985  1.00  0.00    -0.508 OA
ATOM     26  H   UNL     1     104.577 104.066 103.984  1.00  0.00     0.293 HD
ENDBRANCH  11  25
ENDBRANCH   1   2
BRANCH   1  27
ATOM     27  C   UNL     1     108.970 109.386 109.366  1.00  0.00     0.339 C 
ATOM     28  C   UNL     1     108.316 108.842 110.723  1.00  0.00     0.214 C 
ATOM     29  O   UNL     1     109.862 110.480 109.650  1.00  0.00    -0.332 OA
ATOM     30  C   UNL     1     108.638 109.886 111.849  1.00  0.00     0.180 C 
ATOM     31  C   UNL     1     110.852 110.083 110.625  1.00  0.00     0.179 C 
ATOM     32  C   UNL     1     110.163 109.945 112.012  1.00  0.00     0.177 C 
BRANCH  28  33
ATOM     33  O   UNL     1     106.919 108.634 110.603  1.00  0.00    -0.384 OA
ATOM     34  H   UNL     1     106.475 108.848 111.478  1.00  0.00     0.211 HD
ENDBRANCH  28  33
BRANCH  30  35
ATOM     35  O   UNL     1     107.998 109.752 113.125  1.00  0.00    -0.387 OA
ATOM     36  H   UNL     1     108.365 108.883 113.512  1.00  0.00     0.211 HD
ENDBRANCH  30  35
BRANCH  31  37
ATOM     37  C   UNL     1     112.125 110.941 110.423  1.00  0.00     0.191 C 
BRANCH  37  38
ATOM     38  O   UNL     1     112.002 112.280 110.800  1.00  0.00    -0.394 OA
ATOM     39  H   UNL     1     111.845 112.805 109.949  1.00  0.00     0.210 HD
ENDBRANCH  37  38
ENDBRANCH  31  37
BRANCH  32  40
ATOM     40  O   UNL     1     110.567 110.893 112.997  1.00  0.00    -0.387 OA
ATOM     41  H   UNL     1     111.556 110.789 113.163  1.00  0.00     0.211 HD
ENDBRANCH  32  40
ENDBRANCH   1  27
TORSDOF 12
ENDMDL
MODEL 2
REMARK VINA RESULT:    27.285      2.041      6.851
REMARK INTER + INTRA:          39.065
REMARK INTER:                  38.858
REMARK INTRA:                   0.207
REMARK UNBOUND:                -0.982
REMARK SMILES O=c1c(O[C@@H]2O[C@@H](CO)[C@@H](O)[C@H](O)[C@H]2O)c(-c2ccc(O)c(O)c2)oc2cc(O)cc(O)c12
REMARK SMILES IDX 4 1 3 2 16 3 25 4 2 5 26 6 1 7 33 8 27 9 31 10 28 11 30 12
REMARK SMILES IDX 17 13 18 14 19 15 20 16 24 17 22 18 21 19 23 21 32 23 29 25
REMARK SMILES IDX 5 27 14 28 6 29 12 30 7 31 10 32 15 33 13 35 8 37 9 38 11 40
REMARK H PARENT 21 20 23 22 32 24 29 26 15 34 13 36 9 39 11 41
REMARK Flexibility Score: inf
ROOT
ATOM      1  O   UNL     1     108.693 109.811 106.429  1.00  0.00    -0.454 OA
ENDROOT
BRANCH   1   2
ATOM      2  C   UNL     1     109.551 110.341 107.462  1.00  0.00     0.214 A 
ATOM      3  C   UNL     1     110.958 110.344 107.314  1.00  0.00     0.180 A 
ATOM      4  O   UNL     1     111.708 110.282 108.393  1.00  0.00    -0.452 OA
ATOM      5  C   UNL     1     109.022 110.813 108.646  1.00  0.00     0.239 A 
ATOM      6  C   UNL     1     111.188 110.383 109.609  1.00  0.00     0.146 A 
ATOM      7  O   UNL     1     107.861 111.290 108.615  1.00  0.00    -0.285 OA
ATOM      8  C   UNL     1     109.817 110.770 109.792  1.00  0.00     0.111 A 
ATOM      9  C   UNL     1     111.977 110.121 110.735  1.00  0.00     0.094 A 
ATOM     10  C   UNL     1     109.359 111.081 111.088  1.00  0.00     0.134 A 
ATOM     11  C   UNL     1     111.509 110.372 112.001  1.00  0.00     0.123 A 
ATOM     12  C   UNL     1     110.269 111.010 112.163  1.00  0.00     0.093 A 
BRANCH   3  13
ATOM     13  C   UNL     1     111.560 110.679 106.024  1.00  0.00     0.025 A 
ATOM     14  C   UNL     1     112.125 111.951 105.940  1.00  0.00     0.016 A 
ATOM     15  C   UNL     1     112.009 112.706 104.776  1.00  0.00     0.051 A 
ATOM     16  C   UNL     1     111.402 112.139 103.627  1.00  0.00     0.157 A 
ATOM     17  C   UNL     1     111.103 110.060 104.855  1.00  0.00     0.062 A 
ATOM     18  C   UNL     1     111.022 110.780 103.632  1.00  0.00     0.158 A 
BRANCH  16  19
ATOM     19  O   UNL     1     110.970 113.007 102.634  1.00  0.00    -0.504 OA
ATOM     20  H   UNL     1     111.775 113.504 102.210  1.00  0.00     0.293 HD
ENDBRANCH  16  19
BRANCH  18  21
ATOM     21  O   UNL     1     110.547 110.144 102.461  1.00  0.00    -0.504 OA
ATOM     22  H   UNL     1     109.765 110.568 101.977  1.00  0.00     0.293 HD
ENDBRANCH  18  21
ENDBRANCH   3  13
BRANCH  10  23
ATOM     23  O   UNL     1     108.075 111.558 111.377  1.00  0.00    -0.507 OA
ATOM     24  H   UNL     1     107.703 111.670 112.307  1.00  0.00     0.293 HD
ENDBRANCH  10  23
BRANCH  11  25
ATOM     25  O   UNL     1     112.125 109.799 113.118  1.00  0.00    -0.508 OA
ATOM     26  H   UNL     1     111.856 108.858 113.425  1.00  0.00     0.293 HD
ENDBRANCH  11  25
ENDBRANCH   1   2
BRANCH   1  27
ATOM     27  C   UNL     1     109.075 108.581 105.731  1.00  0.00     0.339 C 
ATOM     28  C   UNL     1     109.227 107.299 106.680  1.00  0.00     0.214 C 
ATOM     29  O   UNL     1     108.074 108.335 104.725  1.00  0.00    -0.332 OA
ATOM     30  C   UNL     1     108.457 106.116 105.996  1.00  0.00     0.180 C 
ATOM     31  C   UNL     1     106.826 107.945 105.340  1.00  0.00     0.179 C 
ATOM     32  C   UNL     1     106.976 106.507 105.911  1.00  0.00     0.177 C 
BRANCH  28  33
ATOM     33  O   UNL     1     110.584 106.960 106.914  1.00  0.00    -0.384 OA
ATOM     34  H   UNL     1     110.643 105.993 107.179  1.00  0.00     0.211 HD
ENDBRANCH  28  33
BRANCH  30  35
ATOM     35  O   UNL     1     108.602 104.793 106.529  1.00  0.00    -0.387 OA
ATOM     36  H   UNL     1     107.657 104.408 106.535  1.00  0.00     0.211 HD
ENDBRANCH  30  35
BRANCH  31  37
ATOM     37  C   UNL     1     105.662 108.336 104.398  1.00  0.00     0.191 C 
BRANCH  37  38
ATOM     38  O   UNL     1     105.827 107.959 103.063  1.00  0.00    -0.394 OA
ATOM     39  H   UNL     1     106.368 107.104 103.071  1.00  0.00     0.210 HD
ENDBRANCH  37  38
ENDBRANCH  31  37
BRANCH  32  40
ATOM     40  O   UNL     1     106.187 105.506 105.273  1.00  0.00    -0.387 OA
ATOM     41  H   UNL     1     106.081 105.746 104.299  1.00  0.00     0.211 HD
ENDBRANCH  32  40
ENDBRANCH   1  27
TORSDOF 12
ENDMDL
MODEL 3
REMARK VINA RESULT:    27.365      1.679      2.478
REMARK INTER + INTRA:          39.181
REMARK INTER:                  33.765
REMARK INTRA:                   5.416
REMARK UNBOUND:                -0.982
REMARK SMILES O=c1c(O[C@@H]2O[C@@H](CO)[C@@H](O)[C@H](O)[C@H]2O)c(-c2ccc(O)c(O)c2)oc2cc(O)cc(O)c12
REMARK SMILES IDX 4 1 3 2 16 3 25 4 2 5 26 6 1 7 33 8 27 9 31 10 28 11 30 12
REMARK SMILES IDX 17 13 18 14 19 15 20 16 24 17 22 18 21 19 23 21 32 23 29 25
REMARK SMILES IDX 5 27 14 28 6 29 12 30 7 31 10 32 15 33 13 35 8 37 9 38 11 40
REMARK H PARENT 21 20 23 22 32 24 29 26 15 34 13 36 9 39 11 41
REMARK Flexibility Score: inf
ROOT
ATOM      1  O   UNL     1     108.231 108.487 108.772  1.00  0.00    -0.454 OA
ENDROOT
BRANCH   1   2
ATOM      2  C   UNL     1     108.271 108.109 107.380  1.00  0.00     0.214 A 
ATOM      3  C   UNL     1     108.977 108.886 106.432  1.00  0.00     0.180 A 
ATOM      4  O   UNL     1     108.568 108.884 105.182  1.00  0.00    -0.452 OA
ATOM      5  C   UNL     1     107.578 107.005 106.927  1.00  0.00     0.239 A 
ATOM      6  C   UNL     1     107.624 108.053 104.759  1.00  0.00     0.146 A 
ATOM      7  O   UNL     1     107.397 106.061 107.735  1.00  0.00    -0.285 OA
ATOM      8  C   UNL     1     107.158 106.984 105.597  1.00  0.00     0.111 A 
ATOM      9  C   UNL     1     107.075 108.205 103.480  1.00  0.00     0.094 A 
ATOM     10  C   UNL     1     106.322 105.994 105.043  1.00  0.00     0.134 A 
ATOM     11  C   UNL     1     106.217 107.267 102.964  1.00  0.00     0.123 A 
ATOM     12  C   UNL     1     105.979 106.083 103.679  1.00  0.00     0.093 A 
BRANCH   3  13
ATOM     13  C   UNL     1     110.279 109.457 106.774  1.00  0.00     0.025 A 
ATOM     14  C   UNL     1     110.861 108.965 107.941  1.00  0.00     0.016 A 
ATOM     15  C   UNL     1     111.558 109.810 108.801  1.00  0.00     0.051 A 
ATOM     16  C   UNL     1     111.771 111.164 108.437  1.00  0.00     0.157 A 
ATOM     17  C   UNL     1     110.618 110.743 106.336  1.00  0.00     0.062 A 
ATOM     18  C   UNL     1     111.376 111.618 107.160  1.00  0.00     0.158 A 
BRANCH  16  19
ATOM     19  O   UNL     1     112.125 112.052 109.443  1.00  0.00    -0.504 OA
ATOM     20  H   UNL     1     111.569 111.871 110.299  1.00  0.00     0.293 HD
ENDBRANCH  16  19
BRANCH  18  21
ATOM     21  O   UNL     1     111.701 112.919 106.708  1.00  0.00    -0.504 OA
ATOM     22  H   UNL     1     111.686 113.089 105.710  1.00  0.00     0.293 HD
ENDBRANCH  18  21
ENDBRANCH   3  13
BRANCH  10  23
ATOM     23  O   UNL     1     105.882 104.859 105.734  1.00  0.00    -0.507 OA
ATOM     24  H   UNL     1     106.484 104.117 106.057  1.00  0.00     0.293 HD
ENDBRANCH  10  23
BRANCH  11  25
ATOM     25  O   UNL     1     105.402 107.569 101.867  1.00  0.00    -0.508 OA
ATOM     26  H   UNL     1     104.560 107.013 101.686  1.00  0.00     0.293 HD
ENDBRANCH  11  25
ENDBRANCH   1   2
BRANCH   1  27
ATOM     27  C   UNL     1     109.065 109.593 109.247  1.00  0.00     0.339 C 
ATOM     28  C   UNL     1     108.312 111.005 109.329  1.00  0.00     0.214 C 
ATOM     29  O   UNL     1     109.563 109.223 110.547  1.00  0.00    -0.332 OA
ATOM     30  C   UNL     1     108.647 111.634 110.726  1.00  0.00     0.180 C 
ATOM     31  C   UNL     1     108.493 109.228 111.518  1.00  0.00     0.179 C 
ATOM     32  C   UNL     1     108.087 110.701 111.807  1.00  0.00     0.177 C 
BRANCH  28  33
ATOM     33  O   UNL     1     108.683 111.876 108.273  1.00  0.00    -0.384 OA
ATOM     34  H   UNL     1     108.232 112.764 108.401  1.00  0.00     0.211 HD
ENDBRANCH  28  33
BRANCH  30  35
ATOM     35  O   UNL     1     108.269 112.993 110.985  1.00  0.00    -0.387 OA
ATOM     36  H   UNL     1     109.127 113.448 111.296  1.00  0.00     0.211 HD
ENDBRANCH  30  35
BRANCH  31  37
ATOM     37  C   UNL     1     108.843 108.235 112.652  1.00  0.00     0.191 C 
BRANCH  37  38
ATOM     38  O   UNL     1     110.160 108.301 113.112  1.00  0.00    -0.394 OA
ATOM     39  H   UNL     1     110.258 107.575 113.810  1.00  0.00     0.210 HD
ENDBRANCH  37  38
ENDBRANCH  31  37
BRANCH  32  40
ATOM     40  O   UNL     1     108.366 111.168 113.125  1.00  0.00    -0.387 OA
ATOM     41  H   UNL     1     107.724 110.731 113.769  1.00  0.00     0.211 HD
ENDBRANCH  32  40
ENDBRANCH   1  27
TORSDOF 12
ENDMDL
