MODEL 1
REMARK VINA RESULT:     1.613      0.000      0.000
REMARK INTER + INTRA:           1.852
REMARK INTER:                   1.943
REMARK INTRA:                  -0.091
REMARK UNBOUND:                -0.091
REMARK SMILES O=c1c(O)c(-c2ccc(O)c(O)c2)oc2cc(O)cc(O)c12
REMARK SMILES IDX 5 1 3 2 2 3 1 4 22 5 20 6 19 7 17 8 16 9 15 10 14 11 6 12
REMARK SMILES IDX 7 13 8 14 9 15 13 16 11 17 10 18 12 20 4 22 21 24 18 26
REMARK H PARENT 10 19 12 21 4 23 21 25 18 27
REMARK Flexibility Score: inf
ROOT
ATOM      1  C   UNL     1      -0.889  32.069  26.821  1.00  0.00     0.180 A 
ATOM      2  C   UNL     1      -1.872  32.412  27.765  1.00  0.00     0.208 A 
ATOM      3  C   UNL     1      -3.165  32.727  27.318  1.00  0.00     0.238 A 
ATOM      4  O   UNL     1      -4.026  33.086  28.163  1.00  0.00    -0.285 OA
ATOM      5  C   UNL     1      -3.463  32.679  25.935  1.00  0.00     0.111 A 
ATOM      6  C   UNL     1      -4.750  32.939  25.373  1.00  0.00     0.134 A 
ATOM      7  C   UNL     1      -4.898  32.990  23.982  1.00  0.00     0.093 A 
ATOM      8  C   UNL     1      -3.821  32.727  23.132  1.00  0.00     0.123 A 
ATOM      9  C   UNL     1      -2.576  32.413  23.671  1.00  0.00     0.094 A 
ATOM     10  C   UNL     1      -2.388  32.390  25.055  1.00  0.00     0.146 A 
ATOM     11  O   UNL     1      -1.181  32.096  25.526  1.00  0.00    -0.452 OA
ENDROOT
BRANCH   1  12
ATOM     12  C   UNL     1       0.489  31.700  27.219  1.00  0.00     0.025 A 
ATOM     13  C   UNL     1       0.977  30.421  26.913  1.00  0.00     0.016 A 
ATOM     14  C   UNL     1       2.267  30.044  27.297  1.00  0.00     0.051 A 
ATOM     15  C   UNL     1       3.082  30.933  28.004  1.00  0.00     0.157 A 
ATOM     16  C   UNL     1       1.302  32.586  27.948  1.00  0.00     0.062 A 
ATOM     17  C   UNL     1       2.597  32.209  28.335  1.00  0.00     0.158 A 
BRANCH  15  18
ATOM     18  O   UNL     1       4.366  30.531  28.372  1.00  0.00    -0.504 OA
ATOM     19  H   UNL     1       5.094  31.198  28.601  1.00  0.00     0.293 HD
ENDBRANCH  15  18
BRANCH  17  20
ATOM     20  O   UNL     1       3.399  33.096  29.053  1.00  0.00    -0.504 OA
ATOM     21  H   UNL     1       4.333  33.339  28.742  1.00  0.00     0.293 HD
ENDBRANCH  17  20
ENDBRANCH   1  12
BRANCH   2  22
ATOM     22  O   UNL     1      -1.551  32.474  29.125  1.00  0.00    -0.502 OA
ATOM     23  H   UNL     1      -0.729  32.027  29.510  1.00  0.00     0.293 HD
ENDBRANCH   2  22
BRANCH   6  24
ATOM     24  O   UNL     1      -5.909  33.125  26.132  1.00  0.00    -0.507 OA
ATOM     25  H   UNL     1      -6.810  33.372  25.751  1.00  0.00     0.293 HD
ENDBRANCH   6  24
BRANCH   8  26
ATOM     26  O   UNL     1      -3.982  32.764  21.749  1.00  0.00    -0.508 OA
ATOM     27  H   UNL     1      -4.860  33.040  21.325  1.00  0.00     0.293 HD
ENDBRANCH   8  26
TORSDOF 6
ENDMDL
MODEL 2
REMARK VINA RESULT:     4.603      3.387      6.566
REMARK INTER + INTRA:           5.454
REMARK INTER:                   5.374
REMARK INTRA:                   0.081
REMARK UNBOUND:                -0.091
REMARK SMILES O=c1c(O)c(-c2ccc(O)c(O)c2)oc2cc(O)cc(O)c12
REMARK SMILES IDX 5 1 3 2 2 3 1 4 22 5 20 6 19 7 17 8 16 9 15 10 14 11 6 12
REMARK SMILES IDX 7 13 8 14 9 15 13 16 11 17 10 18 12 20 4 22 21 24 18 26
REMARK H PARENT 10 19 12 21 4 23 21 25 18 27
REMARK Flexibility Score: inf
ROOT
ATOM      1  C   UNL     1       0.440  30.906  24.377  1.00  0.00     0.180 A 
ATOM      2  C   UNL     1      -0.800  31.235  24.952  1.00  0.00     0.208 A 
ATOM      3  C   UNL     1      -0.843  31.627  26.299  1.00  0.00     0.238 A 
ATOM      4  O   UNL     1      -1.961  31.867  26.824  1.00  0.00    -0.285 OA
ATOM      5  C   UNL     1       0.356  31.700  27.050  1.00  0.00     0.111 A 
ATOM      6  C   UNL     1       0.435  32.123  28.411  1.00  0.00     0.134 A 
ATOM      7  C   UNL     1       1.654  32.033  29.092  1.00  0.00     0.093 A 
ATOM      8  C   UNL     1       2.812  31.595  28.443  1.00  0.00     0.123 A 
ATOM      9  C   UNL     1       2.757  31.237  27.099  1.00  0.00     0.094 A 
ATOM     10  C   UNL     1       1.547  31.282  26.402  1.00  0.00     0.146 A 
ATOM     11  O   UNL     1       1.537  30.921  25.124  1.00  0.00    -0.452 OA
ENDROOT
BRANCH   1  12
ATOM     12  C   UNL     1       0.568  30.509  22.956  1.00  0.00     0.025 A 
ATOM     13  C   UNL     1      -0.105  31.247  21.970  1.00  0.00     0.016 A 
ATOM     14  C   UNL     1      -0.016  30.877  20.624  1.00  0.00     0.051 A 
ATOM     15  C   UNL     1       0.732  29.758  20.247  1.00  0.00     0.157 A 
ATOM     16  C   UNL     1       1.302  29.371  22.577  1.00  0.00     0.062 A 
ATOM     17  C   UNL     1       1.391  28.998  21.228  1.00  0.00     0.158 A 
BRANCH  15  18
ATOM     18  O   UNL     1       0.804  29.414  18.897  1.00  0.00    -0.504 OA
ATOM     19  H   UNL     1      -0.006  29.446  18.290  1.00  0.00     0.293 HD
ENDBRANCH  15  18
BRANCH  17  20
ATOM     20  O   UNL     1       2.127  27.872  20.860  1.00  0.00    -0.504 OA
ATOM     21  H   UNL     1       2.774  27.427  21.502  1.00  0.00     0.293 HD
ENDBRANCH  17  20
ENDBRANCH   1  12
BRANCH   2  22
ATOM     22  O   UNL     1      -1.974  31.135  24.199  1.00  0.00    -0.502 OA
ATOM     23  H   UNL     1      -1.967  30.944  23.205  1.00  0.00     0.293 HD
ENDBRANCH   2  22
BRANCH   6  24
ATOM     24  O   UNL     1      -0.640  32.662  29.125  1.00  0.00    -0.507 OA
ATOM     25  H   UNL     1      -1.105  33.527  28.896  1.00  0.00     0.293 HD
ENDBRANCH   6  24
BRANCH   8  26
ATOM     26  O   UNL     1       4.025  31.523  29.125  1.00  0.00    -0.508 OA
ATOM     27  H   UNL     1       4.105  31.803  30.095  1.00  0.00     0.293 HD
ENDBRANCH   8  26
TORSDOF 6
ENDMDL
