MODEL 1
REMARK VINA RESULT:    -3.731      0.000      0.000
REMARK INTER + INTRA:          -7.039
REMARK INTER:                  -6.349
REMARK INTRA:                  -0.690
REMARK UNBOUND:                -0.690
REMARK SMILES CCCCCCCCCCCCCC(=O)[O-]
REMARK SMILES IDX 8 1 9 2 10 3 11 4 12 5 13 6 14 7 15 8 16 9 7 10 6 11 5 12
REMARK SMILES IDX 4 13 3 14 2 15 1 16
REMARK H PARENT
REMARK Flexibility Score: inf
ROOT
ATOM      1  C   UNL     1     121.243  72.259   1.421  1.00  0.00     0.000 C 
ENDROOT
BRANCH   1   2
ATOM      2  C   UNL     1     121.166  72.542   2.930  1.00  0.00     0.000 C 
BRANCH   2   3
ATOM      3  C   UNL     1     120.069  71.726   3.635  1.00  0.00     0.000 C 
BRANCH   3   4
ATOM      4  C   UNL     1     120.561  71.045   4.925  1.00  0.00     0.000 C 
BRANCH   4   5
ATOM      5  C   UNL     1     120.088  71.701   6.238  1.00  0.00     0.006 C 
BRANCH   5   6
ATOM      6  C   UNL     1     121.063  71.552   7.416  1.00  0.00     0.053 C 
BRANCH   6   7
ATOM      7  C   UNL     1     120.588  72.284   8.634  1.00  0.00     0.041 C 
ATOM      8  O   UNL     1     119.942  71.677   9.527  1.00  0.00    -0.550 OA
ATOM      9  O   UNL     1     120.890  73.630   8.797  1.00  0.00    -0.550 OA
ENDBRANCH   6   7
ENDBRANCH   5   6
ENDBRANCH   4   5
ENDBRANCH   3   4
ENDBRANCH   2   3
ENDBRANCH   1   2
BRANCH   1  10
ATOM     10  C   UNL     1     119.875  71.946   0.778  1.00  0.00     0.000 C 
BRANCH  10  11
ATOM     11  C   UNL     1     119.913  70.665  -0.073  1.00  0.00    -0.000 C 
BRANCH  11  12
ATOM     12  C   UNL     1     121.327  70.072  -0.203  1.00  0.00    -0.000 C 
BRANCH  12  13
ATOM     13  C   UNL     1     121.378  68.553  -0.452  1.00  0.00    -0.000 C 
BRANCH  13  14
ATOM     14  C   UNL     1     120.004  67.878  -0.306  1.00  0.00    -0.000 C 
BRANCH  14  15
ATOM     15  C   UNL     1     119.900  66.574  -1.112  1.00  0.00    -0.003 C 
ATOM     16  C   UNL     1     119.875  66.810  -2.622  1.00  0.00     0.004 C 
ENDBRANCH  14  15
ENDBRANCH  13  14
ENDBRANCH  12  13
ENDBRANCH  11  12
ENDBRANCH  10  11
ENDBRANCH   1  10
TORSDOF 12
ENDMDL
MODEL 2
REMARK VINA RESULT:    -3.688      0.949      1.428
REMARK INTER + INTRA:          -6.965
REMARK INTER:                  -6.585
REMARK INTRA:                  -0.379
REMARK UNBOUND:                -0.690
REMARK SMILES CCCCCCCCCCCCCC(=O)[O-]
REMARK SMILES IDX 8 1 9 2 10 3 11 4 12 5 13 6 14 7 15 8 16 9 7 10 6 11 5 12
REMARK SMILES IDX 4 13 3 14 2 15 1 16
REMARK H PARENT
REMARK Flexibility Score: inf
ROOT
ATOM      1  C   UNL     1     121.360  72.835   2.347  1.00  0.00     0.000 C 
ENDROOT
BRANCH   1   2
ATOM      2  C   UNL     1     120.706  72.551   3.709  1.00  0.00     0.000 C 
BRANCH   2   3
ATOM      3  C   UNL     1     121.152  71.211   4.318  1.00  0.00     0.000 C 
BRANCH   3   4
ATOM      4  C   UNL     1     120.149  70.652   5.343  1.00  0.00     0.000 C 
BRANCH   4   5
ATOM      5  C   UNL     1     119.877  71.558   6.561  1.00  0.00     0.006 C 
BRANCH   5   6
ATOM      6  C   UNL     1     120.826  71.335   7.749  1.00  0.00     0.053 C 
BRANCH   6   7
ATOM      7  C   UNL     1     120.671  72.394   8.797  1.00  0.00     0.041 C 
ATOM      8  O   UNL     1     120.917  73.598   8.524  1.00  0.00    -0.550 OA
ATOM      9  O   UNL     1     120.223  72.054  10.067  1.00  0.00    -0.550 OA
ENDBRANCH   6   7
ENDBRANCH   5   6
ENDBRANCH   4   5
ENDBRANCH   3   4
ENDBRANCH   2   3
ENDBRANCH   1   2
BRANCH   1  10
ATOM     10  C   UNL     1     120.473  72.457   1.142  1.00  0.00     0.000 C 
BRANCH  10  11
ATOM     11  C   UNL     1     119.892  71.038   1.272  1.00  0.00    -0.000 C 
BRANCH  11  12
ATOM     12  C   UNL     1     120.027  70.212  -0.020  1.00  0.00    -0.000 C 
BRANCH  12  13
ATOM     13  C   UNL     1     121.009  69.030   0.061  1.00  0.00    -0.000 C 
BRANCH  13  14
ATOM     14  C   UNL     1     120.430  67.731  -0.525  1.00  0.00    -0.000 C 
BRANCH  14  15
ATOM     15  C   UNL     1     120.008  66.732   0.564  1.00  0.00    -0.003 C 
ATOM     16  C   UNL     1     119.920  65.295   0.049  1.00  0.00     0.004 C 
ENDBRANCH  14  15
ENDBRANCH  13  14
ENDBRANCH  12  13
ENDBRANCH  11  12
ENDBRANCH  10  11
ENDBRANCH   1  10
TORSDOF 12
ENDMDL
MODEL 3
REMARK VINA RESULT:    -3.597      6.191      9.824
REMARK INTER + INTRA:          -6.811
REMARK INTER:                  -6.383
REMARK INTRA:                  -0.427
REMARK UNBOUND:                -0.690
REMARK SMILES CCCCCCCCCCCCCC(=O)[O-]
REMARK SMILES IDX 8 1 9 2 10 3 11 4 12 5 13 6 14 7 15 8 16 9 7 10 6 11 5 12
REMARK SMILES IDX 4 13 3 14 2 15 1 16
REMARK H PARENT
REMARK Flexibility Score: inf
ROOT
ATOM      1  C   UNL     1     120.611  70.176  -0.289  1.00  0.00     0.000 C 
ENDROOT
BRANCH   1   2
ATOM      2  C   UNL     1     120.342  68.687  -0.563  1.00  0.00     0.000 C 
BRANCH   2   3
ATOM      3  C   UNL     1     119.879  68.419  -2.004  1.00  0.00     0.000 C 
BRANCH   3   4
ATOM      4  C   UNL     1     120.363  69.488  -3.000  1.00  0.00     0.000 C 
BRANCH   4   5
ATOM      5  C   UNL     1     119.933  69.268  -4.465  1.00  0.00     0.006 C 
BRANCH   5   6
ATOM      6  C   UNL     1     120.199  67.853  -5.004  1.00  0.00     0.053 C 
BRANCH   6   7
ATOM      7  C   UNL     1     120.798  67.880  -6.377  1.00  0.00     0.041 C 
ATOM      8  O   UNL     1     121.092  66.805  -6.962  1.00  0.00    -0.550 OA
ATOM      9  O   UNL     1     120.999  69.092  -7.024  1.00  0.00    -0.550 OA
ENDBRANCH   6   7
ENDBRANCH   5   6
ENDBRANCH   4   5
ENDBRANCH   3   4
ENDBRANCH   2   3
ENDBRANCH   1   2
BRANCH   1  10
ATOM     10  C   UNL     1     120.436  70.575   1.192  1.00  0.00     0.000 C 
BRANCH  10  11
ATOM     11  C   UNL     1     120.679  72.077   1.421  1.00  0.00    -0.000 C 
BRANCH  11  12
ATOM     12  C   UNL     1     121.275  72.385   2.806  1.00  0.00    -0.000 C 
BRANCH  12  13
ATOM     13  C   UNL     1     120.318  72.167   3.992  1.00  0.00    -0.000 C 
BRANCH  13  14
ATOM     14  C   UNL     1     120.841  71.127   4.997  1.00  0.00    -0.000 C 
BRANCH  14  15
ATOM     15  C   UNL     1     120.131  71.215   6.358  1.00  0.00    -0.003 C 
ATOM     16  C   UNL     1     121.080  71.573   7.501  1.00  0.00     0.004 C 
ENDBRANCH  14  15
ENDBRANCH  13  14
ENDBRANCH  12  13
ENDBRANCH  11  12
ENDBRANCH  10  11
ENDBRANCH   1  10
TORSDOF 12
ENDMDL
MODEL 4
REMARK VINA RESULT:    -3.531      2.515      4.036
REMARK INTER + INTRA:          -6.699
REMARK INTER:                  -5.997
REMARK INTRA:                  -0.702
REMARK UNBOUND:                -0.690
REMARK SMILES CCCCCCCCCCCCCC(=O)[O-]
REMARK SMILES IDX 8 1 9 2 10 3 11 4 12 5 13 6 14 7 15 8 16 9 7 10 6 11 5 12
REMARK SMILES IDX 4 13 3 14 2 15 1 16
REMARK H PARENT
REMARK Flexibility Score: inf
ROOT
ATOM      1  C   UNL     1     120.871  68.784  -0.471  1.00  0.00     0.000 C 
ENDROOT
BRANCH   1   2
ATOM      2  C   UNL     1     120.461  69.669   0.717  1.00  0.00     0.000 C 
BRANCH   2   3
ATOM      3  C   UNL     1     120.036  71.083   0.290  1.00  0.00     0.000 C 
BRANCH   3   4
ATOM      4  C   UNL     1     120.623  72.186   1.190  1.00  0.00     0.000 C 
BRANCH   4   5
ATOM      5  C   UNL     1     119.972  72.318   2.582  1.00  0.00     0.006 C 
BRANCH   5   6
ATOM      6  C   UNL     1     120.957  72.252   3.759  1.00  0.00     0.053 C 
BRANCH   6   7
ATOM      7  C   UNL     1     120.606  71.162   4.725  1.00  0.00     0.041 C 
ATOM      8  O   UNL     1     120.020  70.123   4.323  1.00  0.00    -0.550 OA
ATOM      9  O   UNL     1     120.955  71.281   6.064  1.00  0.00    -0.550 OA
ENDBRANCH   6   7
ENDBRANCH   5   6
ENDBRANCH   4   5
ENDBRANCH   3   4
ENDBRANCH   2   3
ENDBRANCH   1   2
BRANCH   1  10
ATOM     10  C   UNL     1     120.972  69.549  -1.808  1.00  0.00     0.000 C 
BRANCH  10  11
ATOM     11  C   UNL     1     119.875  69.129  -2.802  1.00  0.00    -0.000 C 
BRANCH  11  12
ATOM     12  C   UNL     1     120.304  69.285  -4.271  1.00  0.00    -0.000 C 
BRANCH  12  13
ATOM     13  C   UNL     1     120.121  68.028  -5.142  1.00  0.00    -0.000 C 
BRANCH  13  14
ATOM     14  C   UNL     1     120.058  66.733  -4.315  1.00  0.00    -0.000 C 
BRANCH  14  15
ATOM     15  C   UNL     1     120.212  65.473  -5.182  1.00  0.00    -0.003 C 
ATOM     16  C   UNL     1     121.207  65.658  -6.328  1.00  0.00     0.004 C 
ENDBRANCH  14  15
ENDBRANCH  13  14
ENDBRANCH  12  13
ENDBRANCH  11  12
ENDBRANCH  10  11
ENDBRANCH   1  10
TORSDOF 12
ENDMDL
MODEL 5
REMARK VINA RESULT:    -3.444      4.223      8.228
REMARK INTER + INTRA:          -6.551
REMARK INTER:                  -5.761
REMARK INTRA:                  -0.790
REMARK UNBOUND:                -0.690
REMARK SMILES CCCCCCCCCCCCCC(=O)[O-]
REMARK SMILES IDX 8 1 9 2 10 3 11 4 12 5 13 6 14 7 15 8 16 9 7 10 6 11 5 12
REMARK SMILES IDX 4 13 3 14 2 15 1 16
REMARK H PARENT
REMARK Flexibility Score: inf
ROOT
ATOM      1  C   UNL     1     121.394  72.688   3.403  1.00  0.00     0.000 C 
ENDROOT
BRANCH   1   2
ATOM      2  C   UNL     1     121.379  72.691   1.865  1.00  0.00     0.000 C 
BRANCH   2   3
ATOM      3  C   UNL     1     120.066  72.147   1.280  1.00  0.00     0.000 C 
BRANCH   3   4
ATOM      4  C   UNL     1     119.930  70.621   1.425  1.00  0.00     0.000 C 
BRANCH   4   5
ATOM      5  C   UNL     1     119.875  69.834   0.099  1.00  0.00     0.006 C 
BRANCH   5   6
ATOM      6  C   UNL     1     121.045  68.861  -0.116  1.00  0.00     0.053 C 
BRANCH   6   7
ATOM      7  C   UNL     1     120.606  67.598  -0.791  1.00  0.00     0.041 C 
ATOM      8  O   UNL     1     120.122  67.633  -1.952  1.00  0.00    -0.550 OA
ATOM      9  O   UNL     1     120.762  66.376  -0.148  1.00  0.00    -0.550 OA
ENDBRANCH   6   7
ENDBRANCH   5   6
ENDBRANCH   4   5
ENDBRANCH   3   4
ENDBRANCH   2   3
ENDBRANCH   1   2
BRANCH   1  10
ATOM     10  C   UNL     1     120.102  73.247   4.036  1.00  0.00     0.000 C 
BRANCH  10  11
ATOM     11  C   UNL     1     119.905  72.759   5.482  1.00  0.00    -0.000 C 
BRANCH  11  12
ATOM     12  C   UNL     1     120.162  71.251   5.647  1.00  0.00    -0.000 C 
BRANCH  12  13
ATOM     13  C   UNL     1     120.160  70.744   7.101  1.00  0.00    -0.000 C 
BRANCH  13  14
ATOM     14  C   UNL     1     121.012  71.616   8.039  1.00  0.00    -0.000 C 
BRANCH  14  15
ATOM     15  C   UNL     1     120.256  72.023   9.313  1.00  0.00    -0.003 C 
ATOM     16  C   UNL     1     120.115  73.538   9.461  1.00  0.00     0.004 C 
ENDBRANCH  14  15
ENDBRANCH  13  14
ENDBRANCH  12  13
ENDBRANCH  11  12
ENDBRANCH  10  11
ENDBRANCH   1  10
TORSDOF 12
ENDMDL
MODEL 6
REMARK VINA RESULT:    -3.402      7.184     11.379
REMARK INTER + INTRA:          -6.479
REMARK INTER:                  -6.055
REMARK INTRA:                  -0.424
REMARK UNBOUND:                -0.690
REMARK SMILES CCCCCCCCCCCCCC(=O)[O-]
REMARK SMILES IDX 8 1 9 2 10 3 11 4 12 5 13 6 14 7 15 8 16 9 7 10 6 11 5 12
REMARK SMILES IDX 4 13 3 14 2 15 1 16
REMARK H PARENT
REMARK Flexibility Score: inf
ROOT
ATOM      1  C   UNL     1     120.040  67.464  -2.716  1.00  0.00     0.000 C 
ENDROOT
BRANCH   1   2
ATOM      2  C   UNL     1     119.876  66.305  -3.714  1.00  0.00     0.000 C 
BRANCH   2   3
ATOM      3  C   UNL     1     119.943  66.765  -5.179  1.00  0.00     0.000 C 
BRANCH   3   4
ATOM      4  C   UNL     1     121.088  66.100  -5.967  1.00  0.00     0.000 C 
BRANCH   4   5
ATOM      5  C   UNL     1     120.658  65.337  -7.236  1.00  0.00     0.006 C 
BRANCH   5   6
ATOM      6  C   UNL     1     121.481  65.667  -8.491  1.00  0.00     0.053 C 
BRANCH   6   7
ATOM      7  C   UNL     1     121.531  67.141  -8.758  1.00  0.00     0.041 C 
ATOM      8  O   UNL     1     120.466  67.809  -8.828  1.00  0.00    -0.550 OA
ATOM      9  O   UNL     1     122.756  67.781  -8.895  1.00  0.00    -0.550 OA
ENDBRANCH   6   7
ENDBRANCH   5   6
ENDBRANCH   4   5
ENDBRANCH   3   4
ENDBRANCH   2   3
ENDBRANCH   1   2
BRANCH   1  10
ATOM     10  C   UNL     1     119.932  67.029  -1.239  1.00  0.00     0.000 C 
BRANCH  10  11
ATOM     11  C   UNL     1     119.979  68.228  -0.276  1.00  0.00    -0.000 C 
BRANCH  11  12
ATOM     12  C   UNL     1     120.863  69.377  -0.789  1.00  0.00    -0.000 C 
BRANCH  12  13
ATOM     13  C   UNL     1     121.359  70.353   0.293  1.00  0.00    -0.000 C 
BRANCH  13  14
ATOM     14  C   UNL     1     120.213  71.103   0.992  1.00  0.00    -0.000 C 
BRANCH  14  15
ATOM     15  C   UNL     1     120.719  72.127   2.020  1.00  0.00    -0.003 C 
ATOM     16  C   UNL     1     120.353  73.565   1.656  1.00  0.00     0.004 C 
ENDBRANCH  14  15
ENDBRANCH  13  14
ENDBRANCH  12  13
ENDBRANCH  11  12
ENDBRANCH  10  11
ENDBRANCH   1  10
TORSDOF 12
ENDMDL
MODEL 7
REMARK VINA RESULT:    -3.331      6.982     10.741
REMARK INTER + INTRA:          -6.359
REMARK INTER:                  -5.958
REMARK INTRA:                  -0.400
REMARK UNBOUND:                -0.690
REMARK SMILES CCCCCCCCCCCCCC(=O)[O-]
REMARK SMILES IDX 8 1 9 2 10 3 11 4 12 5 13 6 14 7 15 8 16 9 7 10 6 11 5 12
REMARK SMILES IDX 4 13 3 14 2 15 1 16
REMARK H PARENT
REMARK Flexibility Score: inf
ROOT
ATOM      1  C   UNL     1     120.376  68.137  -0.643  1.00  0.00     0.000 C 
ENDROOT
BRANCH   1   2
ATOM      2  C   UNL     1     119.875  68.485  -2.055  1.00  0.00     0.000 C 
BRANCH   2   3
ATOM      3  C   UNL     1     120.069  67.335  -3.057  1.00  0.00     0.000 C 
BRANCH   3   4
ATOM      4  C   UNL     1     119.991  67.796  -4.524  1.00  0.00     0.000 C 
BRANCH   4   5
ATOM      5  C   UNL     1     120.589  66.817  -5.555  1.00  0.00     0.006 C 
BRANCH   5   6
ATOM      6  C   UNL     1     121.004  67.464  -6.886  1.00  0.00     0.053 C 
BRANCH   6   7
ATOM      7  C   UNL     1     121.250  66.443  -7.954  1.00  0.00     0.041 C 
ATOM      8  O   UNL     1     121.736  66.787  -9.062  1.00  0.00    -0.550 OA
ATOM      9  O   UNL     1     120.972  65.104  -7.711  1.00  0.00    -0.550 OA
ENDBRANCH   6   7
ENDBRANCH   5   6
ENDBRANCH   4   5
ENDBRANCH   3   4
ENDBRANCH   2   3
ENDBRANCH   1   2
BRANCH   1  10
ATOM     10  C   UNL     1     121.523  69.047  -0.152  1.00  0.00     0.000 C 
BRANCH  10  11
ATOM     11  C   UNL     1     121.126  70.534  -0.155  1.00  0.00    -0.000 C 
BRANCH  11  12
ATOM     12  C   UNL     1     120.258  70.927   1.053  1.00  0.00    -0.000 C 
BRANCH  12  13
ATOM     13  C   UNL     1     120.165  72.439   1.326  1.00  0.00    -0.000 C 
BRANCH  13  14
ATOM     14  C   UNL     1     121.010  72.881   2.533  1.00  0.00    -0.000 C 
BRANCH  14  15
ATOM     15  C   UNL     1     120.321  72.585   3.874  1.00  0.00    -0.003 C 
ATOM     16  C   UNL     1     120.854  71.321   4.549  1.00  0.00     0.004 C 
ENDBRANCH  14  15
ENDBRANCH  13  14
ENDBRANCH  12  13
ENDBRANCH  11  12
ENDBRANCH  10  11
ENDBRANCH   1  10
TORSDOF 12
ENDMDL
MODEL 8
REMARK VINA RESULT:    -3.169      5.584      9.252
REMARK INTER + INTRA:          -6.082
REMARK INTER:                  -5.545
REMARK INTRA:                  -0.537
REMARK UNBOUND:                -0.690
REMARK SMILES CCCCCCCCCCCCCC(=O)[O-]
REMARK SMILES IDX 8 1 9 2 10 3 11 4 12 5 13 6 14 7 15 8 16 9 7 10 6 11 5 12
REMARK SMILES IDX 4 13 3 14 2 15 1 16
REMARK H PARENT
REMARK Flexibility Score: inf
ROOT
ATOM      1  C   UNL     1     120.947  70.738   1.568  1.00  0.00     0.000 C 
ENDROOT
BRANCH   1   2
ATOM      2  C   UNL     1     119.901  70.341   0.513  1.00  0.00     0.000 C 
BRANCH   2   3
ATOM      3  C   UNL     1     120.534  69.836  -0.794  1.00  0.00     0.000 C 
BRANCH   3   4
ATOM      4  C   UNL     1     119.933  68.504  -1.278  1.00  0.00     0.000 C 
BRANCH   4   5
ATOM      5  C   UNL     1     120.036  68.247  -2.796  1.00  0.00     0.006 C 
BRANCH   5   6
ATOM      6  C   UNL     1     120.141  69.517  -3.655  1.00  0.00     0.053 C 
BRANCH   6   7
ATOM      7  C   UNL     1     120.511  69.206  -5.073  1.00  0.00     0.041 C 
ATOM      8  O   UNL     1     120.901  70.122  -5.842  1.00  0.00    -0.550 OA
ATOM      9  O   UNL     1     120.457  67.896  -5.533  1.00  0.00    -0.550 OA
ENDBRANCH   6   7
ENDBRANCH   5   6
ENDBRANCH   4   5
ENDBRANCH   3   4
ENDBRANCH   2   3
ENDBRANCH   1   2
BRANCH   1  10
ATOM     10  C   UNL     1     120.520  71.937   2.442  1.00  0.00     0.000 C 
BRANCH  10  11
ATOM     11  C   UNL     1     121.514  72.206   3.585  1.00  0.00    -0.000 C 
BRANCH  11  12
ATOM     12  C   UNL     1     121.384  71.202   4.744  1.00  0.00    -0.000 C 
BRANCH  12  13
ATOM     13  C   UNL     1     119.945  70.948   5.228  1.00  0.00    -0.000 C 
BRANCH  13  14
ATOM     14  C   UNL     1     119.877  70.532   6.707  1.00  0.00    -0.000 C 
BRANCH  14  15
ATOM     15  C   UNL     1     120.710  71.450   7.616  1.00  0.00    -0.003 C 
ATOM     16  C   UNL     1     120.062  72.817   7.834  1.00  0.00     0.004 C 
ENDBRANCH  14  15
ENDBRANCH  13  14
ENDBRANCH  12  13
ENDBRANCH  11  12
ENDBRANCH  10  11
ENDBRANCH   1  10
TORSDOF 12
ENDMDL
MODEL 9
REMARK VINA RESULT:    -3.063      1.774      2.425
REMARK INTER + INTRA:          -5.901
REMARK INTER:                  -5.442
REMARK INTRA:                  -0.459
REMARK UNBOUND:                -0.690
REMARK SMILES CCCCCCCCCCCCCC(=O)[O-]
REMARK SMILES IDX 8 1 9 2 10 3 11 4 12 5 13 6 14 7 15 8 16 9 7 10 6 11 5 12
REMARK SMILES IDX 4 13 3 14 2 15 1 16
REMARK H PARENT
REMARK Flexibility Score: inf
ROOT
ATOM      1  C   UNL     1     121.159  71.194   0.338  1.00  0.00     0.000 C 
ENDROOT
BRANCH   1   2
ATOM      2  C   UNL     1     120.410  71.864   1.502  1.00  0.00     0.000 C 
BRANCH   2   3
ATOM      3  C   UNL     1     121.095  71.641   2.861  1.00  0.00     0.000 C 
BRANCH   3   4
ATOM      4  C   UNL     1     120.130  71.123   3.943  1.00  0.00     0.000 C 
BRANCH   4   5
ATOM      5  C   UNL     1     119.993  72.022   5.189  1.00  0.00     0.006 C 
BRANCH   5   6
ATOM      6  C   UNL     1     120.257  71.309   6.524  1.00  0.00     0.053 C 
BRANCH   6   7
ATOM      7  C   UNL     1     120.470  72.280   7.645  1.00  0.00     0.041 C 
ATOM      8  O   UNL     1     121.025  71.906   8.711  1.00  0.00    -0.550 OA
ATOM      9  O   UNL     1     120.086  73.607   7.498  1.00  0.00    -0.550 OA
ENDBRANCH   6   7
ENDBRANCH   5   6
ENDBRANCH   4   5
ENDBRANCH   3   4
ENDBRANCH   2   3
ENDBRANCH   1   2
BRANCH   1  10
ATOM     10  C   UNL     1     121.039  69.655   0.329  1.00  0.00     0.000 C 
BRANCH  10  11
ATOM     11  C   UNL     1     119.889  69.167  -0.568  1.00  0.00    -0.000 C 
BRANCH  11  12
ATOM     12  C   UNL     1     120.292  69.044  -2.048  1.00  0.00    -0.000 C 
BRANCH  12  13
ATOM     13  C   UNL     1     119.913  67.712  -2.720  1.00  0.00    -0.000 C 
BRANCH  13  14
ATOM     14  C   UNL     1     120.135  67.725  -4.241  1.00  0.00    -0.000 C 
BRANCH  14  15
ATOM     15  C   UNL     1     119.875  69.107  -4.862  1.00  0.00    -0.003 C 
ATOM     16  C   UNL     1     120.903  69.480  -5.931  1.00  0.00     0.004 C 
ENDBRANCH  14  15
ENDBRANCH  13  14
ENDBRANCH  12  13
ENDBRANCH  11  12
ENDBRANCH  10  11
ENDBRANCH   1  10
TORSDOF 12
ENDMDL
