MODEL 1
REMARK VINA RESULT:    -3.324      0.000      0.000
REMARK INTER + INTRA:          -9.190
REMARK INTER:                  -6.239
REMARK INTRA:                  -2.951
REMARK UNBOUND:                -2.951
REMARK SMILES CCCCCCCCC=CCCCCCCCC(=O)[O-]
REMARK SMILES IDX 10 1 9 2 11 3 12 4 13 5 14 6 15 7 16 8 17 9 18 10 19 11
REMARK SMILES IDX 20 12 8 13 7 14 6 15 5 16 4 17 3 18 2 19 1 20
REMARK H PARENT
REMARK Flexibility Score: inf
ROOT
ATOM      1  C   UNL     1       7.376   6.232  -2.747  1.00  0.00    -0.031 C 
ATOM      2  C   UNL     1       7.285   6.071  -4.081  1.00  0.00    -0.031 C 
ENDROOT
BRANCH   1   3
ATOM      3  C   UNL     1       8.655   6.189  -1.948  1.00  0.00     0.027 C 
BRANCH   3   4
ATOM      4  C   UNL     1       9.177   7.609  -1.708  1.00  0.00     0.004 C 
BRANCH   4   5
ATOM      5  C   UNL     1       8.028   8.568  -1.357  1.00  0.00     0.000 C 
BRANCH   5   6
ATOM      6  C   UNL     1       8.010   9.819  -2.251  1.00  0.00     0.000 C 
BRANCH   6   7
ATOM      7  C   UNL     1       6.609  10.125  -2.807  1.00  0.00     0.000 C 
BRANCH   7   8
ATOM      8  C   UNL     1       5.500   9.358  -2.068  1.00  0.00     0.006 C 
BRANCH   8   9
ATOM      9  C   UNL     1       4.330   8.978  -2.985  1.00  0.00     0.053 C 
BRANCH   9  10
ATOM     10  C   UNL     1       3.510   7.892  -2.362  1.00  0.00     0.041 C 
ATOM     11  O   UNL     1       2.267   8.035  -2.227  1.00  0.00    -0.550 OA
ATOM     12  O   UNL     1       4.125   6.738  -1.894  1.00  0.00    -0.550 OA
ENDBRANCH   9  10
ENDBRANCH   8   9
ENDBRANCH   7   8
ENDBRANCH   6   7
ENDBRANCH   5   6
ENDBRANCH   4   5
ENDBRANCH   3   4
ENDBRANCH   1   3
BRANCH   2  13
ATOM     13  C   UNL     1       8.452   5.853  -5.012  1.00  0.00     0.027 C 
BRANCH  13  14
ATOM     14  C   UNL     1       8.508   6.924  -6.108  1.00  0.00     0.004 C 
BRANCH  14  15
ATOM     15  C   UNL     1       8.380   8.332  -5.508  1.00  0.00     0.000 C 
BRANCH  15  16
ATOM     16  C   UNL     1       7.477   9.251  -6.357  1.00  0.00     0.000 C 
BRANCH  16  17
ATOM     17  C   UNL     1       6.839   8.543  -7.564  1.00  0.00    -0.000 C 
BRANCH  17  18
ATOM     18  C   UNL     1       5.305   8.479  -7.476  1.00  0.00    -0.000 C 
BRANCH  18  19
ATOM     19  C   UNL     1       4.818   7.525  -6.374  1.00  0.00    -0.003 C 
ATOM     20  C   UNL     1       4.705   6.079  -6.855  1.00  0.00     0.004 C 
ENDBRANCH  18  19
ENDBRANCH  17  18
ENDBRANCH  16  17
ENDBRANCH  15  16
ENDBRANCH  14  15
ENDBRANCH  13  14
ENDBRANCH   2  13
TORSDOF 15
ENDMDL
MODEL 2
REMARK VINA RESULT:    -3.323      1.460      2.870
REMARK INTER + INTRA:          -9.189
REMARK INTER:                  -6.541
REMARK INTRA:                  -2.648
REMARK UNBOUND:                -2.951
REMARK SMILES CCCCCCCCC=CCCCCCCCC(=O)[O-]
REMARK SMILES IDX 10 1 9 2 11 3 12 4 13 5 14 6 15 7 16 8 17 9 18 10 19 11
REMARK SMILES IDX 20 12 8 13 7 14 6 15 5 16 4 17 3 18 2 19 1 20
REMARK H PARENT
REMARK Flexibility Score: inf
ROOT
ATOM      1  C   UNL     1       8.146   4.764  -4.969  1.00  0.00    -0.031 C 
ATOM      2  C   UNL     1       7.564   4.033  -5.940  1.00  0.00    -0.031 C 
ENDROOT
BRANCH   1   3
ATOM      3  C   UNL     1       7.731   4.776  -3.519  1.00  0.00     0.027 C 
BRANCH   3   4
ATOM      4  C   UNL     1       6.792   5.955  -3.245  1.00  0.00     0.004 C 
BRANCH   4   5
ATOM      5  C   UNL     1       7.422   6.943  -2.251  1.00  0.00     0.000 C 
BRANCH   5   6
ATOM      6  C   UNL     1       7.124   8.409  -2.607  1.00  0.00     0.000 C 
BRANCH   6   7
ATOM      7  C   UNL     1       6.142   9.065  -1.622  1.00  0.00     0.000 C 
BRANCH   7   8
ATOM      8  C   UNL     1       4.955   9.737  -2.330  1.00  0.00     0.006 C 
BRANCH   8   9
ATOM      9  C   UNL     1       4.150   8.759  -3.197  1.00  0.00     0.053 C 
BRANCH   9  10
ATOM     10  C   UNL     1       3.142   8.031  -2.364  1.00  0.00     0.041 C 
ATOM     11  O   UNL     1       3.399   6.882  -1.918  1.00  0.00    -0.550 OA
ATOM     12  O   UNL     1       1.902   8.606  -2.114  1.00  0.00    -0.550 OA
ENDBRANCH   9  10
ENDBRANCH   8   9
ENDBRANCH   7   8
ENDBRANCH   6   7
ENDBRANCH   5   6
ENDBRANCH   4   5
ENDBRANCH   3   4
ENDBRANCH   1   3
BRANCH   2  13
ATOM     13  C   UNL     1       6.418   3.073  -5.736  1.00  0.00     0.027 C 
BRANCH  13  14
ATOM     14  C   UNL     1       5.256   3.371  -6.692  1.00  0.00     0.004 C 
BRANCH  14  15
ATOM     15  C   UNL     1       5.534   4.635  -7.518  1.00  0.00     0.000 C 
BRANCH  15  16
ATOM     16  C   UNL     1       4.474   5.731  -7.287  1.00  0.00     0.000 C 
BRANCH  16  17
ATOM     17  C   UNL     1       4.862   6.744  -6.197  1.00  0.00    -0.000 C 
BRANCH  17  18
ATOM     18  C   UNL     1       5.351   8.083  -6.773  1.00  0.00    -0.000 C 
BRANCH  18  19
ATOM     19  C   UNL     1       6.635   8.583  -6.093  1.00  0.00    -0.003 C 
ATOM     20  C   UNL     1       7.895   7.930  -6.660  1.00  0.00     0.004 C 
ENDBRANCH  18  19
ENDBRANCH  17  18
ENDBRANCH  16  17
ENDBRANCH  15  16
ENDBRANCH  14  15
ENDBRANCH  13  14
ENDBRANCH   2  13
TORSDOF 15
ENDMDL
MODEL 3
REMARK VINA RESULT:    -3.321      1.157      2.601
REMARK INTER + INTRA:          -9.183
REMARK INTER:                  -6.531
REMARK INTRA:                  -2.652
REMARK UNBOUND:                -2.951
REMARK SMILES CCCCCCCCC=CCCCCCCCC(=O)[O-]
REMARK SMILES IDX 10 1 9 2 11 3 12 4 13 5 14 6 15 7 16 8 17 9 18 10 19 11
REMARK SMILES IDX 20 12 8 13 7 14 6 15 5 16 4 17 3 18 2 19 1 20
REMARK H PARENT
REMARK Flexibility Score: inf
ROOT
ATOM      1  C   UNL     1       7.576   6.475  -4.961  1.00  0.00    -0.031 C 
ATOM      2  C   UNL     1       7.875   7.494  -5.790  1.00  0.00    -0.031 C 
ENDROOT
BRANCH   1   3
ATOM      3  C   UNL     1       6.341   6.385  -4.099  1.00  0.00     0.027 C 
BRANCH   3   4
ATOM      4  C   UNL     1       6.733   6.237  -2.625  1.00  0.00     0.004 C 
BRANCH   4   5
ATOM      5  C   UNL     1       7.607   7.414  -2.165  1.00  0.00     0.000 C 
BRANCH   5   6
ATOM      6  C   UNL     1       6.796   8.505  -1.446  1.00  0.00     0.000 C 
BRANCH   6   7
ATOM      7  C   UNL     1       6.303   9.601  -2.405  1.00  0.00     0.000 C 
BRANCH   7   8
ATOM      8  C   UNL     1       4.784   9.819  -2.322  1.00  0.00     0.006 C 
BRANCH   8   9
ATOM      9  C   UNL     1       3.994   8.823  -3.183  1.00  0.00     0.053 C 
BRANCH   9  10
ATOM     10  C   UNL     1       3.045   8.037  -2.335  1.00  0.00     0.041 C 
ATOM     11  O   UNL     1       3.340   6.869  -1.969  1.00  0.00    -0.550 OA
ATOM     12  O   UNL     1       1.815   8.579  -1.982  1.00  0.00    -0.550 OA
ENDBRANCH   9  10
ENDBRANCH   8   9
ENDBRANCH   7   8
ENDBRANCH   6   7
ENDBRANCH   5   6
ENDBRANCH   4   5
ENDBRANCH   3   4
ENDBRANCH   1   3
BRANCH   2  13
ATOM     13  C   UNL     1       7.009   8.707  -6.025  1.00  0.00     0.027 C 
BRANCH  13  14
ATOM     14  C   UNL     1       6.668   8.878  -7.509  1.00  0.00     0.004 C 
BRANCH  14  15
ATOM     15  C   UNL     1       5.149   8.970  -7.718  1.00  0.00     0.000 C 
BRANCH  15  16
ATOM     16  C   UNL     1       4.600   7.796  -8.554  1.00  0.00     0.000 C 
BRANCH  16  17
ATOM     17  C   UNL     1       5.243   6.442  -8.212  1.00  0.00    -0.000 C 
BRANCH  17  18
ATOM     18  C   UNL     1       4.302   5.514  -7.427  1.00  0.00    -0.000 C 
BRANCH  18  19
ATOM     19  C   UNL     1       5.000   4.229  -6.956  1.00  0.00    -0.003 C 
ATOM     20  C   UNL     1       6.394   4.061  -7.558  1.00  0.00     0.004 C 
ENDBRANCH  18  19
ENDBRANCH  17  18
ENDBRANCH  16  17
ENDBRANCH  15  16
ENDBRANCH  14  15
ENDBRANCH  13  14
ENDBRANCH   2  13
TORSDOF 15
ENDMDL
MODEL 4
REMARK VINA RESULT:    -3.316      3.047      5.911
REMARK INTER + INTRA:          -9.175
REMARK INTER:                  -6.311
REMARK INTRA:                  -2.865
REMARK UNBOUND:                -2.951
REMARK SMILES CCCCCCCCC=CCCCCCCCC(=O)[O-]
REMARK SMILES IDX 10 1 9 2 11 3 12 4 13 5 14 6 15 7 16 8 17 9 18 10 19 11
REMARK SMILES IDX 20 12 8 13 7 14 6 15 5 16 4 17 3 18 2 19 1 20
REMARK H PARENT
REMARK Flexibility Score: inf
ROOT
ATOM      1  C   UNL     1       7.998   6.529  -3.771  1.00  0.00    -0.031 C 
ATOM      2  C   UNL     1       7.082   7.062  -4.603  1.00  0.00    -0.031 C 
ENDROOT
BRANCH   1   3
ATOM      3  C   UNL     1       7.702   5.558  -2.655  1.00  0.00     0.027 C 
BRANCH   3   4
ATOM      4  C   UNL     1       8.983   4.834  -2.229  1.00  0.00     0.004 C 
BRANCH   4   5
ATOM      5  C   UNL     1       9.620   4.095  -3.416  1.00  0.00     0.000 C 
BRANCH   5   6
ATOM      6  C   UNL     1       9.395   2.575  -3.354  1.00  0.00     0.000 C 
BRANCH   6   7
ATOM      7  C   UNL     1       8.282   2.105  -4.306  1.00  0.00     0.000 C 
BRANCH   7   8
ATOM      8  C   UNL     1       7.992   3.122  -5.422  1.00  0.00     0.006 C 
BRANCH   8   9
ATOM      9  C   UNL     1       6.490   3.350  -5.640  1.00  0.00     0.053 C 
BRANCH   9  10
ATOM     10  C   UNL     1       5.819   2.072  -6.033  1.00  0.00     0.041 C 
ATOM     11  O   UNL     1       6.044   1.558  -7.160  1.00  0.00    -0.550 OA
ATOM     12  O   UNL     1       4.913   1.469  -5.170  1.00  0.00    -0.550 OA
ENDBRANCH   9  10
ENDBRANCH   8   9
ENDBRANCH   7   8
ENDBRANCH   6   7
ENDBRANCH   5   6
ENDBRANCH   4   5
ENDBRANCH   3   4
ENDBRANCH   1   3
BRANCH   2  13
ATOM     13  C   UNL     1       5.605   6.753  -4.584  1.00  0.00     0.027 C 
BRANCH  13  14
ATOM     14  C   UNL     1       4.802   7.876  -3.918  1.00  0.00     0.004 C 
BRANCH  14  15
ATOM     15  C   UNL     1       4.515   7.550  -2.445  1.00  0.00     0.000 C 
BRANCH  15  16
ATOM     16  C   UNL     1       5.504   8.246  -1.488  1.00  0.00     0.000 C 
BRANCH  16  17
ATOM     17  C   UNL     1       5.977   9.623  -1.984  1.00  0.00    -0.000 C 
BRANCH  17  18
ATOM     18  C   UNL     1       7.487   9.841  -1.792  1.00  0.00    -0.000 C 
BRANCH  18  19
ATOM     19  C   UNL     1       8.075   8.946  -0.690  1.00  0.00    -0.003 C 
ATOM     20  C   UNL     1       9.505   8.499  -0.994  1.00  0.00     0.004 C 
ENDBRANCH  18  19
ENDBRANCH  17  18
ENDBRANCH  16  17
ENDBRANCH  15  16
ENDBRANCH  14  15
ENDBRANCH  13  14
ENDBRANCH   2  13
TORSDOF 15
ENDMDL
MODEL 5
REMARK VINA RESULT:    -3.310      3.146      5.104
REMARK INTER + INTRA:          -9.163
REMARK INTER:                  -6.410
REMARK INTRA:                  -2.753
REMARK UNBOUND:                -2.951
REMARK SMILES CCCCCCCCC=CCCCCCCCC(=O)[O-]
REMARK SMILES IDX 10 1 9 2 11 3 12 4 13 5 14 6 15 7 16 8 17 9 18 10 19 11
REMARK SMILES IDX 20 12 8 13 7 14 6 15 5 16 4 17 3 18 2 19 1 20
REMARK H PARENT
REMARK Flexibility Score: inf
ROOT
ATOM      1  C   UNL     1       6.581   6.441  -2.042  1.00  0.00    -0.031 C 
ATOM      2  C   UNL     1       5.426   7.132  -1.982  1.00  0.00    -0.031 C 
ENDROOT
BRANCH   1   3
ATOM      3  C   UNL     1       7.962   7.049  -2.054  1.00  0.00     0.027 C 
BRANCH   3   4
ATOM      4  C   UNL     1       9.021   5.955  -2.226  1.00  0.00     0.004 C 
BRANCH   4   5
ATOM      5  C   UNL     1       8.381   4.558  -2.191  1.00  0.00     0.000 C 
BRANCH   5   6
ATOM      6  C   UNL     1       9.328   3.463  -2.709  1.00  0.00     0.000 C 
BRANCH   6   7
ATOM      7  C   UNL     1       9.055   3.094  -4.177  1.00  0.00     0.000 C 
BRANCH   7   8
ATOM      8  C   UNL     1       7.563   2.853  -4.458  1.00  0.00     0.006 C 
BRANCH   8   9
ATOM      9  C   UNL     1       7.328   1.809  -5.558  1.00  0.00     0.053 C 
BRANCH   9  10
ATOM     10  C   UNL     1       6.036   1.090  -5.327  1.00  0.00     0.041 C 
ATOM     11  O   UNL     1       4.950   1.727  -5.306  1.00  0.00    -0.550 OA
ATOM     12  O   UNL     1       6.034  -0.280  -5.094  1.00  0.00    -0.550 OA
ENDBRANCH   9  10
ENDBRANCH   8   9
ENDBRANCH   7   8
ENDBRANCH   6   7
ENDBRANCH   5   6
ENDBRANCH   4   5
ENDBRANCH   3   4
ENDBRANCH   1   3
BRANCH   2  13
ATOM     13  C   UNL     1       5.315   8.634  -1.885  1.00  0.00     0.027 C 
BRANCH  13  14
ATOM     14  C   UNL     1       4.845   9.252  -3.206  1.00  0.00     0.004 C 
BRANCH  14  15
ATOM     15  C   UNL     1       6.035   9.548  -4.131  1.00  0.00     0.000 C 
BRANCH  15  16
ATOM     16  C   UNL     1       6.092   8.588  -5.337  1.00  0.00     0.000 C 
BRANCH  16  17
ATOM     17  C   UNL     1       7.458   7.904  -5.517  1.00  0.00    -0.000 C 
BRANCH  17  18
ATOM     18  C   UNL     1       7.343   6.386  -5.730  1.00  0.00    -0.000 C 
BRANCH  18  19
ATOM     19  C   UNL     1       5.917   5.864  -5.489  1.00  0.00    -0.003 C 
ATOM     20  C   UNL     1       5.367   5.082  -6.680  1.00  0.00     0.004 C 
ENDBRANCH  18  19
ENDBRANCH  17  18
ENDBRANCH  16  17
ENDBRANCH  15  16
ENDBRANCH  14  15
ENDBRANCH  13  14
ENDBRANCH   2  13
TORSDOF 15
ENDMDL
MODEL 6
REMARK VINA RESULT:    -3.302      2.630      5.926
REMARK INTER + INTRA:          -9.149
REMARK INTER:                  -6.801
REMARK INTRA:                  -2.347
REMARK UNBOUND:                -2.951
REMARK SMILES CCCCCCCCC=CCCCCCCCC(=O)[O-]
REMARK SMILES IDX 10 1 9 2 11 3 12 4 13 5 14 6 15 7 16 8 17 9 18 10 19 11
REMARK SMILES IDX 20 12 8 13 7 14 6 15 5 16 4 17 3 18 2 19 1 20
REMARK H PARENT
REMARK Flexibility Score: inf
ROOT
ATOM      1  C   UNL     1       5.968   6.034  -4.985  1.00  0.00    -0.031 C 
ATOM      2  C   UNL     1       7.156   5.956  -4.355  1.00  0.00    -0.031 C 
ENDROOT
BRANCH   1   3
ATOM      3  C   UNL     1       5.375   7.289  -5.577  1.00  0.00     0.027 C 
BRANCH   3   4
ATOM      4  C   UNL     1       4.742   6.985  -6.939  1.00  0.00     0.004 C 
BRANCH   4   5
ATOM      5  C   UNL     1       5.800   6.500  -7.942  1.00  0.00     0.000 C 
BRANCH   5   6
ATOM      6  C   UNL     1       5.446   5.137  -8.561  1.00  0.00     0.000 C 
BRANCH   6   7
ATOM      7  C   UNL     1       4.002   4.708  -8.250  1.00  0.00     0.000 C 
BRANCH   7   8
ATOM      8  C   UNL     1       3.936   3.495  -7.308  1.00  0.00     0.006 C 
BRANCH   8   9
ATOM      9  C   UNL     1       5.275   2.753  -7.203  1.00  0.00     0.053 C 
BRANCH   9  10
ATOM     10  C   UNL     1       5.398   2.084  -5.870  1.00  0.00     0.041 C 
ATOM     11  O   UNL     1       4.619   1.145  -5.557  1.00  0.00    -0.550 OA
ATOM     12  O   UNL     1       6.347   2.525  -4.955  1.00  0.00    -0.550 OA
ENDBRANCH   9  10
ENDBRANCH   8   9
ENDBRANCH   7   8
ENDBRANCH   6   7
ENDBRANCH   5   6
ENDBRANCH   4   5
ENDBRANCH   3   4
ENDBRANCH   1   3
BRANCH   2  13
ATOM     13  C   UNL     1       8.115   7.105  -4.161  1.00  0.00     0.027 C 
BRANCH  13  14
ATOM     14  C   UNL     1       8.533   7.250  -2.694  1.00  0.00     0.004 C 
BRANCH  14  15
ATOM     15  C   UNL     1       8.184   8.646  -2.157  1.00  0.00     0.000 C 
BRANCH  15  16
ATOM     16  C   UNL     1       6.964   8.623  -1.214  1.00  0.00     0.000 C 
BRANCH  16  17
ATOM     17  C   UNL     1       5.617   8.744  -1.946  1.00  0.00    -0.000 C 
BRANCH  17  18
ATOM     18  C   UNL     1       4.739   7.491  -1.792  1.00  0.00    -0.000 C 
BRANCH  18  19
ATOM     19  C   UNL     1       3.344   7.670  -2.412  1.00  0.00    -0.003 C 
ATOM     20  C   UNL     1       2.931   9.137  -2.520  1.00  0.00     0.004 C 
ENDBRANCH  18  19
ENDBRANCH  17  18
ENDBRANCH  16  17
ENDBRANCH  15  16
ENDBRANCH  14  15
ENDBRANCH  13  14
ENDBRANCH   2  13
TORSDOF 15
ENDMDL
MODEL 7
REMARK VINA RESULT:    -3.250      3.044      5.486
REMARK INTER + INTRA:          -9.051
REMARK INTER:                  -6.225
REMARK INTRA:                  -2.826
REMARK UNBOUND:                -2.951
REMARK SMILES CCCCCCCCC=CCCCCCCCC(=O)[O-]
REMARK SMILES IDX 10 1 9 2 11 3 12 4 13 5 14 6 15 7 16 8 17 9 18 10 19 11
REMARK SMILES IDX 20 12 8 13 7 14 6 15 5 16 4 17 3 18 2 19 1 20
REMARK H PARENT
REMARK Flexibility Score: inf
ROOT
ATOM      1  C   UNL     1       6.428   6.451  -5.662  1.00  0.00    -0.031 C 
ATOM      2  C   UNL     1       5.607   7.519  -5.669  1.00  0.00    -0.031 C 
ENDROOT
BRANCH   1   3
ATOM      3  C   UNL     1       7.903   6.483  -5.975  1.00  0.00     0.027 C 
BRANCH   3   4
ATOM      4  C   UNL     1       8.704   5.882  -4.816  1.00  0.00     0.004 C 
BRANCH   4   5
ATOM      5  C   UNL     1       7.818   5.685  -3.576  1.00  0.00     0.000 C 
BRANCH   5   6
ATOM      6  C   UNL     1       7.714   4.211  -3.152  1.00  0.00     0.000 C 
BRANCH   6   7
ATOM      7  C   UNL     1       8.797   3.334  -3.803  1.00  0.00     0.000 C 
BRANCH   7   8
ATOM      8  C   UNL     1       8.206   2.231  -4.696  1.00  0.00     0.006 C 
BRANCH   8   9
ATOM      9  C   UNL     1       6.778   2.548  -5.162  1.00  0.00     0.053 C 
BRANCH   9  10
ATOM     10  C   UNL     1       5.932   1.314  -5.125  1.00  0.00     0.041 C 
ATOM     11  O   UNL     1       4.682   1.400  -5.241  1.00  0.00    -0.550 OA
ATOM     12  O   UNL     1       6.521   0.072  -4.922  1.00  0.00    -0.550 OA
ENDBRANCH   9  10
ENDBRANCH   8   9
ENDBRANCH   7   8
ENDBRANCH   6   7
ENDBRANCH   5   6
ENDBRANCH   4   5
ENDBRANCH   3   4
ENDBRANCH   1   3
BRANCH   2  13
ATOM     13  C   UNL     1       6.028   8.938  -5.960  1.00  0.00     0.027 C 
BRANCH  13  14
ATOM     14  C   UNL     1       6.074   9.786  -4.683  1.00  0.00     0.004 C 
BRANCH  14  15
ATOM     15  C   UNL     1       7.488   9.803  -4.084  1.00  0.00     0.000 C 
BRANCH  15  16
ATOM     16  C   UNL     1       7.544   9.135  -2.695  1.00  0.00     0.000 C 
BRANCH  16  17
ATOM     17  C   UNL     1       6.242   9.276  -1.889  1.00  0.00    -0.000 C 
BRANCH  17  18
ATOM     18  C   UNL     1       5.800   7.959  -1.231  1.00  0.00    -0.000 C 
BRANCH  18  19
ATOM     19  C   UNL     1       4.790   7.182  -2.090  1.00  0.00    -0.003 C 
ATOM     20  C   UNL     1       3.609   8.044  -2.535  1.00  0.00     0.004 C 
ENDBRANCH  18  19
ENDBRANCH  17  18
ENDBRANCH  16  17
ENDBRANCH  15  16
ENDBRANCH  14  15
ENDBRANCH  13  14
ENDBRANCH   2  13
TORSDOF 15
ENDMDL
MODEL 8
REMARK VINA RESULT:    -3.220      2.132      3.772
REMARK INTER + INTRA:          -8.994
REMARK INTER:                  -6.271
REMARK INTRA:                  -2.723
REMARK UNBOUND:                -2.951
REMARK SMILES CCCCCCCCC=CCCCCCCCC(=O)[O-]
REMARK SMILES IDX 10 1 9 2 11 3 12 4 13 5 14 6 15 7 16 8 17 9 18 10 19 11
REMARK SMILES IDX 20 12 8 13 7 14 6 15 5 16 4 17 3 18 2 19 1 20
REMARK H PARENT
REMARK Flexibility Score: inf
ROOT
ATOM      1  C   UNL     1       5.791   7.913  -5.471  1.00  0.00    -0.031 C 
ATOM      2  C   UNL     1       5.873   6.568  -5.452  1.00  0.00    -0.031 C 
ENDROOT
BRANCH   1   3
ATOM      3  C   UNL     1       6.960   8.860  -5.356  1.00  0.00     0.027 C 
BRANCH   3   4
ATOM      4  C   UNL     1       6.564  10.092  -4.537  1.00  0.00     0.004 C 
BRANCH   4   5
ATOM      5  C   UNL     1       7.194  10.049  -3.136  1.00  0.00     0.000 C 
BRANCH   5   6
ATOM      6  C   UNL     1       8.008   8.767  -2.894  1.00  0.00     0.000 C 
BRANCH   6   7
ATOM      7  C   UNL     1       7.373   7.860  -1.826  1.00  0.00     0.000 C 
BRANCH   7   8
ATOM      8  C   UNL     1       5.973   8.334  -1.404  1.00  0.00     0.006 C 
BRANCH   8   9
ATOM      9  C   UNL     1       4.857   7.407  -1.905  1.00  0.00     0.053 C 
BRANCH   9  10
ATOM     10  C   UNL     1       3.647   8.202  -2.282  1.00  0.00     0.041 C 
ATOM     11  O   UNL     1       3.754   9.425  -2.563  1.00  0.00    -0.550 OA
ATOM     12  O   UNL     1       2.394   7.603  -2.285  1.00  0.00    -0.550 OA
ENDBRANCH   9  10
ENDBRANCH   8   9
ENDBRANCH   7   8
ENDBRANCH   6   7
ENDBRANCH   5   6
ENDBRANCH   4   5
ENDBRANCH   3   4
ENDBRANCH   1   3
BRANCH   2  13
ATOM     13  C   UNL     1       7.153   5.776  -5.344  1.00  0.00     0.027 C 
BRANCH  13  14
ATOM     14  C   UNL     1       7.225   4.996  -4.026  1.00  0.00     0.004 C 
BRANCH  14  15
ATOM     15  C   UNL     1       8.358   3.960  -4.061  1.00  0.00     0.000 C 
BRANCH  15  16
ATOM     16  C   UNL     1       8.167   2.920  -5.184  1.00  0.00     0.000 C 
BRANCH  16  17
ATOM     17  C   UNL     1       6.889   2.078  -5.033  1.00  0.00    -0.000 C 
BRANCH  17  18
ATOM     18  C   UNL     1       6.154   1.863  -6.366  1.00  0.00    -0.000 C 
BRANCH  18  19
ATOM     19  C   UNL     1       5.057   2.911  -6.609  1.00  0.00    -0.003 C 
ATOM     20  C   UNL     1       5.297   3.732  -7.875  1.00  0.00     0.004 C 
ENDBRANCH  18  19
ENDBRANCH  17  18
ENDBRANCH  16  17
ENDBRANCH  15  16
ENDBRANCH  14  15
ENDBRANCH  13  14
ENDBRANCH   2  13
TORSDOF 15
ENDMDL
MODEL 9
REMARK VINA RESULT:    -3.174      2.673      5.671
REMARK INTER + INTRA:          -8.908
REMARK INTER:                  -5.938
REMARK INTRA:                  -2.970
REMARK UNBOUND:                -2.951
REMARK SMILES CCCCCCCCC=CCCCCCCCC(=O)[O-]
REMARK SMILES IDX 10 1 9 2 11 3 12 4 13 5 14 6 15 7 16 8 17 9 18 10 19 11
REMARK SMILES IDX 20 12 8 13 7 14 6 15 5 16 4 17 3 18 2 19 1 20
REMARK H PARENT
REMARK Flexibility Score: inf
ROOT
ATOM      1  C   UNL     1       5.191   7.680  -4.335  1.00  0.00    -0.031 C 
ATOM      2  C   UNL     1       4.651   7.541  -3.108  1.00  0.00    -0.031 C 
ENDROOT
BRANCH   1   3
ATOM      3  C   UNL     1       6.104   8.802  -4.764  1.00  0.00     0.027 C 
BRANCH   3   4
ATOM      4  C   UNL     1       6.443   8.669  -6.252  1.00  0.00     0.004 C 
BRANCH   4   5
ATOM      5  C   UNL     1       5.363   7.866  -6.995  1.00  0.00     0.000 C 
BRANCH   5   6
ATOM      6  C   UNL     1       5.954   6.926  -8.058  1.00  0.00     0.000 C 
BRANCH   6   7
ATOM      7  C   UNL     1       6.537   5.640  -7.448  1.00  0.00     0.000 C 
BRANCH   7   8
ATOM      8  C   UNL     1       5.544   4.924  -6.518  1.00  0.00     0.006 C 
BRANCH   8   9
ATOM      9  C   UNL     1       5.942   3.469  -6.234  1.00  0.00     0.053 C 
BRANCH   9  10
ATOM     10  C   UNL     1       4.776   2.557  -6.452  1.00  0.00     0.041 C 
ATOM     11  O   UNL     1       3.890   2.852  -7.295  1.00  0.00    -0.550 OA
ATOM     12  O   UNL     1       4.647   1.400  -5.693  1.00  0.00    -0.550 OA
ENDBRANCH   9  10
ENDBRANCH   8   9
ENDBRANCH   7   8
ENDBRANCH   6   7
ENDBRANCH   5   6
ENDBRANCH   4   5
ENDBRANCH   3   4
ENDBRANCH   1   3
BRANCH   2  13
ATOM     13  C   UNL     1       4.892   8.467  -1.942  1.00  0.00     0.027 C 
BRANCH  13  14
ATOM     14  C   UNL     1       6.128   8.049  -1.135  1.00  0.00     0.004 C 
BRANCH  14  15
ATOM     15  C   UNL     1       7.182   9.166  -1.126  1.00  0.00     0.000 C 
BRANCH  15  16
ATOM     16  C   UNL     1       8.576   8.659  -1.552  1.00  0.00     0.000 C 
BRANCH  16  17
ATOM     17  C   UNL     1       8.587   7.188  -1.999  1.00  0.00    -0.000 C 
BRANCH  17  18
ATOM     18  C   UNL     1       8.978   7.015  -3.476  1.00  0.00    -0.000 C 
BRANCH  18  19
ATOM     19  C   UNL     1       8.338   5.772  -4.113  1.00  0.00    -0.003 C 
ATOM     20  C   UNL     1       7.517   4.956  -3.115  1.00  0.00     0.004 C 
ENDBRANCH  18  19
ENDBRANCH  17  18
ENDBRANCH  16  17
ENDBRANCH  15  16
ENDBRANCH  14  15
ENDBRANCH  13  14
ENDBRANCH   2  13
TORSDOF 15
ENDMDL
