MODEL 1
REMARK VINA RESULT:    -4.349      0.000      0.000
REMARK INTER + INTRA:         -16.257
REMARK INTER:                 -10.960
REMARK INTRA:                  -5.297
REMARK UNBOUND:                -5.297
REMARK SMILES CCCCCCCCCCCCCCCCCCCCCCCCCCCC(=O)[O-]
REMARK SMILES IDX 15 1 16 2 17 3 18 4 19 5 20 6 21 7 22 8 23 9 24 10 25 11
REMARK SMILES IDX 26 12 27 13 28 14 29 15 30 16 14 17 13 18 12 19 11 20 10 21
REMARK SMILES IDX 9 22 8 23 7 24 6 25 5 26 4 27 3 28 2 29 1 30
REMARK H PARENT
REMARK Flexibility Score: inf
ROOT
ATOM      1  C   UNL     1       6.503  35.656  -2.577  1.00  0.00     0.000 C 
ENDROOT
BRANCH   1   2
ATOM      2  C   UNL     1       7.242  36.690  -1.714  1.00  0.00     0.000 C 
BRANCH   2   3
ATOM      3  C   UNL     1       6.925  36.532  -0.213  1.00  0.00     0.000 C 
BRANCH   3   4
ATOM      4  C   UNL     1       7.293  37.764   0.631  1.00  0.00     0.000 C 
BRANCH   4   5
ATOM      5  C   UNL     1       8.223  37.429   1.806  1.00  0.00     0.000 C 
BRANCH   5   6
ATOM      6  C   UNL     1       9.633  37.990   1.571  1.00  0.00     0.000 C 
BRANCH   6   7
ATOM      7  C   UNL     1       9.770  38.709   0.217  1.00  0.00     0.000 C 
BRANCH   7   8
ATOM      8  C   UNL     1      10.720  38.027  -0.790  1.00  0.00     0.000 C 
BRANCH   8   9
ATOM      9  C   UNL     1      11.313  36.682  -0.324  1.00  0.00     0.000 C 
BRANCH   9  10
ATOM     10  C   UNL     1      10.644  35.434  -0.929  1.00  0.00     0.000 C 
BRANCH  10  11
ATOM     11  C   UNL     1       9.905  34.587   0.118  1.00  0.00     0.000 C 
BRANCH  11  12
ATOM     12  C   UNL     1       9.061  33.495  -0.557  1.00  0.00     0.006 C 
BRANCH  12  13
ATOM     13  C   UNL     1       9.786  32.850  -1.746  1.00  0.00     0.053 C 
BRANCH  13  14
ATOM     14  C   UNL     1      10.387  31.528  -1.381  1.00  0.00     0.041 C 
ATOM     15  O   UNL     1      10.079  30.968  -0.296  1.00  0.00    -0.550 OA
ATOM     16  O   UNL     1      11.274  30.903  -2.249  1.00  0.00    -0.550 OA
ENDBRANCH  13  14
ENDBRANCH  12  13
ENDBRANCH  11  12
ENDBRANCH  10  11
ENDBRANCH   9  10
ENDBRANCH   8   9
ENDBRANCH   7   8
ENDBRANCH   6   7
ENDBRANCH   5   6
ENDBRANCH   4   5
ENDBRANCH   3   4
ENDBRANCH   2   3
ENDBRANCH   1   2
BRANCH   1  17
ATOM     17  C   UNL     1       5.847  34.575  -1.705  1.00  0.00     0.000 C 
BRANCH  17  18
ATOM     18  C   UNL     1       4.322  34.495  -1.898  1.00  0.00     0.000 C 
BRANCH  18  19
ATOM     19  C   UNL     1       3.676  35.756  -2.505  1.00  0.00     0.000 C 
BRANCH  19  20
ATOM     20  C   UNL     1       3.138  36.770  -1.477  1.00  0.00     0.000 C 
BRANCH  20  21
ATOM     21  C   UNL     1       2.875  36.196  -0.068  1.00  0.00     0.000 C 
BRANCH  21  22
ATOM     22  C   UNL     1       3.631  36.891   1.079  1.00  0.00    -0.000 C 
BRANCH  22  23
ATOM     23  C   UNL     1       4.027  35.927   2.210  1.00  0.00    -0.000 C 
BRANCH  23  24
ATOM     24  C   UNL     1       4.792  36.625   3.349  1.00  0.00    -0.000 C 
BRANCH  24  25
ATOM     25  C   UNL     1       4.344  38.067   3.654  1.00  0.00    -0.000 C 
BRANCH  25  26
ATOM     26  C   UNL     1       5.046  38.662   4.887  1.00  0.00    -0.000 C 
BRANCH  26  27
ATOM     27  C   UNL     1       6.572  38.780   4.713  1.00  0.00    -0.000 C 
BRANCH  27  28
ATOM     28  C   UNL     1       7.159  40.178   4.984  1.00  0.00    -0.000 C 
BRANCH  28  29
ATOM     29  C   UNL     1       8.111  40.657   3.879  1.00  0.00    -0.003 C 
ATOM     30  C   UNL     1       7.350  40.971   2.593  1.00  0.00     0.004 C 
ENDBRANCH  28  29
ENDBRANCH  27  28
ENDBRANCH  26  27
ENDBRANCH  25  26
ENDBRANCH  24  25
ENDBRANCH  23  24
ENDBRANCH  22  23
ENDBRANCH  21  22
ENDBRANCH  20  21
ENDBRANCH  19  20
ENDBRANCH  18  19
ENDBRANCH  17  18
ENDBRANCH   1  17
TORSDOF 26
ENDMDL
MODEL 2
REMARK VINA RESULT:    -4.239      1.321      4.673
REMARK INTER + INTRA:         -15.979
REMARK INTER:                 -11.338
REMARK INTRA:                  -4.641
REMARK UNBOUND:                -5.297
REMARK SMILES CCCCCCCCCCCCCCCCCCCCCCCCCCCC(=O)[O-]
REMARK SMILES IDX 15 1 16 2 17 3 18 4 19 5 20 6 21 7 22 8 23 9 24 10 25 11
REMARK SMILES IDX 26 12 27 13 28 14 29 15 30 16 14 17 13 18 12 19 11 20 10 21
REMARK SMILES IDX 9 22 8 23 7 24 6 25 5 26 4 27 3 28 2 29 1 30
REMARK H PARENT
REMARK Flexibility Score: inf
ROOT
ATOM      1  C   UNL     1       6.647  37.620   0.891  1.00  0.00     0.000 C 
ENDROOT
BRANCH   1   2
ATOM      2  C   UNL     1       7.193  37.793  -0.535  1.00  0.00     0.000 C 
BRANCH   2   3
ATOM      3  C   UNL     1       6.070  37.808  -1.592  1.00  0.00     0.000 C 
BRANCH   3   4
ATOM      4  C   UNL     1       4.718  38.307  -1.052  1.00  0.00     0.000 C 
BRANCH   4   5
ATOM      5  C   UNL     1       3.558  37.352  -1.366  1.00  0.00     0.000 C 
BRANCH   5   6
ATOM      6  C   UNL     1       3.921  36.402  -2.518  1.00  0.00     0.000 C 
BRANCH   6   7
ATOM      7  C   UNL     1       3.165  35.064  -2.446  1.00  0.00     0.000 C 
BRANCH   7   8
ATOM      8  C   UNL     1       4.042  33.837  -2.120  1.00  0.00     0.000 C 
BRANCH   8   9
ATOM      9  C   UNL     1       5.542  34.136  -1.923  1.00  0.00     0.000 C 
BRANCH   9  10
ATOM     10  C   UNL     1       6.477  33.470  -2.948  1.00  0.00     0.000 C 
BRANCH  10  11
ATOM     11  C   UNL     1       7.925  33.359  -2.452  1.00  0.00     0.000 C 
BRANCH  11  12
ATOM     12  C   UNL     1       8.084  34.015  -1.071  1.00  0.00     0.006 C 
BRANCH  12  13
ATOM     13  C   UNL     1       8.961  33.181  -0.128  1.00  0.00     0.053 C 
BRANCH  13  14
ATOM     14  C   UNL     1      10.070  32.492  -0.861  1.00  0.00     0.041 C 
ATOM     15  O   UNL     1      10.045  31.244  -1.023  1.00  0.00    -0.550 OA
ATOM     16  O   UNL     1      11.125  33.232  -1.382  1.00  0.00    -0.550 OA
ENDBRANCH  13  14
ENDBRANCH  12  13
ENDBRANCH  11  12
ENDBRANCH  10  11
ENDBRANCH   9  10
ENDBRANCH   8   9
ENDBRANCH   7   8
ENDBRANCH   6   7
ENDBRANCH   5   6
ENDBRANCH   4   5
ENDBRANCH   3   4
ENDBRANCH   2   3
ENDBRANCH   1   2
BRANCH   1  17
ATOM     17  C   UNL     1       6.620  36.139   1.298  1.00  0.00     0.000 C 
BRANCH  17  18
ATOM     18  C   UNL     1       5.205  35.637   1.637  1.00  0.00     0.000 C 
BRANCH  18  19
ATOM     19  C   UNL     1       4.285  36.683   2.297  1.00  0.00     0.000 C 
BRANCH  19  20
ATOM     20  C   UNL     1       3.998  36.445   3.792  1.00  0.00     0.000 C 
BRANCH  20  21
ATOM     21  C   UNL     1       4.756  37.376   4.761  1.00  0.00     0.000 C 
BRANCH  21  22
ATOM     22  C   UNL     1       5.200  38.726   4.166  1.00  0.00    -0.000 C 
BRANCH  22  23
ATOM     23  C   UNL     1       6.701  39.001   4.355  1.00  0.00    -0.000 C 
BRANCH  23  24
ATOM     24  C   UNL     1       7.232  40.090   3.404  1.00  0.00    -0.000 C 
BRANCH  24  25
ATOM     25  C   UNL     1       8.488  40.835   3.896  1.00  0.00    -0.000 C 
BRANCH  25  26
ATOM     26  C   UNL     1       9.671  40.719   2.920  1.00  0.00    -0.000 C 
BRANCH  26  27
ATOM     27  C   UNL     1       9.545  39.522   1.959  1.00  0.00    -0.000 C 
BRANCH  27  28
ATOM     28  C   UNL     1      10.727  38.535   1.977  1.00  0.00    -0.000 C 
BRANCH  28  29
ATOM     29  C   UNL     1      10.685  37.521   0.825  1.00  0.00    -0.003 C 
ATOM     30  C   UNL     1      10.376  36.117   1.337  1.00  0.00     0.004 C 
ENDBRANCH  28  29
ENDBRANCH  27  28
ENDBRANCH  26  27
ENDBRANCH  25  26
ENDBRANCH  24  25
ENDBRANCH  23  24
ENDBRANCH  22  23
ENDBRANCH  21  22
ENDBRANCH  20  21
ENDBRANCH  19  20
ENDBRANCH  18  19
ENDBRANCH  17  18
ENDBRANCH   1  17
TORSDOF 26
ENDMDL
MODEL 3
REMARK VINA RESULT:    -4.212      2.452      4.359
REMARK INTER + INTRA:         -15.912
REMARK INTER:                 -10.400
REMARK INTRA:                  -5.512
REMARK UNBOUND:                -5.297
REMARK SMILES CCCCCCCCCCCCCCCCCCCCCCCCCCCC(=O)[O-]
REMARK SMILES IDX 15 1 16 2 17 3 18 4 19 5 20 6 21 7 22 8 23 9 24 10 25 11
REMARK SMILES IDX 26 12 27 13 28 14 29 15 30 16 14 17 13 18 12 19 11 20 10 21
REMARK SMILES IDX 9 22 8 23 7 24 6 25 5 26 4 27 3 28 2 29 1 30
REMARK H PARENT
REMARK Flexibility Score: inf
ROOT
ATOM      1  C   UNL     1       5.875  38.196  -1.639  1.00  0.00     0.000 C 
ENDROOT
BRANCH   1   2
ATOM      2  C   UNL     1       5.196  37.332  -2.714  1.00  0.00     0.000 C 
BRANCH   2   3
ATOM      3  C   UNL     1       3.882  36.700  -2.211  1.00  0.00     0.000 C 
BRANCH   3   4
ATOM      4  C   UNL     1       3.796  35.182  -2.442  1.00  0.00     0.000 C 
BRANCH   4   5
ATOM      5  C   UNL     1       4.959  34.411  -1.802  1.00  0.00     0.000 C 
BRANCH   5   6
ATOM      6  C   UNL     1       5.462  33.297  -2.733  1.00  0.00     0.000 C 
BRANCH   6   7
ATOM      7  C   UNL     1       6.994  33.290  -2.880  1.00  0.00     0.000 C 
BRANCH   7   8
ATOM      8  C   UNL     1       7.747  34.194  -1.882  1.00  0.00     0.000 C 
BRANCH   8   9
ATOM      9  C   UNL     1       8.749  33.465  -0.963  1.00  0.00     0.000 C 
BRANCH   9  10
ATOM     10  C   UNL     1       9.763  34.380  -0.253  1.00  0.00     0.000 C 
BRANCH  10  11
ATOM     11  C   UNL     1      10.325  35.474  -1.171  1.00  0.00     0.000 C 
BRANCH  11  12
ATOM     12  C   UNL     1      11.370  36.326  -0.435  1.00  0.00     0.006 C 
BRANCH  12  13
ATOM     13  C   UNL     1      10.736  37.235   0.627  1.00  0.00     0.053 C 
BRANCH  13  14
ATOM     14  C   UNL     1      10.603  38.647   0.145  1.00  0.00     0.041 C 
ATOM     15  O   UNL     1      10.176  39.544   0.918  1.00  0.00    -0.550 OA
ATOM     16  O   UNL     1      10.969  38.975  -1.155  1.00  0.00    -0.550 OA
ENDBRANCH  13  14
ENDBRANCH  12  13
ENDBRANCH  11  12
ENDBRANCH  10  11
ENDBRANCH   9  10
ENDBRANCH   8   9
ENDBRANCH   7   8
ENDBRANCH   6   7
ENDBRANCH   5   6
ENDBRANCH   4   5
ENDBRANCH   3   4
ENDBRANCH   2   3
ENDBRANCH   1   2
BRANCH   1  17
ATOM     17  C   UNL     1       7.114  37.495  -1.066  1.00  0.00     0.000 C 
BRANCH  17  18
ATOM     18  C   UNL     1       7.089  37.394   0.470  1.00  0.00     0.000 C 
BRANCH  18  19
ATOM     19  C   UNL     1       6.686  36.013   1.024  1.00  0.00     0.000 C 
BRANCH  19  20
ATOM     20  C   UNL     1       5.513  36.031   2.023  1.00  0.00     0.000 C 
BRANCH  20  21
ATOM     21  C   UNL     1       4.108  36.045   1.382  1.00  0.00     0.000 C 
BRANCH  21  22
ATOM     22  C   UNL     1       3.433  37.426   1.306  1.00  0.00    -0.000 C 
BRANCH  22  23
ATOM     23  C   UNL     1       4.126  38.484   2.181  1.00  0.00    -0.000 C 
BRANCH  23  24
ATOM     24  C   UNL     1       3.446  38.665   3.551  1.00  0.00    -0.000 C 
BRANCH  24  25
ATOM     25  C   UNL     1       4.362  39.187   4.674  1.00  0.00    -0.000 C 
BRANCH  25  26
ATOM     26  C   UNL     1       5.536  38.241   4.976  1.00  0.00    -0.000 C 
BRANCH  26  27
ATOM     27  C   UNL     1       6.905  38.945   4.928  1.00  0.00    -0.000 C 
BRANCH  27  28
ATOM     28  C   UNL     1       7.496  39.142   3.519  1.00  0.00    -0.000 C 
BRANCH  28  29
ATOM     29  C   UNL     1       7.547  40.615   3.086  1.00  0.00    -0.003 C 
ATOM     30  C   UNL     1       6.967  40.798   1.686  1.00  0.00     0.004 C 
ENDBRANCH  28  29
ENDBRANCH  27  28
ENDBRANCH  26  27
ENDBRANCH  25  26
ENDBRANCH  24  25
ENDBRANCH  23  24
ENDBRANCH  22  23
ENDBRANCH  21  22
ENDBRANCH  20  21
ENDBRANCH  19  20
ENDBRANCH  18  19
ENDBRANCH  17  18
ENDBRANCH   1  17
TORSDOF 26
ENDMDL
MODEL 4
REMARK VINA RESULT:    -4.208      2.722      6.163
REMARK INTER + INTRA:         -15.900
REMARK INTER:                 -10.929
REMARK INTRA:                  -4.972
REMARK UNBOUND:                -5.297
REMARK SMILES CCCCCCCCCCCCCCCCCCCCCCCCCCCC(=O)[O-]
REMARK SMILES IDX 15 1 16 2 17 3 18 4 19 5 20 6 21 7 22 8 23 9 24 10 25 11
REMARK SMILES IDX 26 12 27 13 28 14 29 15 30 16 14 17 13 18 12 19 11 20 10 21
REMARK SMILES IDX 9 22 8 23 7 24 6 25 5 26 4 27 3 28 2 29 1 30
REMARK H PARENT
REMARK Flexibility Score: inf
ROOT
ATOM      1  C   UNL     1       8.909  33.495   0.202  1.00  0.00     0.000 C 
ENDROOT
BRANCH   1   2
ATOM      2  C   UNL     1       8.729  33.173  -1.289  1.00  0.00     0.000 C 
BRANCH   2   3
ATOM      3  C   UNL     1       7.682  34.084  -1.961  1.00  0.00     0.000 C 
BRANCH   3   4
ATOM      4  C   UNL     1       6.693  33.329  -2.865  1.00  0.00     0.000 C 
BRANCH   4   5
ATOM      5  C   UNL     1       5.228  33.690  -2.584  1.00  0.00     0.000 C 
BRANCH   5   6
ATOM      6  C   UNL     1       5.116  34.654  -1.393  1.00  0.00     0.000 C 
BRANCH   6   7
ATOM      7  C   UNL     1       4.391  35.963  -1.752  1.00  0.00     0.000 C 
BRANCH   7   8
ATOM      8  C   UNL     1       5.249  36.994  -2.515  1.00  0.00     0.000 C 
BRANCH   8   9
ATOM      9  C   UNL     1       6.495  37.498  -1.760  1.00  0.00     0.000 C 
BRANCH   9  10
ATOM     10  C   UNL     1       6.305  38.829  -1.010  1.00  0.00     0.000 C 
BRANCH  10  11
ATOM     11  C   UNL     1       6.544  38.702   0.501  1.00  0.00     0.000 C 
BRANCH  11  12
ATOM     12  C   UNL     1       5.327  38.074   1.199  1.00  0.00     0.006 C 
BRANCH  12  13
ATOM     13  C   UNL     1       5.705  36.840   2.030  1.00  0.00     0.053 C 
BRANCH  13  14
ATOM     14  C   UNL     1       4.500  36.171   2.614  1.00  0.00     0.041 C 
ATOM     15  O   UNL     1       4.313  36.173   3.859  1.00  0.00    -0.550 OA
ATOM     16  O   UNL     1       3.571  35.559   1.780  1.00  0.00    -0.550 OA
ENDBRANCH  13  14
ENDBRANCH  12  13
ENDBRANCH  11  12
ENDBRANCH  10  11
ENDBRANCH   9  10
ENDBRANCH   8   9
ENDBRANCH   7   8
ENDBRANCH   6   7
ENDBRANCH   5   6
ENDBRANCH   4   5
ENDBRANCH   3   4
ENDBRANCH   2   3
ENDBRANCH   1   2
BRANCH   1  17
ATOM     17  C   UNL     1       8.262  34.841   0.560  1.00  0.00     0.000 C 
BRANCH  17  18
ATOM     18  C   UNL     1       9.232  35.804   1.266  1.00  0.00     0.000 C 
BRANCH  18  19
ATOM     19  C   UNL     1      10.602  35.967   0.578  1.00  0.00     0.000 C 
BRANCH  19  20
ATOM     20  C   UNL     1      10.544  36.502  -0.866  1.00  0.00     0.000 C 
BRANCH  20  21
ATOM     21  C   UNL     1      10.056  37.960  -1.003  1.00  0.00     0.000 C 
BRANCH  21  22
ATOM     22  C   UNL     1      11.114  39.040  -0.713  1.00  0.00    -0.000 C 
BRANCH  22  23
ATOM     23  C   UNL     1      10.511  40.446  -0.553  1.00  0.00    -0.000 C 
BRANCH  23  24
ATOM     24  C   UNL     1       9.428  40.509   0.539  1.00  0.00    -0.000 C 
BRANCH  24  25
ATOM     25  C   UNL     1       9.850  39.963   1.916  1.00  0.00    -0.000 C 
BRANCH  25  26
ATOM     26  C   UNL     1       9.775  41.023   3.028  1.00  0.00    -0.000 C 
BRANCH  26  27
ATOM     27  C   UNL     1       8.445  41.800   3.030  1.00  0.00    -0.000 C 
BRANCH  27  28
ATOM     28  C   UNL     1       7.212  40.995   3.480  1.00  0.00    -0.000 C 
BRANCH  28  29
ATOM     29  C   UNL     1       7.406  40.299   4.835  1.00  0.00    -0.003 C 
ATOM     30  C   UNL     1       6.883  38.866   4.799  1.00  0.00     0.004 C 
ENDBRANCH  28  29
ENDBRANCH  27  28
ENDBRANCH  26  27
ENDBRANCH  25  26
ENDBRANCH  24  25
ENDBRANCH  23  24
ENDBRANCH  22  23
ENDBRANCH  21  22
ENDBRANCH  20  21
ENDBRANCH  19  20
ENDBRANCH  18  19
ENDBRANCH  17  18
ENDBRANCH   1  17
TORSDOF 26
ENDMDL
MODEL 5
REMARK VINA RESULT:    -4.207      1.602      5.105
REMARK INTER + INTRA:         -15.899
REMARK INTER:                 -10.297
REMARK INTRA:                  -5.602
REMARK UNBOUND:                -5.297
REMARK SMILES CCCCCCCCCCCCCCCCCCCCCCCCCCCC(=O)[O-]
REMARK SMILES IDX 15 1 16 2 17 3 18 4 19 5 20 6 21 7 22 8 23 9 24 10 25 11
REMARK SMILES IDX 26 12 27 13 28 14 29 15 30 16 14 17 13 18 12 19 11 20 10 21
REMARK SMILES IDX 9 22 8 23 7 24 6 25 5 26 4 27 3 28 2 29 1 30
REMARK H PARENT
REMARK Flexibility Score: inf
ROOT
ATOM      1  C   UNL     1      10.259  37.696   2.219  1.00  0.00     0.000 C 
ENDROOT
BRANCH   1   2
ATOM      2  C   UNL     1       8.766  38.040   2.104  1.00  0.00     0.000 C 
BRANCH   2   3
ATOM      3  C   UNL     1       7.983  36.982   1.300  1.00  0.00     0.000 C 
BRANCH   3   4
ATOM      4  C   UNL     1       6.811  37.562   0.490  1.00  0.00     0.000 C 
BRANCH   4   5
ATOM      5  C   UNL     1       7.164  37.805  -0.984  1.00  0.00     0.000 C 
BRANCH   5   6
ATOM      6  C   UNL     1       5.898  38.022  -1.826  1.00  0.00     0.000 C 
BRANCH   6   7
ATOM      7  C   UNL     1       5.508  36.779  -2.646  1.00  0.00     0.000 C 
BRANCH   7   8
ATOM      8  C   UNL     1       4.788  35.672  -1.847  1.00  0.00     0.000 C 
BRANCH   8   9
ATOM      9  C   UNL     1       5.225  34.231  -2.181  1.00  0.00     0.000 C 
BRANCH   9  10
ATOM     10  C   UNL     1       6.737  34.048  -2.407  1.00  0.00     0.000 C 
BRANCH  10  11
ATOM     11  C   UNL     1       7.545  34.098  -1.102  1.00  0.00     0.000 C 
BRANCH  11  12
ATOM     12  C   UNL     1       9.004  34.494  -1.376  1.00  0.00     0.006 C 
BRANCH  12  13
ATOM     13  C   UNL     1      10.000  33.617  -0.604  1.00  0.00     0.053 C 
BRANCH  13  14
ATOM     14  C   UNL     1      10.050  32.222  -1.144  1.00  0.00     0.041 C 
ATOM     15  O   UNL     1      10.327  32.020  -2.356  1.00  0.00    -0.550 OA
ATOM     16  O   UNL     1       9.807  31.141  -0.305  1.00  0.00    -0.550 OA
ENDBRANCH  13  14
ENDBRANCH  12  13
ENDBRANCH  11  12
ENDBRANCH  10  11
ENDBRANCH   9  10
ENDBRANCH   8   9
ENDBRANCH   7   8
ENDBRANCH   6   7
ENDBRANCH   5   6
ENDBRANCH   4   5
ENDBRANCH   3   4
ENDBRANCH   2   3
ENDBRANCH   1   2
BRANCH   1  17
ATOM     17  C   UNL     1      10.654  36.604   1.214  1.00  0.00     0.000 C 
BRANCH  17  18
ATOM     18  C   UNL     1      11.548  37.130   0.078  1.00  0.00     0.000 C 
BRANCH  18  19
ATOM     19  C   UNL     1      10.815  37.962  -0.993  1.00  0.00     0.000 C 
BRANCH  19  20
ATOM     20  C   UNL     1      11.110  39.474  -0.957  1.00  0.00     0.000 C 
BRANCH  20  21
ATOM     21  C   UNL     1       9.901  40.368  -0.610  1.00  0.00     0.000 C 
BRANCH  21  22
ATOM     22  C   UNL     1      10.013  41.145   0.714  1.00  0.00    -0.000 C 
BRANCH  22  23
ATOM     23  C   UNL     1       8.674  41.748   1.173  1.00  0.00    -0.000 C 
BRANCH  23  24
ATOM     24  C   UNL     1       7.482  41.271   0.323  1.00  0.00    -0.000 C 
BRANCH  24  25
ATOM     25  C   UNL     1       6.159  41.091   1.091  1.00  0.00    -0.000 C 
BRANCH  25  26
ATOM     26  C   UNL     1       6.104  41.918   2.387  1.00  0.00    -0.000 C 
BRANCH  26  27
ATOM     27  C   UNL     1       5.604  41.108   3.598  1.00  0.00    -0.000 C 
BRANCH  27  28
ATOM     28  C   UNL     1       4.877  39.794   3.257  1.00  0.00    -0.000 C 
BRANCH  28  29
ATOM     29  C   UNL     1       5.594  38.549   3.798  1.00  0.00    -0.003 C 
ATOM     30  C   UNL     1       6.543  38.911   4.937  1.00  0.00     0.004 C 
ENDBRANCH  28  29
ENDBRANCH  27  28
ENDBRANCH  26  27
ENDBRANCH  25  26
ENDBRANCH  24  25
ENDBRANCH  23  24
ENDBRANCH  22  23
ENDBRANCH  21  22
ENDBRANCH  20  21
ENDBRANCH  19  20
ENDBRANCH  18  19
ENDBRANCH  17  18
ENDBRANCH   1  17
TORSDOF 26
ENDMDL
MODEL 6
REMARK VINA RESULT:    -4.166      3.061      6.092
REMARK INTER + INTRA:         -15.796
REMARK INTER:                 -10.769
REMARK INTRA:                  -5.026
REMARK UNBOUND:                -5.297
REMARK SMILES CCCCCCCCCCCCCCCCCCCCCCCCCCCC(=O)[O-]
REMARK SMILES IDX 15 1 16 2 17 3 18 4 19 5 20 6 21 7 22 8 23 9 24 10 25 11
REMARK SMILES IDX 26 12 27 13 28 14 29 15 30 16 14 17 13 18 12 19 11 20 10 21
REMARK SMILES IDX 9 22 8 23 7 24 6 25 5 26 4 27 3 28 2 29 1 30
REMARK H PARENT
REMARK Flexibility Score: inf
ROOT
ATOM      1  C   UNL     1       6.533  34.714  -2.874  1.00  0.00     0.000 C 
ENDROOT
BRANCH   1   2
ATOM      2  C   UNL     1       5.744  34.508  -1.572  1.00  0.00     0.000 C 
BRANCH   2   3
ATOM      3  C   UNL     1       4.219  34.581  -1.796  1.00  0.00     0.000 C 
BRANCH   3   4
ATOM      4  C   UNL     1       3.762  35.847  -2.541  1.00  0.00     0.000 C 
BRANCH   4   5
ATOM      5  C   UNL     1       3.990  37.132  -1.734  1.00  0.00     0.000 C 
BRANCH   5   6
ATOM      6  C   UNL     1       4.964  38.074  -2.459  1.00  0.00     0.000 C 
BRANCH   6   7
ATOM      7  C   UNL     1       5.933  38.783  -1.496  1.00  0.00     0.000 C 
BRANCH   7   8
ATOM      8  C   UNL     1       6.941  37.855  -0.787  1.00  0.00     0.000 C 
BRANCH   8   9
ATOM      9  C   UNL     1       6.706  37.665   0.726  1.00  0.00     0.000 C 
BRANCH   9  10
ATOM     10  C   UNL     1       7.168  36.309   1.289  1.00  0.00     0.000 C 
BRANCH  10  11
ATOM     11  C   UNL     1       6.001  35.429   1.759  1.00  0.00     0.000 C 
BRANCH  11  12
ATOM     12  C   UNL     1       4.672  36.197   1.687  1.00  0.00     0.006 C 
BRANCH  12  13
ATOM     13  C   UNL     1       4.020  36.363   3.067  1.00  0.00     0.053 C 
BRANCH  13  14
ATOM     14  C   UNL     1       4.245  37.732   3.629  1.00  0.00     0.041 C 
ATOM     15  O   UNL     1       3.293  38.552   3.703  1.00  0.00    -0.550 OA
ATOM     16  O   UNL     1       5.504  38.097   4.089  1.00  0.00    -0.550 OA
ENDBRANCH  13  14
ENDBRANCH  12  13
ENDBRANCH  11  12
ENDBRANCH  10  11
ENDBRANCH   9  10
ENDBRANCH   8   9
ENDBRANCH   7   8
ENDBRANCH   6   7
ENDBRANCH   5   6
ENDBRANCH   4   5
ENDBRANCH   3   4
ENDBRANCH   2   3
ENDBRANCH   1   2
BRANCH   1  17
ATOM     17  C   UNL     1       7.341  33.459  -3.236  1.00  0.00     0.000 C 
BRANCH  17  18
ATOM     18  C   UNL     1       8.104  32.871  -2.036  1.00  0.00     0.000 C 
BRANCH  18  19
ATOM     19  C   UNL     1       9.401  33.617  -1.662  1.00  0.00     0.000 C 
BRANCH  19  20
ATOM     20  C   UNL     1       9.549  33.954  -0.166  1.00  0.00     0.000 C 
BRANCH  20  21
ATOM     21  C   UNL     1      10.365  35.228   0.140  1.00  0.00     0.000 C 
BRANCH  21  22
ATOM     22  C   UNL     1      10.455  36.245  -1.011  1.00  0.00    -0.000 C 
BRANCH  22  23
ATOM     23  C   UNL     1      10.456  37.705  -0.525  1.00  0.00    -0.000 C 
BRANCH  23  24
ATOM     24  C   UNL     1      11.168  37.883   0.828  1.00  0.00    -0.000 C 
BRANCH  24  25
ATOM     25  C   UNL     1      10.247  38.228   2.014  1.00  0.00    -0.000 C 
BRANCH  25  26
ATOM     26  C   UNL     1      10.194  39.737   2.308  1.00  0.00    -0.000 C 
BRANCH  26  27
ATOM     27  C   UNL     1       8.763  40.307   2.273  1.00  0.00    -0.000 C 
BRANCH  27  28
ATOM     28  C   UNL     1       8.519  41.409   1.225  1.00  0.00    -0.000 C 
BRANCH  28  29
ATOM     29  C   UNL     1       9.438  41.293   0.001  1.00  0.00    -0.003 C 
ATOM     30  C   UNL     1      10.528  42.361   0.026  1.00  0.00     0.004 C 
ENDBRANCH  28  29
ENDBRANCH  27  28
ENDBRANCH  26  27
ENDBRANCH  25  26
ENDBRANCH  24  25
ENDBRANCH  23  24
ENDBRANCH  22  23
ENDBRANCH  21  22
ENDBRANCH  20  21
ENDBRANCH  19  20
ENDBRANCH  18  19
ENDBRANCH  17  18
ENDBRANCH   1  17
TORSDOF 26
ENDMDL
MODEL 7
REMARK VINA RESULT:    -4.161      1.592      5.162
REMARK INTER + INTRA:         -15.783
REMARK INTER:                 -10.219
REMARK INTRA:                  -5.564
REMARK UNBOUND:                -5.297
REMARK SMILES CCCCCCCCCCCCCCCCCCCCCCCCCCCC(=O)[O-]
REMARK SMILES IDX 15 1 16 2 17 3 18 4 19 5 20 6 21 7 22 8 23 9 24 10 25 11
REMARK SMILES IDX 26 12 27 13 28 14 29 15 30 16 14 17 13 18 12 19 11 20 10 21
REMARK SMILES IDX 9 22 8 23 7 24 6 25 5 26 4 27 3 28 2 29 1 30
REMARK H PARENT
REMARK Flexibility Score: inf
ROOT
ATOM      1  C   UNL     1       6.209  36.806   1.534  1.00  0.00     0.000 C 
ENDROOT
BRANCH   1   2
ATOM      2  C   UNL     1       5.141  35.706   1.640  1.00  0.00     0.000 C 
BRANCH   2   3
ATOM      3  C   UNL     1       3.721  36.243   1.371  1.00  0.00     0.000 C 
BRANCH   3   4
ATOM      4  C   UNL     1       2.994  35.524   0.221  1.00  0.00     0.000 C 
BRANCH   4   5
ATOM      5  C   UNL     1       2.917  36.367  -1.059  1.00  0.00     0.000 C 
BRANCH   5   6
ATOM      6  C   UNL     1       3.031  35.483  -2.310  1.00  0.00     0.000 C 
BRANCH   6   7
ATOM      7  C   UNL     1       3.545  34.067  -1.993  1.00  0.00     0.000 C 
BRANCH   7   8
ATOM      8  C   UNL     1       4.989  33.780  -2.454  1.00  0.00     0.000 C 
BRANCH   8   9
ATOM      9  C   UNL     1       6.094  34.341  -1.536  1.00  0.00     0.000 C 
BRANCH   9  10
ATOM     10  C   UNL     1       6.635  35.724  -1.942  1.00  0.00     0.000 C 
BRANCH  10  11
ATOM     11  C   UNL     1       8.160  35.740  -2.119  1.00  0.00     0.000 C 
BRANCH  11  12
ATOM     12  C   UNL     1       8.824  36.659  -1.083  1.00  0.00     0.006 C 
BRANCH  12  13
ATOM     13  C   UNL     1      10.122  36.063  -0.523  1.00  0.00     0.053 C 
BRANCH  13  14
ATOM     14  C   UNL     1       9.976  34.607  -0.204  1.00  0.00     0.041 C 
ATOM     15  O   UNL     1      10.671  33.751  -0.812  1.00  0.00    -0.550 OA
ATOM     16  O   UNL     1       9.083  34.197   0.778  1.00  0.00    -0.550 OA
ENDBRANCH  13  14
ENDBRANCH  12  13
ENDBRANCH  11  12
ENDBRANCH  10  11
ENDBRANCH   9  10
ENDBRANCH   8   9
ENDBRANCH   7   8
ENDBRANCH   6   7
ENDBRANCH   5   6
ENDBRANCH   4   5
ENDBRANCH   3   4
ENDBRANCH   2   3
ENDBRANCH   1   2
BRANCH   1  17
ATOM     17  C   UNL     1       5.571  38.168   1.224  1.00  0.00     0.000 C 
BRANCH  17  18
ATOM     18  C   UNL     1       6.105  38.798  -0.075  1.00  0.00     0.000 C 
BRANCH  18  19
ATOM     19  C   UNL     1       6.558  40.266   0.054  1.00  0.00     0.000 C 
BRANCH  19  20
ATOM     20  C   UNL     1       7.994  40.547  -0.430  1.00  0.00     0.000 C 
BRANCH  20  21
ATOM     21  C   UNL     1       9.059  40.609   0.686  1.00  0.00     0.000 C 
BRANCH  21  22
ATOM     22  C   UNL     1       9.414  39.258   1.334  1.00  0.00    -0.000 C 
BRANCH  22  23
ATOM     23  C   UNL     1       8.863  39.114   2.762  1.00  0.00    -0.000 C 
BRANCH  23  24
ATOM     24  C   UNL     1       8.304  40.434   3.323  1.00  0.00    -0.000 C 
BRANCH  24  25
ATOM     25  C   UNL     1       6.874  40.354   3.889  1.00  0.00    -0.000 C 
BRANCH  25  26
ATOM     26  C   UNL     1       6.752  39.372   5.068  1.00  0.00    -0.000 C 
BRANCH  26  27
ATOM     27  C   UNL     1       5.657  38.310   4.856  1.00  0.00    -0.000 C 
BRANCH  27  28
ATOM     28  C   UNL     1       4.221  38.856   4.748  1.00  0.00    -0.000 C 
BRANCH  28  29
ATOM     29  C   UNL     1       3.154  37.752   4.746  1.00  0.00    -0.003 C 
ATOM     30  C   UNL     1       3.759  36.399   5.111  1.00  0.00     0.004 C 
ENDBRANCH  28  29
ENDBRANCH  27  28
ENDBRANCH  26  27
ENDBRANCH  25  26
ENDBRANCH  24  25
ENDBRANCH  23  24
ENDBRANCH  22  23
ENDBRANCH  21  22
ENDBRANCH  20  21
ENDBRANCH  19  20
ENDBRANCH  18  19
ENDBRANCH  17  18
ENDBRANCH   1  17
TORSDOF 26
ENDMDL
MODEL 8
REMARK VINA RESULT:    -4.114      1.439      4.610
REMARK INTER + INTRA:         -15.665
REMARK INTER:                 -10.751
REMARK INTRA:                  -4.914
REMARK UNBOUND:                -5.297
REMARK SMILES CCCCCCCCCCCCCCCCCCCCCCCCCCCC(=O)[O-]
REMARK SMILES IDX 15 1 16 2 17 3 18 4 19 5 20 6 21 7 22 8 23 9 24 10 25 11
REMARK SMILES IDX 26 12 27 13 28 14 29 15 30 16 14 17 13 18 12 19 11 20 10 21
REMARK SMILES IDX 9 22 8 23 7 24 6 25 5 26 4 27 3 28 2 29 1 30
REMARK H PARENT
REMARK Flexibility Score: inf
ROOT
ATOM      1  C   UNL     1      10.985  36.813  -0.557  1.00  0.00     0.000 C 
ENDROOT
BRANCH   1   2
ATOM      2  C   UNL     1      10.386  36.221   0.728  1.00  0.00     0.000 C 
BRANCH   2   3
ATOM      3  C   UNL     1       9.965  37.314   1.732  1.00  0.00     0.000 C 
BRANCH   3   4
ATOM      4  C   UNL     1       8.443  37.415   1.936  1.00  0.00     0.000 C 
BRANCH   4   5
ATOM      5  C   UNL     1       7.669  36.286   1.240  1.00  0.00     0.000 C 
BRANCH   5   6
ATOM      6  C   UNL     1       6.350  36.805   0.649  1.00  0.00     0.000 C 
BRANCH   6   7
ATOM      7  C   UNL     1       6.564  37.773  -0.528  1.00  0.00     0.000 C 
BRANCH   7   8
ATOM      8  C   UNL     1       5.910  37.338  -1.856  1.00  0.00     0.000 C 
BRANCH   8   9
ATOM      9  C   UNL     1       6.621  36.184  -2.591  1.00  0.00     0.000 C 
BRANCH   9  10
ATOM     10  C   UNL     1       5.981  34.798  -2.395  1.00  0.00     0.000 C 
BRANCH  10  11
ATOM     11  C   UNL     1       7.016  33.665  -2.341  1.00  0.00     0.000 C 
BRANCH  11  12
ATOM     12  C   UNL     1       8.328  34.151  -1.706  1.00  0.00     0.006 C 
BRANCH  12  13
ATOM     13  C   UNL     1       8.819  33.213  -0.595  1.00  0.00     0.053 C 
BRANCH  13  14
ATOM     14  C   UNL     1      10.066  32.484  -0.991  1.00  0.00     0.041 C 
ATOM     15  O   UNL     1      11.092  33.125  -1.341  1.00  0.00    -0.550 OA
ATOM     16  O   UNL     1      10.101  31.095  -0.957  1.00  0.00    -0.550 OA
ENDBRANCH  13  14
ENDBRANCH  12  13
ENDBRANCH  11  12
ENDBRANCH  10  11
ENDBRANCH   9  10
ENDBRANCH   8   9
ENDBRANCH   7   8
ENDBRANCH   6   7
ENDBRANCH   5   6
ENDBRANCH   4   5
ENDBRANCH   3   4
ENDBRANCH   2   3
ENDBRANCH   1   2
BRANCH   1  17
ATOM     17  C   UNL     1      10.233  38.080  -0.987  1.00  0.00     0.000 C 
BRANCH  17  18
ATOM     18  C   UNL     1      11.123  39.335  -0.989  1.00  0.00     0.000 C 
BRANCH  18  19
ATOM     19  C   UNL     1      10.430  40.625  -0.507  1.00  0.00     0.000 C 
BRANCH  19  20
ATOM     20  C   UNL     1       8.917  40.491  -0.248  1.00  0.00     0.000 C 
BRANCH  20  21
ATOM     21  C   UNL     1       8.455  40.911   1.164  1.00  0.00     0.000 C 
BRANCH  21  22
ATOM     22  C   UNL     1       6.935  41.087   1.335  1.00  0.00    -0.000 C 
BRANCH  22  23
ATOM     23  C   UNL     1       6.489  41.065   2.806  1.00  0.00    -0.000 C 
BRANCH  23  24
ATOM     24  C   UNL     1       7.556  40.472   3.745  1.00  0.00    -0.000 C 
BRANCH  24  25
ATOM     25  C   UNL     1       7.048  39.388   4.714  1.00  0.00    -0.000 C 
BRANCH  25  26
ATOM     26  C   UNL     1       5.823  39.840   5.527  1.00  0.00    -0.000 C 
BRANCH  26  27
ATOM     27  C   UNL     1       4.559  39.013   5.223  1.00  0.00    -0.000 C 
BRANCH  27  28
ATOM     28  C   UNL     1       4.778  37.493   5.111  1.00  0.00    -0.000 C 
BRANCH  28  29
ATOM     29  C   UNL     1       4.198  36.893   3.822  1.00  0.00    -0.003 C 
ATOM     30  C   UNL     1       3.692  37.986   2.884  1.00  0.00     0.004 C 
ENDBRANCH  28  29
ENDBRANCH  27  28
ENDBRANCH  26  27
ENDBRANCH  25  26
ENDBRANCH  24  25
ENDBRANCH  23  24
ENDBRANCH  22  23
ENDBRANCH  21  22
ENDBRANCH  20  21
ENDBRANCH  19  20
ENDBRANCH  18  19
ENDBRANCH  17  18
ENDBRANCH   1  17
TORSDOF 26
ENDMDL
MODEL 9
REMARK VINA RESULT:    -4.069      3.058      5.543
REMARK INTER + INTRA:         -15.550
REMARK INTER:                 -10.371
REMARK INTRA:                  -5.178
REMARK UNBOUND:                -5.297
REMARK SMILES CCCCCCCCCCCCCCCCCCCCCCCCCCCC(=O)[O-]
REMARK SMILES IDX 15 1 16 2 17 3 18 4 19 5 20 6 21 7 22 8 23 9 24 10 25 11
REMARK SMILES IDX 26 12 27 13 28 14 29 15 30 16 14 17 13 18 12 19 11 20 10 21
REMARK SMILES IDX 9 22 8 23 7 24 6 25 5 26 4 27 3 28 2 29 1 30
REMARK H PARENT
REMARK Flexibility Score: inf
ROOT
ATOM      1  C   UNL     1       8.383  33.077  -2.158  1.00  0.00     0.000 C 
ENDROOT
BRANCH   1   2
ATOM      2  C   UNL     1       8.427  33.601  -0.714  1.00  0.00     0.000 C 
BRANCH   2   3
ATOM      3  C   UNL     1       9.866  33.893  -0.244  1.00  0.00     0.000 C 
BRANCH   3   4
ATOM      4  C   UNL     1      10.702  34.686  -1.263  1.00  0.00     0.000 C 
BRANCH   4   5
ATOM      5  C   UNL     1      10.759  36.188  -0.954  1.00  0.00     0.000 C 
BRANCH   5   6
ATOM      6  C   UNL     1      10.683  36.443   0.559  1.00  0.00     0.000 C 
BRANCH   6   7
ATOM      7  C   UNL     1      11.114  37.869   0.944  1.00  0.00     0.000 C 
BRANCH   7   8
ATOM      8  C   UNL     1      10.265  38.530   2.050  1.00  0.00     0.000 C 
BRANCH   8   9
ATOM      9  C   UNL     1       9.500  39.799   1.621  1.00  0.00     0.000 C 
BRANCH   9  10
ATOM     10  C   UNL     1       8.180  40.047   2.374  1.00  0.00     0.000 C 
BRANCH  10  11
ATOM     11  C   UNL     1       8.367  40.887   3.645  1.00  0.00     0.000 C 
BRANCH  11  12
ATOM     12  C   UNL     1       7.546  40.310   4.809  1.00  0.00     0.006 C 
BRANCH  12  13
ATOM     13  C   UNL     1       6.981  38.919   4.490  1.00  0.00     0.053 C 
BRANCH  13  14
ATOM     14  C   UNL     1       5.536  38.805   4.864  1.00  0.00     0.041 C 
ATOM     15  O   UNL     1       4.775  39.804   4.768  1.00  0.00    -0.550 OA
ATOM     16  O   UNL     1       5.024  37.590   5.301  1.00  0.00    -0.550 OA
ENDBRANCH  13  14
ENDBRANCH  12  13
ENDBRANCH  11  12
ENDBRANCH  10  11
ENDBRANCH   9  10
ENDBRANCH   8   9
ENDBRANCH   7   8
ENDBRANCH   6   7
ENDBRANCH   5   6
ENDBRANCH   4   5
ENDBRANCH   3   4
ENDBRANCH   2   3
ENDBRANCH   1   2
BRANCH   1  17
ATOM     17  C   UNL     1       7.103  33.533  -2.874  1.00  0.00     0.000 C 
BRANCH  17  18
ATOM     18  C   UNL     1       6.052  34.112  -1.911  1.00  0.00     0.000 C 
BRANCH  18  19
ATOM     19  C   UNL     1       5.223  35.281  -2.480  1.00  0.00     0.000 C 
BRANCH  19  20
ATOM     20  C   UNL     1       3.705  35.179  -2.239  1.00  0.00     0.000 C 
BRANCH  20  21
ATOM     21  C   UNL     1       3.171  36.026  -1.064  1.00  0.00     0.000 C 
BRANCH  21  22
ATOM     22  C   UNL     1       3.245  35.355   0.320  1.00  0.00    -0.000 C 
BRANCH  22  23
ATOM     23  C   UNL     1       3.613  36.336   1.446  1.00  0.00    -0.000 C 
BRANCH  23  24
ATOM     24  C   UNL     1       4.890  35.925   2.201  1.00  0.00    -0.000 C 
BRANCH  24  25
ATOM     25  C   UNL     1       6.114  35.634   1.313  1.00  0.00    -0.000 C 
BRANCH  25  26
ATOM     26  C   UNL     1       7.018  36.865   1.121  1.00  0.00    -0.000 C 
BRANCH  26  27
ATOM     27  C   UNL     1       7.327  37.161  -0.358  1.00  0.00    -0.000 C 
BRANCH  27  28
ATOM     28  C   UNL     1       6.658  38.425  -0.930  1.00  0.00    -0.000 C 
BRANCH  28  29
ATOM     29  C   UNL     1       5.636  39.054   0.028  1.00  0.00    -0.003 C 
ATOM     30  C   UNL     1       4.363  39.458  -0.712  1.00  0.00     0.004 C 
ENDBRANCH  28  29
ENDBRANCH  27  28
ENDBRANCH  26  27
ENDBRANCH  25  26
ENDBRANCH  24  25
ENDBRANCH  23  24
ENDBRANCH  22  23
ENDBRANCH  21  22
ENDBRANCH  20  21
ENDBRANCH  19  20
ENDBRANCH  18  19
ENDBRANCH  17  18
ENDBRANCH   1  17
TORSDOF 26
ENDMDL
