MODEL 1
REMARK VINA RESULT:    -5.753      0.000      0.000
REMARK INTER + INTRA:          -7.058
REMARK INTER:                  -6.762
REMARK INTRA:                  -0.296
REMARK UNBOUND:                -0.296
REMARK SMILES O=c1c(O)c(-c2ccc(O)cc2)oc2cc(O)cc(O)c12
REMARK SMILES IDX 5 1 3 2 2 3 1 4 21 5 19 6 18 7 16 8 15 9 14 10 13 11 6 12
REMARK SMILES IDX 7 13 8 14 9 15 12 16 11 17 10 18 4 20 20 22 17 24
REMARK H PARENT 10 19 4 21 20 23 17 25
REMARK Flexibility Score: inf
ROOT
ATOM      1  C   UNL     1     161.004 156.428 150.292  1.00  0.00     0.180 A 
ATOM      2  C   UNL     1     161.359 156.897 149.012  1.00  0.00     0.208 A 
ATOM      3  C   UNL     1     160.406 156.847 147.983  1.00  0.00     0.238 A 
ATOM      4  O   UNL     1     160.716 157.254 146.830  1.00  0.00    -0.285 OA
ATOM      5  C   UNL     1     159.113 156.354 148.253  1.00  0.00     0.111 A 
ATOM      6  C   UNL     1     158.094 156.274 147.274  1.00  0.00     0.134 A 
ATOM      7  C   UNL     1     156.829 155.779 147.624  1.00  0.00     0.093 A 
ATOM      8  C   UNL     1     156.564 155.362 148.930  1.00  0.00     0.123 A 
ATOM      9  C   UNL     1     157.567 155.437 149.903  1.00  0.00     0.094 A 
ATOM     10  C   UNL     1     158.835 155.927 149.573  1.00  0.00     0.146 A 
ATOM     11  O   UNL     1     159.770 155.983 150.514  1.00  0.00    -0.452 OA
ENDROOT
BRANCH   1  12
ATOM     12  C   UNL     1     161.959 156.428 151.424  1.00  0.00     0.021 A 
ATOM     13  C   UNL     1     162.021 157.544 152.275  1.00  0.00     0.016 A 
ATOM     14  C   UNL     1     162.899 157.556 153.363  1.00  0.00     0.047 A 
ATOM     15  C   UNL     1     163.715 156.451 153.622  1.00  0.00     0.115 A 
ATOM     16  C   UNL     1     162.767 155.311 151.701  1.00  0.00     0.016 A 
ATOM     17  C   UNL     1     163.644 155.326 152.790  1.00  0.00     0.047 A 
BRANCH  15  18
ATOM     18  O   UNL     1     164.585 156.478 154.709  1.00  0.00    -0.508 OA
ATOM     19  H   UNL     1     165.564 156.236 154.609  1.00  0.00     0.293 HD
ENDBRANCH  15  18
ENDBRANCH   1  12
BRANCH   2  20
ATOM     20  O   UNL     1     162.631 157.428 148.783  1.00  0.00    -0.502 OA
ATOM     21  H   UNL     1     163.299 156.986 148.163  1.00  0.00     0.293 HD
ENDBRANCH   2  20
BRANCH   6  22
ATOM     22  O   UNL     1     158.327 156.684 145.960  1.00  0.00    -0.507 OA
ATOM     23  H   UNL     1     159.248 156.964 145.644  1.00  0.00     0.293 HD
ENDBRANCH   6  22
BRANCH   8  24
ATOM     24  O   UNL     1     155.299 154.875 149.252  1.00  0.00    -0.508 OA
ATOM     25  H   UNL     1     155.077 153.889 149.179  1.00  0.00     0.293 HD
ENDBRANCH   8  24
TORSDOF 5
ENDMDL
MODEL 2
REMARK VINA RESULT:    -5.612      1.860      7.272
REMARK INTER + INTRA:          -6.893
REMARK INTER:                  -6.695
REMARK INTRA:                  -0.197
REMARK UNBOUND:                -0.296
REMARK SMILES O=c1c(O)c(-c2ccc(O)cc2)oc2cc(O)cc(O)c12
REMARK SMILES IDX 5 1 3 2 2 3 1 4 21 5 19 6 18 7 16 8 15 9 14 10 13 11 6 12
REMARK SMILES IDX 7 13 8 14 9 15 12 16 11 17 10 18 4 20 20 22 17 24
REMARK H PARENT 10 19 4 21 20 23 17 25
REMARK Flexibility Score: inf
ROOT
ATOM      1  C   UNL     1     161.202 156.729 151.538  1.00  0.00     0.180 A 
ATOM      2  C   UNL     1     160.708 157.638 152.494  1.00  0.00     0.208 A 
ATOM      3  C   UNL     1     161.414 157.809 153.695  1.00  0.00     0.238 A 
ATOM      4  O   UNL     1     160.975 158.611 154.563  1.00  0.00    -0.285 OA
ATOM      5  C   UNL     1     162.606 157.088 153.911  1.00  0.00     0.111 A 
ATOM      6  C   UNL     1     163.378 157.205 155.092  1.00  0.00     0.134 A 
ATOM      7  C   UNL     1     164.559 156.460 155.228  1.00  0.00     0.093 A 
ATOM      8  C   UNL     1     164.981 155.602 154.210  1.00  0.00     0.123 A 
ATOM      9  C   UNL     1     164.223 155.482 153.041  1.00  0.00     0.094 A 
ATOM     10  C   UNL     1     163.042 156.215 152.887  1.00  0.00     0.146 A 
ATOM     11  O   UNL     1     162.338 156.078 151.770  1.00  0.00    -0.452 OA
ENDROOT
BRANCH   1  12
ATOM     12  C   UNL     1     160.504 156.480 150.255  1.00  0.00     0.021 A 
ATOM     13  C   UNL     1     161.120 156.855 149.049  1.00  0.00     0.016 A 
ATOM     14  C   UNL     1     160.490 156.609 147.826  1.00  0.00     0.047 A 
ATOM     15  C   UNL     1     159.246 155.973 147.790  1.00  0.00     0.115 A 
ATOM     16  C   UNL     1     159.262 155.822 150.212  1.00  0.00     0.016 A 
ATOM     17  C   UNL     1     158.634 155.576 148.987  1.00  0.00     0.047 A 
BRANCH  15  18
ATOM     18  O   UNL     1     158.629 155.734 146.564  1.00  0.00    -0.508 OA
ATOM     19  H   UNL     1     157.674 156.024 146.386  1.00  0.00     0.293 HD
ENDBRANCH  15  18
ENDBRANCH   1  12
BRANCH   2  20
ATOM     20  O   UNL     1     159.551 158.377 152.234  1.00  0.00    -0.502 OA
ATOM     21  H   UNL     1     158.969 158.752 152.973  1.00  0.00     0.293 HD
ENDBRANCH   2  20
BRANCH   6  22
ATOM     22  O   UNL     1     162.983 158.054 156.127  1.00  0.00    -0.507 OA
ATOM     23  H   UNL     1     163.191 159.046 156.112  1.00  0.00     0.293 HD
ENDBRANCH   6  22
BRANCH   8  24
ATOM     24  O   UNL     1     166.159 154.875 154.370  1.00  0.00    -0.508 OA
ATOM     25  H   UNL     1     166.369 154.392 155.235  1.00  0.00     0.293 HD
ENDBRANCH   8  24
TORSDOF 5
ENDMDL
MODEL 3
REMARK VINA RESULT:    -5.258      2.137      3.129
REMARK INTER + INTRA:          -6.476
REMARK INTER:                  -6.196
REMARK INTRA:                  -0.281
REMARK UNBOUND:                -0.296
REMARK SMILES O=c1c(O)c(-c2ccc(O)cc2)oc2cc(O)cc(O)c12
REMARK SMILES IDX 5 1 3 2 2 3 1 4 21 5 19 6 18 7 16 8 15 9 14 10 13 11 6 12
REMARK SMILES IDX 7 13 8 14 9 15 12 16 11 17 10 18 4 20 20 22 17 24
REMARK H PARENT 10 19 4 21 20 23 17 25
REMARK Flexibility Score: inf
ROOT
ATOM      1  C   UNL     1     161.207 156.865 152.171  1.00  0.00     0.180 A 
ATOM      2  C   UNL     1     162.015 157.850 151.571  1.00  0.00     0.208 A 
ATOM      3  C   UNL     1     161.899 158.074 150.190  1.00  0.00     0.238 A 
ATOM      4  O   UNL     1     162.625 158.945 149.640  1.00  0.00    -0.285 OA
ATOM      5  C   UNL     1     160.966 157.329 149.440  1.00  0.00     0.111 A 
ATOM      6  C   UNL     1     160.784 157.496 148.046  1.00  0.00     0.134 A 
ATOM      7  C   UNL     1     159.828 156.722 147.371  1.00  0.00     0.093 A 
ATOM      8  C   UNL     1     159.053 155.787 148.060  1.00  0.00     0.123 A 
ATOM      9  C   UNL     1     159.228 155.617 149.437  1.00  0.00     0.094 A 
ATOM     10  C   UNL     1     160.177 156.378 150.128  1.00  0.00     0.146 A 
ATOM     11  O   UNL     1     160.327 156.192 151.434  1.00  0.00    -0.452 OA
ENDROOT
BRANCH   1  12
ATOM     12  C   UNL     1     161.284 156.556 153.618  1.00  0.00     0.021 A 
ATOM     13  C   UNL     1     162.277 155.679 154.085  1.00  0.00     0.016 A 
ATOM     14  C   UNL     1     162.382 155.392 155.449  1.00  0.00     0.047 A 
ATOM     15  C   UNL     1     161.509 155.987 156.364  1.00  0.00     0.115 A 
ATOM     16  C   UNL     1     160.421 157.168 154.544  1.00  0.00     0.016 A 
ATOM     17  C   UNL     1     160.529 156.879 155.908  1.00  0.00     0.047 A 
BRANCH  15  18
ATOM     18  O   UNL     1     161.625 155.691 157.720  1.00  0.00    -0.508 OA
ATOM     19  H   UNL     1     162.123 156.304 158.355  1.00  0.00     0.293 HD
ENDBRANCH  15  18
ENDBRANCH   1  12
BRANCH   2  20
ATOM     20  O   UNL     1     162.896 158.609 152.346  1.00  0.00    -0.502 OA
ATOM     21  H   UNL     1     163.371 158.228 153.156  1.00  0.00     0.293 HD
ENDBRANCH   2  20
BRANCH   6  22
ATOM     22  O   UNL     1     161.542 158.423 147.328  1.00  0.00    -0.507 OA
ATOM     23  H   UNL     1     162.471 158.697 147.626  1.00  0.00     0.293 HD
ENDBRANCH   6  22
BRANCH   8  24
ATOM     24  O   UNL     1     158.110 155.032 147.367  1.00  0.00    -0.508 OA
ATOM     25  H   UNL     1     157.405 154.490 147.852  1.00  0.00     0.293 HD
ENDBRANCH   8  24
TORSDOF 5
ENDMDL
MODEL 4
REMARK VINA RESULT:    -5.224      2.155      6.911
REMARK INTER + INTRA:          -6.437
REMARK INTER:                  -6.148
REMARK INTRA:                  -0.289
REMARK UNBOUND:                -0.296
REMARK SMILES O=c1c(O)c(-c2ccc(O)cc2)oc2cc(O)cc(O)c12
REMARK SMILES IDX 5 1 3 2 2 3 1 4 21 5 19 6 18 7 16 8 15 9 14 10 13 11 6 12
REMARK SMILES IDX 7 13 8 14 9 15 12 16 11 17 10 18 4 20 20 22 17 24
REMARK H PARENT 10 19 4 21 20 23 17 25
REMARK Flexibility Score: inf
ROOT
ATOM      1  C   UNL     1     160.070 157.162 151.541  1.00  0.00     0.180 A 
ATOM      2  C   UNL     1     161.016 158.187 151.348  1.00  0.00     0.208 A 
ATOM      3  C   UNL     1     161.978 158.419 152.344  1.00  0.00     0.238 A 
ATOM      4  O   UNL     1     162.823 159.341 152.187  1.00  0.00    -0.285 OA
ATOM      5  C   UNL     1     161.991 157.613 153.501  1.00  0.00     0.111 A 
ATOM      6  C   UNL     1     162.928 157.778 154.549  1.00  0.00     0.134 A 
ATOM      7  C   UNL     1     162.881 156.929 155.665  1.00  0.00     0.093 A 
ATOM      8  C   UNL     1     161.919 155.921 155.753  1.00  0.00     0.123 A 
ATOM      9  C   UNL     1     160.990 155.753 154.722  1.00  0.00     0.094 A 
ATOM     10  C   UNL     1     161.019 156.590 153.601  1.00  0.00     0.146 A 
ATOM     11  O   UNL     1     160.122 156.412 152.639  1.00  0.00    -0.452 OA
ENDROOT
BRANCH   1  12
ATOM     12  C   UNL     1     159.013 156.868 150.546  1.00  0.00     0.021 A 
ATOM     13  C   UNL     1     159.181 155.797 149.654  1.00  0.00     0.016 A 
ATOM     14  C   UNL     1     158.187 155.488 148.722  1.00  0.00     0.047 A 
ATOM     15  C   UNL     1     157.006 156.235 148.678  1.00  0.00     0.115 A 
ATOM     16  C   UNL     1     157.815 157.604 150.511  1.00  0.00     0.016 A 
ATOM     17  C   UNL     1     156.821 157.293 149.578  1.00  0.00     0.047 A 
BRANCH  15  18
ATOM     18  O   UNL     1     156.024 155.917 147.744  1.00  0.00    -0.508 OA
ATOM     19  H   UNL     1     155.292 155.248 147.952  1.00  0.00     0.293 HD
ENDBRANCH  15  18
ENDBRANCH   1  12
BRANCH   2  20
ATOM     20  O   UNL     1     161.013 158.938 150.170  1.00  0.00    -0.502 OA
ATOM     21  H   UNL     1     161.119 159.945 150.169  1.00  0.00     0.293 HD
ENDBRANCH   2  20
BRANCH   6  22
ATOM     22  O   UNL     1     163.903 158.776 154.491  1.00  0.00    -0.507 OA
ATOM     23  H   UNL     1     164.767 158.708 155.016  1.00  0.00     0.293 HD
ENDBRANCH   6  22
BRANCH   8  24
ATOM     24  O   UNL     1     161.895 155.091 156.871  1.00  0.00    -0.508 OA
ATOM     25  H   UNL     1     161.288 154.280 156.916  1.00  0.00     0.293 HD
ENDBRANCH   8  24
TORSDOF 5
ENDMDL
MODEL 5
REMARK VINA RESULT:    -5.209      2.427      7.031
REMARK INTER + INTRA:          -6.418
REMARK INTER:                  -6.128
REMARK INTRA:                  -0.290
REMARK UNBOUND:                -0.296
REMARK SMILES O=c1c(O)c(-c2ccc(O)cc2)oc2cc(O)cc(O)c12
REMARK SMILES IDX 5 1 3 2 2 3 1 4 21 5 19 6 18 7 16 8 15 9 14 10 13 11 6 12
REMARK SMILES IDX 7 13 8 14 9 15 12 16 11 17 10 18 4 20 20 22 17 24
REMARK H PARENT 10 19 4 21 20 23 17 25
REMARK Flexibility Score: inf
ROOT
ATOM      1  C   UNL     1     161.296 157.397 151.430  1.00  0.00     0.180 A 
ATOM      2  C   UNL     1     162.350 156.694 152.044  1.00  0.00     0.208 A 
ATOM      3  C   UNL     1     162.939 157.229 153.200  1.00  0.00     0.238 A 
ATOM      4  O   UNL     1     163.892 156.614 153.752  1.00  0.00    -0.285 OA
ATOM      5  C   UNL     1     162.454 158.441 153.732  1.00  0.00     0.111 A 
ATOM      6  C   UNL     1     162.990 159.045 154.895  1.00  0.00     0.134 A 
ATOM      7  C   UNL     1     162.445 160.249 155.368  1.00  0.00     0.093 A 
ATOM      8  C   UNL     1     161.379 160.858 154.702  1.00  0.00     0.123 A 
ATOM      9  C   UNL     1     160.846 160.267 153.553  1.00  0.00     0.094 A 
ATOM     10  C   UNL     1     161.376 159.068 153.065  1.00  0.00     0.146 A 
ATOM     11  O   UNL     1     160.854 158.530 151.969  1.00  0.00    -0.452 OA
ENDROOT
BRANCH   1  12
ATOM     12  C   UNL     1     160.635 156.908 150.197  1.00  0.00     0.021 A 
ATOM     13  C   UNL     1     159.408 156.231 150.293  1.00  0.00     0.016 A 
ATOM     14  C   UNL     1     158.757 155.780 149.141  1.00  0.00     0.047 A 
ATOM     15  C   UNL     1     159.314 156.012 147.880  1.00  0.00     0.115 A 
ATOM     16  C   UNL     1     161.182 157.156 148.926  1.00  0.00     0.016 A 
ATOM     17  C   UNL     1     160.527 156.705 147.775  1.00  0.00     0.047 A 
BRANCH  15  18
ATOM     18  O   UNL     1     158.654 155.557 146.741  1.00  0.00    -0.508 OA
ATOM     19  H   UNL     1     159.132 155.007 146.037  1.00  0.00     0.293 HD
ENDBRANCH  15  18
ENDBRANCH   1  12
BRANCH   2  20
ATOM     20  O   UNL     1     162.779 155.469 151.525  1.00  0.00    -0.502 OA
ATOM     21  H   UNL     1     162.153 154.836 151.042  1.00  0.00     0.293 HD
ENDBRANCH   2  20
BRANCH   6  22
ATOM     22  O   UNL     1     164.054 158.461 155.583  1.00  0.00    -0.507 OA
ATOM     23  H   UNL     1     164.932 158.948 155.721  1.00  0.00     0.293 HD
ENDBRANCH   6  22
BRANCH   8  24
ATOM     24  O   UNL     1     160.856 162.052 155.194  1.00  0.00    -0.508 OA
ATOM     25  H   UNL     1     161.037 162.938 154.735  1.00  0.00     0.293 HD
ENDBRANCH   8  24
TORSDOF 5
ENDMDL
MODEL 6
REMARK VINA RESULT:    -5.198     16.972     19.547
REMARK INTER + INTRA:          -6.405
REMARK INTER:                  -6.125
REMARK INTRA:                  -0.280
REMARK UNBOUND:                -0.296
REMARK SMILES O=c1c(O)c(-c2ccc(O)cc2)oc2cc(O)cc(O)c12
REMARK SMILES IDX 5 1 3 2 2 3 1 4 21 5 19 6 18 7 16 8 15 9 14 10 13 11 6 12
REMARK SMILES IDX 7 13 8 14 9 15 12 16 11 17 10 18 4 20 20 22 17 24
REMARK H PARENT 10 19 4 21 20 23 17 25
REMARK Flexibility Score: inf
ROOT
ATOM      1  C   UNL     1     169.276 173.173 151.516  1.00  0.00     0.180 A 
ATOM      2  C   UNL     1     168.213 173.860 152.135  1.00  0.00     0.208 A 
ATOM      3  C   UNL     1     167.629 173.309 153.286  1.00  0.00     0.238 A 
ATOM      4  O   UNL     1     166.669 173.909 153.842  1.00  0.00    -0.285 OA
ATOM      5  C   UNL     1     168.127 172.099 153.809  1.00  0.00     0.111 A 
ATOM      6  C   UNL     1     167.598 171.479 154.967  1.00  0.00     0.134 A 
ATOM      7  C   UNL     1     168.155 170.278 155.431  1.00  0.00     0.093 A 
ATOM      8  C   UNL     1     169.229 169.686 154.762  1.00  0.00     0.123 A 
ATOM      9  C   UNL     1     169.756 170.292 153.617  1.00  0.00     0.094 A 
ATOM     10  C   UNL     1     169.213 171.489 153.138  1.00  0.00     0.146 A 
ATOM     11  O   UNL     1     169.730 172.041 152.047  1.00  0.00    -0.452 OA
ENDROOT
BRANCH   1  12
ATOM     12  C   UNL     1     169.931 173.679 150.288  1.00  0.00     0.021 A 
ATOM     13  C   UNL     1     171.178 174.318 150.383  1.00  0.00     0.016 A 
ATOM     14  C   UNL     1     171.825 174.784 149.235  1.00  0.00     0.047 A 
ATOM     15  C   UNL     1     171.243 174.604 147.977  1.00  0.00     0.115 A 
ATOM     16  C   UNL     1     169.359 173.483 149.018  1.00  0.00     0.016 A 
ATOM     17  C   UNL     1     170.009 173.949 147.870  1.00  0.00     0.047 A 
BRANCH  15  18
ATOM     18  O   UNL     1     171.899 175.073 146.841  1.00  0.00    -0.508 OA
ATOM     19  H   UNL     1     171.386 175.393 146.028  1.00  0.00     0.293 HD
ENDBRANCH  15  18
ENDBRANCH   1  12
BRANCH   2  20
ATOM     20  O   UNL     1     167.771 175.083 151.624  1.00  0.00    -0.502 OA
ATOM     21  H   UNL     1     167.379 175.807 152.215  1.00  0.00     0.293 HD
ENDBRANCH   2  20
BRANCH   6  22
ATOM     22  O   UNL     1     166.526 172.046 155.659  1.00  0.00    -0.507 OA
ATOM     23  H   UNL     1     165.905 172.718 155.223  1.00  0.00     0.293 HD
ENDBRANCH   6  22
BRANCH   8  24
ATOM     24  O   UNL     1     169.765 168.494 155.244  1.00  0.00    -0.508 OA
ATOM     25  H   UNL     1     170.620 168.107 154.864  1.00  0.00     0.293 HD
ENDBRANCH   8  24
TORSDOF 5
ENDMDL
MODEL 7
REMARK VINA RESULT:    -5.187     17.947     20.493
REMARK INTER + INTRA:          -6.393
REMARK INTER:                  -6.101
REMARK INTRA:                  -0.292
REMARK UNBOUND:                -0.296
REMARK SMILES O=c1c(O)c(-c2ccc(O)cc2)oc2cc(O)cc(O)c12
REMARK SMILES IDX 5 1 3 2 2 3 1 4 21 5 19 6 18 7 16 8 15 9 14 10 13 11 6 12
REMARK SMILES IDX 7 13 8 14 9 15 12 16 11 17 10 18 4 20 20 22 17 24
REMARK H PARENT 10 19 4 21 20 23 17 25
REMARK Flexibility Score: inf
ROOT
ATOM      1  C   UNL     1     170.558 173.344 151.388  1.00  0.00     0.180 A 
ATOM      2  C   UNL     1     169.589 172.348 151.157  1.00  0.00     0.208 A 
ATOM      3  C   UNL     1     168.647 172.073 152.161  1.00  0.00     0.238 A 
ATOM      4  O   UNL     1     167.781 171.176 151.971  1.00  0.00    -0.285 OA
ATOM      5  C   UNL     1     168.675 172.809 153.363  1.00  0.00     0.111 A 
ATOM      6  C   UNL     1     167.760 172.598 154.422  1.00  0.00     0.134 A 
ATOM      7  C   UNL     1     167.848 173.378 155.585  1.00  0.00     0.093 A 
ATOM      8  C   UNL     1     168.830 174.363 155.709  1.00  0.00     0.123 A 
ATOM      9  C   UNL     1     169.738 174.577 154.667  1.00  0.00     0.094 A 
ATOM     10  C   UNL     1     169.667 173.808 153.500  1.00  0.00     0.146 A 
ATOM     11  O   UNL     1     170.544 174.028 152.528  1.00  0.00    -0.452 OA
ENDROOT
BRANCH   1  12
ATOM     12  C   UNL     1     171.597 173.678 150.386  1.00  0.00     0.021 A 
ATOM     13  C   UNL     1     171.330 174.654 149.413  1.00  0.00     0.016 A 
ATOM     14  C   UNL     1     172.303 175.001 148.472  1.00  0.00     0.047 A 
ATOM     15  C   UNL     1     173.560 174.389 148.500  1.00  0.00     0.115 A 
ATOM     16  C   UNL     1     172.869 173.080 150.423  1.00  0.00     0.016 A 
ATOM     17  C   UNL     1     173.842 173.429 149.481  1.00  0.00     0.047 A 
BRANCH  15  18
ATOM     18  O   UNL     1     174.520 174.744 147.556  1.00  0.00    -0.508 OA
ATOM     19  H   UNL     1     175.482 174.923 147.821  1.00  0.00     0.293 HD
ENDBRANCH  15  18
ENDBRANCH   1  12
BRANCH   2  20
ATOM     20  O   UNL     1     169.552 171.668 149.937  1.00  0.00    -0.502 OA
ATOM     21  H   UNL     1     170.128 171.936 149.149  1.00  0.00     0.293 HD
ENDBRANCH   2  20
BRANCH   6  22
ATOM     22  O   UNL     1     166.766 171.622 154.329  1.00  0.00    -0.507 OA
ATOM     23  H   UNL     1     166.752 170.945 153.575  1.00  0.00     0.293 HD
ENDBRANCH   6  22
BRANCH   8  24
ATOM     24  O   UNL     1     168.895 175.125 156.873  1.00  0.00    -0.508 OA
ATOM     25  H   UNL     1     168.743 174.711 157.786  1.00  0.00     0.293 HD
ENDBRANCH   8  24
TORSDOF 5
ENDMDL
MODEL 8
REMARK VINA RESULT:    -5.082      2.450      7.131
REMARK INTER + INTRA:          -6.269
REMARK INTER:                  -6.146
REMARK INTRA:                  -0.123
REMARK UNBOUND:                -0.296
REMARK SMILES O=c1c(O)c(-c2ccc(O)cc2)oc2cc(O)cc(O)c12
REMARK SMILES IDX 5 1 3 2 2 3 1 4 21 5 19 6 18 7 16 8 15 9 14 10 13 11 6 12
REMARK SMILES IDX 7 13 8 14 9 15 12 16 11 17 10 18 4 20 20 22 17 24
REMARK H PARENT 10 19 4 21 20 23 17 25
REMARK Flexibility Score: inf
ROOT
ATOM      1  C   UNL     1     161.678 157.234 152.287  1.00  0.00     0.180 A 
ATOM      2  C   UNL     1     162.447 158.389 152.528  1.00  0.00     0.208 A 
ATOM      3  C   UNL     1     162.901 158.640 153.833  1.00  0.00     0.238 A 
ATOM      4  O   UNL     1     163.581 159.677 154.064  1.00  0.00    -0.285 OA
ATOM      5  C   UNL     1     162.600 157.727 154.863  1.00  0.00     0.111 A 
ATOM      6  C   UNL     1     163.023 157.904 156.203  1.00  0.00     0.134 A 
ATOM      7  C   UNL     1     162.690 156.944 157.171  1.00  0.00     0.093 A 
ATOM      8  C   UNL     1     161.944 155.814 156.827  1.00  0.00     0.123 A 
ATOM      9  C   UNL     1     161.522 155.634 155.505  1.00  0.00     0.094 A 
ATOM     10  C   UNL     1     161.843 156.580 154.526  1.00  0.00     0.146 A 
ATOM     11  O   UNL     1     161.426 156.387 153.281  1.00  0.00    -0.452 OA
ENDROOT
BRANCH   1  12
ATOM     12  C   UNL     1     161.146 156.910 150.943  1.00  0.00     0.021 A 
ATOM     13  C   UNL     1     159.758 156.925 150.726  1.00  0.00     0.016 A 
ATOM     14  C   UNL     1     159.236 156.644 149.460  1.00  0.00     0.047 A 
ATOM     15  C   UNL     1     160.092 156.359 148.393  1.00  0.00     0.115 A 
ATOM     16  C   UNL     1     162.004 156.642 149.861  1.00  0.00     0.016 A 
ATOM     17  C   UNL     1     161.478 156.362 148.595  1.00  0.00     0.047 A 
BRANCH  15  18
ATOM     18  O   UNL     1     159.558 156.080 147.137  1.00  0.00    -0.508 OA
ATOM     19  H   UNL     1     159.680 156.715 146.357  1.00  0.00     0.293 HD
ENDBRANCH  15  18
ENDBRANCH   1  12
BRANCH   2  20
ATOM     20  O   UNL     1     162.774 159.252 151.479  1.00  0.00    -0.502 OA
ATOM     21  H   UNL     1     163.481 159.972 151.570  1.00  0.00     0.293 HD
ENDBRANCH   2  20
BRANCH   6  22
ATOM     22  O   UNL     1     163.770 159.021 156.579  1.00  0.00    -0.507 OA
ATOM     23  H   UNL     1     163.344 159.818 157.036  1.00  0.00     0.293 HD
ENDBRANCH   6  22
BRANCH   8  24
ATOM     24  O   UNL     1     161.628 154.876 157.806  1.00  0.00    -0.508 OA
ATOM     25  H   UNL     1     160.843 154.244 157.700  1.00  0.00     0.293 HD
ENDBRANCH   8  24
TORSDOF 5
ENDMDL
MODEL 9
REMARK VINA RESULT:    -4.559     19.152     20.309
REMARK INTER + INTRA:          -5.655
REMARK INTER:                  -5.514
REMARK INTRA:                  -0.142
REMARK UNBOUND:                -0.296
REMARK SMILES O=c1c(O)c(-c2ccc(O)cc2)oc2cc(O)cc(O)c12
REMARK SMILES IDX 5 1 3 2 2 3 1 4 21 5 19 6 18 7 16 8 15 9 14 10 13 11 6 12
REMARK SMILES IDX 7 13 8 14 9 15 12 16 11 17 10 18 4 20 20 22 17 24
REMARK H PARENT 10 19 4 21 20 23 17 25
REMARK Flexibility Score: inf
ROOT
ATOM      1  C   UNL     1     169.543 173.730 151.595  1.00  0.00     0.180 A 
ATOM      2  C   UNL     1     170.151 172.826 152.489  1.00  0.00     0.208 A 
ATOM      3  C   UNL     1     169.525 172.565 153.719  1.00  0.00     0.238 A 
ATOM      4  O   UNL     1     170.065 171.767 154.532  1.00  0.00    -0.285 OA
ATOM      5  C   UNL     1     168.298 173.190 154.023  1.00  0.00     0.111 A 
ATOM      6  C   UNL     1     167.601 172.978 155.236  1.00  0.00     0.134 A 
ATOM      7  C   UNL     1     166.380 173.631 155.462  1.00  0.00     0.093 A 
ATOM      8  C   UNL     1     165.844 174.490 154.500  1.00  0.00     0.123 A 
ATOM      9  C   UNL     1     166.528 174.705 153.299  1.00  0.00     0.094 A 
ATOM     10  C   UNL     1     167.747 174.064 153.056  1.00  0.00     0.146 A 
ATOM     11  O   UNL     1     168.378 174.289 151.910  1.00  0.00    -0.452 OA
ENDROOT
BRANCH   1  12
ATOM     12  C   UNL     1     170.151 174.072 150.288  1.00  0.00     0.021 A 
ATOM     13  C   UNL     1     171.377 174.755 150.254  1.00  0.00     0.016 A 
ATOM     14  C   UNL     1     171.979 175.068 149.032  1.00  0.00     0.047 A 
ATOM     15  C   UNL     1     171.372 174.692 147.831  1.00  0.00     0.115 A 
ATOM     16  C   UNL     1     169.554 173.678 149.078  1.00  0.00     0.016 A 
ATOM     17  C   UNL     1     170.159 173.992 147.856  1.00  0.00     0.047 A 
BRANCH  15  18
ATOM     18  O   UNL     1     171.983 175.011 146.620  1.00  0.00    -0.508 OA
ATOM     19  H   UNL     1     172.647 175.773 146.547  1.00  0.00     0.293 HD
ENDBRANCH  15  18
ENDBRANCH   1  12
BRANCH   2  20
ATOM     20  O   UNL     1     171.341 172.182 152.142  1.00  0.00    -0.502 OA
ATOM     21  H   UNL     1     172.193 172.690 151.939  1.00  0.00     0.293 HD
ENDBRANCH   2  20
BRANCH   6  22
ATOM     22  O   UNL     1     168.110 172.125 156.217  1.00  0.00    -0.507 OA
ATOM     23  H   UNL     1     167.550 171.385 156.623  1.00  0.00     0.293 HD
ENDBRANCH   6  22
BRANCH   8  24
ATOM     24  O   UNL     1     164.629 175.125 154.747  1.00  0.00    -0.508 OA
ATOM     25  H   UNL     1     164.235 175.169 155.680  1.00  0.00     0.293 HD
ENDBRANCH   8  24
TORSDOF 5
ENDMDL
