MODEL 1
REMARK VINA RESULT:    -4.486      0.000      0.000
REMARK INTER + INTRA:         -13.327
REMARK INTER:                  -9.732
REMARK INTRA:                  -3.595
REMARK UNBOUND:                -3.595
REMARK SMILES CCCCCCCCCCCCCCCCCCCCCC(=O)[O-]
REMARK SMILES IDX 12 1 11 2 10 3 9 4 8 5 7 6 6 7 5 8 4 9 3 10 2 11 1 12 13 13
REMARK SMILES IDX 14 14 15 15 16 16 17 17 18 18 19 19 20 20 21 21 22 22 23 23
REMARK SMILES IDX 24 24
REMARK H PARENT
REMARK Flexibility Score: inf
ROOT
ATOM      1  C   UNL     1      16.055   2.602  -0.331  1.00  0.00     0.000 C 
ENDROOT
BRANCH   1   2
ATOM      2  C   UNL     1      16.119   1.946  -1.721  1.00  0.00     0.000 C 
BRANCH   2   3
ATOM      3  C   UNL     1      15.250   0.680  -1.823  1.00  0.00     0.000 C 
BRANCH   3   4
ATOM      4  C   UNL     1      13.835   0.909  -2.384  1.00  0.00    -0.000 C 
BRANCH   4   5
ATOM      5  C   UNL     1      12.737   0.703  -1.326  1.00  0.00    -0.000 C 
BRANCH   5   6
ATOM      6  C   UNL     1      13.290   0.208   0.020  1.00  0.00    -0.000 C 
BRANCH   6   7
ATOM      7  C   UNL     1      12.313   0.311   1.209  1.00  0.00    -0.000 C 
BRANCH   7   8
ATOM      8  C   UNL     1      12.897   1.042   2.436  1.00  0.00    -0.000 C 
BRANCH   8   9
ATOM      9  C   UNL     1      14.424   0.872   2.537  1.00  0.00    -0.000 C 
BRANCH   9  10
ATOM     10  C   UNL     1      15.076   1.914   3.457  1.00  0.00    -0.000 C 
BRANCH  10  11
ATOM     11  C   UNL     1      14.661   1.744   4.927  1.00  0.00    -0.003 C 
ATOM     12  C   UNL     1      15.860   1.908   5.857  1.00  0.00     0.004 C 
ENDBRANCH  10  11
ENDBRANCH   9  10
ENDBRANCH   8   9
ENDBRANCH   7   8
ENDBRANCH   6   7
ENDBRANCH   5   6
ENDBRANCH   4   5
ENDBRANCH   3   4
ENDBRANCH   2   3
ENDBRANCH   1   2
BRANCH   1  13
ATOM     13  C   UNL     1      15.317   3.950  -0.342  1.00  0.00     0.000 C 
BRANCH  13  14
ATOM     14  C   UNL     1      13.924   3.866   0.307  1.00  0.00     0.000 C 
BRANCH  14  15
ATOM     15  C   UNL     1      13.773   4.824   1.500  1.00  0.00     0.000 C 
BRANCH  15  16
ATOM     16  C   UNL     1      12.534   4.512   2.356  1.00  0.00     0.000 C 
BRANCH  16  17
ATOM     17  C   UNL     1      11.238   5.105   1.772  1.00  0.00     0.000 C 
BRANCH  17  18
ATOM     18  C   UNL     1      10.104   4.089   1.540  1.00  0.00     0.000 C 
BRANCH  18  19
ATOM     19  C   UNL     1      10.325   3.214   0.296  1.00  0.00     0.000 C 
BRANCH  19  20
ATOM     20  C   UNL     1      10.099   4.017  -0.990  1.00  0.00     0.006 C 
BRANCH  20  21
ATOM     21  C   UNL     1       8.679   4.588  -1.038  1.00  0.00     0.053 C 
BRANCH  21  22
ATOM     22  C   UNL     1       8.714   6.068  -1.259  1.00  0.00     0.041 C 
ATOM     23  O   UNL     1       8.968   6.845  -0.301  1.00  0.00    -0.550 OA
ATOM     24  O   UNL     1       8.509   6.587  -2.531  1.00  0.00    -0.550 OA
ENDBRANCH  21  22
ENDBRANCH  20  21
ENDBRANCH  19  20
ENDBRANCH  18  19
ENDBRANCH  17  18
ENDBRANCH  16  17
ENDBRANCH  15  16
ENDBRANCH  14  15
ENDBRANCH  13  14
ENDBRANCH   1  13
TORSDOF 20
ENDMDL
MODEL 2
REMARK VINA RESULT:    -4.347      1.697      4.497
REMARK INTER + INTRA:         -13.023
REMARK INTER:                  -9.062
REMARK INTRA:                  -3.962
REMARK UNBOUND:                -3.595
REMARK SMILES CCCCCCCCCCCCCCCCCCCCCC(=O)[O-]
REMARK SMILES IDX 12 1 11 2 10 3 9 4 8 5 7 6 6 7 5 8 4 9 3 10 2 11 1 12 13 13
REMARK SMILES IDX 14 14 15 15 16 16 17 17 18 18 19 19 20 20 21 21 22 22 23 23
REMARK SMILES IDX 24 24
REMARK H PARENT
REMARK Flexibility Score: inf
ROOT
ATOM      1  C   UNL     1      14.734   2.066   2.504  1.00  0.00     0.000 C 
ENDROOT
BRANCH   1   2
ATOM      2  C   UNL     1      14.277   3.459   2.039  1.00  0.00     0.000 C 
BRANCH   2   3
ATOM      3  C   UNL     1      15.019   3.940   0.779  1.00  0.00     0.000 C 
BRANCH   3   4
ATOM      4  C   UNL     1      15.843   2.856   0.061  1.00  0.00    -0.000 C 
BRANCH   4   5
ATOM      5  C   UNL     1      15.677   2.899  -1.467  1.00  0.00    -0.000 C 
BRANCH   5   6
ATOM      6  C   UNL     1      14.630   3.928  -1.925  1.00  0.00    -0.000 C 
BRANCH   6   7
ATOM      7  C   UNL     1      13.332   3.330  -2.506  1.00  0.00    -0.000 C 
BRANCH   7   8
ATOM      8  C   UNL     1      12.650   2.301  -1.580  1.00  0.00    -0.000 C 
BRANCH   8   9
ATOM      9  C   UNL     1      12.697   0.877  -2.162  1.00  0.00    -0.000 C 
BRANCH   9  10
ATOM     10  C   UNL     1      13.235  -0.155  -1.160  1.00  0.00    -0.000 C 
BRANCH  10  11
ATOM     11  C   UNL     1      14.645  -0.647  -1.521  1.00  0.00    -0.003 C 
ATOM     12  C   UNL     1      15.012  -0.256  -2.950  1.00  0.00     0.004 C 
ENDBRANCH  10  11
ENDBRANCH   9  10
ENDBRANCH   8   9
ENDBRANCH   7   8
ENDBRANCH   6   7
ENDBRANCH   5   6
ENDBRANCH   4   5
ENDBRANCH   3   4
ENDBRANCH   2   3
ENDBRANCH   1   2
BRANCH   1  13
ATOM     13  C   UNL     1      13.592   1.037   2.510  1.00  0.00     0.000 C 
BRANCH  13  14
ATOM     14  C   UNL     1      12.277   1.610   1.952  1.00  0.00     0.000 C 
BRANCH  14  15
ATOM     15  C   UNL     1      11.167   0.550   1.863  1.00  0.00     0.000 C 
BRANCH  15  16
ATOM     16  C   UNL     1       9.867   1.106   1.256  1.00  0.00     0.000 C 
BRANCH  16  17
ATOM     17  C   UNL     1       9.613   0.605  -0.178  1.00  0.00     0.000 C 
BRANCH  17  18
ATOM     18  C   UNL     1       8.992   1.644  -1.130  1.00  0.00     0.000 C 
BRANCH  18  19
ATOM     19  C   UNL     1       8.204   2.739  -0.394  1.00  0.00     0.000 C 
BRANCH  19  20
ATOM     20  C   UNL     1       8.623   4.135  -0.871  1.00  0.00     0.006 C 
BRANCH  20  21
ATOM     21  C   UNL     1      10.022   4.492  -0.362  1.00  0.00     0.053 C 
BRANCH  21  22
ATOM     22  C   UNL     1       9.942   5.143   0.982  1.00  0.00     0.041 C 
ATOM     23  O   UNL     1       8.947   5.854   1.284  1.00  0.00    -0.550 OA
ATOM     24  O   UNL     1      10.947   4.933   1.919  1.00  0.00    -0.550 OA
ENDBRANCH  21  22
ENDBRANCH  20  21
ENDBRANCH  19  20
ENDBRANCH  18  19
ENDBRANCH  17  18
ENDBRANCH  16  17
ENDBRANCH  15  16
ENDBRANCH  14  15
ENDBRANCH  13  14
ENDBRANCH   1  13
TORSDOF 20
ENDMDL
MODEL 3
REMARK VINA RESULT:    -4.251      1.551      3.654
REMARK INTER + INTRA:         -12.815
REMARK INTER:                  -9.115
REMARK INTRA:                  -3.700
REMARK UNBOUND:                -3.595
REMARK SMILES CCCCCCCCCCCCCCCCCCCCCC(=O)[O-]
REMARK SMILES IDX 12 1 11 2 10 3 9 4 8 5 7 6 6 7 5 8 4 9 3 10 2 11 1 12 13 13
REMARK SMILES IDX 14 14 15 15 16 16 17 17 18 18 19 19 20 20 21 21 22 22 23 23
REMARK SMILES IDX 24 24
REMARK H PARENT
REMARK Flexibility Score: inf
ROOT
ATOM      1  C   UNL     1      15.425   4.114  -0.084  1.00  0.00     0.000 C 
ENDROOT
BRANCH   1   2
ATOM      2  C   UNL     1      14.642   4.069   1.240  1.00  0.00     0.000 C 
BRANCH   2   3
ATOM      3  C   UNL     1      15.091   2.918   2.159  1.00  0.00     0.000 C 
BRANCH   3   4
ATOM      4  C   UNL     1      13.947   2.181   2.879  1.00  0.00    -0.000 C 
BRANCH   4   5
ATOM      5  C   UNL     1      14.093   0.651   2.813  1.00  0.00    -0.000 C 
BRANCH   5   6
ATOM      6  C   UNL     1      12.810  -0.089   3.228  1.00  0.00    -0.000 C 
BRANCH   6   7
ATOM      7  C   UNL     1      12.936  -0.961   4.494  1.00  0.00    -0.000 C 
BRANCH   7   8
ATOM      8  C   UNL     1      12.342  -0.310   5.761  1.00  0.00    -0.000 C 
BRANCH   8   9
ATOM      9  C   UNL     1      13.435   0.210   6.712  1.00  0.00    -0.000 C 
BRANCH   9  10
ATOM     10  C   UNL     1      13.830   1.665   6.420  1.00  0.00    -0.000 C 
BRANCH  10  11
ATOM     11  C   UNL     1      15.348   1.841   6.252  1.00  0.00    -0.003 C 
ATOM     12  C   UNL     1      16.030   0.498   6.007  1.00  0.00     0.004 C 
ENDBRANCH  10  11
ENDBRANCH   9  10
ENDBRANCH   8   9
ENDBRANCH   7   8
ENDBRANCH   6   7
ENDBRANCH   5   6
ENDBRANCH   4   5
ENDBRANCH   3   4
ENDBRANCH   2   3
ENDBRANCH   1   2
BRANCH   1  13
ATOM     13  C   UNL     1      15.968   2.738  -0.501  1.00  0.00     0.000 C 
BRANCH  13  14
ATOM     14  C   UNL     1      15.266   2.180  -1.753  1.00  0.00     0.000 C 
BRANCH  14  15
ATOM     15  C   UNL     1      15.269   0.644  -1.791  1.00  0.00     0.000 C 
BRANCH  15  16
ATOM     16  C   UNL     1      14.089   0.031  -1.017  1.00  0.00     0.000 C 
BRANCH  16  17
ATOM     17  C   UNL     1      12.742   0.693  -1.356  1.00  0.00     0.000 C 
BRANCH  17  18
ATOM     18  C   UNL     1      11.961   1.237  -0.145  1.00  0.00     0.000 C 
BRANCH  18  19
ATOM     19  C   UNL     1      11.664   2.741  -0.247  1.00  0.00     0.000 C 
BRANCH  19  20
ATOM     20  C   UNL     1      10.950   3.249   1.011  1.00  0.00     0.006 C 
BRANCH  20  21
ATOM     21  C   UNL     1      11.013   4.776   1.100  1.00  0.00     0.053 C 
BRANCH  21  22
ATOM     22  C   UNL     1       9.676   5.375   0.794  1.00  0.00     0.041 C 
ATOM     23  O   UNL     1       9.592   6.398   0.064  1.00  0.00    -0.550 OA
ATOM     24  O   UNL     1       8.519   4.779   1.280  1.00  0.00    -0.550 OA
ENDBRANCH  21  22
ENDBRANCH  20  21
ENDBRANCH  19  20
ENDBRANCH  18  19
ENDBRANCH  17  18
ENDBRANCH  16  17
ENDBRANCH  15  16
ENDBRANCH  14  15
ENDBRANCH  13  14
ENDBRANCH   1  13
TORSDOF 20
ENDMDL
MODEL 4
REMARK VINA RESULT:    -4.197      3.733      6.523
REMARK INTER + INTRA:         -12.699
REMARK INTER:                  -9.297
REMARK INTRA:                  -3.402
REMARK UNBOUND:                -3.595
REMARK SMILES CCCCCCCCCCCCCCCCCCCCCC(=O)[O-]
REMARK SMILES IDX 12 1 11 2 10 3 9 4 8 5 7 6 6 7 5 8 4 9 3 10 2 11 1 12 13 13
REMARK SMILES IDX 14 14 15 15 16 16 17 17 18 18 19 19 20 20 21 21 22 22 23 23
REMARK SMILES IDX 24 24
REMARK H PARENT
REMARK Flexibility Score: inf
ROOT
ATOM      1  C   UNL     1      13.297   3.109  -2.100  1.00  0.00     0.000 C 
ENDROOT
BRANCH   1   2
ATOM      2  C   UNL     1      13.127   1.672  -2.625  1.00  0.00     0.000 C 
BRANCH   2   3
ATOM      3  C   UNL     1      14.240   0.725  -2.140  1.00  0.00     0.000 C 
BRANCH   3   4
ATOM      4  C   UNL     1      13.762  -0.424  -1.235  1.00  0.00    -0.000 C 
BRANCH   4   5
ATOM      5  C   UNL     1      13.692  -0.022   0.247  1.00  0.00    -0.000 C 
BRANCH   5   6
ATOM      6  C   UNL     1      12.251   0.034   0.783  1.00  0.00    -0.000 C 
BRANCH   6   7
ATOM      7  C   UNL     1      11.592   1.428   0.745  1.00  0.00    -0.000 C 
BRANCH   7   8
ATOM      8  C   UNL     1      10.357   1.509  -0.176  1.00  0.00    -0.000 C 
BRANCH   8   9
ATOM      9  C   UNL     1       9.786   2.936  -0.256  1.00  0.00    -0.000 C 
BRANCH   9  10
ATOM     10  C   UNL     1       9.760   3.640   1.108  1.00  0.00    -0.000 C 
BRANCH  10  11
ATOM     11  C   UNL     1      10.470   5.003   1.081  1.00  0.00    -0.003 C 
ATOM     12  C   UNL     1      11.733   4.979   1.938  1.00  0.00     0.004 C 
ENDBRANCH  10  11
ENDBRANCH   9  10
ENDBRANCH   8   9
ENDBRANCH   7   8
ENDBRANCH   6   7
ENDBRANCH   5   6
ENDBRANCH   4   5
ENDBRANCH   3   4
ENDBRANCH   2   3
ENDBRANCH   1   2
BRANCH   1  13
ATOM     13  C   UNL     1      14.747   3.431  -1.708  1.00  0.00     0.000 C 
BRANCH  13  14
ATOM     14  C   UNL     1      14.856   4.050  -0.303  1.00  0.00     0.000 C 
BRANCH  14  15
ATOM     15  C   UNL     1      15.440   3.069   0.727  1.00  0.00     0.000 C 
BRANCH  15  16
ATOM     16  C   UNL     1      14.694   3.110   2.072  1.00  0.00     0.000 C 
BRANCH  16  17
ATOM     17  C   UNL     1      15.032   1.914   2.980  1.00  0.00     0.000 C 
BRANCH  17  18
ATOM     18  C   UNL     1      13.921   1.514   3.970  1.00  0.00     0.000 C 
BRANCH  18  19
ATOM     19  C   UNL     1      14.234   0.221   4.736  1.00  0.00     0.000 C 
BRANCH  19  20
ATOM     20  C   UNL     1      15.731   0.117   5.054  1.00  0.00     0.006 C 
BRANCH  20  21
ATOM     21  C   UNL     1      16.012   0.506   6.508  1.00  0.00     0.053 C 
BRANCH  21  22
ATOM     22  C   UNL     1      17.108   1.523   6.578  1.00  0.00     0.041 C 
ATOM     23  O   UNL     1      17.105   2.511   5.797  1.00  0.00    -0.550 OA
ATOM     24  O   UNL     1      18.110   1.401   7.532  1.00  0.00    -0.550 OA
ENDBRANCH  21  22
ENDBRANCH  20  21
ENDBRANCH  19  20
ENDBRANCH  18  19
ENDBRANCH  17  18
ENDBRANCH  16  17
ENDBRANCH  15  16
ENDBRANCH  14  15
ENDBRANCH  13  14
ENDBRANCH   1  13
TORSDOF 20
ENDMDL
MODEL 5
REMARK VINA RESULT:    -4.187      2.138      4.460
REMARK INTER + INTRA:         -12.677
REMARK INTER:                  -9.535
REMARK INTRA:                  -3.142
REMARK UNBOUND:                -3.595
REMARK SMILES CCCCCCCCCCCCCCCCCCCCCC(=O)[O-]
REMARK SMILES IDX 12 1 11 2 10 3 9 4 8 5 7 6 6 7 5 8 4 9 3 10 2 11 1 12 13 13
REMARK SMILES IDX 14 14 15 15 16 16 17 17 18 18 19 19 20 20 21 21 22 22 23 23
REMARK SMILES IDX 24 24
REMARK H PARENT
REMARK Flexibility Score: inf
ROOT
ATOM      1  C   UNL     1      14.959   2.963   1.910  1.00  0.00     0.000 C 
ENDROOT
BRANCH   1   2
ATOM      2  C   UNL     1      13.728   2.058   2.091  1.00  0.00     0.000 C 
BRANCH   2   3
ATOM      3  C   UNL     1      14.053   0.565   1.905  1.00  0.00     0.000 C 
BRANCH   3   4
ATOM      4  C   UNL     1      13.496  -0.359   3.003  1.00  0.00    -0.000 C 
BRANCH   4   5
ATOM      5  C   UNL     1      14.603  -1.087   3.784  1.00  0.00    -0.000 C 
BRANCH   5   6
ATOM      6  C   UNL     1      14.650  -0.683   5.268  1.00  0.00    -0.000 C 
BRANCH   6   7
ATOM      7  C   UNL     1      13.811   0.558   5.637  1.00  0.00    -0.000 C 
BRANCH   7   8
ATOM      8  C   UNL     1      14.652   1.756   6.127  1.00  0.00    -0.000 C 
BRANCH   8   9
ATOM      9  C   UNL     1      15.889   1.995   5.243  1.00  0.00    -0.000 C 
BRANCH   9  10
ATOM     10  C   UNL     1      17.174   2.186   6.062  1.00  0.00    -0.000 C 
BRANCH  10  11
ATOM     11  C   UNL     1      17.411   1.044   7.062  1.00  0.00    -0.003 C 
ATOM     12  C   UNL     1      18.904   0.790   7.258  1.00  0.00     0.004 C 
ENDBRANCH  10  11
ENDBRANCH   9  10
ENDBRANCH   8   9
ENDBRANCH   7   8
ENDBRANCH   6   7
ENDBRANCH   5   6
ENDBRANCH   4   5
ENDBRANCH   3   4
ENDBRANCH   2   3
ENDBRANCH   1   2
BRANCH   1  13
ATOM     13  C   UNL     1      14.733   4.075   0.874  1.00  0.00     0.000 C 
BRANCH  13  14
ATOM     14  C   UNL     1      15.756   4.027  -0.276  1.00  0.00     0.000 C 
BRANCH  14  15
ATOM     15  C   UNL     1      15.328   3.074  -1.403  1.00  0.00     0.000 C 
BRANCH  15  16
ATOM     16  C   UNL     1      16.221   1.824  -1.491  1.00  0.00     0.000 C 
BRANCH  16  17
ATOM     17  C   UNL     1      15.433   0.548  -1.840  1.00  0.00     0.000 C 
BRANCH  17  18
ATOM     18  C   UNL     1      14.019   0.790  -2.401  1.00  0.00     0.000 C 
BRANCH  18  19
ATOM     19  C   UNL     1      12.911   0.206  -1.512  1.00  0.00     0.000 C 
BRANCH  19  20
ATOM     20  C   UNL     1      11.574   0.916  -1.759  1.00  0.00     0.006 C 
BRANCH  20  21
ATOM     21  C   UNL     1      11.077   1.608  -0.487  1.00  0.00     0.053 C 
BRANCH  21  22
ATOM     22  C   UNL     1      11.390   3.071  -0.529  1.00  0.00     0.041 C 
ATOM     23  O   UNL     1      11.932   3.574  -1.548  1.00  0.00    -0.550 OA
ATOM     24  O   UNL     1      11.044   3.887   0.541  1.00  0.00    -0.550 OA
ENDBRANCH  21  22
ENDBRANCH  20  21
ENDBRANCH  19  20
ENDBRANCH  18  19
ENDBRANCH  17  18
ENDBRANCH  16  17
ENDBRANCH  15  16
ENDBRANCH  14  15
ENDBRANCH  13  14
ENDBRANCH   1  13
TORSDOF 20
ENDMDL
MODEL 6
REMARK VINA RESULT:    -4.165      3.504      6.238
REMARK INTER + INTRA:         -12.629
REMARK INTER:                  -9.205
REMARK INTRA:                  -3.424
REMARK UNBOUND:                -3.595
REMARK SMILES CCCCCCCCCCCCCCCCCCCCCC(=O)[O-]
REMARK SMILES IDX 12 1 11 2 10 3 9 4 8 5 7 6 6 7 5 8 4 9 3 10 2 11 1 12 13 13
REMARK SMILES IDX 14 14 15 15 16 16 17 17 18 18 19 19 20 20 21 21 22 22 23 23
REMARK SMILES IDX 24 24
REMARK H PARENT
REMARK Flexibility Score: inf
ROOT
ATOM      1  C   UNL     1      14.621   4.052   0.845  1.00  0.00     0.000 C 
ENDROOT
BRANCH   1   2
ATOM      2  C   UNL     1      15.698   4.090  -0.253  1.00  0.00     0.000 C 
BRANCH   2   3
ATOM      3  C   UNL     1      15.365   3.178  -1.447  1.00  0.00     0.000 C 
BRANCH   3   4
ATOM      4  C   UNL     1      16.165   1.864  -1.500  1.00  0.00    -0.000 C 
BRANCH   4   5
ATOM      5  C   UNL     1      15.345   0.692  -2.065  1.00  0.00    -0.000 C 
BRANCH   5   6
ATOM      6  C   UNL     1      13.862   1.045  -2.269  1.00  0.00    -0.000 C 
BRANCH   6   7
ATOM      7  C   UNL     1      12.898   0.469  -1.211  1.00  0.00    -0.000 C 
BRANCH   7   8
ATOM      8  C   UNL     1      11.544   1.204  -1.136  1.00  0.00    -0.000 C 
BRANCH   8   9
ATOM      9  C   UNL     1      11.719   2.726  -0.978  1.00  0.00    -0.000 C 
BRANCH   9  10
ATOM     10  C   UNL     1      10.547   3.383  -0.234  1.00  0.00    -0.000 C 
BRANCH  10  11
ATOM     11  C   UNL     1      10.985   4.056   1.077  1.00  0.00    -0.003 C 
ATOM     12  C   UNL     1      10.013   5.164   1.474  1.00  0.00     0.004 C 
ENDBRANCH  10  11
ENDBRANCH   9  10
ENDBRANCH   8   9
ENDBRANCH   7   8
ENDBRANCH   6   7
ENDBRANCH   5   6
ENDBRANCH   4   5
ENDBRANCH   3   4
ENDBRANCH   2   3
ENDBRANCH   1   2
BRANCH   1  13
ATOM     13  C   UNL     1      15.015   3.163   2.035  1.00  0.00     0.000 C 
BRANCH  13  14
ATOM     14  C   UNL     1      14.520   1.714   1.879  1.00  0.00     0.000 C 
BRANCH  14  15
ATOM     15  C   UNL     1      13.127   1.501   2.493  1.00  0.00     0.000 C 
BRANCH  15  16
ATOM     16  C   UNL     1      12.677   0.030   2.442  1.00  0.00     0.000 C 
BRANCH  16  17
ATOM     17  C   UNL     1      11.840  -0.383   3.666  1.00  0.00     0.000 C 
BRANCH  17  18
ATOM     18  C   UNL     1      12.657  -0.784   4.908  1.00  0.00     0.000 C 
BRANCH  18  19
ATOM     19  C   UNL     1      12.233  -0.029   6.178  1.00  0.00     0.000 C 
BRANCH  19  20
ATOM     20  C   UNL     1      13.447   0.587   6.884  1.00  0.00     0.006 C 
BRANCH  20  21
ATOM     21  C   UNL     1      13.923   1.848   6.157  1.00  0.00     0.053 C 
BRANCH  21  22
ATOM     22  C   UNL     1      15.386   1.759   5.856  1.00  0.00     0.041 C 
ATOM     23  O   UNL     1      16.197   2.543   6.417  1.00  0.00    -0.550 OA
ATOM     24  O   UNL     1      15.860   0.784   4.987  1.00  0.00    -0.550 OA
ENDBRANCH  21  22
ENDBRANCH  20  21
ENDBRANCH  19  20
ENDBRANCH  18  19
ENDBRANCH  17  18
ENDBRANCH  16  17
ENDBRANCH  15  16
ENDBRANCH  14  15
ENDBRANCH  13  14
ENDBRANCH   1  13
TORSDOF 20
ENDMDL
MODEL 7
REMARK VINA RESULT:    -4.149      2.519      4.986
REMARK INTER + INTRA:         -12.595
REMARK INTER:                  -9.416
REMARK INTRA:                  -3.179
REMARK UNBOUND:                -3.595
REMARK SMILES CCCCCCCCCCCCCCCCCCCCCC(=O)[O-]
REMARK SMILES IDX 12 1 11 2 10 3 9 4 8 5 7 6 6 7 5 8 4 9 3 10 2 11 1 12 13 13
REMARK SMILES IDX 14 14 15 15 16 16 17 17 18 18 19 19 20 20 21 21 22 22 23 23
REMARK SMILES IDX 24 24
REMARK H PARENT
REMARK Flexibility Score: inf
ROOT
ATOM      1  C   UNL     1      10.051   4.729   1.167  1.00  0.00     0.000 C 
ENDROOT
BRANCH   1   2
ATOM      2  C   UNL     1      11.349   4.885   1.978  1.00  0.00     0.000 C 
BRANCH   2   3
ATOM      3  C   UNL     1      12.455   3.914   1.525  1.00  0.00     0.000 C 
BRANCH   3   4
ATOM      4  C   UNL     1      13.891   4.415   1.757  1.00  0.00    -0.000 C 
BRANCH   4   5
ATOM      5  C   UNL     1      14.940   3.301   1.606  1.00  0.00    -0.000 C 
BRANCH   5   6
ATOM      6  C   UNL     1      14.452   1.945   2.143  1.00  0.00    -0.000 C 
BRANCH   6   7
ATOM      7  C   UNL     1      15.095   1.496   3.472  1.00  0.00    -0.000 C 
BRANCH   7   8
ATOM      8  C   UNL     1      14.254   1.841   4.719  1.00  0.00    -0.000 C 
BRANCH   8   9
ATOM      9  C   UNL     1      15.097   1.831   6.007  1.00  0.00    -0.000 C 
BRANCH   9  10
ATOM     10  C   UNL     1      16.544   2.287   5.770  1.00  0.00    -0.000 C 
BRANCH  10  11
ATOM     11  C   UNL     1      17.561   1.464   6.579  1.00  0.00    -0.003 C 
ATOM     12  C   UNL     1      17.125   0.005   6.682  1.00  0.00     0.004 C 
ENDBRANCH  10  11
ENDBRANCH   9  10
ENDBRANCH   8   9
ENDBRANCH   7   8
ENDBRANCH   6   7
ENDBRANCH   5   6
ENDBRANCH   4   5
ENDBRANCH   3   4
ENDBRANCH   2   3
ENDBRANCH   1   2
BRANCH   1  13
ATOM     13  C   UNL     1      10.309   4.448  -0.322  1.00  0.00     0.000 C 
BRANCH  13  14
ATOM     14  C   UNL     1       9.119   3.753  -1.008  1.00  0.00     0.000 C 
BRANCH  14  15
ATOM     15  C   UNL     1       8.469   2.685  -0.113  1.00  0.00     0.000 C 
BRANCH  15  16
ATOM     16  C   UNL     1       9.155   1.314  -0.236  1.00  0.00     0.000 C 
BRANCH  16  17
ATOM     17  C   UNL     1      10.056   0.986   0.969  1.00  0.00     0.000 C 
BRANCH  17  18
ATOM     18  C   UNL     1      11.447   0.432   0.609  1.00  0.00     0.000 C 
BRANCH  18  19
ATOM     19  C   UNL     1      11.660   0.276  -0.904  1.00  0.00     0.000 C 
BRANCH  19  20
ATOM     20  C   UNL     1      13.059   0.751  -1.317  1.00  0.00     0.006 C 
BRANCH  20  21
ATOM     21  C   UNL     1      13.042   2.231  -1.709  1.00  0.00     0.053 C 
BRANCH  21  22
ATOM     22  C   UNL     1      14.437   2.767  -1.796  1.00  0.00     0.041 C 
ATOM     23  O   UNL     1      15.421   1.984  -1.732  1.00  0.00    -0.550 OA
ATOM     24  O   UNL     1      14.649   4.126  -1.989  1.00  0.00    -0.550 OA
ENDBRANCH  21  22
ENDBRANCH  20  21
ENDBRANCH  19  20
ENDBRANCH  18  19
ENDBRANCH  17  18
ENDBRANCH  16  17
ENDBRANCH  15  16
ENDBRANCH  14  15
ENDBRANCH  13  14
ENDBRANCH   1  13
TORSDOF 20
ENDMDL
MODEL 8
REMARK VINA RESULT:    -4.125      3.760      6.564
REMARK INTER + INTRA:         -12.542
REMARK INTER:                  -9.735
REMARK INTRA:                  -2.807
REMARK UNBOUND:                -3.595
REMARK SMILES CCCCCCCCCCCCCCCCCCCCCC(=O)[O-]
REMARK SMILES IDX 12 1 11 2 10 3 9 4 8 5 7 6 6 7 5 8 4 9 3 10 2 11 1 12 13 13
REMARK SMILES IDX 14 14 15 15 16 16 17 17 18 18 19 19 20 20 21 21 22 22 23 23
REMARK SMILES IDX 24 24
REMARK H PARENT
REMARK Flexibility Score: inf
ROOT
ATOM      1  C   UNL     1       9.760   4.425  -0.997  1.00  0.00     0.000 C 
ENDROOT
BRANCH   1   2
ATOM      2  C   UNL     1       8.677   3.335  -0.901  1.00  0.00     0.000 C 
BRANCH   2   3
ATOM      3  C   UNL     1       9.259   1.911  -0.955  1.00  0.00     0.000 C 
BRANCH   3   4
ATOM      4  C   UNL     1      10.782   1.842  -1.168  1.00  0.00    -0.000 C 
BRANCH   4   5
ATOM      5  C   UNL     1      11.247   0.471  -1.687  1.00  0.00    -0.000 C 
BRANCH   5   6
ATOM      6  C   UNL     1      12.066  -0.314  -0.648  1.00  0.00    -0.000 C 
BRANCH   6   7
ATOM      7  C   UNL     1      13.507   0.191  -0.431  1.00  0.00    -0.000 C 
BRANCH   7   8
ATOM      8  C   UNL     1      14.521  -0.355  -1.457  1.00  0.00    -0.000 C 
BRANCH   8   9
ATOM      9  C   UNL     1      15.308   0.772  -2.149  1.00  0.00    -0.000 C 
BRANCH   9  10
ATOM     10  C   UNL     1      15.684   1.908  -1.188  1.00  0.00    -0.000 C 
BRANCH  10  11
ATOM     11  C   UNL     1      15.349   3.297  -1.757  1.00  0.00    -0.003 C 
ATOM     12  C   UNL     1      13.853   3.431  -2.027  1.00  0.00     0.004 C 
ENDBRANCH  10  11
ENDBRANCH   9  10
ENDBRANCH   8   9
ENDBRANCH   7   8
ENDBRANCH   6   7
ENDBRANCH   5   6
ENDBRANCH   4   5
ENDBRANCH   3   4
ENDBRANCH   2   3
ENDBRANCH   1   2
BRANCH   1  13
ATOM     13  C   UNL     1       9.752   5.378   0.208  1.00  0.00     0.000 C 
BRANCH  13  14
ATOM     14  C   UNL     1      10.029   4.653   1.538  1.00  0.00     0.000 C 
BRANCH  14  15
ATOM     15  C   UNL     1      11.451   4.911   2.062  1.00  0.00     0.000 C 
BRANCH  15  16
ATOM     16  C   UNL     1      12.465   3.868   1.558  1.00  0.00     0.000 C 
BRANCH  16  17
ATOM     17  C   UNL     1      13.921   4.361   1.638  1.00  0.00     0.000 C 
BRANCH  17  18
ATOM     18  C   UNL     1      14.963   3.266   1.931  1.00  0.00     0.000 C 
BRANCH  18  19
ATOM     19  C   UNL     1      14.410   2.126   2.799  1.00  0.00     0.000 C 
BRANCH  19  20
ATOM     20  C   UNL     1      15.370   1.791   3.948  1.00  0.00     0.006 C 
BRANCH  20  21
ATOM     21  C   UNL     1      14.645   1.824   5.296  1.00  0.00     0.053 C 
BRANCH  21  22
ATOM     22  C   UNL     1      15.449   1.117   6.341  1.00  0.00     0.041 C 
ATOM     23  O   UNL     1      15.108  -0.030   6.735  1.00  0.00    -0.550 OA
ATOM     24  O   UNL     1      16.599   1.706   6.852  1.00  0.00    -0.550 OA
ENDBRANCH  21  22
ENDBRANCH  20  21
ENDBRANCH  19  20
ENDBRANCH  18  19
ENDBRANCH  17  18
ENDBRANCH  16  17
ENDBRANCH  15  16
ENDBRANCH  14  15
ENDBRANCH  13  14
ENDBRANCH   1  13
TORSDOF 20
ENDMDL
MODEL 9
REMARK VINA RESULT:    -4.086      4.027      7.014
REMARK INTER + INTRA:         -12.459
REMARK INTER:                  -9.819
REMARK INTRA:                  -2.640
REMARK UNBOUND:                -3.595
REMARK SMILES CCCCCCCCCCCCCCCCCCCCCC(=O)[O-]
REMARK SMILES IDX 12 1 11 2 10 3 9 4 8 5 7 6 6 7 5 8 4 9 3 10 2 11 1 12 13 13
REMARK SMILES IDX 14 14 15 15 16 16 17 17 18 18 19 19 20 20 21 21 22 22 23 23
REMARK SMILES IDX 24 24
REMARK H PARENT
REMARK Flexibility Score: inf
ROOT
ATOM      1  C   UNL     1      16.156   3.206  -0.270  1.00  0.00     0.000 C 
ENDROOT
BRANCH   1   2
ATOM      2  C   UNL     1      15.497   2.598  -1.520  1.00  0.00     0.000 C 
BRANCH   2   3
ATOM      3  C   UNL     1      16.104   1.239  -1.913  1.00  0.00     0.000 C 
BRANCH   3   4
ATOM      4  C   UNL     1      15.082   0.182  -2.368  1.00  0.00    -0.000 C 
BRANCH   4   5
ATOM      5  C   UNL     1      14.562  -0.680  -1.206  1.00  0.00    -0.000 C 
BRANCH   5   6
ATOM      6  C   UNL     1      13.174  -0.241  -0.712  1.00  0.00    -0.000 C 
BRANCH   6   7
ATOM      7  C   UNL     1      12.270   0.405  -1.783  1.00  0.00    -0.000 C 
BRANCH   7   8
ATOM      8  C   UNL     1      11.237   1.398  -1.211  1.00  0.00    -0.000 C 
BRANCH   8   9
ATOM      9  C   UNL     1      11.908   2.551  -0.443  1.00  0.00    -0.000 C 
BRANCH   9  10
ATOM     10  C   UNL     1      11.271   2.796   0.933  1.00  0.00    -0.000 C 
BRANCH  10  11
ATOM     11  C   UNL     1      11.642   4.168   1.518  1.00  0.00    -0.003 C 
ATOM     12  C   UNL     1      10.409   5.060   1.643  1.00  0.00     0.004 C 
ENDBRANCH  10  11
ENDBRANCH   9  10
ENDBRANCH   8   9
ENDBRANCH   7   8
ENDBRANCH   6   7
ENDBRANCH   5   6
ENDBRANCH   4   5
ENDBRANCH   3   4
ENDBRANCH   2   3
ENDBRANCH   1   2
BRANCH   1  13
ATOM     13  C   UNL     1      15.169   3.387   0.895  1.00  0.00     0.000 C 
BRANCH  13  14
ATOM     14  C   UNL     1      14.903   2.074   1.653  1.00  0.00     0.000 C 
BRANCH  14  15
ATOM     15  C   UNL     1      15.101   2.223   3.171  1.00  0.00     0.000 C 
BRANCH  15  16
ATOM     16  C   UNL     1      13.909   1.683   3.978  1.00  0.00     0.000 C 
BRANCH  16  17
ATOM     17  C   UNL     1      14.162   1.688   5.497  1.00  0.00     0.000 C 
BRANCH  17  18
ATOM     18  C   UNL     1      13.788   0.382   6.223  1.00  0.00     0.000 C 
BRANCH  18  19
ATOM     19  C   UNL     1      14.994  -0.313   6.871  1.00  0.00     0.000 C 
BRANCH  19  20
ATOM     20  C   UNL     1      16.194  -0.340   5.917  1.00  0.00     0.006 C 
BRANCH  20  21
ATOM     21  C   UNL     1      17.514  -0.326   6.693  1.00  0.00     0.053 C 
BRANCH  21  22
ATOM     22  C   UNL     1      17.918   1.078   7.016  1.00  0.00     0.041 C 
ATOM     23  O   UNL     1      17.552   2.029   6.277  1.00  0.00    -0.550 OA
ATOM     24  O   UNL     1      18.665   1.342   8.158  1.00  0.00    -0.550 OA
ENDBRANCH  21  22
ENDBRANCH  20  21
ENDBRANCH  19  20
ENDBRANCH  18  19
ENDBRANCH  17  18
ENDBRANCH  16  17
ENDBRANCH  15  16
ENDBRANCH  14  15
ENDBRANCH  13  14
ENDBRANCH   1  13
TORSDOF 20
ENDMDL
