MODEL 1
REMARK VINA RESULT:     4.415      0.000      0.000
REMARK INTER + INTRA:           8.450
REMARK INTER:                   9.576
REMARK INTRA:                  -1.126
REMARK UNBOUND:                -1.126
REMARK SMILES CCCCCCCCCCCCCCCCCCCCCC(=O)[O-]
REMARK SMILES IDX 12 1 11 2 10 3 9 4 8 5 7 6 6 7 5 8 4 9 3 10 2 11 1 12 13 13
REMARK SMILES IDX 14 14 15 15 16 16 17 17 18 18 19 19 20 20 21 21 22 22 23 23
REMARK SMILES IDX 24 24
REMARK H PARENT
REMARK Flexibility Score: inf
ROOT
ATOM      1  C   UNL     1     -26.706  -2.460 -27.937  1.00  0.00     0.000 C 
ENDROOT
BRANCH   1   2
ATOM      2  C   UNL     1     -28.143  -2.807 -28.383  1.00  0.00     0.000 C 
BRANCH   2   3
ATOM      3  C   UNL     1     -29.199  -1.993 -27.615  1.00  0.00     0.000 C 
BRANCH   3   4
ATOM      4  C   UNL     1     -30.559  -2.707 -27.534  1.00  0.00    -0.000 C 
BRANCH   4   5
ATOM      5  C   UNL     1     -31.613  -1.885 -26.771  1.00  0.00    -0.000 C 
BRANCH   5   6
ATOM      6  C   UNL     1     -31.001  -0.706 -25.993  1.00  0.00    -0.000 C 
BRANCH   6   7
ATOM      7  C   UNL     1     -31.841   0.588 -25.996  1.00  0.00    -0.000 C 
BRANCH   7   8
ATOM      8  C   UNL     1     -31.222   1.773 -25.230  1.00  0.00    -0.000 C 
BRANCH   8   9
ATOM      9  C   UNL     1     -30.849   2.984 -26.103  1.00  0.00    -0.000 C 
BRANCH   9  10
ATOM     10  C   UNL     1     -31.998   3.999 -26.235  1.00  0.00    -0.000 C 
BRANCH  10  11
ATOM     11  C   UNL     1     -31.934   4.794 -27.547  1.00  0.00    -0.003 C 
ATOM     12  C   UNL     1     -30.828   4.302 -28.481  1.00  0.00     0.004 C 
ENDBRANCH  10  11
ENDBRANCH   9  10
ENDBRANCH   8   9
ENDBRANCH   7   8
ENDBRANCH   6   7
ENDBRANCH   5   6
ENDBRANCH   4   5
ENDBRANCH   3   4
ENDBRANCH   2   3
ENDBRANCH   1   2
BRANCH   1  13
ATOM     13  C   UNL     1     -26.094  -3.489 -26.971  1.00  0.00     0.000 C 
BRANCH  13  14
ATOM     14  C   UNL     1     -24.583  -3.292 -26.769  1.00  0.00     0.000 C 
BRANCH  14  15
ATOM     15  C   UNL     1     -24.243  -1.919 -26.168  1.00  0.00     0.000 C 
BRANCH  15  16
ATOM     16  C   UNL     1     -23.103  -1.209 -26.919  1.00  0.00     0.000 C 
BRANCH  16  17
ATOM     17  C   UNL     1     -23.618  -0.144 -27.900  1.00  0.00     0.000 C 
BRANCH  17  18
ATOM     18  C   UNL     1     -22.754   1.129 -27.898  1.00  0.00     0.000 C 
BRANCH  18  19
ATOM     19  C   UNL     1     -21.554   1.010 -26.935  1.00  0.00     0.000 C 
BRANCH  19  20
ATOM     20  C   UNL     1     -20.876   2.356 -26.616  1.00  0.00     0.006 C 
BRANCH  20  21
ATOM     21  C   UNL     1     -21.710   3.590 -27.003  1.00  0.00     0.053 C 
BRANCH  21  22
ATOM     22  C   UNL     1     -20.941   4.567 -27.843  1.00  0.00     0.041 C 
ATOM     23  O   UNL     1     -21.472   5.081 -28.862  1.00  0.00    -0.550 OA
ATOM     24  O   UNL     1     -19.617   4.860 -27.540  1.00  0.00    -0.550 OA
ENDBRANCH  21  22
ENDBRANCH  20  21
ENDBRANCH  19  20
ENDBRANCH  18  19
ENDBRANCH  17  18
ENDBRANCH  16  17
ENDBRANCH  15  16
ENDBRANCH  14  15
ENDBRANCH  13  14
ENDBRANCH   1  13
TORSDOF 20
ENDMDL
MODEL 2
REMARK VINA RESULT:     5.403      2.957      8.698
REMARK INTER + INTRA:          10.594
REMARK INTER:                  11.104
REMARK INTRA:                  -0.510
REMARK UNBOUND:                -1.126
REMARK SMILES CCCCCCCCCCCCCCCCCCCCCC(=O)[O-]
REMARK SMILES IDX 12 1 11 2 10 3 9 4 8 5 7 6 6 7 5 8 4 9 3 10 2 11 1 12 13 13
REMARK SMILES IDX 14 14 15 15 16 16 17 17 18 18 19 19 20 20 21 21 22 22 23 23
REMARK SMILES IDX 24 24
REMARK H PARENT
REMARK Flexibility Score: inf
ROOT
ATOM      1  C   UNL     1     -26.978  -2.358 -28.139  1.00  0.00     0.000 C 
ENDROOT
BRANCH   1   2
ATOM      2  C   UNL     1     -26.385  -3.055 -26.895  1.00  0.00     0.000 C 
BRANCH   2   3
ATOM      3  C   UNL     1     -24.849  -3.130 -26.952  1.00  0.00     0.000 C 
BRANCH   3   4
ATOM      4  C   UNL     1     -24.171  -1.861 -26.410  1.00  0.00    -0.000 C 
BRANCH   4   5
ATOM      5  C   UNL     1     -23.275  -1.177 -27.458  1.00  0.00    -0.000 C 
BRANCH   5   6
ATOM      6  C   UNL     1     -23.072   0.324 -27.182  1.00  0.00    -0.000 C 
BRANCH   6   7
ATOM      7  C   UNL     1     -21.641   0.728 -26.774  1.00  0.00    -0.000 C 
BRANCH   7   8
ATOM      8  C   UNL     1     -21.383   2.247 -26.707  1.00  0.00    -0.000 C 
BRANCH   8   9
ATOM      9  C   UNL     1     -22.420   3.113 -27.443  1.00  0.00    -0.000 C 
BRANCH   9  10
ATOM     10  C   UNL     1     -21.807   4.387 -28.051  1.00  0.00    -0.000 C 
BRANCH  10  11
ATOM     11  C   UNL     1     -20.682   4.971 -27.183  1.00  0.00    -0.003 C 
ATOM     12  C   UNL     1     -19.316   4.904 -27.865  1.00  0.00     0.004 C 
ENDBRANCH  10  11
ENDBRANCH   9  10
ENDBRANCH   8   9
ENDBRANCH   7   8
ENDBRANCH   6   7
ENDBRANCH   5   6
ENDBRANCH   4   5
ENDBRANCH   3   4
ENDBRANCH   2   3
ENDBRANCH   1   2
BRANCH   1  13
ATOM     13  C   UNL     1     -28.417  -2.794 -28.464  1.00  0.00     0.000 C 
BRANCH  13  14
ATOM     14  C   UNL     1     -29.476  -1.955 -27.729  1.00  0.00     0.000 C 
BRANCH  14  15
ATOM     15  C   UNL     1     -30.746  -2.760 -27.409  1.00  0.00     0.000 C 
BRANCH  15  16
ATOM     16  C   UNL     1     -32.025  -1.910 -27.502  1.00  0.00     0.000 C 
BRANCH  16  17
ATOM     17  C   UNL     1     -31.811  -0.470 -27.010  1.00  0.00     0.000 C 
BRANCH  17  18
ATOM     18  C   UNL     1     -31.012  -0.406 -25.697  1.00  0.00     0.000 C 
BRANCH  18  19
ATOM     19  C   UNL     1     -31.024   1.010 -25.083  1.00  0.00     0.000 C 
BRANCH  19  20
ATOM     20  C   UNL     1     -32.125   1.925 -25.649  1.00  0.00     0.006 C 
BRANCH  20  21
ATOM     21  C   UNL     1     -31.760   3.420 -25.657  1.00  0.00     0.053 C 
BRANCH  21  22
ATOM     22  C   UNL     1     -31.405   3.922 -27.026  1.00  0.00     0.041 C 
ATOM     23  O   UNL     1     -32.125   3.624 -28.015  1.00  0.00    -0.550 OA
ATOM     24  O   UNL     1     -30.246   4.662 -27.222  1.00  0.00    -0.550 OA
ENDBRANCH  21  22
ENDBRANCH  20  21
ENDBRANCH  19  20
ENDBRANCH  18  19
ENDBRANCH  17  18
ENDBRANCH  16  17
ENDBRANCH  15  16
ENDBRANCH  14  15
ENDBRANCH  13  14
ENDBRANCH   1  13
TORSDOF 20
ENDMDL
MODEL 3
REMARK VINA RESULT:     5.637      1.286      2.635
REMARK INTER + INTRA:          11.102
REMARK INTER:                  12.045
REMARK INTRA:                  -0.943
REMARK UNBOUND:                -1.126
REMARK SMILES CCCCCCCCCCCCCCCCCCCCCC(=O)[O-]
REMARK SMILES IDX 12 1 11 2 10 3 9 4 8 5 7 6 6 7 5 8 4 9 3 10 2 11 1 12 13 13
REMARK SMILES IDX 14 14 15 15 16 16 17 17 18 18 19 19 20 20 21 21 22 22 23 23
REMARK SMILES IDX 24 24
REMARK H PARENT
REMARK Flexibility Score: inf
ROOT
ATOM      1  C   UNL     1     -30.021  -3.661 -28.722  1.00  0.00     0.000 C 
ENDROOT
BRANCH   1   2
ATOM      2  C   UNL     1     -31.517  -3.430 -29.030  1.00  0.00     0.000 C 
BRANCH   2   3
ATOM      3  C   UNL     1     -32.031  -2.106 -28.437  1.00  0.00     0.000 C 
BRANCH   3   4
ATOM      4  C   UNL     1     -31.656  -1.931 -26.956  1.00  0.00    -0.000 C 
BRANCH   4   5
ATOM      5  C   UNL     1     -31.902  -0.500 -26.449  1.00  0.00    -0.000 C 
BRANCH   5   6
ATOM      6  C   UNL     1     -30.950  -0.098 -25.308  1.00  0.00    -0.000 C 
BRANCH   6   7
ATOM      7  C   UNL     1     -31.240   1.272 -24.664  1.00  0.00    -0.000 C 
BRANCH   7   8
ATOM      8  C   UNL     1     -32.085   2.235 -25.522  1.00  0.00    -0.000 C 
BRANCH   8   9
ATOM      9  C   UNL     1     -31.566   3.683 -25.572  1.00  0.00    -0.000 C 
BRANCH   9  10
ATOM     10  C   UNL     1     -30.582   3.922 -26.730  1.00  0.00    -0.000 C 
BRANCH  10  11
ATOM     11  C   UNL     1     -31.262   4.533 -27.964  1.00  0.00    -0.003 C 
ATOM     12  C   UNL     1     -31.640   3.483 -29.009  1.00  0.00     0.004 C 
ENDBRANCH  10  11
ENDBRANCH   9  10
ENDBRANCH   8   9
ENDBRANCH   7   8
ENDBRANCH   6   7
ENDBRANCH   5   6
ENDBRANCH   4   5
ENDBRANCH   3   4
ENDBRANCH   2   3
ENDBRANCH   1   2
BRANCH   1  13
ATOM     13  C   UNL     1     -29.176  -2.376 -28.762  1.00  0.00     0.000 C 
BRANCH  13  14
ATOM     14  C   UNL     1     -28.133  -2.313 -27.634  1.00  0.00     0.000 C 
BRANCH  14  15
ATOM     15  C   UNL     1     -26.738  -2.765 -28.096  1.00  0.00     0.000 C 
BRANCH  15  16
ATOM     16  C   UNL     1     -25.967  -3.520 -27.000  1.00  0.00     0.000 C 
BRANCH  16  17
ATOM     17  C   UNL     1     -24.623  -2.856 -26.662  1.00  0.00     0.000 C 
BRANCH  17  18
ATOM     18  C   UNL     1     -24.221  -1.781 -27.686  1.00  0.00     0.000 C 
BRANCH  18  19
ATOM     19  C   UNL     1     -23.622  -0.532 -27.006  1.00  0.00     0.000 C 
BRANCH  19  20
ATOM     20  C   UNL     1     -22.767   0.340 -27.946  1.00  0.00     0.006 C 
BRANCH  20  21
ATOM     21  C   UNL     1     -21.510   0.932 -27.285  1.00  0.00     0.053 C 
BRANCH  21  22
ATOM     22  C   UNL     1     -21.661   2.389 -26.956  1.00  0.00     0.041 C 
ATOM     23  O   UNL     1     -21.893   3.223 -27.870  1.00  0.00    -0.550 OA
ATOM     24  O   UNL     1     -21.481   2.835 -25.653  1.00  0.00    -0.550 OA
ENDBRANCH  21  22
ENDBRANCH  20  21
ENDBRANCH  19  20
ENDBRANCH  18  19
ENDBRANCH  17  18
ENDBRANCH  16  17
ENDBRANCH  15  16
ENDBRANCH  14  15
ENDBRANCH  13  14
ENDBRANCH   1  13
TORSDOF 20
ENDMDL
MODEL 4
REMARK VINA RESULT:     5.886      3.148      8.721
REMARK INTER + INTRA:          11.643
REMARK INTER:                  12.590
REMARK INTRA:                  -0.948
REMARK UNBOUND:                -1.126
REMARK SMILES CCCCCCCCCCCCCCCCCCCCCC(=O)[O-]
REMARK SMILES IDX 12 1 11 2 10 3 9 4 8 5 7 6 6 7 5 8 4 9 3 10 2 11 1 12 13 13
REMARK SMILES IDX 14 14 15 15 16 16 17 17 18 18 19 19 20 20 21 21 22 22 23 23
REMARK SMILES IDX 24 24
REMARK H PARENT
REMARK Flexibility Score: inf
ROOT
ATOM      1  C   UNL     1     -28.615  -2.863 -28.857  1.00  0.00     0.000 C 
ENDROOT
BRANCH   1   2
ATOM      2  C   UNL     1     -27.693  -2.001 -27.967  1.00  0.00     0.000 C 
BRANCH   2   3
ATOM      3  C   UNL     1     -26.222  -2.442 -28.061  1.00  0.00     0.000 C 
BRANCH   3   4
ATOM      4  C   UNL     1     -25.292  -1.317 -28.543  1.00  0.00    -0.000 C 
BRANCH   4   5
ATOM      5  C   UNL     1     -24.353  -0.810 -27.434  1.00  0.00    -0.000 C 
BRANCH   5   6
ATOM      6  C   UNL     1     -23.215   0.075 -27.973  1.00  0.00    -0.000 C 
BRANCH   6   7
ATOM      7  C   UNL     1     -22.136   0.456 -26.940  1.00  0.00    -0.000 C 
BRANCH   7   8
ATOM      8  C   UNL     1     -22.123   1.940 -26.522  1.00  0.00    -0.000 C 
BRANCH   8   9
ATOM      9  C   UNL     1     -20.838   2.704 -26.885  1.00  0.00    -0.000 C 
BRANCH   9  10
ATOM     10  C   UNL     1     -21.079   3.814 -27.924  1.00  0.00    -0.000 C 
BRANCH  10  11
ATOM     11  C   UNL     1     -20.348   5.118 -27.573  1.00  0.00    -0.003 C 
ATOM     12  C   UNL     1     -18.829   4.946 -27.517  1.00  0.00     0.004 C 
ENDBRANCH  10  11
ENDBRANCH   9  10
ENDBRANCH   8   9
ENDBRANCH   7   8
ENDBRANCH   6   7
ENDBRANCH   5   6
ENDBRANCH   4   5
ENDBRANCH   3   4
ENDBRANCH   2   3
ENDBRANCH   1   2
BRANCH   1  13
ATOM     13  C   UNL     1     -30.005  -2.247 -29.087  1.00  0.00     0.000 C 
BRANCH  13  14
ATOM     14  C   UNL     1     -31.147  -3.143 -28.582  1.00  0.00     0.000 C 
BRANCH  14  15
ATOM     15  C   UNL     1     -31.209  -3.209 -27.048  1.00  0.00     0.000 C 
BRANCH  15  16
ATOM     16  C   UNL     1     -32.001  -2.040 -26.437  1.00  0.00     0.000 C 
BRANCH  16  17
ATOM     17  C   UNL     1     -31.142  -0.778 -26.258  1.00  0.00     0.000 C 
BRANCH  17  18
ATOM     18  C   UNL     1     -31.801   0.259 -25.331  1.00  0.00     0.000 C 
BRANCH  18  19
ATOM     19  C   UNL     1     -30.818   1.378 -24.927  1.00  0.00     0.000 C 
BRANCH  19  20
ATOM     20  C   UNL     1     -31.327   2.798 -25.241  1.00  0.00     0.006 C 
BRANCH  20  21
ATOM     21  C   UNL     1     -30.499   3.544 -26.302  1.00  0.00     0.053 C 
BRANCH  21  22
ATOM     22  C   UNL     1     -31.075   3.415 -27.682  1.00  0.00     0.041 C 
ATOM     23  O   UNL     1     -30.660   4.154 -28.613  1.00  0.00    -0.550 OA
ATOM     24  O   UNL     1     -32.116   2.527 -27.926  1.00  0.00    -0.550 OA
ENDBRANCH  21  22
ENDBRANCH  20  21
ENDBRANCH  19  20
ENDBRANCH  18  19
ENDBRANCH  17  18
ENDBRANCH  16  17
ENDBRANCH  15  16
ENDBRANCH  14  15
ENDBRANCH  13  14
ENDBRANCH   1  13
TORSDOF 20
ENDMDL
MODEL 5
REMARK VINA RESULT:     6.578      3.351      8.682
REMARK INTER + INTRA:          13.144
REMARK INTER:                  13.846
REMARK INTRA:                  -0.703
REMARK UNBOUND:                -1.126
REMARK SMILES CCCCCCCCCCCCCCCCCCCCCC(=O)[O-]
REMARK SMILES IDX 12 1 11 2 10 3 9 4 8 5 7 6 6 7 5 8 4 9 3 10 2 11 1 12 13 13
REMARK SMILES IDX 14 14 15 15 16 16 17 17 18 18 19 19 20 20 21 21 22 22 23 23
REMARK SMILES IDX 24 24
REMARK H PARENT
REMARK Flexibility Score: inf
ROOT
ATOM      1  C   UNL     1     -27.161  -2.615 -27.772  1.00  0.00     0.000 C 
ENDROOT
BRANCH   1   2
ATOM      2  C   UNL     1     -26.310  -3.681 -27.048  1.00  0.00     0.000 C 
BRANCH   2   3
ATOM      3  C   UNL     1     -25.081  -3.066 -26.355  1.00  0.00     0.000 C 
BRANCH   3   4
ATOM      4  C   UNL     1     -24.023  -2.565 -27.352  1.00  0.00    -0.000 C 
BRANCH   4   5
ATOM      5  C   UNL     1     -23.409  -1.218 -26.933  1.00  0.00    -0.000 C 
BRANCH   5   6
ATOM      6  C   UNL     1     -23.596  -0.120 -27.996  1.00  0.00    -0.000 C 
BRANCH   6   7
ATOM      7  C   UNL     1     -22.344   0.733 -28.284  1.00  0.00    -0.000 C 
BRANCH   7   8
ATOM      8  C   UNL     1     -22.470   2.226 -27.920  1.00  0.00    -0.000 C 
BRANCH   8   9
ATOM      9  C   UNL     1     -21.236   2.830 -27.226  1.00  0.00    -0.000 C 
BRANCH   9  10
ATOM     10  C   UNL     1     -21.170   2.485 -25.727  1.00  0.00    -0.000 C 
BRANCH  10  11
ATOM     11  C   UNL     1     -22.305   1.549 -25.287  1.00  0.00    -0.003 C 
ATOM     12  C   UNL     1     -21.971   0.778 -24.010  1.00  0.00     0.004 C 
ENDBRANCH  10  11
ENDBRANCH   9  10
ENDBRANCH   8   9
ENDBRANCH   7   8
ENDBRANCH   6   7
ENDBRANCH   5   6
ENDBRANCH   4   5
ENDBRANCH   3   4
ENDBRANCH   2   3
ENDBRANCH   1   2
BRANCH   1  13
ATOM     13  C   UNL     1     -28.676  -2.799 -27.579  1.00  0.00     0.000 C 
BRANCH  13  14
ATOM     14  C   UNL     1     -29.485  -2.448 -28.838  1.00  0.00     0.000 C 
BRANCH  14  15
ATOM     15  C   UNL     1     -30.790  -3.255 -28.943  1.00  0.00     0.000 C 
BRANCH  15  16
ATOM     16  C   UNL     1     -31.837  -2.824 -27.901  1.00  0.00     0.000 C 
BRANCH  16  17
ATOM     17  C   UNL     1     -32.013  -1.299 -27.839  1.00  0.00     0.000 C 
BRANCH  17  18
ATOM     18  C   UNL     1     -31.582  -0.708 -26.486  1.00  0.00     0.000 C 
BRANCH  18  19
ATOM     19  C   UNL     1     -32.016   0.765 -26.335  1.00  0.00     0.000 C 
BRANCH  19  20
ATOM     20  C   UNL     1     -31.189   1.556 -25.303  1.00  0.00     0.006 C 
BRANCH  20  21
ATOM     21  C   UNL     1     -30.459   2.779 -25.885  1.00  0.00     0.053 C 
BRANCH  21  22
ATOM     22  C   UNL     1     -31.383   3.930 -26.156  1.00  0.00     0.041 C 
ATOM     23  O   UNL     1     -32.124   4.374 -25.240  1.00  0.00    -0.550 OA
ATOM     24  O   UNL     1     -31.477   4.468 -27.433  1.00  0.00    -0.550 OA
ENDBRANCH  21  22
ENDBRANCH  20  21
ENDBRANCH  19  20
ENDBRANCH  18  19
ENDBRANCH  17  18
ENDBRANCH  16  17
ENDBRANCH  15  16
ENDBRANCH  14  15
ENDBRANCH  13  14
ENDBRANCH   1  13
TORSDOF 20
ENDMDL
MODEL 6
REMARK VINA RESULT:     6.912      1.855      2.138
REMARK INTER + INTRA:          13.868
REMARK INTER:                  14.146
REMARK INTRA:                  -0.278
REMARK UNBOUND:                -1.126
REMARK SMILES CCCCCCCCCCCCCCCCCCCCCC(=O)[O-]
REMARK SMILES IDX 12 1 11 2 10 3 9 4 8 5 7 6 6 7 5 8 4 9 3 10 2 11 1 12 13 13
REMARK SMILES IDX 14 14 15 15 16 16 17 17 18 18 19 19 20 20 21 21 22 22 23 23
REMARK SMILES IDX 24 24
REMARK H PARENT
REMARK Flexibility Score: inf
ROOT
ATOM      1  C   UNL     1     -27.795  -2.277 -27.942  1.00  0.00     0.000 C 
ENDROOT
BRANCH   1   2
ATOM      2  C   UNL     1     -28.731  -2.607 -29.125  1.00  0.00     0.000 C 
BRANCH   2   3
ATOM      3  C   UNL     1     -30.026  -3.299 -28.661  1.00  0.00     0.000 C 
BRANCH   3   4
ATOM      4  C   UNL     1     -30.521  -2.785 -27.300  1.00  0.00    -0.000 C 
BRANCH   4   5
ATOM      5  C   UNL     1     -31.766  -1.889 -27.425  1.00  0.00    -0.000 C 
BRANCH   5   6
ATOM      6  C   UNL     1     -31.936  -0.934 -26.229  1.00  0.00    -0.000 C 
BRANCH   6   7
ATOM      7  C   UNL     1     -31.799   0.566 -26.563  1.00  0.00    -0.000 C 
BRANCH   7   8
ATOM      8  C   UNL     1     -31.074   1.411 -25.497  1.00  0.00    -0.000 C 
BRANCH   8   9
ATOM      9  C   UNL     1     -31.638   2.829 -25.302  1.00  0.00    -0.000 C 
BRANCH   9  10
ATOM     10  C   UNL     1     -31.001   3.859 -26.252  1.00  0.00    -0.000 C 
BRANCH  10  11
ATOM     11  C   UNL     1     -31.989   4.374 -27.308  1.00  0.00    -0.003 C 
ATOM     12  C   UNL     1     -31.457   4.227 -28.734  1.00  0.00     0.004 C 
ENDBRANCH  10  11
ENDBRANCH   9  10
ENDBRANCH   8   9
ENDBRANCH   7   8
ENDBRANCH   6   7
ENDBRANCH   5   6
ENDBRANCH   4   5
ENDBRANCH   3   4
ENDBRANCH   2   3
ENDBRANCH   1   2
BRANCH   1  13
ATOM     13  C   UNL     1     -26.550  -3.178 -27.869  1.00  0.00     0.000 C 
BRANCH  13  14
ATOM     14  C   UNL     1     -25.845  -3.113 -26.505  1.00  0.00     0.000 C 
BRANCH  14  15
ATOM     15  C   UNL     1     -24.349  -3.455 -26.598  1.00  0.00     0.000 C 
BRANCH  15  16
ATOM     16  C   UNL     1     -23.448  -2.217 -26.445  1.00  0.00     0.000 C 
BRANCH  16  17
ATOM     17  C   UNL     1     -23.773  -1.122 -27.472  1.00  0.00     0.000 C 
BRANCH  17  18
ATOM     18  C   UNL     1     -22.562  -0.225 -27.783  1.00  0.00     0.000 C 
BRANCH  18  19
ATOM     19  C   UNL     1     -22.969   1.254 -27.957  1.00  0.00     0.000 C 
BRANCH  19  20
ATOM     20  C   UNL     1     -21.935   2.253 -27.406  1.00  0.00     0.006 C 
BRANCH  20  21
ATOM     21  C   UNL     1     -21.134   1.732 -26.199  1.00  0.00     0.053 C 
BRANCH  21  22
ATOM     22  C   UNL     1     -22.003   1.445 -25.010  1.00  0.00     0.041 C 
ATOM     23  O   UNL     1     -23.252   1.357 -25.144  1.00  0.00    -0.550 OA
ATOM     24  O   UNL     1     -21.443   1.340 -23.743  1.00  0.00    -0.550 OA
ENDBRANCH  21  22
ENDBRANCH  20  21
ENDBRANCH  19  20
ENDBRANCH  18  19
ENDBRANCH  17  18
ENDBRANCH  16  17
ENDBRANCH  15  16
ENDBRANCH  14  15
ENDBRANCH  13  14
ENDBRANCH   1  13
TORSDOF 20
ENDMDL
