MODEL 1
REMARK VINA RESULT:    -4.506      0.000      0.000
REMARK INTER + INTRA:          -8.970
REMARK INTER:                  -8.194
REMARK INTRA:                  -0.776
REMARK UNBOUND:                -0.776
REMARK SMILES CCCCCCCCCCCCCCCC(=O)[O-]
REMARK SMILES IDX 9 1 10 2 11 3 12 4 13 5 14 6 15 7 16 8 17 9 18 10 8 11 7 12
REMARK SMILES IDX 6 13 5 14 4 15 3 16 2 17 1 18
REMARK H PARENT
REMARK Flexibility Score: inf
ROOT
ATOM      1  C   UNL     1      25.604 -33.380  21.911  1.00  0.00     0.000 C 
ENDROOT
BRANCH   1   2
ATOM      2  C   UNL     1      25.220 -32.841  23.300  1.00  0.00     0.000 C 
BRANCH   2   3
ATOM      3  C   UNL     1      25.270 -31.306  23.373  1.00  0.00     0.000 C 
BRANCH   3   4
ATOM      4  C   UNL     1      24.168 -30.715  24.264  1.00  0.00     0.000 C 
BRANCH   4   5
ATOM      5  C   UNL     1      23.561 -31.798  25.171  1.00  0.00     0.000 C 
BRANCH   5   6
ATOM      6  C   UNL     1      22.742 -31.208  26.331  1.00  0.00     0.006 C 
BRANCH   6   7
ATOM      7  C   UNL     1      23.477 -31.293  27.676  1.00  0.00     0.053 C 
BRANCH   7   8
ATOM      8  C   UNL     1      24.009 -29.949  28.064  1.00  0.00     0.041 C 
ATOM      9  O   UNL     1      24.750 -29.829  29.075  1.00  0.00    -0.550 OA
ATOM     10  O   UNL     1      23.730 -28.837  27.279  1.00  0.00    -0.550 OA
ENDBRANCH   7   8
ENDBRANCH   6   7
ENDBRANCH   5   6
ENDBRANCH   4   5
ENDBRANCH   3   4
ENDBRANCH   2   3
ENDBRANCH   1   2
BRANCH   1  11
ATOM     11  C   UNL     1      26.262 -34.767  21.984  1.00  0.00     0.000 C 
BRANCH  11  12
ATOM     12  C   UNL     1      25.758 -35.599  23.176  1.00  0.00    -0.000 C 
BRANCH  12  13
ATOM     13  C   UNL     1      25.413 -37.050  22.790  1.00  0.00    -0.000 C 
BRANCH  13  14
ATOM     14  C   UNL     1      24.211 -37.201  21.841  1.00  0.00    -0.000 C 
BRANCH  14  15
ATOM     15  C   UNL     1      24.050 -38.628  21.297  1.00  0.00    -0.000 C 
BRANCH  15  16
ATOM     16  C   UNL     1      22.997 -38.676  20.180  1.00  0.00    -0.000 C 
BRANCH  16  17
ATOM     17  C   UNL     1      21.621 -38.174  20.646  1.00  0.00    -0.003 C 
ATOM     18  C   UNL     1      20.487 -39.134  20.284  1.00  0.00     0.004 C 
ENDBRANCH  16  17
ENDBRANCH  15  16
ENDBRANCH  14  15
ENDBRANCH  13  14
ENDBRANCH  12  13
ENDBRANCH  11  12
ENDBRANCH   1  11
TORSDOF 14
ENDMDL
MODEL 2
REMARK VINA RESULT:    -4.490      4.110      8.176
REMARK INTER + INTRA:          -8.941
REMARK INTER:                  -7.310
REMARK INTRA:                  -1.631
REMARK UNBOUND:                -0.776
REMARK SMILES CCCCCCCCCCCCCCCC(=O)[O-]
REMARK SMILES IDX 9 1 10 2 11 3 12 4 13 5 14 6 15 7 16 8 17 9 18 10 8 11 7 12
REMARK SMILES IDX 6 13 5 14 4 15 3 16 2 17 1 18
REMARK H PARENT
REMARK Flexibility Score: inf
ROOT
ATOM      1  C   UNL     1      25.941 -37.143  24.086  1.00  0.00     0.000 C 
ENDROOT
BRANCH   1   2
ATOM      2  C   UNL     1      26.878 -38.280  23.644  1.00  0.00     0.000 C 
BRANCH   2   3
ATOM      3  C   UNL     1      26.176 -39.647  23.611  1.00  0.00     0.000 C 
BRANCH   3   4
ATOM      4  C   UNL     1      26.152 -40.271  22.208  1.00  0.00     0.000 C 
BRANCH   4   5
ATOM      5  C   UNL     1      24.708 -40.431  21.706  1.00  0.00     0.000 C 
BRANCH   5   6
ATOM      6  C   UNL     1      24.418 -39.585  20.456  1.00  0.00     0.006 C 
BRANCH   6   7
ATOM      7  C   UNL     1      22.931 -39.581  20.076  1.00  0.00     0.053 C 
BRANCH   7   8
ATOM      8  C   UNL     1      22.256 -38.367  20.632  1.00  0.00     0.041 C 
ATOM      9  O   UNL     1      21.779 -38.385  21.798  1.00  0.00    -0.550 OA
ATOM     10  O   UNL     1      22.199 -37.198  19.884  1.00  0.00    -0.550 OA
ENDBRANCH   7   8
ENDBRANCH   6   7
ENDBRANCH   5   6
ENDBRANCH   4   5
ENDBRANCH   3   4
ENDBRANCH   2   3
ENDBRANCH   1   2
BRANCH   1  11
ATOM     11  C   UNL     1      24.724 -36.994  23.159  1.00  0.00     0.000 C 
BRANCH  11  12
ATOM     12  C   UNL     1      25.032 -36.151  21.910  1.00  0.00    -0.000 C 
BRANCH  12  13
ATOM     13  C   UNL     1      26.107 -35.078  22.163  1.00  0.00    -0.000 C 
BRANCH  13  14
ATOM     14  C   UNL     1      25.847 -33.724  21.478  1.00  0.00    -0.000 C 
BRANCH  14  15
ATOM     15  C   UNL     1      25.427 -32.623  22.464  1.00  0.00    -0.000 C 
BRANCH  15  16
ATOM     16  C   UNL     1      25.311 -33.178  23.891  1.00  0.00    -0.000 C 
BRANCH  16  17
ATOM     17  C   UNL     1      24.107 -32.599  24.652  1.00  0.00    -0.003 C 
ATOM     18  C   UNL     1      24.026 -31.075  24.560  1.00  0.00     0.004 C 
ENDBRANCH  16  17
ENDBRANCH  15  16
ENDBRANCH  14  15
ENDBRANCH  13  14
ENDBRANCH  12  13
ENDBRANCH  11  12
ENDBRANCH   1  11
TORSDOF 14
ENDMDL
MODEL 3
REMARK VINA RESULT:    -4.403      1.670      2.206
REMARK INTER + INTRA:          -8.783
REMARK INTER:                  -7.476
REMARK INTRA:                  -1.307
REMARK UNBOUND:                -0.776
REMARK SMILES CCCCCCCCCCCCCCCC(=O)[O-]
REMARK SMILES IDX 9 1 10 2 11 3 12 4 13 5 14 6 15 7 16 8 17 9 18 10 8 11 7 12
REMARK SMILES IDX 6 13 5 14 4 15 3 16 2 17 1 18
REMARK H PARENT
REMARK Flexibility Score: inf
ROOT
ATOM      1  C   UNL     1      26.116 -34.374  21.302  1.00  0.00     0.000 C 
ENDROOT
BRANCH   1   2
ATOM      2  C   UNL     1      25.152 -33.235  21.675  1.00  0.00     0.000 C 
BRANCH   2   3
ATOM      3  C   UNL     1      25.489 -32.597  23.032  1.00  0.00     0.000 C 
BRANCH   3   4
ATOM      4  C   UNL     1      24.240 -32.147  23.806  1.00  0.00     0.000 C 
BRANCH   4   5
ATOM      5  C   UNL     1      23.957 -33.094  24.983  1.00  0.00     0.000 C 
BRANCH   5   6
ATOM      6  C   UNL     1      23.497 -32.347  26.246  1.00  0.00     0.006 C 
BRANCH   6   7
ATOM      7  C   UNL     1      23.165 -30.874  25.974  1.00  0.00     0.053 C 
BRANCH   7   8
ATOM      8  C   UNL     1      21.689 -30.648  26.069  1.00  0.00     0.041 C 
ATOM      9  O   UNL     1      20.893 -31.372  25.415  1.00  0.00    -0.550 OA
ATOM     10  O   UNL     1      21.188 -29.673  26.922  1.00  0.00    -0.550 OA
ENDBRANCH   7   8
ENDBRANCH   6   7
ENDBRANCH   5   6
ENDBRANCH   4   5
ENDBRANCH   3   4
ENDBRANCH   2   3
ENDBRANCH   1   2
BRANCH   1  11
ATOM     11  C   UNL     1      26.257 -35.414  22.425  1.00  0.00     0.000 C 
BRANCH  11  12
ATOM     12  C   UNL     1      25.078 -36.402  22.467  1.00  0.00    -0.000 C 
BRANCH  12  13
ATOM     13  C   UNL     1      24.650 -36.762  23.901  1.00  0.00    -0.000 C 
BRANCH  13  14
ATOM     14  C   UNL     1      23.553 -37.838  24.001  1.00  0.00    -0.000 C 
BRANCH  14  15
ATOM     15  C   UNL     1      23.281 -38.545  22.665  1.00  0.00    -0.000 C 
BRANCH  15  16
ATOM     16  C   UNL     1      21.774 -38.629  22.383  1.00  0.00    -0.000 C 
BRANCH  16  17
ATOM     17  C   UNL     1      21.452 -38.597  20.881  1.00  0.00    -0.003 C 
ATOM     18  C   UNL     1      22.257 -37.538  20.125  1.00  0.00     0.004 C 
ENDBRANCH  16  17
ENDBRANCH  15  16
ENDBRANCH  14  15
ENDBRANCH  13  14
ENDBRANCH  12  13
ENDBRANCH  11  12
ENDBRANCH   1  11
TORSDOF 14
ENDMDL
MODEL 4
REMARK VINA RESULT:    -4.401      1.966      4.367
REMARK INTER + INTRA:          -8.779
REMARK INTER:                  -7.948
REMARK INTRA:                  -0.830
REMARK UNBOUND:                -0.776
REMARK SMILES CCCCCCCCCCCCCCCC(=O)[O-]
REMARK SMILES IDX 9 1 10 2 11 3 12 4 13 5 14 6 15 7 16 8 17 9 18 10 8 11 7 12
REMARK SMILES IDX 6 13 5 14 4 15 3 16 2 17 1 18
REMARK H PARENT
REMARK Flexibility Score: inf
ROOT
ATOM      1  C   UNL     1      24.052 -37.684  22.414  1.00  0.00     0.000 C 
ENDROOT
BRANCH   1   2
ATOM      2  C   UNL     1      25.144 -36.637  22.690  1.00  0.00     0.000 C 
BRANCH   2   3
ATOM      3  C   UNL     1      25.164 -35.512  21.642  1.00  0.00     0.000 C 
BRANCH   3   4
ATOM      4  C   UNL     1      26.254 -34.464  21.913  1.00  0.00     0.000 C 
BRANCH   4   5
ATOM      5  C   UNL     1      25.630 -33.091  22.207  1.00  0.00     0.000 C 
BRANCH   5   6
ATOM      6  C   UNL     1      25.324 -32.886  23.700  1.00  0.00     0.006 C 
BRANCH   6   7
ATOM      7  C   UNL     1      24.035 -32.089  23.935  1.00  0.00     0.053 C 
BRANCH   7   8
ATOM      8  C   UNL     1      24.355 -30.663  24.251  1.00  0.00     0.041 C 
ATOM      9  O   UNL     1      25.018 -29.967  23.438  1.00  0.00    -0.550 OA
ATOM     10  O   UNL     1      23.876 -30.085  25.420  1.00  0.00    -0.550 OA
ENDBRANCH   7   8
ENDBRANCH   6   7
ENDBRANCH   5   6
ENDBRANCH   4   5
ENDBRANCH   3   4
ENDBRANCH   2   3
ENDBRANCH   1   2
BRANCH   1  11
ATOM     11  C   UNL     1      23.683 -37.766  20.924  1.00  0.00     0.000 C 
BRANCH  11  12
ATOM     12  C   UNL     1      22.186 -38.045  20.700  1.00  0.00    -0.000 C 
BRANCH  12  13
ATOM     13  C   UNL     1      21.499 -38.651  21.938  1.00  0.00    -0.000 C 
BRANCH  13  14
ATOM     14  C   UNL     1      20.232 -39.473  21.640  1.00  0.00    -0.000 C 
BRANCH  14  15
ATOM     15  C   UNL     1      19.717 -39.284  20.206  1.00  0.00    -0.000 C 
BRANCH  15  16
ATOM     16  C   UNL     1      18.182 -39.247  20.174  1.00  0.00    -0.000 C 
BRANCH  16  17
ATOM     17  C   UNL     1      17.557 -39.514  21.553  1.00  0.00    -0.003 C 
ATOM     18  C   UNL     1      16.264 -38.730  21.780  1.00  0.00     0.004 C 
ENDBRANCH  16  17
ENDBRANCH  15  16
ENDBRANCH  14  15
ENDBRANCH  13  14
ENDBRANCH  12  13
ENDBRANCH  11  12
ENDBRANCH   1  11
TORSDOF 14
ENDMDL
MODEL 5
REMARK VINA RESULT:    -4.383      3.964      8.155
REMARK INTER + INTRA:          -8.745
REMARK INTER:                  -7.117
REMARK INTRA:                  -1.628
REMARK UNBOUND:                -0.776
REMARK SMILES CCCCCCCCCCCCCCCC(=O)[O-]
REMARK SMILES IDX 9 1 10 2 11 3 12 4 13 5 14 6 15 7 16 8 17 9 18 10 8 11 7 12
REMARK SMILES IDX 6 13 5 14 4 15 3 16 2 17 1 18
REMARK H PARENT
REMARK Flexibility Score: inf
ROOT
ATOM      1  C   UNL     1      23.770 -30.521  25.198  1.00  0.00     0.000 C 
ENDROOT
BRANCH   1   2
ATOM      2  C   UNL     1      24.513 -30.643  23.857  1.00  0.00     0.000 C 
BRANCH   2   3
ATOM      3  C   UNL     1      25.364 -31.920  23.765  1.00  0.00     0.000 C 
BRANCH   3   4
ATOM      4  C   UNL     1      24.728 -32.998  22.875  1.00  0.00     0.000 C 
BRANCH   4   5
ATOM      5  C   UNL     1      25.693 -33.422  21.757  1.00  0.00     0.000 C 
BRANCH   5   6
ATOM      6  C   UNL     1      26.323 -34.802  22.011  1.00  0.00     0.006 C 
BRANCH   6   7
ATOM      7  C   UNL     1      25.641 -35.561  23.157  1.00  0.00     0.053 C 
BRANCH   7   8
ATOM      8  C   UNL     1      25.245 -36.932  22.709  1.00  0.00     0.041 C 
ATOM      9  O   UNL     1      25.837 -37.945  23.168  1.00  0.00    -0.550 OA
ATOM     10  O   UNL     1      24.187 -37.097  21.824  1.00  0.00    -0.550 OA
ENDBRANCH   7   8
ENDBRANCH   6   7
ENDBRANCH   5   6
ENDBRANCH   4   5
ENDBRANCH   3   4
ENDBRANCH   2   3
ENDBRANCH   1   2
BRANCH   1  11
ATOM     11  C   UNL     1      22.465 -31.333  25.220  1.00  0.00     0.000 C 
BRANCH  11  12
ATOM     12  C   UNL     1      22.394 -32.304  26.412  1.00  0.00    -0.000 C 
BRANCH  12  13
ATOM     13  C   UNL     1      23.771 -32.578  27.044  1.00  0.00    -0.000 C 
BRANCH  13  14
ATOM     14  C   UNL     1      23.868 -32.268  28.549  1.00  0.00    -0.000 C 
BRANCH  14  15
ATOM     15  C   UNL     1      24.515 -30.906  28.841  1.00  0.00    -0.000 C 
BRANCH  15  16
ATOM     16  C   UNL     1      23.644 -30.078  29.799  1.00  0.00    -0.000 C 
BRANCH  16  17
ATOM     17  C   UNL     1      22.195 -29.940  29.306  1.00  0.00    -0.003 C 
ATOM     18  C   UNL     1      22.048 -28.917  28.178  1.00  0.00     0.004 C 
ENDBRANCH  16  17
ENDBRANCH  15  16
ENDBRANCH  14  15
ENDBRANCH  13  14
ENDBRANCH  12  13
ENDBRANCH  11  12
ENDBRANCH   1  11
TORSDOF 14
ENDMDL
MODEL 6
REMARK VINA RESULT:    -4.332      2.249      3.046
REMARK INTER + INTRA:          -8.654
REMARK INTER:                  -7.472
REMARK INTRA:                  -1.182
REMARK UNBOUND:                -0.776
REMARK SMILES CCCCCCCCCCCCCCCC(=O)[O-]
REMARK SMILES IDX 9 1 10 2 11 3 12 4 13 5 14 6 15 7 16 8 17 9 18 10 8 11 7 12
REMARK SMILES IDX 6 13 5 14 4 15 3 16 2 17 1 18
REMARK H PARENT
REMARK Flexibility Score: inf
ROOT
ATOM      1  C   UNL     1      25.223 -33.013  24.151  1.00  0.00     0.000 C 
ENDROOT
BRANCH   1   2
ATOM      2  C   UNL     1      23.849 -32.530  24.646  1.00  0.00     0.000 C 
BRANCH   2   3
ATOM      3  C   UNL     1      23.351 -33.316  25.870  1.00  0.00     0.000 C 
BRANCH   3   4
ATOM      4  C   UNL     1      21.958 -32.869  26.339  1.00  0.00     0.000 C 
BRANCH   4   5
ATOM      5  C   UNL     1      21.362 -31.835  25.371  1.00  0.00     0.000 C 
BRANCH   5   6
ATOM      6  C   UNL     1      21.124 -30.469  26.036  1.00  0.00     0.006 C 
BRANCH   6   7
ATOM      7  C   UNL     1      22.065 -30.217  27.221  1.00  0.00     0.053 C 
BRANCH   7   8
ATOM      8  C   UNL     1      23.244 -29.406  26.786  1.00  0.00     0.041 C 
ATOM      9  O   UNL     1      24.057 -28.959  27.638  1.00  0.00    -0.550 OA
ATOM     10  O   UNL     1      23.477 -29.187  25.434  1.00  0.00    -0.550 OA
ENDBRANCH   7   8
ENDBRANCH   6   7
ENDBRANCH   5   6
ENDBRANCH   4   5
ENDBRANCH   3   4
ENDBRANCH   2   3
ENDBRANCH   1   2
BRANCH   1  11
ATOM     11  C   UNL     1      25.553 -32.494  22.743  1.00  0.00     0.000 C 
BRANCH  11  12
ATOM     12  C   UNL     1      25.507 -33.604  21.678  1.00  0.00    -0.000 C 
BRANCH  12  13
ATOM     13  C   UNL     1      26.258 -34.878  22.109  1.00  0.00    -0.000 C 
BRANCH  13  14
ATOM     14  C   UNL     1      25.377 -36.131  22.262  1.00  0.00    -0.000 C 
BRANCH  14  15
ATOM     15  C   UNL     1      25.841 -37.056  23.397  1.00  0.00    -0.000 C 
BRANCH  15  16
ATOM     16  C   UNL     1      24.868 -38.230  23.581  1.00  0.00    -0.000 C 
BRANCH  16  17
ATOM     17  C   UNL     1      23.622 -37.842  24.394  1.00  0.00    -0.003 C 
ATOM     18  C   UNL     1      23.941 -36.887  25.545  1.00  0.00     0.004 C 
ENDBRANCH  16  17
ENDBRANCH  15  16
ENDBRANCH  14  15
ENDBRANCH  13  14
ENDBRANCH  12  13
ENDBRANCH  11  12
ENDBRANCH   1  11
TORSDOF 14
ENDMDL
MODEL 7
REMARK VINA RESULT:    -4.312      3.394      5.299
REMARK INTER + INTRA:          -8.617
REMARK INTER:                  -7.116
REMARK INTRA:                  -1.500
REMARK UNBOUND:                -0.776
REMARK SMILES CCCCCCCCCCCCCCCC(=O)[O-]
REMARK SMILES IDX 9 1 10 2 11 3 12 4 13 5 14 6 15 7 16 8 17 9 18 10 8 11 7 12
REMARK SMILES IDX 6 13 5 14 4 15 3 16 2 17 1 18
REMARK H PARENT
REMARK Flexibility Score: inf
ROOT
ATOM      1  C   UNL     1      21.548 -30.860  26.420  1.00  0.00     0.000 C 
ENDROOT
BRANCH   1   2
ATOM      2  C   UNL     1      22.381 -29.572  26.304  1.00  0.00     0.000 C 
BRANCH   2   3
ATOM      3  C   UNL     1      23.725 -29.669  27.043  1.00  0.00     0.000 C 
BRANCH   3   4
ATOM      4  C   UNL     1      23.590 -30.272  28.450  1.00  0.00     0.000 C 
BRANCH   4   5
ATOM      5  C   UNL     1      24.520 -31.484  28.615  1.00  0.00     0.000 C 
BRANCH   5   6
ATOM      6  C   UNL     1      25.529 -31.305  29.761  1.00  0.00     0.006 C 
BRANCH   6   7
ATOM      7  C   UNL     1      25.426 -32.412  30.818  1.00  0.00     0.053 C 
BRANCH   7   8
ATOM      8  C   UNL     1      24.281 -32.144  31.742  1.00  0.00     0.041 C 
ATOM      9  O   UNL     1      23.681 -33.099  32.303  1.00  0.00    -0.550 OA
ATOM     10  O   UNL     1      23.908 -30.836  32.027  1.00  0.00    -0.550 OA
ENDBRANCH   7   8
ENDBRANCH   6   7
ENDBRANCH   5   6
ENDBRANCH   4   5
ENDBRANCH   3   4
ENDBRANCH   2   3
ENDBRANCH   1   2
BRANCH   1  11
ATOM     11  C   UNL     1      21.902 -31.886  25.331  1.00  0.00     0.000 C 
BRANCH  11  12
ATOM     12  C   UNL     1      22.727 -33.065  25.875  1.00  0.00    -0.000 C 
BRANCH  12  13
ATOM     13  C   UNL     1      24.063 -33.253  25.132  1.00  0.00    -0.000 C 
BRANCH  13  14
ATOM     14  C   UNL     1      24.468 -32.082  24.218  1.00  0.00    -0.000 C 
BRANCH  14  15
ATOM     15  C   UNL     1      25.445 -32.497  23.108  1.00  0.00    -0.000 C 
BRANCH  15  16
ATOM     16  C   UNL     1      25.529 -34.026  22.992  1.00  0.00    -0.000 C 
BRANCH  16  17
ATOM     17  C   UNL     1      26.339 -34.481  21.768  1.00  0.00    -0.003 C 
ATOM     18  C   UNL     1      25.678 -34.093  20.444  1.00  0.00     0.004 C 
ENDBRANCH  16  17
ENDBRANCH  15  16
ENDBRANCH  14  15
ENDBRANCH  13  14
ENDBRANCH  12  13
ENDBRANCH  11  12
ENDBRANCH   1  11
TORSDOF 14
ENDMDL
MODEL 8
REMARK VINA RESULT:    -4.302      1.071      2.246
REMARK INTER + INTRA:          -8.598
REMARK INTER:                  -7.972
REMARK INTRA:                  -0.626
REMARK UNBOUND:                -0.776
REMARK SMILES CCCCCCCCCCCCCCCC(=O)[O-]
REMARK SMILES IDX 9 1 10 2 11 3 12 4 13 5 14 6 15 7 16 8 17 9 18 10 8 11 7 12
REMARK SMILES IDX 6 13 5 14 4 15 3 16 2 17 1 18
REMARK H PARENT
REMARK Flexibility Score: inf
ROOT
ATOM      1  C   UNL     1      25.474 -35.687  23.169  1.00  0.00     0.000 C 
ENDROOT
BRANCH   1   2
ATOM      2  C   UNL     1      26.017 -34.798  22.037  1.00  0.00     0.000 C 
BRANCH   2   3
ATOM      3  C   UNL     1      25.680 -33.311  22.239  1.00  0.00     0.000 C 
BRANCH   3   4
ATOM      4  C   UNL     1      25.281 -32.982  23.686  1.00  0.00     0.000 C 
BRANCH   4   5
ATOM      5  C   UNL     1      24.496 -31.662  23.748  1.00  0.00     0.000 C 
BRANCH   5   6
ATOM      6  C   UNL     1      23.331 -31.713  24.750  1.00  0.00     0.006 C 
BRANCH   6   7
ATOM      7  C   UNL     1      23.735 -31.233  26.151  1.00  0.00     0.053 C 
BRANCH   7   8
ATOM      8  C   UNL     1      23.140 -29.890  26.432  1.00  0.00     0.041 C 
ATOM      9  O   UNL     1      23.836 -28.990  26.973  1.00  0.00    -0.550 OA
ATOM     10  O   UNL     1      21.834 -29.613  26.050  1.00  0.00    -0.550 OA
ENDBRANCH   7   8
ENDBRANCH   6   7
ENDBRANCH   5   6
ENDBRANCH   4   5
ENDBRANCH   3   4
ENDBRANCH   2   3
ENDBRANCH   1   2
BRANCH   1  11
ATOM     11  C   UNL     1      26.035 -37.117  23.111  1.00  0.00     0.000 C 
BRANCH  11  12
ATOM     12  C   UNL     1      24.960 -38.158  22.753  1.00  0.00    -0.000 C 
BRANCH  12  13
ATOM     13  C   UNL     1      23.904 -37.615  21.773  1.00  0.00    -0.000 C 
BRANCH  13  14
ATOM     14  C   UNL     1      22.501 -38.231  21.923  1.00  0.00    -0.000 C 
BRANCH  14  15
ATOM     15  C   UNL     1      21.691 -38.208  20.618  1.00  0.00    -0.000 C 
BRANCH  15  16
ATOM     16  C   UNL     1      21.203 -39.617  20.248  1.00  0.00    -0.000 C 
BRANCH  16  17
ATOM     17  C   UNL     1      19.679 -39.682  20.060  1.00  0.00    -0.003 C 
ATOM     18  C   UNL     1      18.910 -39.349  21.339  1.00  0.00     0.004 C 
ENDBRANCH  16  17
ENDBRANCH  15  16
ENDBRANCH  14  15
ENDBRANCH  13  14
ENDBRANCH  12  13
ENDBRANCH  11  12
ENDBRANCH   1  11
TORSDOF 14
ENDMDL
MODEL 9
REMARK VINA RESULT:    -4.279      4.023      8.386
REMARK INTER + INTRA:          -8.558
REMARK INTER:                  -7.575
REMARK INTRA:                  -0.982
REMARK UNBOUND:                -0.776
REMARK SMILES CCCCCCCCCCCCCCCC(=O)[O-]
REMARK SMILES IDX 9 1 10 2 11 3 12 4 13 5 14 6 15 7 16 8 17 9 18 10 8 11 7 12
REMARK SMILES IDX 6 13 5 14 4 15 3 16 2 17 1 18
REMARK H PARENT
REMARK Flexibility Score: inf
ROOT
ATOM      1  C   UNL     1      24.850 -33.273  23.227  1.00  0.00     0.000 C 
ENDROOT
BRANCH   1   2
ATOM      2  C   UNL     1      25.697 -33.408  21.949  1.00  0.00     0.000 C 
BRANCH   2   3
ATOM      3  C   UNL     1      26.195 -34.844  21.719  1.00  0.00     0.000 C 
BRANCH   3   4
ATOM      4  C   UNL     1      25.996 -35.747  22.945  1.00  0.00     0.000 C 
BRANCH   4   5
ATOM      5  C   UNL     1      25.247 -37.033  22.560  1.00  0.00     0.000 C 
BRANCH   5   6
ATOM      6  C   UNL     1      24.086 -36.773  21.586  1.00  0.00     0.006 C 
BRANCH   6   7
ATOM      7  C   UNL     1      23.554 -38.061  20.944  1.00  0.00     0.053 C 
BRANCH   7   8
ATOM      8  C   UNL     1      22.071 -38.154  21.118  1.00  0.00     0.041 C 
ATOM      9  O   UNL     1      21.303 -37.905  20.151  1.00  0.00    -0.550 OA
ATOM     10  O   UNL     1      21.537 -38.567  22.332  1.00  0.00    -0.550 OA
ENDBRANCH   7   8
ENDBRANCH   6   7
ENDBRANCH   5   6
ENDBRANCH   4   5
ENDBRANCH   3   4
ENDBRANCH   2   3
ENDBRANCH   1   2
BRANCH   1  11
ATOM     11  C   UNL     1      25.291 -32.086  24.098  1.00  0.00     0.000 C 
BRANCH  11  12
ATOM     12  C   UNL     1      24.460 -30.818  23.832  1.00  0.00    -0.000 C 
BRANCH  12  13
ATOM     13  C   UNL     1      24.059 -30.083  25.125  1.00  0.00    -0.000 C 
BRANCH  13  14
ATOM     14  C   UNL     1      23.543 -30.993  26.255  1.00  0.00    -0.000 C 
BRANCH  14  15
ATOM     15  C   UNL     1      22.049 -31.326  26.124  1.00  0.00    -0.000 C 
BRANCH  15  16
ATOM     16  C   UNL     1      21.201 -30.045  26.098  1.00  0.00    -0.000 C 
BRANCH  16  17
ATOM     17  C   UNL     1      20.355 -29.873  27.369  1.00  0.00    -0.003 C 
ATOM     18  C   UNL     1      20.992 -28.918  28.380  1.00  0.00     0.004 C 
ENDBRANCH  16  17
ENDBRANCH  15  16
ENDBRANCH  14  15
ENDBRANCH  13  14
ENDBRANCH  12  13
ENDBRANCH  11  12
ENDBRANCH   1  11
TORSDOF 14
ENDMDL
