MODEL 1
REMARK VINA RESULT:    -3.868      0.000      0.000
REMARK INTER + INTRA:         -15.469
REMARK INTER:                 -10.199
REMARK INTRA:                  -5.270
REMARK UNBOUND:                -5.270
REMARK SMILES CCCCCCCCCCCCCCCCCCCCCCCCCCCCCC(=O)[O-]
REMARK SMILES IDX 16 1 17 2 18 3 19 4 20 5 21 6 22 7 23 8 24 9 25 10 26 11
REMARK SMILES IDX 27 12 28 13 29 14 30 15 31 16 32 17 15 18 14 19 13 20 12 21
REMARK SMILES IDX 11 22 10 23 9 24 8 25 7 26 6 27 5 28 4 29 3 30 2 31 1 32
REMARK H PARENT
REMARK Flexibility Score: inf
ROOT
ATOM      1  C   UNL     1      20.820  11.956 -19.428  1.00  0.00     0.000 C 
ENDROOT
BRANCH   1   2
ATOM      2  C   UNL     1      20.049  13.282 -19.568  1.00  0.00     0.000 C 
BRANCH   2   3
ATOM      3  C   UNL     1      18.549  13.197 -19.228  1.00  0.00     0.000 C 
BRANCH   3   4
ATOM      4  C   UNL     1      18.184  13.572 -17.776  1.00  0.00     0.000 C 
BRANCH   4   5
ATOM      5  C   UNL     1      18.265  12.414 -16.766  1.00  0.00     0.000 C 
BRANCH   5   6
ATOM      6  C   UNL     1      19.325  12.649 -15.676  1.00  0.00     0.000 C 
BRANCH   6   7
ATOM      7  C   UNL     1      19.939  14.056 -15.741  1.00  0.00     0.000 C 
BRANCH   7   8
ATOM      8  C   UNL     1      21.387  14.042 -16.265  1.00  0.00     0.000 C 
BRANCH   8   9
ATOM      9  C   UNL     1      21.860  15.431 -16.723  1.00  0.00     0.000 C 
BRANCH   9  10
ATOM     10  C   UNL     1      20.738  16.483 -16.670  1.00  0.00     0.000 C 
BRANCH  10  11
ATOM     11  C   UNL     1      20.186  16.828 -18.063  1.00  0.00     0.000 C 
BRANCH  11  12
ATOM     12  C   UNL     1      21.264  16.794 -19.157  1.00  0.00     0.000 C 
BRANCH  12  13
ATOM     13  C   UNL     1      20.625  16.835 -20.554  1.00  0.00     0.006 C 
BRANCH  13  14
ATOM     14  C   UNL     1      19.098  16.970 -20.496  1.00  0.00     0.053 C 
BRANCH  14  15
ATOM     15  C   UNL     1      18.606  18.117 -21.325  1.00  0.00     0.041 C 
ATOM     16  O   UNL     1      19.409  18.775 -22.039  1.00  0.00    -0.550 OA
ATOM     17  O   UNL     1      17.256  18.441 -21.332  1.00  0.00    -0.550 OA
ENDBRANCH  14  15
ENDBRANCH  13  14
ENDBRANCH  12  13
ENDBRANCH  11  12
ENDBRANCH  10  11
ENDBRANCH   9  10
ENDBRANCH   8   9
ENDBRANCH   7   8
ENDBRANCH   6   7
ENDBRANCH   5   6
ENDBRANCH   4   5
ENDBRANCH   3   4
ENDBRANCH   2   3
ENDBRANCH   1   2
BRANCH   1  18
ATOM     18  C   UNL     1      20.170  10.776 -20.182  1.00  0.00     0.000 C 
BRANCH  18  19
ATOM     19  C   UNL     1      19.706   9.654 -19.236  1.00  0.00     0.000 C 
BRANCH  19  20
ATOM     20  C   UNL     1      20.345   9.752 -17.843  1.00  0.00     0.000 C 
BRANCH  20  21
ATOM     21  C   UNL     1      19.528   9.021 -16.764  1.00  0.00     0.000 C 
BRANCH  21  22
ATOM     22  C   UNL     1      19.722   7.495 -16.798  1.00  0.00     0.000 C 
BRANCH  22  23
ATOM     23  C   UNL     1      18.539   6.738 -17.439  1.00  0.00     0.000 C 
BRANCH  23  24
ATOM     24  C   UNL     1      18.943   5.336 -17.930  1.00  0.00    -0.000 C 
BRANCH  24  25
ATOM     25  C   UNL     1      20.466   5.153 -18.011  1.00  0.00    -0.000 C 
BRANCH  25  26
ATOM     26  C   UNL     1      20.984   5.126 -19.456  1.00  0.00    -0.000 C 
BRANCH  26  27
ATOM     27  C   UNL     1      21.616   6.474 -19.834  1.00  0.00    -0.000 C 
BRANCH  27  28
ATOM     28  C   UNL     1      22.656   6.955 -18.809  1.00  0.00    -0.000 C 
BRANCH  28  29
ATOM     29  C   UNL     1      23.487   8.161 -19.299  1.00  0.00    -0.000 C 
BRANCH  29  30
ATOM     30  C   UNL     1      24.830   8.275 -18.559  1.00  0.00    -0.000 C 
BRANCH  30  31
ATOM     31  C   UNL     1      24.954   9.576 -17.753  1.00  0.00    -0.003 C 
ATOM     32  C   UNL     1      23.942  10.637 -18.180  1.00  0.00     0.004 C 
ENDBRANCH  30  31
ENDBRANCH  29  30
ENDBRANCH  28  29
ENDBRANCH  27  28
ENDBRANCH  26  27
ENDBRANCH  25  26
ENDBRANCH  24  25
ENDBRANCH  23  24
ENDBRANCH  22  23
ENDBRANCH  21  22
ENDBRANCH  20  21
ENDBRANCH  19  20
ENDBRANCH  18  19
ENDBRANCH   1  18
TORSDOF 28
ENDMDL
MODEL 2
REMARK VINA RESULT:    -3.807      2.048      4.789
REMARK INTER + INTRA:         -15.307
REMARK INTER:                  -9.953
REMARK INTRA:                  -5.354
REMARK UNBOUND:                -5.270
REMARK SMILES CCCCCCCCCCCCCCCCCCCCCCCCCCCCCC(=O)[O-]
REMARK SMILES IDX 16 1 17 2 18 3 19 4 20 5 21 6 22 7 23 8 24 9 25 10 26 11
REMARK SMILES IDX 27 12 28 13 29 14 30 15 31 16 32 17 15 18 14 19 13 20 12 21
REMARK SMILES IDX 11 22 10 23 9 24 8 25 7 26 6 27 5 28 4 29 3 30 2 31 1 32
REMARK H PARENT
REMARK Flexibility Score: inf
ROOT
ATOM      1  C   UNL     1      21.990  13.043 -18.483  1.00  0.00     0.000 C 
ENDROOT
BRANCH   1   2
ATOM      2  C   UNL     1      22.036  13.129 -16.946  1.00  0.00     0.000 C 
BRANCH   2   3
ATOM      3  C   UNL     1      21.175  14.251 -16.335  1.00  0.00     0.000 C 
BRANCH   3   4
ATOM      4  C   UNL     1      21.818  15.654 -16.353  1.00  0.00     0.000 C 
BRANCH   4   5
ATOM      5  C   UNL     1      20.933  16.766 -16.943  1.00  0.00     0.000 C 
BRANCH   5   6
ATOM      6  C   UNL     1      19.787  16.216 -17.810  1.00  0.00     0.000 C 
BRANCH   6   7
ATOM      7  C   UNL     1      19.791  16.795 -19.233  1.00  0.00     0.000 C 
BRANCH   7   8
ATOM      8  C   UNL     1      21.025  16.356 -20.043  1.00  0.00     0.000 C 
BRANCH   8   9
ATOM      9  C   UNL     1      21.098  17.035 -21.420  1.00  0.00     0.000 C 
BRANCH   9  10
ATOM     10  C   UNL     1      20.096  16.440 -22.425  1.00  0.00     0.000 C 
BRANCH  10  11
ATOM     11  C   UNL     1      19.180  17.505 -23.048  1.00  0.00     0.000 C 
BRANCH  11  12
ATOM     12  C   UNL     1      19.037  18.756 -22.169  1.00  0.00     0.000 C 
BRANCH  12  13
ATOM     13  C   UNL     1      17.664  18.785 -21.479  1.00  0.00     0.006 C 
BRANCH  13  14
ATOM     14  C   UNL     1      16.798  17.571 -21.847  1.00  0.00     0.053 C 
BRANCH  14  15
ATOM     15  C   UNL     1      15.484  17.980 -22.438  1.00  0.00     0.041 C 
ATOM     16  O   UNL     1      15.444  18.575 -23.548  1.00  0.00    -0.550 OA
ATOM     17  O   UNL     1      14.301  17.678 -21.777  1.00  0.00    -0.550 OA
ENDBRANCH  14  15
ENDBRANCH  13  14
ENDBRANCH  12  13
ENDBRANCH  11  12
ENDBRANCH  10  11
ENDBRANCH   9  10
ENDBRANCH   8   9
ENDBRANCH   7   8
ENDBRANCH   6   7
ENDBRANCH   5   6
ENDBRANCH   4   5
ENDBRANCH   3   4
ENDBRANCH   2   3
ENDBRANCH   1   2
BRANCH   1  18
ATOM     18  C   UNL     1      21.690  11.625 -19.017  1.00  0.00     0.000 C 
BRANCH  18  19
ATOM     19  C   UNL     1      20.500  11.601 -19.993  1.00  0.00     0.000 C 
BRANCH  19  20
ATOM     20  C   UNL     1      20.147  12.996 -20.531  1.00  0.00     0.000 C 
BRANCH  20  21
ATOM     21  C   UNL     1      18.712  13.420 -20.176  1.00  0.00     0.000 C 
BRANCH  21  22
ATOM     22  C   UNL     1      18.058  12.503 -19.128  1.00  0.00     0.000 C 
BRANCH  22  23
ATOM     23  C   UNL     1      17.947  13.146 -17.729  1.00  0.00     0.000 C 
BRANCH  23  24
ATOM     24  C   UNL     1      18.332  12.167 -16.606  1.00  0.00    -0.000 C 
BRANCH  24  25
ATOM     25  C   UNL     1      18.321  10.702 -17.068  1.00  0.00    -0.000 C 
BRANCH  25  26
ATOM     26  C   UNL     1      19.576   9.933 -16.628  1.00  0.00    -0.000 C 
BRANCH  26  27
ATOM     27  C   UNL     1      19.251   8.451 -16.390  1.00  0.00    -0.000 C 
BRANCH  27  28
ATOM     28  C   UNL     1      20.304   7.504 -16.990  1.00  0.00    -0.000 C 
BRANCH  28  29
ATOM     29  C   UNL     1      19.901   6.932 -18.366  1.00  0.00    -0.000 C 
BRANCH  29  30
ATOM     30  C   UNL     1      18.394   7.085 -18.635  1.00  0.00    -0.000 C 
BRANCH  30  31
ATOM     31  C   UNL     1      18.087   7.461 -20.091  1.00  0.00    -0.003 C 
ATOM     32  C   UNL     1      18.168   8.965 -20.345  1.00  0.00     0.004 C 
ENDBRANCH  30  31
ENDBRANCH  29  30
ENDBRANCH  28  29
ENDBRANCH  27  28
ENDBRANCH  26  27
ENDBRANCH  25  26
ENDBRANCH  24  25
ENDBRANCH  23  24
ENDBRANCH  22  23
ENDBRANCH  21  22
ENDBRANCH  20  21
ENDBRANCH  19  20
ENDBRANCH  18  19
ENDBRANCH   1  18
TORSDOF 28
ENDMDL
MODEL 3
REMARK VINA RESULT:    -3.726      4.214      8.926
REMARK INTER + INTRA:         -15.095
REMARK INTER:                  -8.906
REMARK INTRA:                  -6.189
REMARK UNBOUND:                -5.270
REMARK SMILES CCCCCCCCCCCCCCCCCCCCCCCCCCCCCC(=O)[O-]
REMARK SMILES IDX 16 1 17 2 18 3 19 4 20 5 21 6 22 7 23 8 24 9 25 10 26 11
REMARK SMILES IDX 27 12 28 13 29 14 30 15 31 16 32 17 15 18 14 19 13 20 12 21
REMARK SMILES IDX 11 22 10 23 9 24 8 25 7 26 6 27 5 28 4 29 3 30 2 31 1 32
REMARK H PARENT
REMARK Flexibility Score: inf
ROOT
ATOM      1  C   UNL     1      22.700  11.014 -18.796  1.00  0.00     0.000 C 
ENDROOT
BRANCH   1   2
ATOM      2  C   UNL     1      23.522   9.715 -18.888  1.00  0.00     0.000 C 
BRANCH   2   3
ATOM      3  C   UNL     1      22.720   8.423 -18.646  1.00  0.00     0.000 C 
BRANCH   3   4
ATOM      4  C   UNL     1      22.502   7.544 -19.896  1.00  0.00     0.000 C 
BRANCH   4   5
ATOM      5  C   UNL     1      21.570   8.148 -20.961  1.00  0.00     0.000 C 
BRANCH   5   6
ATOM      6  C   UNL     1      20.081   7.987 -20.607  1.00  0.00     0.000 C 
BRANCH   6   7
ATOM      7  C   UNL     1      19.425   9.314 -20.194  1.00  0.00     0.000 C 
BRANCH   7   8
ATOM      8  C   UNL     1      18.548   9.169 -18.936  1.00  0.00     0.000 C 
BRANCH   8   9
ATOM      9  C   UNL     1      19.360   9.279 -17.636  1.00  0.00     0.000 C 
BRANCH   9  10
ATOM     10  C   UNL     1      19.384   7.960 -16.843  1.00  0.00     0.000 C 
BRANCH  10  11
ATOM     11  C   UNL     1      18.481   6.882 -17.463  1.00  0.00     0.000 C 
BRANCH  11  12
ATOM     12  C   UNL     1      19.064   5.467 -17.331  1.00  0.00     0.000 C 
BRANCH  12  13
ATOM     13  C   UNL     1      20.407   5.358 -18.069  1.00  0.00     0.006 C 
BRANCH  13  14
ATOM     14  C   UNL     1      21.567   5.009 -17.127  1.00  0.00     0.053 C 
BRANCH  14  15
ATOM     15  C   UNL     1      22.540   4.065 -17.764  1.00  0.00     0.041 C 
ATOM     16  O   UNL     1      23.307   3.365 -17.049  1.00  0.00    -0.550 OA
ATOM     17  O   UNL     1      22.581   3.935 -19.145  1.00  0.00    -0.550 OA
ENDBRANCH  14  15
ENDBRANCH  13  14
ENDBRANCH  12  13
ENDBRANCH  11  12
ENDBRANCH  10  11
ENDBRANCH   9  10
ENDBRANCH   8   9
ENDBRANCH   7   8
ENDBRANCH   6   7
ENDBRANCH   5   6
ENDBRANCH   4   5
ENDBRANCH   3   4
ENDBRANCH   2   3
ENDBRANCH   1   2
BRANCH   1  18
ATOM     18  C   UNL     1      22.398  11.657 -20.167  1.00  0.00     0.000 C 
BRANCH  18  19
ATOM     19  C   UNL     1      21.127  12.526 -20.146  1.00  0.00     0.000 C 
BRANCH  19  20
ATOM     20  C   UNL     1      20.463  12.569 -18.762  1.00  0.00     0.000 C 
BRANCH  20  21
ATOM     21  C   UNL     1      19.018  13.093 -18.816  1.00  0.00     0.000 C 
BRANCH  21  22
ATOM     22  C   UNL     1      18.389  13.260 -17.422  1.00  0.00     0.000 C 
BRANCH  22  23
ATOM     23  C   UNL     1      19.304  12.784 -16.273  1.00  0.00     0.000 C 
BRANCH  23  24
ATOM     24  C   UNL     1      19.768  13.948 -15.378  1.00  0.00    -0.000 C 
BRANCH  24  25
ATOM     25  C   UNL     1      20.906  14.763 -16.009  1.00  0.00    -0.000 C 
BRANCH  25  26
ATOM     26  C   UNL     1      20.542  16.244 -16.196  1.00  0.00    -0.000 C 
BRANCH  26  27
ATOM     27  C   UNL     1      19.973  16.491 -17.601  1.00  0.00    -0.000 C 
BRANCH  27  28
ATOM     28  C   UNL     1      21.007  17.094 -18.567  1.00  0.00    -0.000 C 
BRANCH  28  29
ATOM     29  C   UNL     1      21.139  16.310 -19.891  1.00  0.00    -0.000 C 
BRANCH  29  30
ATOM     30  C   UNL     1      22.574  15.809 -20.123  1.00  0.00    -0.000 C 
BRANCH  30  31
ATOM     31  C   UNL     1      23.438  15.878 -18.856  1.00  0.00    -0.003 C 
ATOM     32  C   UNL     1      23.731  14.501 -18.262  1.00  0.00     0.004 C 
ENDBRANCH  30  31
ENDBRANCH  29  30
ENDBRANCH  28  29
ENDBRANCH  27  28
ENDBRANCH  26  27
ENDBRANCH  25  26
ENDBRANCH  24  25
ENDBRANCH  23  24
ENDBRANCH  22  23
ENDBRANCH  21  22
ENDBRANCH  20  21
ENDBRANCH  19  20
ENDBRANCH  18  19
ENDBRANCH   1  18
TORSDOF 28
ENDMDL
MODEL 4
REMARK VINA RESULT:    -3.712      2.329      6.828
REMARK INTER + INTRA:         -15.057
REMARK INTER:                  -9.258
REMARK INTRA:                  -5.799
REMARK UNBOUND:                -5.270
REMARK SMILES CCCCCCCCCCCCCCCCCCCCCCCCCCCCCC(=O)[O-]
REMARK SMILES IDX 16 1 17 2 18 3 19 4 20 5 21 6 22 7 23 8 24 9 25 10 26 11
REMARK SMILES IDX 27 12 28 13 29 14 30 15 31 16 32 17 15 18 14 19 13 20 12 21
REMARK SMILES IDX 11 22 10 23 9 24 8 25 7 26 6 27 5 28 4 29 3 30 2 31 1 32
REMARK H PARENT
REMARK Flexibility Score: inf
ROOT
ATOM      1  C   UNL     1      19.857   7.903 -17.201  1.00  0.00     0.000 C 
ENDROOT
BRANCH   1   2
ATOM      2  C   UNL     1      20.480   8.288 -18.557  1.00  0.00     0.000 C 
BRANCH   2   3
ATOM      3  C   UNL     1      22.013   8.166 -18.623  1.00  0.00     0.000 C 
BRANCH   3   4
ATOM      4  C   UNL     1      22.767   9.493 -18.860  1.00  0.00     0.000 C 
BRANCH   4   5
ATOM      5  C   UNL     1      21.997  10.539 -19.684  1.00  0.00     0.000 C 
BRANCH   5   6
ATOM      6  C   UNL     1      22.253  11.979 -19.205  1.00  0.00     0.000 C 
BRANCH   6   7
ATOM      7  C   UNL     1      22.540  12.058 -17.697  1.00  0.00     0.000 C 
BRANCH   7   8
ATOM      8  C   UNL     1      22.137  13.415 -17.092  1.00  0.00     0.000 C 
BRANCH   8   9
ATOM      9  C   UNL     1      20.977  13.292 -16.091  1.00  0.00     0.000 C 
BRANCH   9  10
ATOM     10  C   UNL     1      20.265  14.634 -15.846  1.00  0.00     0.000 C 
BRANCH  10  11
ATOM     11  C   UNL     1      21.093  15.838 -16.324  1.00  0.00     0.000 C 
BRANCH  11  12
ATOM     12  C   UNL     1      20.410  16.621 -17.455  1.00  0.00     0.000 C 
BRANCH  12  13
ATOM     13  C   UNL     1      21.447  17.374 -18.302  1.00  0.00     0.006 C 
BRANCH  13  14
ATOM     14  C   UNL     1      22.369  16.425 -19.080  1.00  0.00     0.053 C 
BRANCH  14  15
ATOM     15  C   UNL     1      23.815  16.689 -18.792  1.00  0.00     0.041 C 
ATOM     16  O   UNL     1      24.413  17.640 -19.363  1.00  0.00    -0.550 OA
ATOM     17  O   UNL     1      24.495  15.903 -17.872  1.00  0.00    -0.550 OA
ENDBRANCH  14  15
ENDBRANCH  13  14
ENDBRANCH  12  13
ENDBRANCH  11  12
ENDBRANCH  10  11
ENDBRANCH   9  10
ENDBRANCH   8   9
ENDBRANCH   7   8
ENDBRANCH   6   7
ENDBRANCH   5   6
ENDBRANCH   4   5
ENDBRANCH   3   4
ENDBRANCH   2   3
ENDBRANCH   1   2
BRANCH   1  18
ATOM     18  C   UNL     1      19.370   9.113 -16.375  1.00  0.00     0.000 C 
BRANCH  18  19
ATOM     19  C   UNL     1      19.184  10.378 -17.232  1.00  0.00     0.000 C 
BRANCH  19  20
ATOM     20  C   UNL     1      18.015  11.251 -16.752  1.00  0.00     0.000 C 
BRANCH  20  21
ATOM     21  C   UNL     1      17.607  12.314 -17.787  1.00  0.00     0.000 C 
BRANCH  21  22
ATOM     22  C   UNL     1      18.538  12.345 -19.011  1.00  0.00     0.000 C 
BRANCH  22  23
ATOM     23  C   UNL     1      19.199  13.720 -19.248  1.00  0.00     0.000 C 
BRANCH  23  24
ATOM     24  C   UNL     1      18.970  14.236 -20.681  1.00  0.00    -0.000 C 
BRANCH  24  25
ATOM     25  C   UNL     1      20.282  14.465 -21.445  1.00  0.00    -0.000 C 
BRANCH  25  26
ATOM     26  C   UNL     1      20.091  14.447 -22.969  1.00  0.00    -0.000 C 
BRANCH  26  27
ATOM     27  C   UNL     1      20.582  15.760 -23.595  1.00  0.00    -0.000 C 
BRANCH  27  28
ATOM     28  C   UNL     1      20.949  16.822 -22.546  1.00  0.00    -0.000 C 
BRANCH  28  29
ATOM     29  C   UNL     1      19.938  17.987 -22.473  1.00  0.00    -0.000 C 
BRANCH  29  30
ATOM     30  C   UNL     1      19.222  18.046 -21.113  1.00  0.00    -0.000 C 
BRANCH  30  31
ATOM     31  C   UNL     1      17.695  18.107 -21.249  1.00  0.00    -0.003 C 
ATOM     32  C   UNL     1      17.151  17.130 -22.290  1.00  0.00     0.004 C 
ENDBRANCH  30  31
ENDBRANCH  29  30
ENDBRANCH  28  29
ENDBRANCH  27  28
ENDBRANCH  26  27
ENDBRANCH  25  26
ENDBRANCH  24  25
ENDBRANCH  23  24
ENDBRANCH  22  23
ENDBRANCH  21  22
ENDBRANCH  20  21
ENDBRANCH  19  20
ENDBRANCH  18  19
ENDBRANCH   1  18
TORSDOF 28
ENDMDL
MODEL 5
REMARK VINA RESULT:    -3.711      4.485      9.176
REMARK INTER + INTRA:         -15.054
REMARK INTER:                  -9.554
REMARK INTRA:                  -5.500
REMARK UNBOUND:                -5.270
REMARK SMILES CCCCCCCCCCCCCCCCCCCCCCCCCCCCCC(=O)[O-]
REMARK SMILES IDX 16 1 17 2 18 3 19 4 20 5 21 6 22 7 23 8 24 9 25 10 26 11
REMARK SMILES IDX 27 12 28 13 29 14 30 15 31 16 32 17 15 18 14 19 13 20 12 21
REMARK SMILES IDX 11 22 10 23 9 24 8 25 7 26 6 27 5 28 4 29 3 30 2 31 1 32
REMARK H PARENT
REMARK Flexibility Score: inf
ROOT
ATOM      1  C   UNL     1      20.519  13.456 -19.852  1.00  0.00     0.000 C 
ENDROOT
BRANCH   1   2
ATOM      2  C   UNL     1      21.073  12.025 -19.996  1.00  0.00     0.000 C 
BRANCH   2   3
ATOM      3  C   UNL     1      22.490  11.821 -19.429  1.00  0.00     0.000 C 
BRANCH   3   4
ATOM      4  C   UNL     1      22.587  10.834 -18.246  1.00  0.00     0.000 C 
BRANCH   4   5
ATOM      5  C   UNL     1      22.371   9.356 -18.614  1.00  0.00     0.000 C 
BRANCH   5   6
ATOM      6  C   UNL     1      20.986   8.835 -18.192  1.00  0.00     0.000 C 
BRANCH   6   7
ATOM      7  C   UNL     1      20.169   8.300 -19.378  1.00  0.00     0.000 C 
BRANCH   7   8
ATOM      8  C   UNL     1      18.651   8.423 -19.150  1.00  0.00     0.000 C 
BRANCH   8   9
ATOM      9  C   UNL     1      17.960   7.055 -19.035  1.00  0.00     0.000 C 
BRANCH   9  10
ATOM     10  C   UNL     1      18.186   6.395 -17.663  1.00  0.00     0.000 C 
BRANCH  10  11
ATOM     11  C   UNL     1      19.063   5.135 -17.750  1.00  0.00     0.000 C 
BRANCH  11  12
ATOM     12  C   UNL     1      20.426   5.309 -17.064  1.00  0.00     0.000 C 
BRANCH  12  13
ATOM     13  C   UNL     1      21.572   5.117 -18.070  1.00  0.00     0.006 C 
BRANCH  13  14
ATOM     14  C   UNL     1      21.208   4.138 -19.193  1.00  0.00     0.053 C 
BRANCH  14  15
ATOM     15  C   UNL     1      21.648   2.740 -18.882  1.00  0.00     0.041 C 
ATOM     16  O   UNL     1      20.863   1.771 -19.063  1.00  0.00    -0.550 OA
ATOM     17  O   UNL     1      22.936   2.504 -18.418  1.00  0.00    -0.550 OA
ENDBRANCH  14  15
ENDBRANCH  13  14
ENDBRANCH  12  13
ENDBRANCH  11  12
ENDBRANCH  10  11
ENDBRANCH   9  10
ENDBRANCH   8   9
ENDBRANCH   7   8
ENDBRANCH   6   7
ENDBRANCH   5   6
ENDBRANCH   4   5
ENDBRANCH   3   4
ENDBRANCH   2   3
ENDBRANCH   1   2
BRANCH   1  18
ATOM     18  C   UNL     1      19.019  13.508 -19.490  1.00  0.00     0.000 C 
BRANCH  18  19
ATOM     19  C   UNL     1      18.251  12.263 -19.970  1.00  0.00     0.000 C 
BRANCH  19  20
ATOM     20  C   UNL     1      17.231  11.762 -18.936  1.00  0.00     0.000 C 
BRANCH  20  21
ATOM     21  C   UNL     1      17.588  12.183 -17.501  1.00  0.00     0.000 C 
BRANCH  21  22
ATOM     22  C   UNL     1      18.609  11.242 -16.837  1.00  0.00     0.000 C 
BRANCH  22  23
ATOM     23  C   UNL     1      19.776  11.985 -16.152  1.00  0.00     0.000 C 
BRANCH  23  24
ATOM     24  C   UNL     1      19.317  13.287 -15.470  1.00  0.00    -0.000 C 
BRANCH  24  25
ATOM     25  C   UNL     1      20.255  14.469 -15.758  1.00  0.00    -0.000 C 
BRANCH  25  26
ATOM     26  C   UNL     1      21.549  14.040 -16.466  1.00  0.00    -0.000 C 
BRANCH  26  27
ATOM     27  C   UNL     1      22.257  15.253 -17.088  1.00  0.00    -0.000 C 
BRANCH  27  28
ATOM     28  C   UNL     1      21.318  16.454 -17.291  1.00  0.00    -0.000 C 
BRANCH  28  29
ATOM     29  C   UNL     1      21.279  16.961 -18.750  1.00  0.00    -0.000 C 
BRANCH  29  30
ATOM     30  C   UNL     1      19.840  17.111 -19.270  1.00  0.00    -0.000 C 
BRANCH  30  31
ATOM     31  C   UNL     1      19.757  17.084 -20.802  1.00  0.00    -0.003 C 
ATOM     32  C   UNL     1      21.124  16.927 -21.467  1.00  0.00     0.004 C 
ENDBRANCH  30  31
ENDBRANCH  29  30
ENDBRANCH  28  29
ENDBRANCH  27  28
ENDBRANCH  26  27
ENDBRANCH  25  26
ENDBRANCH  24  25
ENDBRANCH  23  24
ENDBRANCH  22  23
ENDBRANCH  21  22
ENDBRANCH  20  21
ENDBRANCH  19  20
ENDBRANCH  18  19
ENDBRANCH   1  18
TORSDOF 28
ENDMDL
MODEL 6
REMARK VINA RESULT:    -3.704      3.445      8.652
REMARK INTER + INTRA:         -15.036
REMARK INTER:                  -9.024
REMARK INTRA:                  -6.011
REMARK UNBOUND:                -5.270
REMARK SMILES CCCCCCCCCCCCCCCCCCCCCCCCCCCCCC(=O)[O-]
REMARK SMILES IDX 16 1 17 2 18 3 19 4 20 5 21 6 22 7 23 8 24 9 25 10 26 11
REMARK SMILES IDX 27 12 28 13 29 14 30 15 31 16 32 17 15 18 14 19 13 20 12 21
REMARK SMILES IDX 11 22 10 23 9 24 8 25 7 26 6 27 5 28 4 29 3 30 2 31 1 32
REMARK H PARENT
REMARK Flexibility Score: inf
ROOT
ATOM      1  C   UNL     1      23.187  13.856 -18.113  1.00  0.00     0.000 C 
ENDROOT
BRANCH   1   2
ATOM      2  C   UNL     1      22.737  12.498 -17.540  1.00  0.00     0.000 C 
BRANCH   2   3
ATOM      3  C   UNL     1      22.529  11.390 -18.588  1.00  0.00     0.000 C 
BRANCH   3   4
ATOM      4  C   UNL     1      22.056  11.879 -19.974  1.00  0.00     0.000 C 
BRANCH   4   5
ATOM      5  C   UNL     1      21.000  10.988 -20.651  1.00  0.00     0.000 C 
BRANCH   5   6
ATOM      6  C   UNL     1      19.627  11.674 -20.763  1.00  0.00     0.000 C 
BRANCH   6   7
ATOM      7  C   UNL     1      19.550  12.978 -19.956  1.00  0.00     0.000 C 
BRANCH   7   8
ATOM      8  C   UNL     1      18.252  13.085 -19.134  1.00  0.00     0.000 C 
BRANCH   8   9
ATOM      9  C   UNL     1      18.520  13.295 -17.635  1.00  0.00     0.000 C 
BRANCH   9  10
ATOM     10  C   UNL     1      18.219  12.037 -16.801  1.00  0.00     0.000 C 
BRANCH  10  11
ATOM     11  C   UNL     1      19.485  11.232 -16.469  1.00  0.00     0.000 C 
BRANCH  11  12
ATOM     12  C   UNL     1      19.309   9.723 -16.698  1.00  0.00     0.000 C 
BRANCH  12  13
ATOM     13  C   UNL     1      18.722   9.447 -18.091  1.00  0.00     0.006 C 
BRANCH  13  14
ATOM     14  C   UNL     1      19.338   8.206 -18.751  1.00  0.00     0.053 C 
BRANCH  14  15
ATOM     15  C   UNL     1      20.457   7.636 -17.935  1.00  0.00     0.041 C 
ATOM     16  O   UNL     1      20.225   6.751 -17.068  1.00  0.00    -0.550 OA
ATOM     17  O   UNL     1      21.761   8.060 -18.151  1.00  0.00    -0.550 OA
ENDBRANCH  14  15
ENDBRANCH  13  14
ENDBRANCH  12  13
ENDBRANCH  11  12
ENDBRANCH  10  11
ENDBRANCH   9  10
ENDBRANCH   8   9
ENDBRANCH   7   8
ENDBRANCH   6   7
ENDBRANCH   5   6
ENDBRANCH   4   5
ENDBRANCH   3   4
ENDBRANCH   2   3
ENDBRANCH   1   2
BRANCH   1  18
ATOM     18  C   UNL     1      22.853  15.057 -17.202  1.00  0.00     0.000 C 
BRANCH  18  19
ATOM     19  C   UNL     1      21.627  14.798 -16.307  1.00  0.00     0.000 C 
BRANCH  19  20
ATOM     20  C   UNL     1      20.645  15.979 -16.292  1.00  0.00     0.000 C 
BRANCH  20  21
ATOM     21  C   UNL     1      20.830  16.916 -17.498  1.00  0.00     0.000 C 
BRANCH  21  22
ATOM     22  C   UNL     1      19.659  16.848 -18.493  1.00  0.00     0.000 C 
BRANCH  22  23
ATOM     23  C   UNL     1      20.072  16.363 -19.899  1.00  0.00     0.000 C 
BRANCH  23  24
ATOM     24  C   UNL     1      21.552  16.660 -20.205  1.00  0.00    -0.000 C 
BRANCH  24  25
ATOM     25  C   UNL     1      22.194  15.600 -21.113  1.00  0.00    -0.000 C 
BRANCH  25  26
ATOM     26  C   UNL     1      21.291  15.201 -22.289  1.00  0.00    -0.000 C 
BRANCH  26  27
ATOM     27  C   UNL     1      21.554  16.100 -23.507  1.00  0.00    -0.000 C 
BRANCH  27  28
ATOM     28  C   UNL     1      20.365  17.016 -23.842  1.00  0.00    -0.000 C 
BRANCH  28  29
ATOM     29  C   UNL     1      20.542  18.462 -23.329  1.00  0.00    -0.000 C 
BRANCH  29  30
ATOM     30  C   UNL     1      19.370  18.905 -22.438  1.00  0.00    -0.000 C 
BRANCH  30  31
ATOM     31  C   UNL     1      18.126  18.023 -22.614  1.00  0.00    -0.003 C 
ATOM     32  C   UNL     1      17.073  18.259 -21.532  1.00  0.00     0.004 C 
ENDBRANCH  30  31
ENDBRANCH  29  30
ENDBRANCH  28  29
ENDBRANCH  27  28
ENDBRANCH  26  27
ENDBRANCH  25  26
ENDBRANCH  24  25
ENDBRANCH  23  24
ENDBRANCH  22  23
ENDBRANCH  21  22
ENDBRANCH  20  21
ENDBRANCH  19  20
ENDBRANCH  18  19
ENDBRANCH   1  18
TORSDOF 28
ENDMDL
MODEL 7
REMARK VINA RESULT:    -3.703      3.731      8.506
REMARK INTER + INTRA:         -15.034
REMARK INTER:                  -8.671
REMARK INTRA:                  -6.362
REMARK UNBOUND:                -5.270
REMARK SMILES CCCCCCCCCCCCCCCCCCCCCCCCCCCCCC(=O)[O-]
REMARK SMILES IDX 16 1 17 2 18 3 19 4 20 5 21 6 22 7 23 8 24 9 25 10 26 11
REMARK SMILES IDX 27 12 28 13 29 14 30 15 31 16 32 17 15 18 14 19 13 20 12 21
REMARK SMILES IDX 11 22 10 23 9 24 8 25 7 26 6 27 5 28 4 29 3 30 2 31 1 32
REMARK H PARENT
REMARK Flexibility Score: inf
ROOT
ATOM      1  C   UNL     1      20.304  12.458 -20.234  1.00  0.00     0.000 C 
ENDROOT
BRANCH   1   2
ATOM      2  C   UNL     1      21.646  12.515 -19.480  1.00  0.00     0.000 C 
BRANCH   2   3
ATOM      3  C   UNL     1      22.453  13.809 -19.693  1.00  0.00     0.000 C 
BRANCH   3   4
ATOM      4  C   UNL     1      23.340  14.232 -18.503  1.00  0.00     0.000 C 
BRANCH   4   5
ATOM      5  C   UNL     1      23.448  15.751 -18.281  1.00  0.00     0.000 C 
BRANCH   5   6
ATOM      6  C   UNL     1      22.407  16.545 -19.090  1.00  0.00     0.000 C 
BRANCH   6   7
ATOM      7  C   UNL     1      21.374  17.247 -18.195  1.00  0.00     0.000 C 
BRANCH   7   8
ATOM      8  C   UNL     1      20.320  16.272 -17.638  1.00  0.00     0.000 C 
BRANCH   8   9
ATOM      9  C   UNL     1      20.550  15.940 -16.155  1.00  0.00     0.000 C 
BRANCH   9  10
ATOM     10  C   UNL     1      20.802  14.440 -15.920  1.00  0.00     0.000 C 
BRANCH  10  11
ATOM     11  C   UNL     1      19.519  13.601 -16.030  1.00  0.00     0.000 C 
BRANCH  11  12
ATOM     12  C   UNL     1      19.797  12.125 -16.348  1.00  0.00     0.000 C 
BRANCH  12  13
ATOM     13  C   UNL     1      18.495  11.385 -16.691  1.00  0.00     0.006 C 
BRANCH  13  14
ATOM     14  C   UNL     1      18.724  10.210 -17.652  1.00  0.00     0.053 C 
BRANCH  14  15
ATOM     15  C   UNL     1      19.734   9.241 -17.120  1.00  0.00     0.041 C 
ATOM     16  O   UNL     1      19.502   8.599 -16.060  1.00  0.00    -0.550 OA
ATOM     17  O   UNL     1      20.921   9.025 -17.808  1.00  0.00    -0.550 OA
ENDBRANCH  14  15
ENDBRANCH  13  14
ENDBRANCH  12  13
ENDBRANCH  11  12
ENDBRANCH  10  11
ENDBRANCH   9  10
ENDBRANCH   8   9
ENDBRANCH   7   8
ENDBRANCH   6   7
ENDBRANCH   5   6
ENDBRANCH   4   5
ENDBRANCH   3   4
ENDBRANCH   2   3
ENDBRANCH   1   2
BRANCH   1  18
ATOM     18  C   UNL     1      19.277  13.506 -19.756  1.00  0.00     0.000 C 
BRANCH  18  19
ATOM     19  C   UNL     1      18.970  14.566 -20.830  1.00  0.00     0.000 C 
BRANCH  19  20
ATOM     20  C   UNL     1      19.282  14.076 -22.252  1.00  0.00     0.000 C 
BRANCH  20  21
ATOM     21  C   UNL     1      19.952  15.156 -23.116  1.00  0.00     0.000 C 
BRANCH  21  22
ATOM     22  C   UNL     1      20.722  16.196 -22.284  1.00  0.00     0.000 C 
BRANCH  22  23
ATOM     23  C   UNL     1      20.189  17.635 -22.449  1.00  0.00     0.000 C 
BRANCH  23  24
ATOM     24  C   UNL     1      19.375  18.097 -21.227  1.00  0.00    -0.000 C 
BRANCH  24  25
ATOM     25  C   UNL     1      18.003  18.673 -21.612  1.00  0.00    -0.000 C 
BRANCH  25  26
ATOM     26  C   UNL     1      17.279  17.825 -22.668  1.00  0.00    -0.000 C 
BRANCH  26  27
ATOM     27  C   UNL     1      16.185  16.965 -22.019  1.00  0.00    -0.000 C 
BRANCH  27  28
ATOM     28  C   UNL     1      15.985  15.616 -22.730  1.00  0.00    -0.000 C 
BRANCH  28  29
ATOM     29  C   UNL     1      15.300  14.552 -21.844  1.00  0.00    -0.000 C 
BRANCH  29  30
ATOM     30  C   UNL     1      15.574  13.123 -22.342  1.00  0.00    -0.000 C 
BRANCH  30  31
ATOM     31  C   UNL     1      16.174  12.221 -21.255  1.00  0.00    -0.003 C 
ATOM     32  C   UNL     1      15.634  12.533 -19.860  1.00  0.00     0.004 C 
ENDBRANCH  30  31
ENDBRANCH  29  30
ENDBRANCH  28  29
ENDBRANCH  27  28
ENDBRANCH  26  27
ENDBRANCH  25  26
ENDBRANCH  24  25
ENDBRANCH  23  24
ENDBRANCH  22  23
ENDBRANCH  21  22
ENDBRANCH  20  21
ENDBRANCH  19  20
ENDBRANCH  18  19
ENDBRANCH   1  18
TORSDOF 28
ENDMDL
MODEL 8
REMARK VINA RESULT:    -3.679      3.133      7.763
REMARK INTER + INTRA:         -14.970
REMARK INTER:                  -8.978
REMARK INTRA:                  -5.992
REMARK UNBOUND:                -5.270
REMARK SMILES CCCCCCCCCCCCCCCCCCCCCCCCCCCCCC(=O)[O-]
REMARK SMILES IDX 16 1 17 2 18 3 19 4 20 5 21 6 22 7 23 8 24 9 25 10 26 11
REMARK SMILES IDX 27 12 28 13 29 14 30 15 31 16 32 17 15 18 14 19 13 20 12 21
REMARK SMILES IDX 11 22 10 23 9 24 8 25 7 26 6 27 5 28 4 29 3 30 2 31 1 32
REMARK H PARENT
REMARK Flexibility Score: inf
ROOT
ATOM      1  C   UNL     1      18.195  11.155 -16.998  1.00  0.00     0.000 C 
ENDROOT
BRANCH   1   2
ATOM      2  C   UNL     1      19.430  10.260 -16.778  1.00  0.00     0.000 C 
BRANCH   2   3
ATOM      3  C   UNL     1      19.114   8.814 -16.353  1.00  0.00     0.000 C 
BRANCH   3   4
ATOM      4  C   UNL     1      19.671   7.720 -17.288  1.00  0.00     0.000 C 
BRANCH   4   5
ATOM      5  C   UNL     1      18.719   7.281 -18.414  1.00  0.00     0.000 C 
BRANCH   5   6
ATOM      6  C   UNL     1      19.344   7.430 -19.812  1.00  0.00     0.000 C 
BRANCH   6   7
ATOM      7  C   UNL     1      19.659   8.891 -20.167  1.00  0.00     0.000 C 
BRANCH   7   8
ATOM      8  C   UNL     1      18.389   9.711 -20.463  1.00  0.00     0.000 C 
BRANCH   8   9
ATOM      9  C   UNL     1      18.655  11.225 -20.480  1.00  0.00     0.000 C 
BRANCH   9  10
ATOM     10  C   UNL     1      20.144  11.562 -20.287  1.00  0.00     0.000 C 
BRANCH  10  11
ATOM     11  C   UNL     1      20.358  12.937 -19.633  1.00  0.00     0.000 C 
BRANCH  11  12
ATOM     12  C   UNL     1      21.830  13.210 -19.286  1.00  0.00     0.000 C 
BRANCH  12  13
ATOM     13  C   UNL     1      22.239  12.460 -18.009  1.00  0.00     0.006 C 
BRANCH  13  14
ATOM     14  C   UNL     1      23.686  11.954 -18.065  1.00  0.00     0.053 C 
BRANCH  14  15
ATOM     15  C   UNL     1      23.755  10.458 -18.097  1.00  0.00     0.041 C 
ATOM     16  O   UNL     1      24.704   9.853 -17.529  1.00  0.00    -0.550 OA
ATOM     17  O   UNL     1      22.757   9.729 -18.729  1.00  0.00    -0.550 OA
ENDBRANCH  14  15
ENDBRANCH  13  14
ENDBRANCH  12  13
ENDBRANCH  11  12
ENDBRANCH  10  11
ENDBRANCH   9  10
ENDBRANCH   8   9
ENDBRANCH   7   8
ENDBRANCH   6   7
ENDBRANCH   5   6
ENDBRANCH   4   5
ENDBRANCH   3   4
ENDBRANCH   2   3
ENDBRANCH   1   2
BRANCH   1  18
ATOM     18  C   UNL     1      18.438  12.643 -16.664  1.00  0.00     0.000 C 
BRANCH  18  19
ATOM     19  C   UNL     1      19.500  12.836 -15.565  1.00  0.00     0.000 C 
BRANCH  19  20
ATOM     20  C   UNL     1      19.877  14.311 -15.361  1.00  0.00     0.000 C 
BRANCH  20  21
ATOM     21  C   UNL     1      19.930  15.096 -16.682  1.00  0.00     0.000 C 
BRANCH  21  22
ATOM     22  C   UNL     1      21.054  16.147 -16.710  1.00  0.00     0.000 C 
BRANCH  22  23
ATOM     23  C   UNL     1      20.994  17.081 -17.937  1.00  0.00     0.000 C 
BRANCH  23  24
ATOM     24  C   UNL     1      19.908  16.655 -18.941  1.00  0.00    -0.000 C 
BRANCH  24  25
ATOM     25  C   UNL     1      20.145  17.221 -20.348  1.00  0.00    -0.000 C 
BRANCH  25  26
ATOM     26  C   UNL     1      20.164  16.132 -21.431  1.00  0.00    -0.000 C 
BRANCH  26  27
ATOM     27  C   UNL     1      21.606  15.806 -21.850  1.00  0.00    -0.000 C 
BRANCH  27  28
ATOM     28  C   UNL     1      22.394  17.048 -22.295  1.00  0.00    -0.000 C 
BRANCH  28  29
ATOM     29  C   UNL     1      23.723  17.237 -21.532  1.00  0.00    -0.000 C 
BRANCH  29  30
ATOM     30  C   UNL     1      23.945  16.136 -20.481  1.00  0.00    -0.000 C 
BRANCH  30  31
ATOM     31  C   UNL     1      24.433  16.692 -19.135  1.00  0.00    -0.003 C 
ATOM     32  C   UNL     1      24.463  15.634 -18.032  1.00  0.00     0.004 C 
ENDBRANCH  30  31
ENDBRANCH  29  30
ENDBRANCH  28  29
ENDBRANCH  27  28
ENDBRANCH  26  27
ENDBRANCH  25  26
ENDBRANCH  24  25
ENDBRANCH  23  24
ENDBRANCH  22  23
ENDBRANCH  21  22
ENDBRANCH  20  21
ENDBRANCH  19  20
ENDBRANCH  18  19
ENDBRANCH   1  18
TORSDOF 28
ENDMDL
MODEL 9
REMARK VINA RESULT:    -3.646      2.475      5.962
REMARK INTER + INTRA:         -14.884
REMARK INTER:                  -9.262
REMARK INTRA:                  -5.621
REMARK UNBOUND:                -5.270
REMARK SMILES CCCCCCCCCCCCCCCCCCCCCCCCCCCCCC(=O)[O-]
REMARK SMILES IDX 16 1 17 2 18 3 19 4 20 5 21 6 22 7 23 8 24 9 25 10 26 11
REMARK SMILES IDX 27 12 28 13 29 14 30 15 31 16 32 17 15 18 14 19 13 20 12 21
REMARK SMILES IDX 11 22 10 23 9 24 8 25 7 26 6 27 5 28 4 29 3 30 2 31 1 32
REMARK H PARENT
REMARK Flexibility Score: inf
ROOT
ATOM      1  C   UNL     1      21.677  15.441 -16.387  1.00  0.00     0.000 C 
ENDROOT
BRANCH   1   2
ATOM      2  C   UNL     1      20.613  16.480 -16.787  1.00  0.00     0.000 C 
BRANCH   2   3
ATOM      3  C   UNL     1      21.036  17.437 -17.917  1.00  0.00     0.000 C 
BRANCH   3   4
ATOM      4  C   UNL     1      20.958  16.845 -19.341  1.00  0.00     0.000 C 
BRANCH   4   5
ATOM      5  C   UNL     1      22.318  16.545 -19.995  1.00  0.00     0.000 C 
BRANCH   5   6
ATOM      6  C   UNL     1      22.198  16.229 -21.496  1.00  0.00     0.000 C 
BRANCH   6   7
ATOM      7  C   UNL     1      22.925  17.256 -22.377  1.00  0.00     0.000 C 
BRANCH   7   8
ATOM      8  C   UNL     1      21.987  17.919 -23.403  1.00  0.00     0.000 C 
BRANCH   8   9
ATOM      9  C   UNL     1      20.582  18.178 -22.835  1.00  0.00     0.000 C 
BRANCH   9  10
ATOM     10  C   UNL     1      19.509  18.267 -23.934  1.00  0.00     0.000 C 
BRANCH  10  11
ATOM     11  C   UNL     1      18.721  16.958 -24.098  1.00  0.00     0.000 C 
BRANCH  11  12
ATOM     12  C   UNL     1      18.818  16.045 -22.867  1.00  0.00     0.000 C 
BRANCH  12  13
ATOM     13  C   UNL     1      17.562  16.173 -21.992  1.00  0.00     0.006 C 
BRANCH  13  14
ATOM     14  C   UNL     1      16.463  17.010 -22.662  1.00  0.00     0.053 C 
BRANCH  14  15
ATOM     15  C   UNL     1      16.237  18.308 -21.950  1.00  0.00     0.041 C 
ATOM     16  O   UNL     1      15.086  18.822 -21.915  1.00  0.00    -0.550 OA
ATOM     17  O   UNL     1      17.290  18.937 -21.299  1.00  0.00    -0.550 OA
ENDBRANCH  14  15
ENDBRANCH  13  14
ENDBRANCH  12  13
ENDBRANCH  11  12
ENDBRANCH  10  11
ENDBRANCH   9  10
ENDBRANCH   8   9
ENDBRANCH   7   8
ENDBRANCH   6   7
ENDBRANCH   5   6
ENDBRANCH   4   5
ENDBRANCH   3   4
ENDBRANCH   2   3
ENDBRANCH   1   2
BRANCH   1  18
ATOM     18  C   UNL     1      21.106  14.026 -16.152  1.00  0.00     0.000 C 
BRANCH  18  19
ATOM     19  C   UNL     1      21.874  12.942 -16.931  1.00  0.00     0.000 C 
BRANCH  19  20
ATOM     20  C   UNL     1      22.894  13.532 -17.916  1.00  0.00     0.000 C 
BRANCH  20  21
ATOM     21  C   UNL     1      22.668  13.050 -19.359  1.00  0.00     0.000 C 
BRANCH  21  22
ATOM     22  C   UNL     1      21.309  12.357 -19.553  1.00  0.00     0.000 C 
BRANCH  22  23
ATOM     23  C   UNL     1      20.330  13.157 -20.440  1.00  0.00     0.000 C 
BRANCH  23  24
ATOM     24  C   UNL     1      19.229  13.847 -19.615  1.00  0.00    -0.000 C 
BRANCH  24  25
ATOM     25  C   UNL     1      18.216  12.852 -19.028  1.00  0.00    -0.000 C 
BRANCH  25  26
ATOM     26  C   UNL     1      18.030  13.020 -17.513  1.00  0.00    -0.000 C 
BRANCH  26  27
ATOM     27  C   UNL     1      17.753  11.665 -16.845  1.00  0.00    -0.000 C 
BRANCH  27  28
ATOM     28  C   UNL     1      19.032  10.969 -16.352  1.00  0.00    -0.000 C 
BRANCH  28  29
ATOM     29  C   UNL     1      19.149   9.501 -16.819  1.00  0.00    -0.000 C 
BRANCH  29  30
ATOM     30  C   UNL     1      19.865   9.382 -18.175  1.00  0.00    -0.000 C 
BRANCH  30  31
ATOM     31  C   UNL     1      18.888   9.251 -19.351  1.00  0.00    -0.003 C 
ATOM     32  C   UNL     1      19.595   9.171 -20.704  1.00  0.00     0.004 C 
ENDBRANCH  30  31
ENDBRANCH  29  30
ENDBRANCH  28  29
ENDBRANCH  27  28
ENDBRANCH  26  27
ENDBRANCH  25  26
ENDBRANCH  24  25
ENDBRANCH  23  24
ENDBRANCH  22  23
ENDBRANCH  21  22
ENDBRANCH  20  21
ENDBRANCH  19  20
ENDBRANCH  18  19
ENDBRANCH   1  18
TORSDOF 28
ENDMDL
