MODEL 1
REMARK VINA RESULT:    -6.329      0.000      0.000
REMARK INTER + INTRA:         -12.909
REMARK INTER:                 -11.139
REMARK INTRA:                  -1.771
REMARK UNBOUND:                -1.771
REMARK SMILES COc1cc(-c2[o+]c3cc(O)cc(O[C@H]4O[C@@H](CO)[C@@H](O)[C@@H](O)[C@H]4O)c3cc2O[C@@H]2O[C@H](CO)[C@@H](O)[C@@H](O)[C@H]2O)ccc1O
REMARK SMILES IDX 6 1 28 2 27 3 26 4 13 5 12 6 10 7 9 8 8 9 7 10 5 11 3 12
REMARK SMILES IDX 43 13 4 14 42 15 41 16 2 17 1 18 44 19 29 21 30 22 39 23
REMARK SMILES IDX 31 24 37 25 32 26 35 27 40 28 38 30 33 32 34 33 36 35 14 37
REMARK SMILES IDX 15 38 24 39 16 40 22 41 17 42 20 43 25 44 23 46 18 48 19 49
REMARK SMILES IDX 21 51 11 53
REMARK H PARENT 44 20 40 29 38 31 34 34 36 36 25 45 23 47 19 50 21 52 11 54
REMARK Flexibility Score: inf
ROOT
ATOM      1  C   UNL     1      -4.579   4.841  16.288  1.00  0.00     0.402 A 
ATOM      2  C   UNL     1      -3.762   4.894  15.135  1.00  0.00     0.229 A 
ATOM      3  C   UNL     1      -2.791   3.882  14.989  1.00  0.00     0.079 A 
ATOM      4  C   UNL     1      -2.508   3.123  16.114  1.00  0.00     0.126 A 
ATOM      5  C   UNL     1      -1.264   3.130  16.716  1.00  0.00     0.143 A 
ATOM      6  C   UNL     1      -0.991   2.236  17.771  1.00  0.00     0.094 A 
ATOM      7  C   UNL     1      -2.079   1.496  18.288  1.00  0.00     0.128 A 
ATOM      8  C   UNL     1      -3.406   1.828  17.934  1.00  0.00     0.162 A 
ATOM      9  C   UNL     1      -3.580   2.845  16.970  1.00  0.00     0.368 A 
ATOM     10  O   UNL     1      -4.595   3.711  17.033  1.00  0.00    -0.202 OA
ENDROOT
BRANCH   1  11
ATOM     11  C   UNL     1      -5.103   6.052  16.926  1.00  0.00     0.087 A 
ATOM     12  C   UNL     1      -6.057   8.304  16.903  1.00  0.00     0.161 A 
ATOM     13  C   UNL     1      -6.778   8.007  18.096  1.00  0.00     0.157 A 
ATOM     14  C   UNL     1      -5.281   7.293  16.300  1.00  0.00     0.068 A 
ATOM     15  C   UNL     1      -6.593   6.760  18.710  1.00  0.00     0.051 A 
ATOM     16  C   UNL     1      -5.758   5.787  18.137  1.00  0.00     0.022 A 
BRANCH  12  17
ATOM     17  O   UNL     1      -6.088   9.553  16.258  1.00  0.00    -0.493 OA
ATOM     18  C   UNL     1      -5.240  10.010  15.221  1.00  0.00     0.278 C 
ENDBRANCH  12  17
BRANCH  13  19
ATOM     19  O   UNL     1      -7.677   8.900  18.694  1.00  0.00    -0.504 OA
ATOM     20  H   UNL     1      -7.396   9.830  18.933  1.00  0.00     0.293 HD
ENDBRANCH  13  19
ENDBRANCH   1  11
BRANCH   2  21
ATOM     21  O   UNL     1      -3.849   5.932  14.203  1.00  0.00    -0.452 OA
BRANCH  21  22
ATOM     22  C   UNL     1      -4.991   6.146  13.343  1.00  0.00     0.339 C 
ATOM     23  C   UNL     1      -4.549   5.999  11.868  1.00  0.00     0.214 C 
ATOM     24  O   UNL     1      -6.026   5.231  13.656  1.00  0.00    -0.332 OA
ATOM     25  C   UNL     1      -5.747   6.016  10.891  1.00  0.00     0.180 C 
ATOM     26  C   UNL     1      -7.179   5.508  12.884  1.00  0.00     0.179 C 
ATOM     27  C   UNL     1      -6.921   5.127  11.410  1.00  0.00     0.177 C 
BRANCH  23  28
ATOM     28  O   UNL     1      -3.603   6.971  11.527  1.00  0.00    -0.384 OA
ATOM     29  H   UNL     1      -3.826   7.796  12.040  1.00  0.00     0.211 HD
ENDBRANCH  23  28
BRANCH  25  30
ATOM     30  O   UNL     1      -6.157   7.347  10.631  1.00  0.00    -0.387 OA
ATOM     31  H   UNL     1      -6.618   7.674  11.442  1.00  0.00     0.211 HD
ENDBRANCH  25  30
BRANCH  26  32
ATOM     32  C   UNL     1      -8.379   4.769  13.488  1.00  0.00     0.191 C 
BRANCH  32  33
ATOM     33  O   UNL     1      -8.325   3.401  13.143  1.00  0.00    -0.394 OA
ATOM     34  H   UNL     1      -9.193   3.198  12.708  1.00  0.00     0.210 HD
ENDBRANCH  32  33
ENDBRANCH  26  32
BRANCH  27  35
ATOM     35  O   UNL     1      -8.111   5.381  10.702  1.00  0.00    -0.387 OA
ATOM     36  H   UNL     1      -8.699   5.799  11.371  1.00  0.00     0.211 HD
ENDBRANCH  27  35
ENDBRANCH  21  22
ENDBRANCH   2  21
BRANCH   5  37
ATOM     37  O   UNL     1      -0.479   4.266  16.506  1.00  0.00    -0.461 OA
BRANCH  37  38
ATOM     38  C   UNL     1      -0.539   5.528  17.143  1.00  0.00     0.339 C 
ATOM     39  C   UNL     1       0.220   6.640  16.354  1.00  0.00     0.214 C 
ATOM     40  O   UNL     1      -0.009   5.394  18.469  1.00  0.00    -0.332 OA
ATOM     41  C   UNL     1       0.058   7.972  17.112  1.00  0.00     0.180 C 
ATOM     42  C   UNL     1      -0.333   6.591  19.204  1.00  0.00     0.179 C 
ATOM     43  C   UNL     1       0.433   7.795  18.616  1.00  0.00     0.177 C 
BRANCH  39  44
ATOM     44  O   UNL     1       1.590   6.309  16.212  1.00  0.00    -0.384 OA
ATOM     45  H   UNL     1       1.990   6.226  17.131  1.00  0.00     0.211 HD
ENDBRANCH  39  44
BRANCH  41  46
ATOM     46  O   UNL     1       0.820   9.005  16.521  1.00  0.00    -0.387 OA
ATOM     47  H   UNL     1       0.491   9.877  16.884  1.00  0.00     0.211 HD
ENDBRANCH  41  46
BRANCH  42  48
ATOM     48  C   UNL     1      -0.060   6.387  20.684  1.00  0.00     0.191 C 
BRANCH  48  49
ATOM     49  O   UNL     1       0.442   7.583  21.249  1.00  0.00    -0.394 OA
ATOM     50  H   UNL     1       1.390   7.718  20.954  1.00  0.00     0.210 HD
ENDBRANCH  48  49
ENDBRANCH  42  48
BRANCH  43  51
ATOM     51  O   UNL     1       1.818   7.590  18.796  1.00  0.00    -0.387 OA
ATOM     52  H   UNL     1       2.283   7.948  18.014  1.00  0.00     0.211 HD
ENDBRANCH  43  51
ENDBRANCH  37  38
ENDBRANCH   5  37
BRANCH   7  53
ATOM     53  O   UNL     1      -1.855   0.463  19.194  1.00  0.00    -0.507 OA
ATOM     54  H   UNL     1      -1.981  -0.526  18.932  1.00  0.00     0.293 HD
ENDBRANCH   7  53
TORSDOF 18
ENDMDL
MODEL 2
REMARK VINA RESULT:    -5.986      1.618      2.876
REMARK INTER + INTRA:         -12.307
REMARK INTER:                 -10.485
REMARK INTRA:                  -1.821
REMARK UNBOUND:                -1.771
REMARK SMILES COc1cc(-c2[o+]c3cc(O)cc(O[C@H]4O[C@@H](CO)[C@@H](O)[C@@H](O)[C@H]4O)c3cc2O[C@@H]2O[C@H](CO)[C@@H](O)[C@@H](O)[C@H]2O)ccc1O
REMARK SMILES IDX 6 1 28 2 27 3 26 4 13 5 12 6 10 7 9 8 8 9 7 10 5 11 3 12
REMARK SMILES IDX 43 13 4 14 42 15 41 16 2 17 1 18 44 19 29 21 30 22 39 23
REMARK SMILES IDX 31 24 37 25 32 26 35 27 40 28 38 30 33 32 34 33 36 35 14 37
REMARK SMILES IDX 15 38 24 39 16 40 22 41 17 42 20 43 25 44 23 46 18 48 19 49
REMARK SMILES IDX 21 51 11 53
REMARK H PARENT 44 20 40 29 38 31 34 34 36 36 25 45 23 47 19 50 21 52 11 54
REMARK Flexibility Score: inf
ROOT
ATOM      1  C   UNL     1      -4.238   4.688  15.454  1.00  0.00     0.402 A 
ATOM      2  C   UNL     1      -3.200   5.521  14.976  1.00  0.00     0.229 A 
ATOM      3  C   UNL     1      -1.876   5.081  15.182  1.00  0.00     0.079 A 
ATOM      4  C   UNL     1      -1.697   4.053  16.095  1.00  0.00     0.126 A 
ATOM      5  C   UNL     1      -0.982   4.222  17.266  1.00  0.00     0.143 A 
ATOM      6  C   UNL     1      -0.713   3.110  18.089  1.00  0.00     0.094 A 
ATOM      7  C   UNL     1      -1.355   1.894  17.763  1.00  0.00     0.128 A 
ATOM      8  C   UNL     1      -2.406   1.868  16.817  1.00  0.00     0.162 A 
ATOM      9  C   UNL     1      -2.698   3.077  16.147  1.00  0.00     0.368 A 
ATOM     10  O   UNL     1      -3.947   3.417  15.819  1.00  0.00    -0.202 OA
ENDROOT
BRANCH   1  11
ATOM     11  C   UNL     1      -5.512   5.231  15.932  1.00  0.00     0.087 A 
ATOM     12  C   UNL     1      -6.888   6.840  17.156  1.00  0.00     0.161 A 
ATOM     13  C   UNL     1      -7.930   6.674  16.196  1.00  0.00     0.157 A 
ATOM     14  C   UNL     1      -5.667   6.161  16.968  1.00  0.00     0.068 A 
ATOM     15  C   UNL     1      -7.760   5.741  15.163  1.00  0.00     0.051 A 
ATOM     16  C   UNL     1      -6.564   5.017  15.030  1.00  0.00     0.022 A 
BRANCH  12  17
ATOM     17  O   UNL     1      -6.988   7.670  18.286  1.00  0.00    -0.493 OA
ATOM     18  C   UNL     1      -6.351   8.915  18.501  1.00  0.00     0.278 C 
ENDBRANCH  12  17
BRANCH  13  19
ATOM     19  O   UNL     1      -9.125   7.405  16.225  1.00  0.00    -0.504 OA
ATOM     20  H   UNL     1      -9.362   7.972  17.014  1.00  0.00     0.293 HD
ENDBRANCH  13  19
ENDBRANCH   1  11
BRANCH   2  21
ATOM     21  O   UNL     1      -3.449   6.763  14.384  1.00  0.00    -0.452 OA
BRANCH  21  22
ATOM     22  C   UNL     1      -4.653   7.074  13.647  1.00  0.00     0.339 C 
ATOM     23  C   UNL     1      -4.897   8.600  13.697  1.00  0.00     0.214 C 
ATOM     24  O   UNL     1      -4.547   6.620  12.309  1.00  0.00    -0.332 OA
ATOM     25  C   UNL     1      -6.053   9.042  12.770  1.00  0.00     0.180 C 
ATOM     26  C   UNL     1      -5.764   6.833  11.620  1.00  0.00     0.179 C 
ATOM     27  C   UNL     1      -5.965   8.345  11.375  1.00  0.00     0.177 C 
BRANCH  23  28
ATOM     28  O   UNL     1      -5.107   9.033  15.010  1.00  0.00    -0.384 OA
ATOM     29  H   UNL     1      -5.942   9.577  15.014  1.00  0.00     0.211 HD
ENDBRANCH  23  28
BRANCH  25  30
ATOM     30  O   UNL     1      -7.304   8.825  13.399  1.00  0.00    -0.387 OA
ATOM     31  H   UNL     1      -7.128   8.329  14.235  1.00  0.00     0.211 HD
ENDBRANCH  25  30
BRANCH  26  32
ATOM     32  C   UNL     1      -5.757   6.017  10.321  1.00  0.00     0.191 C 
BRANCH  32  33
ATOM     33  O   UNL     1      -6.686   4.957  10.413  1.00  0.00    -0.394 OA
ATOM     34  H   UNL     1      -7.220   4.993   9.579  1.00  0.00     0.210 HD
ENDBRANCH  32  33
ENDBRANCH  26  32
BRANCH  27  35
ATOM     35  O   UNL     1      -7.162   8.492  10.649  1.00  0.00    -0.387 OA
ATOM     36  H   UNL     1      -6.983   8.027   9.801  1.00  0.00     0.211 HD
ENDBRANCH  27  35
ENDBRANCH  21  22
ENDBRANCH   2  21
BRANCH   5  37
ATOM     37  O   UNL     1      -0.894   5.526  17.757  1.00  0.00    -0.461 OA
BRANCH  37  38
ATOM     38  C   UNL     1       0.208   6.189  18.351  1.00  0.00     0.339 C 
ATOM     39  C   UNL     1       0.126   6.222  19.908  1.00  0.00     0.214 C 
ATOM     40  O   UNL     1       0.279   7.518  17.817  1.00  0.00    -0.332 OA
ATOM     41  C   UNL     1       1.386   6.926  20.447  1.00  0.00     0.180 C 
ATOM     42  C   UNL     1       1.550   8.085  18.196  1.00  0.00     0.179 C 
ATOM     43  C   UNL     1       1.599   8.292  19.724  1.00  0.00     0.177 C 
BRANCH  39  44
ATOM     44  O   UNL     1      -1.046   6.894  20.336  1.00  0.00    -0.384 OA
ATOM     45  H   UNL     1      -1.012   6.975  21.338  1.00  0.00     0.211 HD
ENDBRANCH  39  44
BRANCH  41  46
ATOM     46  O   UNL     1       1.326   7.102  21.848  1.00  0.00    -0.387 OA
ATOM     47  H   UNL     1       1.438   6.205  22.277  1.00  0.00     0.211 HD
ENDBRANCH  41  46
BRANCH  42  48
ATOM     48  C   UNL     1       1.803   9.366  17.420  1.00  0.00     0.191 C 
BRANCH  48  49
ATOM     49  O   UNL     1       0.619   9.768  16.758  1.00  0.00    -0.394 OA
ATOM     50  H   UNL     1      -0.015  10.167  17.424  1.00  0.00     0.210 HD
ENDBRANCH  48  49
ENDBRANCH  42  48
BRANCH  43  51
ATOM     51  O   UNL     1       0.623   9.244  20.091  1.00  0.00    -0.387 OA
ATOM     52  H   UNL     1      -0.073   8.786  20.602  1.00  0.00     0.211 HD
ENDBRANCH  43  51
ENDBRANCH  37  38
ENDBRANCH   5  37
BRANCH   7  53
ATOM     53  O   UNL     1      -0.995   0.716  18.410  1.00  0.00    -0.507 OA
ATOM     54  H   UNL     1      -1.641  -0.085  18.479  1.00  0.00     0.293 HD
ENDBRANCH   7  53
TORSDOF 18
ENDMDL
MODEL 3
REMARK VINA RESULT:    -5.454      1.206      2.219
REMARK INTER + INTRA:         -11.370
REMARK INTER:                 -10.392
REMARK INTRA:                  -0.978
REMARK UNBOUND:                -1.771
REMARK SMILES COc1cc(-c2[o+]c3cc(O)cc(O[C@H]4O[C@@H](CO)[C@@H](O)[C@@H](O)[C@H]4O)c3cc2O[C@@H]2O[C@H](CO)[C@@H](O)[C@@H](O)[C@H]2O)ccc1O
REMARK SMILES IDX 6 1 28 2 27 3 26 4 13 5 12 6 10 7 9 8 8 9 7 10 5 11 3 12
REMARK SMILES IDX 43 13 4 14 42 15 41 16 2 17 1 18 44 19 29 21 30 22 39 23
REMARK SMILES IDX 31 24 37 25 32 26 35 27 40 28 38 30 33 32 34 33 36 35 14 37
REMARK SMILES IDX 15 38 24 39 16 40 22 41 17 42 20 43 25 44 23 46 18 48 19 49
REMARK SMILES IDX 21 51 11 53
REMARK H PARENT 44 20 40 29 38 31 34 34 36 36 25 45 23 47 19 50 21 52 11 54
REMARK Flexibility Score: inf
ROOT
ATOM      1  C   UNL     1      -4.736   4.771  16.369  1.00  0.00     0.402 A 
ATOM      2  C   UNL     1      -4.039   4.842  15.141  1.00  0.00     0.229 A 
ATOM      3  C   UNL     1      -3.026   3.887  14.920  1.00  0.00     0.079 A 
ATOM      4  C   UNL     1      -2.589   3.176  16.027  1.00  0.00     0.126 A 
ATOM      5  C   UNL     1      -1.295   3.273  16.503  1.00  0.00     0.143 A 
ATOM      6  C   UNL     1      -0.866   2.425  17.544  1.00  0.00     0.094 A 
ATOM      7  C   UNL     1      -1.850   1.634  18.180  1.00  0.00     0.128 A 
ATOM      8  C   UNL     1      -3.224   1.877  17.952  1.00  0.00     0.162 A 
ATOM      9  C   UNL     1      -3.553   2.857  16.989  1.00  0.00     0.368 A 
ATOM     10  O   UNL     1      -4.609   3.661  17.134  1.00  0.00    -0.202 OA
ENDROOT
BRANCH   1  11
ATOM     11  C   UNL     1      -5.270   5.965  17.030  1.00  0.00     0.087 A 
ATOM     12  C   UNL     1      -6.142   8.249  17.060  1.00  0.00     0.161 A 
ATOM     13  C   UNL     1      -6.969   7.915  18.172  1.00  0.00     0.157 A 
ATOM     14  C   UNL     1      -5.353   7.244  16.465  1.00  0.00     0.068 A 
ATOM     15  C   UNL     1      -6.877   6.630  18.726  1.00  0.00     0.051 A 
ATOM     16  C   UNL     1      -6.031   5.659  18.167  1.00  0.00     0.022 A 
BRANCH  12  17
ATOM     17  O   UNL     1      -6.077   9.531  16.487  1.00  0.00    -0.493 OA
ATOM     18  C   UNL     1      -5.553   9.886  15.221  1.00  0.00     0.278 C 
ENDBRANCH  12  17
BRANCH  13  19
ATOM     19  O   UNL     1      -7.884   8.808  18.745  1.00  0.00    -0.504 OA
ATOM     20  H   UNL     1      -7.802   9.085  19.703  1.00  0.00     0.293 HD
ENDBRANCH  13  19
ENDBRANCH   1  11
BRANCH   2  21
ATOM     21  O   UNL     1      -4.280   5.849  14.200  1.00  0.00    -0.452 OA
BRANCH  21  22
ATOM     22  C   UNL     1      -5.327   5.785  13.207  1.00  0.00     0.339 C 
ATOM     23  C   UNL     1      -5.942   4.365  13.208  1.00  0.00     0.214 C 
ATOM     24  O   UNL     1      -6.316   6.766  13.464  1.00  0.00    -0.332 OA
ATOM     25  C   UNL     1      -7.200   4.268  12.315  1.00  0.00     0.180 C 
ATOM     26  C   UNL     1      -7.286   6.770  12.434  1.00  0.00     0.179 C 
ATOM     27  C   UNL     1      -8.147   5.492  12.526  1.00  0.00     0.177 C 
BRANCH  23  28
ATOM     28  O   UNL     1      -4.991   3.405  12.850  1.00  0.00    -0.384 OA
ATOM     29  H   UNL     1      -4.382   3.824  12.182  1.00  0.00     0.211 HD
ENDBRANCH  23  28
BRANCH  25  30
ATOM     30  O   UNL     1      -6.833   4.103  10.956  1.00  0.00    -0.387 OA
ATOM     31  H   UNL     1      -6.085   3.456  10.933  1.00  0.00     0.211 HD
ENDBRANCH  25  30
BRANCH  26  32
ATOM     32  C   UNL     1      -8.118   8.055  12.530  1.00  0.00     0.191 C 
BRANCH  32  33
ATOM     33  O   UNL     1      -8.379   8.558  11.237  1.00  0.00    -0.394 OA
ATOM     34  H   UNL     1      -8.945   9.361  11.369  1.00  0.00     0.210 HD
ENDBRANCH  32  33
ENDBRANCH  26  32
BRANCH  27  35
ATOM     35  O   UNL     1      -9.118   5.572  11.510  1.00  0.00    -0.387 OA
ATOM     36  H   UNL     1      -8.645   6.004  10.764  1.00  0.00     0.211 HD
ENDBRANCH  27  35
ENDBRANCH  21  22
ENDBRANCH   2  21
BRANCH   5  37
ATOM     37  O   UNL     1      -0.606   4.448  16.194  1.00  0.00    -0.461 OA
BRANCH  37  38
ATOM     38  C   UNL     1       0.207   5.256  17.025  1.00  0.00     0.339 C 
ATOM     39  C   UNL     1      -0.357   5.395  18.473  1.00  0.00     0.214 C 
ATOM     40  O   UNL     1       0.347   6.543  16.408  1.00  0.00    -0.332 OA
ATOM     41  C   UNL     1       0.620   6.256  19.296  1.00  0.00     0.180 C 
ATOM     42  C   UNL     1       1.394   7.258  17.096  1.00  0.00     0.179 C 
ATOM     43  C   UNL     1       0.951   7.580  18.539  1.00  0.00     0.177 C 
BRANCH  39  44
ATOM     44  O   UNL     1      -1.647   5.978  18.456  1.00  0.00    -0.384 OA
ATOM     45  H   UNL     1      -2.132   5.644  17.641  1.00  0.00     0.211 HD
ENDBRANCH  39  44
BRANCH  41  46
ATOM     46  O   UNL     1       0.116   6.527  20.588  1.00  0.00    -0.387 OA
ATOM     47  H   UNL     1       0.250   5.709  21.149  1.00  0.00     0.211 HD
ENDBRANCH  41  46
BRANCH  42  48
ATOM     48  C   UNL     1       1.785   8.497  16.311  1.00  0.00     0.191 C 
BRANCH  48  49
ATOM     49  O   UNL     1       2.260   9.495  17.194  1.00  0.00    -0.394 OA
ATOM     50  H   UNL     1       1.535  10.167  17.357  1.00  0.00     0.210 HD
ENDBRANCH  48  49
ENDBRANCH  42  48
BRANCH  43  51
ATOM     51  O   UNL     1      -0.154   8.456  18.496  1.00  0.00    -0.387 OA
ATOM     52  H   UNL     1      -0.257   8.862  19.380  1.00  0.00     0.211 HD
ENDBRANCH  43  51
ENDBRANCH  37  38
ENDBRANCH   5  37
BRANCH   7  53
ATOM     53  O   UNL     1      -1.476   0.641  19.080  1.00  0.00    -0.507 OA
ATOM     54  H   UNL     1      -0.551   0.642  19.536  1.00  0.00     0.293 HD
ENDBRANCH   7  53
TORSDOF 18
ENDMDL
MODEL 4
REMARK VINA RESULT:    -5.388      2.230      7.302
REMARK INTER + INTRA:         -11.254
REMARK INTER:                 -10.043
REMARK INTRA:                  -1.211
REMARK UNBOUND:                -1.771
REMARK SMILES COc1cc(-c2[o+]c3cc(O)cc(O[C@H]4O[C@@H](CO)[C@@H](O)[C@@H](O)[C@H]4O)c3cc2O[C@@H]2O[C@H](CO)[C@@H](O)[C@@H](O)[C@H]2O)ccc1O
REMARK SMILES IDX 6 1 28 2 27 3 26 4 13 5 12 6 10 7 9 8 8 9 7 10 5 11 3 12
REMARK SMILES IDX 43 13 4 14 42 15 41 16 2 17 1 18 44 19 29 21 30 22 39 23
REMARK SMILES IDX 31 24 37 25 32 26 35 27 40 28 38 30 33 32 34 33 36 35 14 37
REMARK SMILES IDX 15 38 24 39 16 40 22 41 17 42 20 43 25 44 23 46 18 48 19 49
REMARK SMILES IDX 21 51 11 53
REMARK H PARENT 44 20 40 29 38 31 34 34 36 36 25 45 23 47 19 50 21 52 11 54
REMARK Flexibility Score: inf
ROOT
ATOM      1  C   UNL     1      -4.113   5.884  13.012  1.00  0.00     0.402 A 
ATOM      2  C   UNL     1      -4.492   5.085  14.115  1.00  0.00     0.229 A 
ATOM      3  C   UNL     1      -5.731   4.418  14.030  1.00  0.00     0.079 A 
ATOM      4  C   UNL     1      -6.599   4.842  13.035  1.00  0.00     0.126 A 
ATOM      5  C   UNL     1      -7.825   5.413  13.320  1.00  0.00     0.143 A 
ATOM      6  C   UNL     1      -8.725   5.697  12.273  1.00  0.00     0.094 A 
ATOM      7  C   UNL     1      -8.246   5.552  10.951  1.00  0.00     0.128 A 
ATOM      8  C   UNL     1      -6.865   5.378  10.703  1.00  0.00     0.162 A 
ATOM      9  C   UNL     1      -6.021   5.249  11.828  1.00  0.00     0.368 A 
ATOM     10  O   UNL     1      -4.786   5.757  11.845  1.00  0.00    -0.202 OA
ENDROOT
BRANCH   1  11
ATOM     11  C   UNL     1      -3.300   7.094  13.171  1.00  0.00     0.087 A 
ATOM     12  C   UNL     1      -1.403   8.359  14.053  1.00  0.00     0.161 A 
ATOM     13  C   UNL     1      -1.375   9.141  12.861  1.00  0.00     0.157 A 
ATOM     14  C   UNL     1      -2.328   7.301  14.158  1.00  0.00     0.068 A 
ATOM     15  C   UNL     1      -2.353   8.921  11.881  1.00  0.00     0.051 A 
ATOM     16  C   UNL     1      -3.315   7.910  12.031  1.00  0.00     0.022 A 
BRANCH  12  17
ATOM     17  O   UNL     1      -0.537   8.558  15.142  1.00  0.00    -0.493 OA
ATOM     18  C   UNL     1       0.342   9.647  15.357  1.00  0.00     0.278 C 
ENDBRANCH  12  17
BRANCH  13  19
ATOM     19  O   UNL     1      -0.409  10.125  12.609  1.00  0.00    -0.504 OA
ATOM     20  H   UNL     1      -0.676  11.064  12.394  1.00  0.00     0.293 HD
ENDBRANCH  13  19
ENDBRANCH   1  11
BRANCH   2  21
ATOM     21  O   UNL     1      -3.722   5.001  15.279  1.00  0.00    -0.452 OA
BRANCH  21  22
ATOM     22  C   UNL     1      -3.341   3.753  15.902  1.00  0.00     0.339 C 
ATOM     23  C   UNL     1      -1.993   3.943  16.635  1.00  0.00     0.214 C 
ATOM     24  O   UNL     1      -4.349   3.318  16.797  1.00  0.00    -0.332 OA
ATOM     25  C   UNL     1      -1.611   2.715  17.493  1.00  0.00     0.180 C 
ATOM     26  C   UNL     1      -4.022   2.047  17.327  1.00  0.00     0.179 C 
ATOM     27  C   UNL     1      -2.834   2.183  18.305  1.00  0.00     0.177 C 
BRANCH  23  28
ATOM     28  O   UNL     1      -0.973   4.270  15.736  1.00  0.00    -0.384 OA
ATOM     29  H   UNL     1      -0.970   3.573  15.024  1.00  0.00     0.211 HD
ENDBRANCH  23  28
BRANCH  25  30
ATOM     30  O   UNL     1      -1.025   1.708  16.685  1.00  0.00    -0.387 OA
ATOM     31  H   UNL     1      -0.228   1.376  17.166  1.00  0.00     0.211 HD
ENDBRANCH  25  30
BRANCH  26  32
ATOM     32  C   UNL     1      -5.267   1.440  17.985  1.00  0.00     0.191 C 
BRANCH  32  33
ATOM     33  O   UNL     1      -5.314   1.799  19.349  1.00  0.00    -0.394 OA
ATOM     34  H   UNL     1      -6.036   1.249  19.748  1.00  0.00     0.210 HD
ENDBRANCH  32  33
ENDBRANCH  26  32
BRANCH  27  35
ATOM     35  O   UNL     1      -2.583   0.902  18.833  1.00  0.00    -0.387 OA
ATOM     36  H   UNL     1      -2.016   1.077  19.617  1.00  0.00     0.211 HD
ENDBRANCH  27  35
ENDBRANCH  21  22
ENDBRANCH   2  21
BRANCH   5  37
ATOM     37  O   UNL     1      -7.953   6.021  14.571  1.00  0.00    -0.461 OA
BRANCH  37  38
ATOM     38  C   UNL     1      -6.945   6.473  15.456  1.00  0.00     0.339 C 
ATOM     39  C   UNL     1      -7.172   5.998  16.924  1.00  0.00     0.214 C 
ATOM     40  O   UNL     1      -6.889   7.904  15.387  1.00  0.00    -0.332 OA
ATOM     41  C   UNL     1      -6.003   6.510  17.788  1.00  0.00     0.180 C 
ATOM     42  C   UNL     1      -5.688   8.338  16.057  1.00  0.00     0.179 C 
ATOM     43  C   UNL     1      -5.790   8.040  17.568  1.00  0.00     0.177 C 
BRANCH  39  44
ATOM     44  O   UNL     1      -8.409   6.476  17.422  1.00  0.00    -0.384 OA
ATOM     45  H   UNL     1      -8.220   7.077  18.205  1.00  0.00     0.211 HD
ENDBRANCH  39  44
BRANCH  41  46
ATOM     46  O   UNL     1      -6.200   6.221  19.157  1.00  0.00    -0.387 OA
ATOM     47  H   UNL     1      -6.793   6.931  19.540  1.00  0.00     0.211 HD
ENDBRANCH  41  46
BRANCH  42  48
ATOM     48  C   UNL     1      -5.426   9.805  15.764  1.00  0.00     0.191 C 
BRANCH  48  49
ATOM     49  O   UNL     1      -4.716   9.932  14.547  1.00  0.00    -0.394 OA
ATOM     50  H   UNL     1      -4.009   9.224  14.499  1.00  0.00     0.210 HD
ENDBRANCH  48  49
ENDBRANCH  42  48
BRANCH  43  51
ATOM     51  O   UNL     1      -6.841   8.805  18.117  1.00  0.00    -0.387 OA
ATOM     52  H   UNL     1      -6.605   9.751  18.034  1.00  0.00     0.211 HD
ENDBRANCH  43  51
ENDBRANCH  37  38
ENDBRANCH   5  37
BRANCH   7  53
ATOM     53  O   UNL     1      -9.125   5.630   9.875  1.00  0.00    -0.507 OA
ATOM     54  H   UNL     1      -9.350   6.529   9.421  1.00  0.00     0.293 HD
ENDBRANCH   7  53
TORSDOF 18
ENDMDL
MODEL 5
REMARK VINA RESULT:    -5.345     10.795     16.181
REMARK INTER + INTRA:         -11.178
REMARK INTER:                  -9.787
REMARK INTRA:                  -1.391
REMARK UNBOUND:                -1.771
REMARK SMILES COc1cc(-c2[o+]c3cc(O)cc(O[C@H]4O[C@@H](CO)[C@@H](O)[C@@H](O)[C@H]4O)c3cc2O[C@@H]2O[C@H](CO)[C@@H](O)[C@@H](O)[C@H]2O)ccc1O
REMARK SMILES IDX 6 1 28 2 27 3 26 4 13 5 12 6 10 7 9 8 8 9 7 10 5 11 3 12
REMARK SMILES IDX 43 13 4 14 42 15 41 16 2 17 1 18 44 19 29 21 30 22 39 23
REMARK SMILES IDX 31 24 37 25 32 26 35 27 40 28 38 30 33 32 34 33 36 35 14 37
REMARK SMILES IDX 15 38 24 39 16 40 22 41 17 42 20 43 25 44 23 46 18 48 19 49
REMARK SMILES IDX 21 51 11 53
REMARK H PARENT 44 20 40 29 38 31 34 34 36 36 25 45 23 47 19 50 21 52 11 54
REMARK Flexibility Score: inf
ROOT
ATOM      1  C   UNL     1      -4.452  -8.048  23.443  1.00  0.00     0.402 A 
ATOM      2  C   UNL     1      -5.739  -7.987  22.859  1.00  0.00     0.229 A 
ATOM      3  C   UNL     1      -5.825  -7.488  21.543  1.00  0.00     0.079 A 
ATOM      4  C   UNL     1      -4.713  -6.816  21.059  1.00  0.00     0.126 A 
ATOM      5  C   UNL     1      -4.749  -5.475  20.724  1.00  0.00     0.143 A 
ATOM      6  C   UNL     1      -3.632  -4.878  20.106  1.00  0.00     0.094 A 
ATOM      7  C   UNL     1      -2.448  -5.646  20.028  1.00  0.00     0.128 A 
ATOM      8  C   UNL     1      -2.325  -6.850  20.759  1.00  0.00     0.162 A 
ATOM      9  C   UNL     1      -3.463  -7.292  21.469  1.00  0.00     0.368 A 
ATOM     10  O   UNL     1      -3.363  -7.903  22.652  1.00  0.00    -0.202 OA
ENDROOT
BRANCH   1  11
ATOM     11  C   UNL     1      -4.243  -7.876  24.883  1.00  0.00     0.087 A 
ATOM     12  C   UNL     1      -3.431  -8.580  27.079  1.00  0.00     0.161 A 
ATOM     13  C   UNL     1      -3.187  -7.218  27.422  1.00  0.00     0.157 A 
ATOM     14  C   UNL     1      -3.894  -8.890  25.785  1.00  0.00     0.068 A 
ATOM     15  C   UNL     1      -3.539  -6.214  26.509  1.00  0.00     0.051 A 
ATOM     16  C   UNL     1      -4.069  -6.534  25.249  1.00  0.00     0.022 A 
BRANCH  12  17
ATOM     17  O   UNL     1      -3.211  -9.660  27.952  1.00  0.00    -0.493 OA
ATOM     18  C   UNL     1      -3.691  -9.811  29.275  1.00  0.00     0.278 C 
ENDBRANCH  12  17
BRANCH  13  19
ATOM     19  O   UNL     1      -2.603  -6.823  28.633  1.00  0.00    -0.504 OA
ATOM     20  H   UNL     1      -2.058  -7.463  29.175  1.00  0.00     0.293 HD
ENDBRANCH  13  19
ENDBRANCH   1  11
BRANCH   2  21
ATOM     21  O   UNL     1      -6.897  -8.337  23.561  1.00  0.00    -0.452 OA
BRANCH  21  22
ATOM     22  C   UNL     1      -7.183  -7.897  24.908  1.00  0.00     0.339 C 
ATOM     23  C   UNL     1      -8.477  -7.049  24.900  1.00  0.00     0.214 C 
ATOM     24  O   UNL     1      -7.310  -9.009  25.776  1.00  0.00    -0.332 OA
ATOM     25  C   UNL     1      -8.963  -6.706  26.326  1.00  0.00     0.180 C 
ATOM     26  C   UNL     1      -7.487  -8.574  27.110  1.00  0.00     0.179 C 
ATOM     27  C   UNL     1      -8.890  -7.947  27.270  1.00  0.00     0.177 C 
BRANCH  23  28
ATOM     28  O   UNL     1      -8.317  -5.895  24.127  1.00  0.00    -0.384 OA
ATOM     29  H   UNL     1      -7.341  -5.700  24.082  1.00  0.00     0.211 HD
ENDBRANCH  23  28
BRANCH  25  30
ATOM     30  O   UNL     1      -8.246  -5.598  26.842  1.00  0.00    -0.387 OA
ATOM     31  H   UNL     1      -7.459  -5.462  26.259  1.00  0.00     0.211 HD
ENDBRANCH  25  30
BRANCH  26  32
ATOM     32  C   UNL     1      -7.252  -9.754  28.061  1.00  0.00     0.191 C 
BRANCH  32  33
ATOM     33  O   UNL     1      -7.132  -9.287  29.388  1.00  0.00    -0.394 OA
ATOM     34  H   UNL     1      -6.318  -9.720  29.753  1.00  0.00     0.210 HD
ENDBRANCH  32  33
ENDBRANCH  26  32
BRANCH  27  35
ATOM     35  O   UNL     1      -9.027  -7.576  28.621  1.00  0.00    -0.387 OA
ATOM     36  H   UNL     1     -10.000  -7.529  28.755  1.00  0.00     0.211 HD
ENDBRANCH  27  35
ENDBRANCH  21  22
ENDBRANCH   2  21
BRANCH   5  37
ATOM     37  O   UNL     1      -5.730  -4.704  21.351  1.00  0.00    -0.461 OA
BRANCH  37  38
ATOM     38  C   UNL     1      -7.039  -4.390  20.914  1.00  0.00     0.339 C 
ATOM     39  C   UNL     1      -7.351  -4.943  19.490  1.00  0.00     0.214 C 
ATOM     40  O   UNL     1      -7.201  -2.965  20.953  1.00  0.00    -0.332 OA
ATOM     41  C   UNL     1      -8.806  -4.580  19.134  1.00  0.00     0.180 C 
ATOM     42  C   UNL     1      -8.603  -2.669  20.790  1.00  0.00     0.179 C 
ATOM     43  C   UNL     1      -9.062  -3.059  19.370  1.00  0.00     0.177 C 
BRANCH  39  44
ATOM     44  O   UNL     1      -6.453  -4.408  18.534  1.00  0.00    -0.384 OA
ATOM     45  H   UNL     1      -6.210  -3.475  18.821  1.00  0.00     0.211 HD
ENDBRANCH  39  44
BRANCH  41  46
ATOM     46  O   UNL     1      -9.125  -4.944  17.806  1.00  0.00    -0.387 OA
ATOM     47  H   UNL     1      -9.961  -4.460  17.546  1.00  0.00     0.211 HD
ENDBRANCH  41  46
BRANCH  42  48
ATOM     48  C   UNL     1      -8.870  -1.209  21.114  1.00  0.00     0.191 C 
BRANCH  48  49
ATOM     49  O   UNL     1      -7.993  -0.384  20.371  1.00  0.00    -0.394 OA
ATOM     50  H   UNL     1      -8.336   0.556  20.377  1.00  0.00     0.210 HD
ENDBRANCH  48  49
ENDBRANCH  42  48
BRANCH  43  51
ATOM     51  O   UNL     1      -8.383  -2.255  18.430  1.00  0.00    -0.387 OA
ATOM     52  H   UNL     1      -8.731  -1.343  18.500  1.00  0.00     0.211 HD
ENDBRANCH  43  51
ENDBRANCH  37  38
ENDBRANCH   5  37
BRANCH   7  53
ATOM     53  O   UNL     1      -1.371  -5.198  19.270  1.00  0.00    -0.507 OA
ATOM     54  H   UNL     1      -0.455  -4.991  19.696  1.00  0.00     0.293 HD
ENDBRANCH   7  53
TORSDOF 18
ENDMDL
MODEL 6
REMARK VINA RESULT:    -5.193     11.188     16.220
REMARK INTER + INTRA:         -10.911
REMARK INTER:                  -9.801
REMARK INTRA:                  -1.109
REMARK UNBOUND:                -1.771
REMARK SMILES COc1cc(-c2[o+]c3cc(O)cc(O[C@H]4O[C@@H](CO)[C@@H](O)[C@@H](O)[C@H]4O)c3cc2O[C@@H]2O[C@H](CO)[C@@H](O)[C@@H](O)[C@H]2O)ccc1O
REMARK SMILES IDX 6 1 28 2 27 3 26 4 13 5 12 6 10 7 9 8 8 9 7 10 5 11 3 12
REMARK SMILES IDX 43 13 4 14 42 15 41 16 2 17 1 18 44 19 29 21 30 22 39 23
REMARK SMILES IDX 31 24 37 25 32 26 35 27 40 28 38 30 33 32 34 33 36 35 14 37
REMARK SMILES IDX 15 38 24 39 16 40 22 41 17 42 20 43 25 44 23 46 18 48 19 49
REMARK SMILES IDX 21 51 11 53
REMARK H PARENT 44 20 40 29 38 31 34 34 36 36 25 45 23 47 19 50 21 52 11 54
REMARK Flexibility Score: inf
ROOT
ATOM      1  C   UNL     1      -4.768  -6.990  25.403  1.00  0.00     0.402 A 
ATOM      2  C   UNL     1      -5.452  -6.520  24.258  1.00  0.00     0.229 A 
ATOM      3  C   UNL     1      -6.838  -6.771  24.189  1.00  0.00     0.079 A 
ATOM      4  C   UNL     1      -7.345  -7.712  25.072  1.00  0.00     0.126 A 
ATOM      5  C   UNL     1      -7.912  -8.897  24.643  1.00  0.00     0.143 A 
ATOM      6  C   UNL     1      -8.537  -9.751  25.574  1.00  0.00     0.094 A 
ATOM      7  C   UNL     1      -8.386  -9.436  26.944  1.00  0.00     0.128 A 
ATOM      8  C   UNL     1      -7.447  -8.464  27.357  1.00  0.00     0.162 A 
ATOM      9  C   UNL     1      -6.761  -7.759  26.343  1.00  0.00     0.368 A 
ATOM     10  O   UNL     1      -5.485  -7.391  26.479  1.00  0.00    -0.202 OA
ENDROOT
BRANCH   1  11
ATOM     11  C   UNL     1      -3.369  -7.422  25.350  1.00  0.00     0.087 A 
ATOM     12  C   UNL     1      -1.161  -7.824  26.322  1.00  0.00     0.161 A 
ATOM     13  C   UNL     1      -0.980  -8.931  25.441  1.00  0.00     0.157 A 
ATOM     14  C   UNL     1      -2.387  -7.128  26.305  1.00  0.00     0.068 A 
ATOM     15  C   UNL     1      -1.972  -9.215  24.493  1.00  0.00     0.051 A 
ATOM     16  C   UNL     1      -3.158  -8.466  24.438  1.00  0.00     0.022 A 
BRANCH  12  17
ATOM     17  O   UNL     1      -0.193  -7.387  27.242  1.00  0.00    -0.493 OA
ATOM     18  C   UNL     1      -0.072  -7.748  28.605  1.00  0.00     0.278 C 
ENDBRANCH  12  17
BRANCH  13  19
ATOM     19  O   UNL     1       0.147  -9.764  25.476  1.00  0.00    -0.504 OA
ATOM     20  H   UNL     1       0.078 -10.732  25.235  1.00  0.00     0.293 HD
ENDBRANCH  13  19
ENDBRANCH   1  11
BRANCH   2  21
ATOM     21  O   UNL     1      -4.792  -5.893  23.196  1.00  0.00    -0.452 OA
BRANCH  21  22
ATOM     22  C   UNL     1      -5.386  -4.858  22.381  1.00  0.00     0.339 C 
ATOM     23  C   UNL     1      -4.860  -4.991  20.932  1.00  0.00     0.214 C 
ATOM     24  O   UNL     1      -6.799  -4.947  22.418  1.00  0.00    -0.332 OA
ATOM     25  C   UNL     1      -5.595  -4.048  19.952  1.00  0.00     0.180 C 
ATOM     26  C   UNL     1      -7.378  -3.872  21.704  1.00  0.00     0.179 C 
ATOM     27  C   UNL     1      -7.137  -4.064  20.191  1.00  0.00     0.177 C 
BRANCH  23  28
ATOM     28  O   UNL     1      -3.476  -4.798  20.880  1.00  0.00    -0.384 OA
ATOM     29  H   UNL     1      -3.317  -3.870  20.554  1.00  0.00     0.211 HD
ENDBRANCH  23  28
BRANCH  25  30
ATOM     30  O   UNL     1      -5.055  -2.739  20.023  1.00  0.00    -0.387 OA
ATOM     31  H   UNL     1      -5.293  -2.279  19.181  1.00  0.00     0.211 HD
ENDBRANCH  25  30
BRANCH  26  32
ATOM     32  C   UNL     1      -8.867  -3.774  22.061  1.00  0.00     0.191 C 
BRANCH  32  33
ATOM     33  O   UNL     1      -9.088  -4.302  23.351  1.00  0.00    -0.394 OA
ATOM     34  H   UNL     1      -9.174  -5.282  23.231  1.00  0.00     0.210 HD
ENDBRANCH  32  33
ENDBRANCH  26  32
BRANCH  27  35
ATOM     35  O   UNL     1      -7.772  -2.995  19.530  1.00  0.00    -0.387 OA
ATOM     36  H   UNL     1      -7.439  -2.197  20.000  1.00  0.00     0.211 HD
ENDBRANCH  27  35
ENDBRANCH  21  22
ENDBRANCH   2  21
BRANCH   5  37
ATOM     37  O   UNL     1      -7.510  -9.361  23.389  1.00  0.00    -0.461 OA
BRANCH  37  38
ATOM     38  C   UNL     1      -7.015  -8.634  22.280  1.00  0.00     0.339 C 
ATOM     39  C   UNL     1      -8.062  -8.497  21.132  1.00  0.00     0.214 C 
ATOM     40  O   UNL     1      -5.825  -9.280  21.808  1.00  0.00    -0.332 OA
ATOM     41  C   UNL     1      -7.436  -7.660  19.999  1.00  0.00     0.180 C 
ATOM     42  C   UNL     1      -5.171  -8.391  20.879  1.00  0.00     0.179 C 
ATOM     43  C   UNL     1      -6.036  -8.227  19.611  1.00  0.00     0.177 C 
BRANCH  39  44
ATOM     44  O   UNL     1      -8.455  -9.771  20.654  1.00  0.00    -0.384 OA
ATOM     45  H   UNL     1      -9.423  -9.909  20.889  1.00  0.00     0.211 HD
ENDBRANCH  39  44
BRANCH  41  46
ATOM     46  O   UNL     1      -8.283  -7.593  18.870  1.00  0.00    -0.387 OA
ATOM     47  H   UNL     1      -9.007  -6.931  19.066  1.00  0.00     0.211 HD
ENDBRANCH  41  46
BRANCH  42  48
ATOM     48  C   UNL     1      -3.770  -8.891  20.575  1.00  0.00     0.191 C 
BRANCH  48  49
ATOM     49  O   UNL     1      -2.865  -7.804  20.565  1.00  0.00    -0.394 OA
ATOM     50  H   UNL     1      -1.952  -8.128  20.822  1.00  0.00     0.210 HD
ENDBRANCH  48  49
ENDBRANCH  42  48
BRANCH  43  51
ATOM     51  O   UNL     1      -6.132  -9.474  18.956  1.00  0.00    -0.387 OA
ATOM     52  H   UNL     1      -5.246  -9.889  18.959  1.00  0.00     0.211 HD
ENDBRANCH  43  51
ENDBRANCH  37  38
ENDBRANCH   5  37
BRANCH   7  53
ATOM     53  O   UNL     1      -9.125 -10.119  27.905  1.00  0.00    -0.507 OA
ATOM     54  H   UNL     1      -9.700  -9.622  28.602  1.00  0.00     0.293 HD
ENDBRANCH   7  53
TORSDOF 18
ENDMDL
MODEL 7
REMARK VINA RESULT:    -4.658     12.292     16.312
REMARK INTER + INTRA:          -9.969
REMARK INTER:                  -7.069
REMARK INTRA:                  -2.900
REMARK UNBOUND:                -1.771
REMARK SMILES COc1cc(-c2[o+]c3cc(O)cc(O[C@H]4O[C@@H](CO)[C@@H](O)[C@@H](O)[C@H]4O)c3cc2O[C@@H]2O[C@H](CO)[C@@H](O)[C@@H](O)[C@H]2O)ccc1O
REMARK SMILES IDX 6 1 28 2 27 3 26 4 13 5 12 6 10 7 9 8 8 9 7 10 5 11 3 12
REMARK SMILES IDX 43 13 4 14 42 15 41 16 2 17 1 18 44 19 29 21 30 22 39 23
REMARK SMILES IDX 31 24 37 25 32 26 35 27 40 28 38 30 33 32 34 33 36 35 14 37
REMARK SMILES IDX 15 38 24 39 16 40 22 41 17 42 20 43 25 44 23 46 18 48 19 49
REMARK SMILES IDX 21 51 11 53
REMARK H PARENT 44 20 40 29 38 31 34 34 36 36 25 45 23 47 19 50 21 52 11 54
REMARK Flexibility Score: inf
ROOT
ATOM      1  C   UNL     1      -7.920  -9.037  23.525  1.00  0.00     0.402 A 
ATOM      2  C   UNL     1      -6.610  -9.569  23.527  1.00  0.00     0.229 A 
ATOM      3  C   UNL     1      -6.143 -10.125  24.736  1.00  0.00     0.079 A 
ATOM      4  C   UNL     1      -6.867  -9.825  25.879  1.00  0.00     0.126 A 
ATOM      5  C   UNL     1      -6.329  -9.101  26.926  1.00  0.00     0.143 A 
ATOM      6  C   UNL     1      -7.060  -8.945  28.120  1.00  0.00     0.094 A 
ATOM      7  C   UNL     1      -8.403  -9.388  28.118  1.00  0.00     0.128 A 
ATOM      8  C   UNL     1      -9.044  -9.731  26.905  1.00  0.00     0.162 A 
ATOM      9  C   UNL     1      -8.255  -9.715  25.734  1.00  0.00     0.368 A 
ATOM     10  O   UNL     1      -8.749  -9.327  24.556  1.00  0.00    -0.202 OA
ENDROOT
BRANCH   1  11
ATOM     11  C   UNL     1      -8.297  -7.898  22.683  1.00  0.00     0.087 A 
ATOM     12  C   UNL     1      -8.136  -5.575  21.939  1.00  0.00     0.161 A 
ATOM     13  C   UNL     1      -8.461  -5.980  20.612  1.00  0.00     0.157 A 
ATOM     14  C   UNL     1      -7.994  -6.555  22.941  1.00  0.00     0.068 A 
ATOM     15  C   UNL     1      -8.759  -7.328  20.367  1.00  0.00     0.051 A 
ATOM     16  C   UNL     1      -8.685  -8.285  21.392  1.00  0.00     0.022 A 
BRANCH  12  17
ATOM     17  O   UNL     1      -7.917  -4.239  22.319  1.00  0.00    -0.493 OA
ATOM     18  C   UNL     1      -8.540  -3.080  21.797  1.00  0.00     0.278 C 
ENDBRANCH  12  17
BRANCH  13  19
ATOM     19  O   UNL     1      -8.494  -5.098  19.524  1.00  0.00    -0.504 OA
ATOM     20  H   UNL     1      -9.358  -4.863  19.078  1.00  0.00     0.293 HD
ENDBRANCH  13  19
ENDBRANCH   1  11
BRANCH   2  21
ATOM     21  O   UNL     1      -5.771  -9.494  22.411  1.00  0.00    -0.452 OA
BRANCH  21  22
ATOM     22  C   UNL     1      -4.791  -8.451  22.211  1.00  0.00     0.339 C 
ATOM     23  C   UNL     1      -4.751  -8.074  20.711  1.00  0.00     0.214 C 
ATOM     24  O   UNL     1      -5.098  -7.323  23.010  1.00  0.00    -0.332 OA
ATOM     25  C   UNL     1      -3.874  -6.830  20.441  1.00  0.00     0.180 C 
ATOM     26  C   UNL     1      -4.083  -6.344  22.891  1.00  0.00     0.179 C 
ATOM     27  C   UNL     1      -4.142  -5.703  21.488  1.00  0.00     0.177 C 
BRANCH  23  28
ATOM     28  O   UNL     1      -4.345  -9.161  19.930  1.00  0.00    -0.384 OA
ATOM     29  H   UNL     1      -4.943  -9.194  19.134  1.00  0.00     0.211 HD
ENDBRANCH  23  28
BRANCH  25  30
ATOM     30  O   UNL     1      -2.505  -7.192  20.382  1.00  0.00    -0.387 OA
ATOM     31  H   UNL     1      -2.428  -7.939  19.738  1.00  0.00     0.211 HD
ENDBRANCH  25  30
BRANCH  26  32
ATOM     32  C   UNL     1      -4.237  -5.318  24.020  1.00  0.00     0.191 C 
BRANCH  32  33
ATOM     33  O   UNL     1      -5.295  -4.431  23.724  1.00  0.00    -0.394 OA
ATOM     34  H   UNL     1      -6.123  -4.974  23.769  1.00  0.00     0.210 HD
ENDBRANCH  32  33
ENDBRANCH  26  32
BRANCH  27  35
ATOM     35  O   UNL     1      -3.144  -4.711  21.442  1.00  0.00    -0.387 OA
ATOM     36  H   UNL     1      -2.397  -5.104  21.948  1.00  0.00     0.211 HD
ENDBRANCH  27  35
ENDBRANCH  21  22
ENDBRANCH   2  21
BRANCH   5  37
ATOM     37  O   UNL     1      -5.264  -8.253  26.612  1.00  0.00    -0.461 OA
BRANCH  37  38
ATOM     38  C   UNL     1      -3.925  -8.287  27.068  1.00  0.00     0.339 C 
ATOM     39  C   UNL     1      -3.563  -7.068  27.971  1.00  0.00     0.214 C 
ATOM     40  O   UNL     1      -3.058  -8.349  25.927  1.00  0.00    -0.332 OA
ATOM     41  C   UNL     1      -2.104  -7.226  28.441  1.00  0.00     0.180 C 
ATOM     42  C   UNL     1      -1.731  -8.673  26.390  1.00  0.00     0.179 C 
ATOM     43  C   UNL     1      -1.166  -7.505  27.225  1.00  0.00     0.177 C 
BRANCH  39  44
ATOM     44  O   UNL     1      -3.733  -5.851  27.266  1.00  0.00    -0.384 OA
ATOM     45  H   UNL     1      -3.219  -5.914  26.403  1.00  0.00     0.211 HD
ENDBRANCH  39  44
BRANCH  41  46
ATOM     46  O   UNL     1      -1.664  -6.096  29.167  1.00  0.00    -0.387 OA
ATOM     47  H   UNL     1      -2.458  -5.697  29.626  1.00  0.00     0.211 HD
ENDBRANCH  41  46
BRANCH  42  48
ATOM     48  C   UNL     1      -0.842  -9.040  25.214  1.00  0.00     0.191 C 
BRANCH  48  49
ATOM     49  O   UNL     1       0.480  -8.598  25.458  1.00  0.00    -0.394 OA
ATOM     50  H   UNL     1       0.600  -7.680  25.075  1.00  0.00     0.210 HD
ENDBRANCH  48  49
ENDBRANCH  42  48
BRANCH  43  51
ATOM     51  O   UNL     1      -1.023  -6.373  26.395  1.00  0.00    -0.387 OA
ATOM     52  H   UNL     1      -0.083  -6.103  26.405  1.00  0.00     0.211 HD
ENDBRANCH  43  51
ENDBRANCH  37  38
ENDBRANCH   5  37
BRANCH   7  53
ATOM     53  O   UNL     1      -9.125  -9.441  29.306  1.00  0.00    -0.507 OA
ATOM     54  H   UNL     1     -10.153  -9.518  29.314  1.00  0.00     0.293 HD
ENDBRANCH   7  53
TORSDOF 18
ENDMDL
MODEL 8
REMARK VINA RESULT:    -4.143     12.253     16.593
REMARK INTER + INTRA:          -9.063
REMARK INTER:                  -7.411
REMARK INTRA:                  -1.652
REMARK UNBOUND:                -1.771
REMARK SMILES COc1cc(-c2[o+]c3cc(O)cc(O[C@H]4O[C@@H](CO)[C@@H](O)[C@@H](O)[C@H]4O)c3cc2O[C@@H]2O[C@H](CO)[C@@H](O)[C@@H](O)[C@H]2O)ccc1O
REMARK SMILES IDX 6 1 28 2 27 3 26 4 13 5 12 6 10 7 9 8 8 9 7 10 5 11 3 12
REMARK SMILES IDX 43 13 4 14 42 15 41 16 2 17 1 18 44 19 29 21 30 22 39 23
REMARK SMILES IDX 31 24 37 25 32 26 35 27 40 28 38 30 33 32 34 33 36 35 14 37
REMARK SMILES IDX 15 38 24 39 16 40 22 41 17 42 20 43 25 44 23 46 18 48 19 49
REMARK SMILES IDX 21 51 11 53
REMARK H PARENT 44 20 40 29 38 31 34 34 36 36 25 45 23 47 19 50 21 52 11 54
REMARK Flexibility Score: inf
ROOT
ATOM      1  C   UNL     1      -8.658  -7.283  24.125  1.00  0.00     0.402 A 
ATOM      2  C   UNL     1      -8.393  -8.575  23.615  1.00  0.00     0.229 A 
ATOM      3  C   UNL     1      -8.349  -9.635  24.543  1.00  0.00     0.079 A 
ATOM      4  C   UNL     1      -8.252  -9.287  25.882  1.00  0.00     0.126 A 
ATOM      5  C   UNL     1      -7.154  -9.616  26.653  1.00  0.00     0.143 A 
ATOM      6  C   UNL     1      -7.169  -9.361  28.039  1.00  0.00     0.094 A 
ATOM      7  C   UNL     1      -8.249  -8.602  28.545  1.00  0.00     0.128 A 
ATOM      8  C   UNL     1      -9.125  -7.925  27.665  1.00  0.00     0.162 A 
ATOM      9  C   UNL     1      -8.933  -8.132  26.281  1.00  0.00     0.368 A 
ATOM     10  O   UNL     1      -9.125  -7.157  25.389  1.00  0.00    -0.202 OA
ENDROOT
BRANCH   1  11
ATOM     11  C   UNL     1      -8.101  -6.075  23.509  1.00  0.00     0.087 A 
ATOM     12  C   UNL     1      -6.373  -4.818  22.320  1.00  0.00     0.161 A 
ATOM     13  C   UNL     1      -7.382  -4.025  21.699  1.00  0.00     0.157 A 
ATOM     14  C   UNL     1      -6.757  -5.878  23.166  1.00  0.00     0.068 A 
ATOM     15  C   UNL     1      -8.723  -4.235  22.050  1.00  0.00     0.051 A 
ATOM     16  C   UNL     1      -9.087  -5.247  22.952  1.00  0.00     0.022 A 
BRANCH  12  17
ATOM     17  O   UNL     1      -4.994  -4.630  22.121  1.00  0.00    -0.493 OA
ATOM     18  C   UNL     1      -3.933  -5.116  22.920  1.00  0.00     0.278 C 
ENDBRANCH  12  17
BRANCH  13  19
ATOM     19  O   UNL     1      -7.105  -3.038  20.743  1.00  0.00    -0.504 OA
ATOM     20  H   UNL     1      -7.702  -2.243  20.636  1.00  0.00     0.293 HD
ENDBRANCH  13  19
ENDBRANCH   1  11
BRANCH   2  21
ATOM     21  O   UNL     1      -8.116  -8.805  22.264  1.00  0.00    -0.452 OA
BRANCH  21  22
ATOM     22  C   UNL     1      -6.786  -9.028  21.744  1.00  0.00     0.339 C 
ATOM     23  C   UNL     1      -6.584  -8.160  20.480  1.00  0.00     0.214 C 
ATOM     24  O   UNL     1      -5.812  -8.728  22.727  1.00  0.00    -0.332 OA
ATOM     25  C   UNL     1      -5.123  -8.188  19.975  1.00  0.00     0.180 C 
ATOM     26  C   UNL     1      -4.518  -9.046  22.251  1.00  0.00     0.179 C 
ATOM     27  C   UNL     1      -4.108  -8.041  21.152  1.00  0.00     0.177 C 
BRANCH  23  28
ATOM     28  O   UNL     1      -7.477  -8.528  19.468  1.00  0.00    -0.384 OA
ATOM     29  H   UNL     1      -7.732  -7.698  18.980  1.00  0.00     0.211 HD
ENDBRANCH  23  28
BRANCH  25  30
ATOM     30  O   UNL     1      -4.886  -9.355  19.206  1.00  0.00    -0.387 OA
ATOM     31  H   UNL     1      -4.564  -9.059  18.319  1.00  0.00     0.211 HD
ENDBRANCH  25  30
BRANCH  26  32
ATOM     32  C   UNL     1      -3.538  -9.068  23.431  1.00  0.00     0.191 C 
BRANCH  32  33
ATOM     33  O   UNL     1      -2.423  -8.250  23.147  1.00  0.00    -0.394 OA
ATOM     34  H   UNL     1      -2.174  -7.825  24.007  1.00  0.00     0.210 HD
ENDBRANCH  32  33
ENDBRANCH  26  32
BRANCH  27  35
ATOM     35  O   UNL     1      -2.801  -8.376  20.750  1.00  0.00    -0.387 OA
ATOM     36  H   UNL     1      -2.936  -9.034  20.031  1.00  0.00     0.211 HD
ENDBRANCH  27  35
ENDBRANCH  21  22
ENDBRANCH   2  21
BRANCH   5  37
ATOM     37  O   UNL     1      -5.955  -9.830  25.968  1.00  0.00    -0.461 OA
BRANCH  37  38
ATOM     38  C   UNL     1      -4.716  -9.159  26.097  1.00  0.00     0.339 C 
ATOM     39  C   UNL     1      -3.726  -9.894  27.053  1.00  0.00     0.214 C 
ATOM     40  O   UNL     1      -4.968  -7.823  26.555  1.00  0.00    -0.332 OA
ATOM     41  C   UNL     1      -2.404  -9.103  27.088  1.00  0.00     0.180 C 
ATOM     42  C   UNL     1      -3.752  -7.062  26.410  1.00  0.00     0.179 C 
ATOM     43  C   UNL     1      -2.678  -7.595  27.382  1.00  0.00     0.177 C 
BRANCH  39  44
ATOM     44  O   UNL     1      -4.275 -10.009  28.354  1.00  0.00    -0.384 OA
ATOM     45  H   UNL     1      -5.277 -10.037  28.270  1.00  0.00     0.211 HD
ENDBRANCH  39  44
BRANCH  41  46
ATOM     46  O   UNL     1      -1.498  -9.642  28.028  1.00  0.00    -0.387 OA
ATOM     47  H   UNL     1      -1.006 -10.393  27.586  1.00  0.00     0.211 HD
ENDBRANCH  41  46
BRANCH  42  48
ATOM     48  C   UNL     1      -4.035  -5.582  26.599  1.00  0.00     0.191 C 
BRANCH  48  49
ATOM     49  O   UNL     1      -2.988  -4.985  27.341  1.00  0.00    -0.394 OA
ATOM     50  H   UNL     1      -2.484  -5.696  27.835  1.00  0.00     0.210 HD
ENDBRANCH  48  49
ENDBRANCH  42  48
BRANCH  43  51
ATOM     51  O   UNL     1      -3.113  -7.383  28.707  1.00  0.00    -0.387 OA
ATOM     52  H   UNL     1      -2.689  -6.568  29.041  1.00  0.00     0.211 HD
ENDBRANCH  43  51
ENDBRANCH  37  38
ENDBRANCH   5  37
BRANCH   7  53
ATOM     53  O   UNL     1      -8.432  -8.473  29.918  1.00  0.00    -0.507 OA
ATOM     54  H   UNL     1      -8.486  -7.549  30.374  1.00  0.00     0.293 HD
ENDBRANCH   7  53
TORSDOF 18
ENDMDL
