MODEL 1
REMARK VINA RESULT:    -4.467      0.000      0.000
REMARK INTER + INTRA:          -9.888
REMARK INTER:                  -8.646
REMARK INTRA:                  -1.242
REMARK UNBOUND:                -1.242
REMARK SMILES CCCCCCCCCCCCCCCCCC(=O)[O-]
REMARK SMILES IDX 10 1 11 2 12 3 13 4 14 5 15 6 16 7 17 8 18 9 19 10 20 11
REMARK SMILES IDX 9 12 8 13 7 14 6 15 5 16 4 17 3 18 2 19 1 20
REMARK H PARENT
REMARK Flexibility Score: inf
ROOT
ATOM      1  C   UNL     1      13.788  -1.009 -20.807  1.00  0.00     0.000 C 
ENDROOT
BRANCH   1   2
ATOM      2  C   UNL     1      13.987  -1.075 -19.278  1.00  0.00     0.000 C 
BRANCH   2   3
ATOM      3  C   UNL     1      12.820  -1.783 -18.567  1.00  0.00     0.000 C 
BRANCH   3   4
ATOM      4  C   UNL     1      11.957  -0.823 -17.728  1.00  0.00     0.000 C 
BRANCH   4   5
ATOM      5  C   UNL     1      10.595  -0.466 -18.354  1.00  0.00     0.000 C 
BRANCH   5   6
ATOM      6  C   UNL     1       9.923  -1.665 -19.044  1.00  0.00     0.000 C 
BRANCH   6   7
ATOM      7  C   UNL     1      10.102  -1.642 -20.570  1.00  0.00     0.006 C 
BRANCH   7   8
ATOM      8  C   UNL     1       9.904  -3.026 -21.205  1.00  0.00     0.053 C 
BRANCH   8   9
ATOM      9  C   UNL     1      10.013  -2.938 -22.694  1.00  0.00     0.041 C 
ATOM     10  O   UNL     1      10.462  -1.894 -23.235  1.00  0.00    -0.550 OA
ATOM     11  O   UNL     1       9.663  -4.028 -23.482  1.00  0.00    -0.550 OA
ENDBRANCH   8   9
ENDBRANCH   7   8
ENDBRANCH   6   7
ENDBRANCH   5   6
ENDBRANCH   4   5
ENDBRANCH   3   4
ENDBRANCH   2   3
ENDBRANCH   1   2
BRANCH   1  12
ATOM     12  C   UNL     1      12.885   0.153 -21.264  1.00  0.00     0.000 C 
BRANCH  12  13
ATOM     13  C   UNL     1      12.832   1.353 -20.299  1.00  0.00    -0.000 C 
BRANCH  13  14
ATOM     14  C   UNL     1      13.312   2.687 -20.898  1.00  0.00    -0.000 C 
BRANCH  14  15
ATOM     15  C   UNL     1      13.393   3.815 -19.858  1.00  0.00    -0.000 C 
BRANCH  15  16
ATOM     16  C   UNL     1      13.506   5.183 -20.539  1.00  0.00    -0.000 C 
BRANCH  16  17
ATOM     17  C   UNL     1      14.952   5.702 -20.494  1.00  0.00    -0.000 C 
BRANCH  17  18
ATOM     18  C   UNL     1      15.512   6.020 -21.890  1.00  0.00    -0.000 C 
BRANCH  18  19
ATOM     19  C   UNL     1      16.703   5.129 -22.267  1.00  0.00    -0.003 C 
ATOM     20  C   UNL     1      16.642   4.725 -23.737  1.00  0.00     0.004 C 
ENDBRANCH  18  19
ENDBRANCH  17  18
ENDBRANCH  16  17
ENDBRANCH  15  16
ENDBRANCH  14  15
ENDBRANCH  13  14
ENDBRANCH  12  13
ENDBRANCH   1  12
TORSDOF 16
ENDMDL
MODEL 2
REMARK VINA RESULT:    -4.281      0.725      1.318
REMARK INTER + INTRA:          -9.527
REMARK INTER:                  -8.203
REMARK INTRA:                  -1.323
REMARK UNBOUND:                -1.242
REMARK SMILES CCCCCCCCCCCCCCCCCC(=O)[O-]
REMARK SMILES IDX 10 1 11 2 12 3 13 4 14 5 15 6 16 7 17 8 18 9 19 10 20 11
REMARK SMILES IDX 9 12 8 13 7 14 6 15 5 16 4 17 3 18 2 19 1 20
REMARK H PARENT
REMARK Flexibility Score: inf
ROOT
ATOM      1  C   UNL     1      14.273  -1.350 -19.203  1.00  0.00     0.000 C 
ENDROOT
BRANCH   1   2
ATOM      2  C   UNL     1      13.000  -1.614 -18.371  1.00  0.00     0.000 C 
BRANCH   2   3
ATOM      3  C   UNL     1      12.717  -0.487 -17.361  1.00  0.00     0.000 C 
BRANCH   3   4
ATOM      4  C   UNL     1      11.215  -0.265 -17.114  1.00  0.00     0.000 C 
BRANCH   4   5
ATOM      5  C   UNL     1      10.367  -0.108 -18.391  1.00  0.00     0.000 C 
BRANCH   5   6
ATOM      6  C   UNL     1       9.889  -1.455 -18.960  1.00  0.00     0.000 C 
BRANCH   6   7
ATOM      7  C   UNL     1       9.938  -1.496 -20.495  1.00  0.00     0.006 C 
BRANCH   7   8
ATOM      8  C   UNL     1       9.944  -2.930 -21.043  1.00  0.00     0.053 C 
BRANCH   8   9
ATOM      9  C   UNL     1      10.086  -2.919 -22.532  1.00  0.00     0.041 C 
ATOM     10  O   UNL     1      10.493  -1.885 -23.122  1.00  0.00    -0.550 OA
ATOM     11  O   UNL     1       9.812  -4.068 -23.264  1.00  0.00    -0.550 OA
ENDBRANCH   8   9
ENDBRANCH   7   8
ENDBRANCH   6   7
ENDBRANCH   5   6
ENDBRANCH   4   5
ENDBRANCH   3   4
ENDBRANCH   2   3
ENDBRANCH   1   2
BRANCH   1  12
ATOM     12  C   UNL     1      13.985  -0.916 -20.653  1.00  0.00     0.000 C 
BRANCH  12  13
ATOM     13  C   UNL     1      12.827   0.087 -20.813  1.00  0.00    -0.000 C 
BRANCH  13  14
ATOM     14  C   UNL     1      13.251   1.566 -20.849  1.00  0.00    -0.000 C 
BRANCH  14  15
ATOM     15  C   UNL     1      12.891   2.324 -19.562  1.00  0.00    -0.000 C 
BRANCH  15  16
ATOM     16  C   UNL     1      12.855   3.837 -19.808  1.00  0.00    -0.000 C 
BRANCH  16  17
ATOM     17  C   UNL     1      14.004   4.272 -20.730  1.00  0.00    -0.000 C 
BRANCH  17  18
ATOM     18  C   UNL     1      14.408   5.740 -20.522  1.00  0.00    -0.000 C 
BRANCH  18  19
ATOM     19  C   UNL     1      15.921   5.963 -20.656  1.00  0.00    -0.003 C 
ATOM     20  C   UNL     1      16.456   5.335 -21.940  1.00  0.00     0.004 C 
ENDBRANCH  18  19
ENDBRANCH  17  18
ENDBRANCH  16  17
ENDBRANCH  15  16
ENDBRANCH  14  15
ENDBRANCH  13  14
ENDBRANCH  12  13
ENDBRANCH   1  12
TORSDOF 16
ENDMDL
MODEL 3
REMARK VINA RESULT:    -4.242      3.462      7.894
REMARK INTER + INTRA:          -9.451
REMARK INTER:                  -8.188
REMARK INTRA:                  -1.264
REMARK UNBOUND:                -1.242
REMARK SMILES CCCCCCCCCCCCCCCCCC(=O)[O-]
REMARK SMILES IDX 10 1 11 2 12 3 13 4 14 5 15 6 16 7 17 8 18 9 19 10 20 11
REMARK SMILES IDX 9 12 8 13 7 14 6 15 5 16 4 17 3 18 2 19 1 20
REMARK H PARENT
REMARK Flexibility Score: inf
ROOT
ATOM      1  C   UNL     1      11.794   1.299 -18.006  1.00  0.00     0.000 C 
ENDROOT
BRANCH   1   2
ATOM      2  C   UNL     1      12.876   2.366 -18.278  1.00  0.00     0.000 C 
BRANCH   2   3
ATOM      3  C   UNL     1      12.874   2.840 -19.742  1.00  0.00     0.000 C 
BRANCH   3   4
ATOM      4  C   UNL     1      13.266   4.321 -19.893  1.00  0.00     0.000 C 
BRANCH   4   5
ATOM      5  C   UNL     1      14.379   4.592 -20.923  1.00  0.00     0.000 C 
BRANCH   5   6
ATOM      6  C   UNL     1      15.231   5.824 -20.571  1.00  0.00     0.000 C 
BRANCH   6   7
ATOM      7  C   UNL     1      16.527   5.898 -21.393  1.00  0.00     0.006 C 
BRANCH   7   8
ATOM      8  C   UNL     1      16.260   6.095 -22.892  1.00  0.00     0.053 C 
BRANCH   8   9
ATOM      9  C   UNL     1      17.337   5.450 -23.704  1.00  0.00     0.041 C 
ATOM     10  O   UNL     1      18.545   5.593 -23.380  1.00  0.00    -0.550 OA
ATOM     11  O   UNL     1      17.004   4.652 -24.792  1.00  0.00    -0.550 OA
ENDBRANCH   8   9
ENDBRANCH   7   8
ENDBRANCH   6   7
ENDBRANCH   5   6
ENDBRANCH   4   5
ENDBRANCH   3   4
ENDBRANCH   2   3
ENDBRANCH   1   2
BRANCH   1  12
ATOM     12  C   UNL     1      12.312   0.079 -17.221  1.00  0.00     0.000 C 
BRANCH  12  13
ATOM     13  C   UNL     1      12.105  -1.279 -17.919  1.00  0.00    -0.000 C 
BRANCH  13  14
ATOM     14  C   UNL     1      13.395  -1.954 -18.418  1.00  0.00    -0.000 C 
BRANCH  14  15
ATOM     15  C   UNL     1      14.221  -1.052 -19.347  1.00  0.00    -0.000 C 
BRANCH  15  16
ATOM     16  C   UNL     1      13.779  -1.215 -20.806  1.00  0.00    -0.000 C 
BRANCH  16  17
ATOM     17  C   UNL     1      12.637  -0.244 -21.146  1.00  0.00    -0.000 C 
BRANCH  17  18
ATOM     18  C   UNL     1      11.459  -0.937 -21.848  1.00  0.00    -0.000 C 
BRANCH  18  19
ATOM     19  C   UNL     1      10.885  -2.104 -21.031  1.00  0.00    -0.003 C 
ATOM     20  C   UNL     1      10.036  -3.021 -21.906  1.00  0.00     0.004 C 
ENDBRANCH  18  19
ENDBRANCH  17  18
ENDBRANCH  16  17
ENDBRANCH  15  16
ENDBRANCH  14  15
ENDBRANCH  13  14
ENDBRANCH  12  13
ENDBRANCH   1  12
TORSDOF 16
ENDMDL
MODEL 4
REMARK VINA RESULT:    -4.092      1.326      2.546
REMARK INTER + INTRA:          -9.162
REMARK INTER:                  -7.607
REMARK INTRA:                  -1.554
REMARK UNBOUND:                -1.242
REMARK SMILES CCCCCCCCCCCCCCCCCC(=O)[O-]
REMARK SMILES IDX 10 1 11 2 12 3 13 4 14 5 15 6 16 7 17 8 18 9 19 10 20 11
REMARK SMILES IDX 9 12 8 13 7 14 6 15 5 16 4 17 3 18 2 19 1 20
REMARK H PARENT
REMARK Flexibility Score: inf
ROOT
ATOM      1  C   UNL     1      12.194   0.101 -16.521  1.00  0.00     0.000 C 
ENDROOT
BRANCH   1   2
ATOM      2  C   UNL     1      11.679  -0.727 -17.718  1.00  0.00     0.000 C 
BRANCH   2   3
ATOM      3  C   UNL     1      12.681  -1.811 -18.153  1.00  0.00     0.000 C 
BRANCH   3   4
ATOM      4  C   UNL     1      13.923  -1.233 -18.854  1.00  0.00     0.000 C 
BRANCH   4   5
ATOM      5  C   UNL     1      13.873  -1.273 -20.393  1.00  0.00     0.000 C 
BRANCH   5   6
ATOM      6  C   UNL     1      13.163  -0.049 -20.998  1.00  0.00     0.000 C 
BRANCH   6   7
ATOM      7  C   UNL     1      11.699  -0.339 -21.363  1.00  0.00     0.006 C 
BRANCH   7   8
ATOM      8  C   UNL     1      11.508  -1.745 -21.951  1.00  0.00     0.053 C 
BRANCH   8   9
ATOM      9  C   UNL     1      10.269  -2.377 -21.402  1.00  0.00     0.041 C 
ATOM     10  O   UNL     1       9.760  -3.375 -21.976  1.00  0.00    -0.550 OA
ATOM     11  O   UNL     1       9.703  -1.892 -20.229  1.00  0.00    -0.550 OA
ENDBRANCH   8   9
ENDBRANCH   7   8
ENDBRANCH   6   7
ENDBRANCH   5   6
ENDBRANCH   4   5
ENDBRANCH   3   4
ENDBRANCH   2   3
ENDBRANCH   1   2
BRANCH   1  12
ATOM     12  C   UNL     1      12.855   1.432 -16.929  1.00  0.00     0.000 C 
BRANCH  12  13
ATOM     13  C   UNL     1      12.449   1.960 -18.318  1.00  0.00    -0.000 C 
BRANCH  13  14
ATOM     14  C   UNL     1      13.188   3.233 -18.768  1.00  0.00    -0.000 C 
BRANCH  14  15
ATOM     15  C   UNL     1      13.036   3.513 -20.271  1.00  0.00    -0.000 C 
BRANCH  15  16
ATOM     16  C   UNL     1      13.231   5.003 -20.575  1.00  0.00    -0.000 C 
BRANCH  16  17
ATOM     17  C   UNL     1      14.707   5.405 -20.431  1.00  0.00    -0.000 C 
BRANCH  17  18
ATOM     18  C   UNL     1      15.286   6.006 -21.721  1.00  0.00    -0.000 C 
BRANCH  18  19
ATOM     19  C   UNL     1      16.604   5.343 -22.144  1.00  0.00    -0.003 C 
ATOM     20  C   UNL     1      16.547   4.890 -23.600  1.00  0.00     0.004 C 
ENDBRANCH  18  19
ENDBRANCH  17  18
ENDBRANCH  16  17
ENDBRANCH  15  16
ENDBRANCH  14  15
ENDBRANCH  13  14
ENDBRANCH  12  13
ENDBRANCH   1  12
TORSDOF 16
ENDMDL
MODEL 5
REMARK VINA RESULT:    -4.002      1.420      3.063
REMARK INTER + INTRA:          -8.986
REMARK INTER:                  -7.402
REMARK INTRA:                  -1.584
REMARK UNBOUND:                -1.242
REMARK SMILES CCCCCCCCCCCCCCCCCC(=O)[O-]
REMARK SMILES IDX 10 1 11 2 12 3 13 4 14 5 15 6 16 7 17 8 18 9 19 10 20 11
REMARK SMILES IDX 9 12 8 13 7 14 6 15 5 16 4 17 3 18 2 19 1 20
REMARK H PARENT
REMARK Flexibility Score: inf
ROOT
ATOM      1  C   UNL     1      13.228  -2.090 -18.550  1.00  0.00     0.000 C 
ENDROOT
BRANCH   1   2
ATOM      2  C   UNL     1      14.429  -1.344 -19.170  1.00  0.00     0.000 C 
BRANCH   2   3
ATOM      3  C   UNL     1      14.210  -1.021 -20.659  1.00  0.00     0.000 C 
BRANCH   3   4
ATOM      4  C   UNL     1      13.138   0.059 -20.888  1.00  0.00     0.000 C 
BRANCH   4   5
ATOM      5  C   UNL     1      11.872  -0.432 -21.615  1.00  0.00     0.000 C 
BRANCH   5   6
ATOM      6  C   UNL     1      10.791  -0.948 -20.649  1.00  0.00     0.000 C 
BRANCH   6   7
ATOM      7  C   UNL     1      10.321  -2.369 -20.997  1.00  0.00     0.006 C 
BRANCH   7   8
ATOM      8  C   UNL     1      10.464  -2.684 -22.493  1.00  0.00     0.053 C 
BRANCH   8   9
ATOM      9  C   UNL     1       9.600  -3.845 -22.866  1.00  0.00     0.041 C 
ATOM     10  O   UNL     1       9.402  -4.778 -22.045  1.00  0.00    -0.550 OA
ATOM     11  O   UNL     1       8.972  -3.874 -24.106  1.00  0.00    -0.550 OA
ENDBRANCH   8   9
ENDBRANCH   7   8
ENDBRANCH   6   7
ENDBRANCH   5   6
ENDBRANCH   4   5
ENDBRANCH   3   4
ENDBRANCH   2   3
ENDBRANCH   1   2
BRANCH   1  12
ATOM     12  C   UNL     1      12.816  -1.554 -17.165  1.00  0.00     0.000 C 
BRANCH  12  13
ATOM     13  C   UNL     1      11.850  -0.354 -17.194  1.00  0.00    -0.000 C 
BRANCH  13  14
ATOM     14  C   UNL     1      12.344   0.894 -16.441  1.00  0.00    -0.000 C 
BRANCH  14  15
ATOM     15  C   UNL     1      13.255   1.787 -17.298  1.00  0.00    -0.000 C 
BRANCH  15  16
ATOM     16  C   UNL     1      12.666   1.987 -18.699  1.00  0.00    -0.000 C 
BRANCH  16  17
ATOM     17  C   UNL     1      12.629   3.477 -19.073  1.00  0.00    -0.000 C 
BRANCH  17  18
ATOM     18  C   UNL     1      13.588   3.823 -20.224  1.00  0.00    -0.000 C 
BRANCH  18  19
ATOM     19  C   UNL     1      13.756   5.337 -20.419  1.00  0.00    -0.003 C 
ATOM     20  C   UNL     1      15.201   5.688 -20.758  1.00  0.00     0.004 C 
ENDBRANCH  18  19
ENDBRANCH  17  18
ENDBRANCH  16  17
ENDBRANCH  15  16
ENDBRANCH  14  15
ENDBRANCH  13  14
ENDBRANCH  12  13
ENDBRANCH   1  12
TORSDOF 16
ENDMDL
MODEL 6
REMARK VINA RESULT:    -3.917      3.301      7.850
REMARK INTER + INTRA:          -8.822
REMARK INTER:                  -7.348
REMARK INTRA:                  -1.474
REMARK UNBOUND:                -1.242
REMARK SMILES CCCCCCCCCCCCCCCCCC(=O)[O-]
REMARK SMILES IDX 10 1 11 2 12 3 13 4 14 5 15 6 16 7 17 8 18 9 19 10 20 11
REMARK SMILES IDX 9 12 8 13 7 14 6 15 5 16 4 17 3 18 2 19 1 20
REMARK H PARENT
REMARK Flexibility Score: inf
ROOT
ATOM      1  C   UNL     1      13.231   0.168 -21.341  1.00  0.00     0.000 C 
ENDROOT
BRANCH   1   2
ATOM      2  C   UNL     1      12.961   1.351 -20.386  1.00  0.00     0.000 C 
BRANCH   2   3
ATOM      3  C   UNL     1      13.349   2.704 -21.007  1.00  0.00     0.000 C 
BRANCH   3   4
ATOM      4  C   UNL     1      13.305   3.863 -19.995  1.00  0.00     0.000 C 
BRANCH   4   5
ATOM      5  C   UNL     1      13.563   5.257 -20.598  1.00  0.00     0.000 C 
BRANCH   5   6
ATOM      6  C   UNL     1      15.017   5.727 -20.413  1.00  0.00     0.000 C 
BRANCH   6   7
ATOM      7  C   UNL     1      15.715   6.021 -21.749  1.00  0.00     0.006 C 
BRANCH   7   8
ATOM      8  C   UNL     1      16.885   5.065 -22.023  1.00  0.00     0.053 C 
BRANCH   8   9
ATOM      9  C   UNL     1      17.386   5.239 -23.421  1.00  0.00     0.041 C 
ATOM     10  O   UNL     1      18.483   5.817 -23.632  1.00  0.00    -0.550 OA
ATOM     11  O   UNL     1      16.663   4.719 -24.488  1.00  0.00    -0.550 OA
ENDBRANCH   8   9
ENDBRANCH   7   8
ENDBRANCH   6   7
ENDBRANCH   5   6
ENDBRANCH   4   5
ENDBRANCH   3   4
ENDBRANCH   2   3
ENDBRANCH   1   2
BRANCH   1  12
ATOM     12  C   UNL     1      13.398  -1.183 -20.620  1.00  0.00     0.000 C 
BRANCH  12  13
ATOM     13  C   UNL     1      13.945  -1.089 -19.183  1.00  0.00    -0.000 C 
BRANCH  13  14
ATOM     14  C   UNL     1      13.053  -1.733 -18.107  1.00  0.00    -0.000 C 
BRANCH  14  15
ATOM     15  C   UNL     1      12.538  -0.720 -17.073  1.00  0.00    -0.000 C 
BRANCH  15  16
ATOM     16  C   UNL     1      11.609   0.309 -17.728  1.00  0.00    -0.000 C 
BRANCH  16  17
ATOM     17  C   UNL     1      10.229  -0.301 -18.018  1.00  0.00    -0.000 C 
BRANCH  17  18
ATOM     18  C   UNL     1      10.040  -0.664 -19.500  1.00  0.00    -0.000 C 
BRANCH  18  19
ATOM     19  C   UNL     1       9.689  -2.144 -19.707  1.00  0.00    -0.003 C 
ATOM     20  C   UNL     1      10.158  -2.633 -21.074  1.00  0.00     0.004 C 
ENDBRANCH  18  19
ENDBRANCH  17  18
ENDBRANCH  16  17
ENDBRANCH  15  16
ENDBRANCH  14  15
ENDBRANCH  13  14
ENDBRANCH  12  13
ENDBRANCH   1  12
TORSDOF 16
ENDMDL
MODEL 7
REMARK VINA RESULT:    -3.790      2.729      3.727
REMARK INTER + INTRA:          -8.576
REMARK INTER:                  -7.639
REMARK INTRA:                  -0.937
REMARK UNBOUND:                -1.242
REMARK SMILES CCCCCCCCCCCCCCCCCC(=O)[O-]
REMARK SMILES IDX 10 1 11 2 12 3 13 4 14 5 15 6 16 7 17 8 18 9 19 10 20 11
REMARK SMILES IDX 9 12 8 13 7 14 6 15 5 16 4 17 3 18 2 19 1 20
REMARK H PARENT
REMARK Flexibility Score: inf
ROOT
ATOM      1  C   UNL     1      13.614   0.105 -20.845  1.00  0.00     0.000 C 
ENDROOT
BRANCH   1   2
ATOM      2  C   UNL     1      12.818  -1.217 -20.839  1.00  0.00     0.000 C 
BRANCH   2   3
ATOM      3  C   UNL     1      11.570  -1.153 -21.738  1.00  0.00     0.000 C 
BRANCH   3   4
ATOM      4  C   UNL     1      10.508  -2.202 -21.365  1.00  0.00     0.000 C 
BRANCH   4   5
ATOM      5  C   UNL     1      10.061  -2.172 -19.891  1.00  0.00     0.000 C 
BRANCH   5   6
ATOM      6  C   UNL     1       9.947  -0.744 -19.330  1.00  0.00     0.000 C 
BRANCH   6   7
ATOM      7  C   UNL     1      10.483  -0.631 -17.895  1.00  0.00     0.006 C 
BRANCH   7   8
ATOM      8  C   UNL     1      11.378   0.602 -17.699  1.00  0.00     0.053 C 
BRANCH   8   9
ATOM      9  C   UNL     1      12.548   0.265 -16.832  1.00  0.00     0.041 C 
ATOM     10  O   UNL     1      13.515   1.066 -16.733  1.00  0.00    -0.550 OA
ATOM     11  O   UNL     1      12.550  -0.912 -16.094  1.00  0.00    -0.550 OA
ENDBRANCH   8   9
ENDBRANCH   7   8
ENDBRANCH   6   7
ENDBRANCH   5   6
ENDBRANCH   4   5
ENDBRANCH   3   4
ENDBRANCH   2   3
ENDBRANCH   1   2
BRANCH   1  12
ATOM     12  C   UNL     1      12.800   1.319 -20.355  1.00  0.00     0.000 C 
BRANCH  12  13
ATOM     13  C   UNL     1      13.249   2.676 -20.928  1.00  0.00    -0.000 C 
BRANCH  13  14
ATOM     14  C   UNL     1      13.238   3.840 -19.921  1.00  0.00    -0.000 C 
BRANCH  14  15
ATOM     15  C   UNL     1      13.412   5.212 -20.591  1.00  0.00    -0.000 C 
BRANCH  15  16
ATOM     16  C   UNL     1      14.806   5.786 -20.310  1.00  0.00    -0.000 C 
BRANCH  16  17
ATOM     17  C   UNL     1      15.549   6.090 -21.620  1.00  0.00    -0.000 C 
BRANCH  17  18
ATOM     18  C   UNL     1      17.038   5.715 -21.558  1.00  0.00    -0.000 C 
BRANCH  18  19
ATOM     19  C   UNL     1      17.621   5.371 -22.936  1.00  0.00    -0.003 C 
ATOM     20  C   UNL     1      16.612   4.601 -23.781  1.00  0.00     0.004 C 
ENDBRANCH  18  19
ENDBRANCH  17  18
ENDBRANCH  16  17
ENDBRANCH  15  16
ENDBRANCH  14  15
ENDBRANCH  13  14
ENDBRANCH  12  13
ENDBRANCH   1  12
TORSDOF 16
ENDMDL
MODEL 8
REMARK VINA RESULT:    -3.723      3.438      7.004
REMARK INTER + INTRA:          -8.446
REMARK INTER:                  -6.813
REMARK INTRA:                  -1.633
REMARK UNBOUND:                -1.242
REMARK SMILES CCCCCCCCCCCCCCCCCC(=O)[O-]
REMARK SMILES IDX 10 1 11 2 12 3 13 4 14 5 15 6 16 7 17 8 18 9 19 10 20 11
REMARK SMILES IDX 9 12 8 13 7 14 6 15 5 16 4 17 3 18 2 19 1 20
REMARK H PARENT
REMARK Flexibility Score: inf
ROOT
ATOM      1  C   UNL     1      12.590  -1.512 -17.163  1.00  0.00     0.000 C 
ENDROOT
BRANCH   1   2
ATOM      2  C   UNL     1      13.391  -2.092 -18.348  1.00  0.00     0.000 C 
BRANCH   2   3
ATOM      3  C   UNL     1      14.138  -1.003 -19.138  1.00  0.00     0.000 C 
BRANCH   3   4
ATOM      4  C   UNL     1      13.982  -1.153 -20.662  1.00  0.00     0.000 C 
BRANCH   4   5
ATOM      5  C   UNL     1      13.368   0.068 -21.372  1.00  0.00     0.000 C 
BRANCH   5   6
ATOM      6  C   UNL     1      12.892   1.153 -20.389  1.00  0.00     0.000 C 
BRANCH   6   7
ATOM      7  C   UNL     1      13.226   2.572 -20.873  1.00  0.00     0.006 C 
BRANCH   7   8
ATOM      8  C   UNL     1      13.142   3.611 -19.745  1.00  0.00     0.053 C 
BRANCH   8   9
ATOM      9  C   UNL     1      13.521   4.965 -20.253  1.00  0.00     0.041 C 
ATOM     10  O   UNL     1      12.630   5.786 -20.592  1.00  0.00    -0.550 OA
ATOM     11  O   UNL     1      14.859   5.338 -20.308  1.00  0.00    -0.550 OA
ENDBRANCH   8   9
ENDBRANCH   7   8
ENDBRANCH   6   7
ENDBRANCH   5   6
ENDBRANCH   4   5
ENDBRANCH   3   4
ENDBRANCH   2   3
ENDBRANCH   1   2
BRANCH   1  12
ATOM     12  C   UNL     1      12.774   0.006 -16.976  1.00  0.00     0.000 C 
BRANCH  12  13
ATOM     13  C   UNL     1      11.634   0.873 -17.545  1.00  0.00    -0.000 C 
BRANCH  13  14
ATOM     14  C   UNL     1      10.309   0.127 -17.779  1.00  0.00    -0.000 C 
BRANCH  14  15
ATOM     15  C   UNL     1      10.228  -0.525 -19.168  1.00  0.00    -0.000 C 
BRANCH  15  16
ATOM     16  C   UNL     1       9.793  -1.992 -19.061  1.00  0.00    -0.000 C 
BRANCH  16  17
ATOM     17  C   UNL     1       9.768  -2.660 -20.444  1.00  0.00    -0.000 C 
BRANCH  17  18
ATOM     18  C   UNL     1      10.587  -1.889 -21.491  1.00  0.00    -0.000 C 
BRANCH  18  19
ATOM     19  C   UNL     1      10.635  -2.602 -22.850  1.00  0.00    -0.003 C 
ATOM     20  C   UNL     1       9.673  -3.785 -22.882  1.00  0.00     0.004 C 
ENDBRANCH  18  19
ENDBRANCH  17  18
ENDBRANCH  16  17
ENDBRANCH  15  16
ENDBRANCH  14  15
ENDBRANCH  13  14
ENDBRANCH  12  13
ENDBRANCH   1  12
TORSDOF 16
ENDMDL
MODEL 9
REMARK VINA RESULT:    -3.684      3.611      7.400
REMARK INTER + INTRA:          -8.372
REMARK INTER:                  -7.016
REMARK INTRA:                  -1.356
REMARK UNBOUND:                -1.242
REMARK SMILES CCCCCCCCCCCCCCCCCC(=O)[O-]
REMARK SMILES IDX 10 1 11 2 12 3 13 4 14 5 15 6 16 7 17 8 18 9 19 10 20 11
REMARK SMILES IDX 9 12 8 13 7 14 6 15 5 16 4 17 3 18 2 19 1 20
REMARK H PARENT
REMARK Flexibility Score: inf
ROOT
ATOM      1  C   UNL     1      12.876  -1.496 -17.198  1.00  0.00     0.000 C 
ENDROOT
BRANCH   1   2
ATOM      2  C   UNL     1      12.014  -0.226 -17.361  1.00  0.00     0.000 C 
BRANCH   2   3
ATOM      3  C   UNL     1      12.499   0.930 -16.468  1.00  0.00     0.000 C 
BRANCH   3   4
ATOM      4  C   UNL     1      13.035   2.126 -17.274  1.00  0.00     0.000 C 
BRANCH   4   5
ATOM      5  C   UNL     1      12.894   1.990 -18.802  1.00  0.00     0.000 C 
BRANCH   5   6
ATOM      6  C   UNL     1      12.520   3.316 -19.487  1.00  0.00     0.000 C 
BRANCH   6   7
ATOM      7  C   UNL     1      13.665   3.879 -20.343  1.00  0.00     0.006 C 
BRANCH   7   8
ATOM      8  C   UNL     1      13.792   5.405 -20.221  1.00  0.00     0.053 C 
BRANCH   8   9
ATOM      9  C   UNL     1      15.149   5.852 -20.662  1.00  0.00     0.041 C 
ATOM     10  O   UNL     1      16.081   5.969 -19.824  1.00  0.00    -0.550 OA
ATOM     11  O   UNL     1      15.398   6.095 -22.007  1.00  0.00    -0.550 OA
ENDBRANCH   8   9
ENDBRANCH   7   8
ENDBRANCH   6   7
ENDBRANCH   5   6
ENDBRANCH   4   5
ENDBRANCH   3   4
ENDBRANCH   2   3
ENDBRANCH   1   2
BRANCH   1  12
ATOM     12  C   UNL     1      13.328  -2.113 -18.536  1.00  0.00     0.000 C 
BRANCH  12  13
ATOM     13  C   UNL     1      14.449  -1.344 -19.260  1.00  0.00    -0.000 C 
BRANCH  13  14
ATOM     14  C   UNL     1      14.146  -0.984 -20.726  1.00  0.00    -0.000 C 
BRANCH  14  15
ATOM     15  C   UNL     1      12.793  -0.277 -20.899  1.00  0.00    -0.000 C 
BRANCH  15  16
ATOM     16  C   UNL     1      11.775  -1.199 -21.581  1.00  0.00    -0.000 C 
BRANCH  16  17
ATOM     17  C   UNL     1      10.667  -1.616 -20.601  1.00  0.00    -0.000 C 
BRANCH  17  18
ATOM     18  C   UNL     1       9.772  -2.734 -21.159  1.00  0.00    -0.000 C 
BRANCH  18  19
ATOM     19  C   UNL     1      10.264  -3.268 -22.512  1.00  0.00    -0.003 C 
ATOM     20  C   UNL     1       9.136  -3.957 -23.273  1.00  0.00     0.004 C 
ENDBRANCH  18  19
ENDBRANCH  17  18
ENDBRANCH  16  17
ENDBRANCH  15  16
ENDBRANCH  14  15
ENDBRANCH  13  14
ENDBRANCH  12  13
ENDBRANCH   1  12
TORSDOF 16
ENDMDL
