MODEL 1
REMARK VINA RESULT:    -5.518      0.000      0.000
REMARK INTER + INTRA:         -13.500
REMARK INTER:                 -10.680
REMARK INTRA:                  -2.820
REMARK UNBOUND:                -2.820
REMARK SMILES CCCCCCCCCCCCCCCCCC(=O)[O-]
REMARK SMILES IDX 10 1 11 2 12 3 13 4 14 5 15 6 16 7 17 8 18 9 19 10 20 11
REMARK SMILES IDX 9 12 8 13 7 14 6 15 5 16 4 17 3 18 2 19 1 20
REMARK H PARENT
REMARK Flexibility Score: inf
ROOT
ATOM      1  C   UNL     1      19.997  15.035  -0.033  1.00  0.00     0.000 C 
ENDROOT
BRANCH   1   2
ATOM      2  C   UNL     1      19.274  13.726   0.332  1.00  0.00     0.000 C 
BRANCH   2   3
ATOM      3  C   UNL     1      19.326  12.629  -0.748  1.00  0.00     0.000 C 
BRANCH   3   4
ATOM      4  C   UNL     1      19.489  13.192  -2.167  1.00  0.00     0.000 C 
BRANCH   4   5
ATOM      5  C   UNL     1      20.275  12.217  -3.057  1.00  0.00     0.000 C 
BRANCH   5   6
ATOM      6  C   UNL     1      21.756  12.118  -2.658  1.00  0.00     0.000 C 
BRANCH   6   7
ATOM      7  C   UNL     1      22.647  13.105  -3.433  1.00  0.00     0.006 C 
BRANCH   7   8
ATOM      8  C   UNL     1      24.015  12.503  -3.779  1.00  0.00     0.053 C 
BRANCH   8   9
ATOM      9  C   UNL     1      23.968  11.713  -5.052  1.00  0.00     0.041 C 
ATOM     10  O   UNL     1      23.115  11.988  -5.936  1.00  0.00    -0.550 OA
ATOM     11  O   UNL     1      24.888  10.696  -5.275  1.00  0.00    -0.550 OA
ENDBRANCH   8   9
ENDBRANCH   7   8
ENDBRANCH   6   7
ENDBRANCH   5   6
ENDBRANCH   4   5
ENDBRANCH   3   4
ENDBRANCH   2   3
ENDBRANCH   1   2
BRANCH   1  12
ATOM     12  C   UNL     1      20.782  15.634   1.142  1.00  0.00     0.000 C 
BRANCH  12  13
ATOM     13  C   UNL     1      22.268  15.792   0.786  1.00  0.00    -0.000 C 
BRANCH  13  14
ATOM     14  C   UNL     1      22.787  14.655  -0.109  1.00  0.00    -0.000 C 
BRANCH  14  15
ATOM     15  C   UNL     1      23.509  13.558   0.687  1.00  0.00    -0.000 C 
BRANCH  15  16
ATOM     16  C   UNL     1      22.737  12.234   0.623  1.00  0.00    -0.000 C 
BRANCH  16  17
ATOM     17  C   UNL     1      22.499  11.667   2.030  1.00  0.00    -0.000 C 
BRANCH  17  18
ATOM     18  C   UNL     1      21.739  12.643   2.942  1.00  0.00    -0.000 C 
BRANCH  18  19
ATOM     19  C   UNL     1      22.559  13.064   4.170  1.00  0.00    -0.003 C 
ATOM     20  C   UNL     1      22.743  14.579   4.215  1.00  0.00     0.004 C 
ENDBRANCH  18  19
ENDBRANCH  17  18
ENDBRANCH  16  17
ENDBRANCH  15  16
ENDBRANCH  14  15
ENDBRANCH  13  14
ENDBRANCH  12  13
ENDBRANCH   1  12
TORSDOF 16
ENDMDL
MODEL 2
REMARK VINA RESULT:    -5.505      3.478      6.838
REMARK INTER + INTRA:         -13.474
REMARK INTER:                 -11.151
REMARK INTRA:                  -2.323
REMARK UNBOUND:                -2.820
REMARK SMILES CCCCCCCCCCCCCCCCCC(=O)[O-]
REMARK SMILES IDX 10 1 11 2 12 3 13 4 14 5 15 6 16 7 17 8 18 9 19 10 20 11
REMARK SMILES IDX 9 12 8 13 7 14 6 15 5 16 4 17 3 18 2 19 1 20
REMARK H PARENT
REMARK Flexibility Score: inf
ROOT
ATOM      1  C   UNL     1      22.712  11.412   0.891  1.00  0.00     0.000 C 
ENDROOT
BRANCH   1   2
ATOM      2  C   UNL     1      23.749  12.231   0.100  1.00  0.00     0.000 C 
BRANCH   2   3
ATOM      3  C   UNL     1      24.048  13.629   0.670  1.00  0.00     0.000 C 
BRANCH   3   4
ATOM      4  C   UNL     1      23.008  14.681   0.256  1.00  0.00     0.000 C 
BRANCH   4   5
ATOM      5  C   UNL     1      22.818  15.729   1.363  1.00  0.00     0.000 C 
BRANCH   5   6
ATOM      6  C   UNL     1      21.680  15.365   2.330  1.00  0.00     0.000 C 
BRANCH   6   7
ATOM      7  C   UNL     1      22.134  15.353   3.801  1.00  0.00     0.006 C 
BRANCH   7   8
ATOM      8  C   UNL     1      23.232  14.313   4.060  1.00  0.00     0.053 C 
BRANCH   8   9
ATOM      9  C   UNL     1      22.665  13.024   4.572  1.00  0.00     0.041 C 
ATOM     10  O   UNL     1      23.095  12.525   5.646  1.00  0.00    -0.550 OA
ATOM     11  O   UNL     1      21.638  12.392   3.882  1.00  0.00    -0.550 OA
ENDBRANCH   8   9
ENDBRANCH   7   8
ENDBRANCH   6   7
ENDBRANCH   5   6
ENDBRANCH   4   5
ENDBRANCH   3   4
ENDBRANCH   2   3
ENDBRANCH   1   2
BRANCH   1  12
ATOM     12  C   UNL     1      21.377  11.257   0.149  1.00  0.00     0.000 C 
BRANCH  12  13
ATOM     13  C   UNL     1      20.344  12.272   0.660  1.00  0.00    -0.000 C 
BRANCH  13  14
ATOM     14  C   UNL     1      19.337  12.691  -0.424  1.00  0.00    -0.000 C 
BRANCH  14  15
ATOM     15  C   UNL     1      19.967  13.583  -1.503  1.00  0.00    -0.000 C 
BRANCH  15  16
ATOM     16  C   UNL     1      19.805  12.960  -2.895  1.00  0.00    -0.000 C 
BRANCH  16  17
ATOM     17  C   UNL     1      21.103  12.276  -3.347  1.00  0.00    -0.000 C 
BRANCH  17  18
ATOM     18  C   UNL     1      22.361  13.044  -2.910  1.00  0.00    -0.000 C 
BRANCH  18  19
ATOM     19  C   UNL     1      23.278  13.396  -4.090  1.00  0.00    -0.003 C 
ATOM     20  C   UNL     1      22.918  12.580  -5.328  1.00  0.00     0.004 C 
ENDBRANCH  18  19
ENDBRANCH  17  18
ENDBRANCH  16  17
ENDBRANCH  15  16
ENDBRANCH  14  15
ENDBRANCH  13  14
ENDBRANCH  12  13
ENDBRANCH   1  12
TORSDOF 16
ENDMDL
MODEL 3
REMARK VINA RESULT:    -5.487      1.095      2.647
REMARK INTER + INTRA:         -13.440
REMARK INTER:                 -10.713
REMARK INTRA:                  -2.726
REMARK UNBOUND:                -2.820
REMARK SMILES CCCCCCCCCCCCCCCCCC(=O)[O-]
REMARK SMILES IDX 10 1 11 2 12 3 13 4 14 5 15 6 16 7 17 8 18 9 19 10 20 11
REMARK SMILES IDX 9 12 8 13 7 14 6 15 5 16 4 17 3 18 2 19 1 20
REMARK H PARENT
REMARK Flexibility Score: inf
ROOT
ATOM      1  C   UNL     1      21.452  15.513   0.484  1.00  0.00     0.000 C 
ENDROOT
BRANCH   1   2
ATOM      2  C   UNL     1      19.951  15.683   0.781  1.00  0.00     0.000 C 
BRANCH   2   3
ATOM      3  C   UNL     1      19.027  14.678   0.069  1.00  0.00     0.000 C 
BRANCH   3   4
ATOM      4  C   UNL     1      19.379  13.216   0.379  1.00  0.00     0.000 C 
BRANCH   4   5
ATOM      5  C   UNL     1      19.481  12.391  -0.913  1.00  0.00     0.000 C 
BRANCH   5   6
ATOM      6  C   UNL     1      19.943  13.230  -2.115  1.00  0.00     0.000 C 
BRANCH   6   7
ATOM      7  C   UNL     1      20.692  12.395  -3.168  1.00  0.00     0.006 C 
BRANCH   7   8
ATOM      8  C   UNL     1      22.106  12.016  -2.709  1.00  0.00     0.053 C 
BRANCH   8   9
ATOM      9  C   UNL     1      23.143  12.432  -3.708  1.00  0.00     0.041 C 
ATOM     10  O   UNL     1      23.578  11.604  -4.551  1.00  0.00    -0.550 OA
ATOM     11  O   UNL     1      23.603  13.743  -3.728  1.00  0.00    -0.550 OA
ENDBRANCH   8   9
ENDBRANCH   7   8
ENDBRANCH   6   7
ENDBRANCH   5   6
ENDBRANCH   4   5
ENDBRANCH   3   4
ENDBRANCH   2   3
ENDBRANCH   1   2
BRANCH   1  12
ATOM     12  C   UNL     1      22.348  15.964   1.646  1.00  0.00     0.000 C 
BRANCH  12  13
ATOM     13  C   UNL     1      21.817  15.434   2.986  1.00  0.00    -0.000 C 
BRANCH  13  14
ATOM     14  C   UNL     1      22.925  14.838   3.870  1.00  0.00    -0.000 C 
BRANCH  14  15
ATOM     15  C   UNL     1      22.754  13.329   4.095  1.00  0.00    -0.000 C 
BRANCH  15  16
ATOM     16  C   UNL     1      21.832  12.716   3.034  1.00  0.00    -0.000 C 
BRANCH  16  17
ATOM     17  C   UNL     1      22.600  11.732   2.139  1.00  0.00    -0.000 C 
BRANCH  17  18
ATOM     18  C   UNL     1      22.820  12.273   0.717  1.00  0.00    -0.000 C 
BRANCH  18  19
ATOM     19  C   UNL     1      24.306  12.348   0.337  1.00  0.00    -0.003 C 
ATOM     20  C   UNL     1      25.036  13.391   1.178  1.00  0.00     0.004 C 
ENDBRANCH  18  19
ENDBRANCH  17  18
ENDBRANCH  16  17
ENDBRANCH  15  16
ENDBRANCH  14  15
ENDBRANCH  13  14
ENDBRANCH  12  13
ENDBRANCH   1  12
TORSDOF 16
ENDMDL
MODEL 4
REMARK VINA RESULT:    -5.474      1.051      3.442
REMARK INTER + INTRA:         -13.414
REMARK INTER:                 -11.029
REMARK INTRA:                  -2.385
REMARK UNBOUND:                -2.820
REMARK SMILES CCCCCCCCCCCCCCCCCC(=O)[O-]
REMARK SMILES IDX 10 1 11 2 12 3 13 4 14 5 15 6 16 7 17 8 18 9 19 10 20 11
REMARK SMILES IDX 9 12 8 13 7 14 6 15 5 16 4 17 3 18 2 19 1 20
REMARK H PARENT
REMARK Flexibility Score: inf
ROOT
ATOM      1  C   UNL     1      21.947  12.429   2.674  1.00  0.00     0.000 C 
ENDROOT
BRANCH   1   2
ATOM      2  C   UNL     1      22.354  11.389   1.614  1.00  0.00     0.000 C 
BRANCH   2   3
ATOM      3  C   UNL     1      22.547  11.948   0.192  1.00  0.00     0.000 C 
BRANCH   3   4
ATOM      4  C   UNL     1      21.855  11.100  -0.885  1.00  0.00     0.000 C 
BRANCH   4   5
ATOM      5  C   UNL     1      22.003  11.746  -2.271  1.00  0.00     0.000 C 
BRANCH   5   6
ATOM      6  C   UNL     1      22.902  12.993  -2.248  1.00  0.00     0.000 C 
BRANCH   6   7
ATOM      7  C   UNL     1      23.522  13.302  -3.622  1.00  0.00     0.006 C 
BRANCH   7   8
ATOM      8  C   UNL     1      22.753  12.631  -4.769  1.00  0.00     0.053 C 
BRANCH   8   9
ATOM      9  C   UNL     1      23.641  11.741  -5.585  1.00  0.00     0.041 C 
ATOM     10  O   UNL     1      23.489  11.669  -6.833  1.00  0.00    -0.550 OA
ATOM     11  O   UNL     1      24.657  11.020  -4.973  1.00  0.00    -0.550 OA
ENDBRANCH   8   9
ENDBRANCH   7   8
ENDBRANCH   6   7
ENDBRANCH   5   6
ENDBRANCH   4   5
ENDBRANCH   3   4
ENDBRANCH   2   3
ENDBRANCH   1   2
BRANCH   1  12
ATOM     12  C   UNL     1      23.109  13.334   3.103  1.00  0.00     0.000 C 
BRANCH  12  13
ATOM     13  C   UNL     1      22.613  14.471   4.010  1.00  0.00    -0.000 C 
BRANCH  13  14
ATOM     14  C   UNL     1      22.197  15.722   3.220  1.00  0.00    -0.000 C 
BRANCH  14  15
ATOM     15  C   UNL     1      22.756  15.732   1.790  1.00  0.00    -0.000 C 
BRANCH  15  16
ATOM     16  C   UNL     1      21.707  16.239   0.793  1.00  0.00    -0.000 C 
BRANCH  16  17
ATOM     17  C   UNL     1      20.983  15.069   0.113  1.00  0.00    -0.000 C 
BRANCH  17  18
ATOM     18  C   UNL     1      19.586  14.813   0.702  1.00  0.00    -0.000 C 
BRANCH  18  19
ATOM     19  C   UNL     1      19.033  13.430   0.331  1.00  0.00    -0.003 C 
ATOM     20  C   UNL     1      18.885  13.285  -1.181  1.00  0.00     0.004 C 
ENDBRANCH  18  19
ENDBRANCH  17  18
ENDBRANCH  16  17
ENDBRANCH  15  16
ENDBRANCH  14  15
ENDBRANCH  13  14
ENDBRANCH  12  13
ENDBRANCH   1  12
TORSDOF 16
ENDMDL
MODEL 5
REMARK VINA RESULT:    -5.453      3.548      5.985
REMARK INTER + INTRA:         -13.373
REMARK INTER:                 -10.767
REMARK INTRA:                  -2.606
REMARK UNBOUND:                -2.820
REMARK SMILES CCCCCCCCCCCCCCCCCC(=O)[O-]
REMARK SMILES IDX 10 1 11 2 12 3 13 4 14 5 15 6 16 7 17 8 18 9 19 10 20 11
REMARK SMILES IDX 9 12 8 13 7 14 6 15 5 16 4 17 3 18 2 19 1 20
REMARK H PARENT
REMARK Flexibility Score: inf
ROOT
ATOM      1  C   UNL     1      19.189  12.508  -0.595  1.00  0.00     0.000 C 
ENDROOT
BRANCH   1   2
ATOM      2  C   UNL     1      19.294  13.722   0.345  1.00  0.00     0.000 C 
BRANCH   2   3
ATOM      3  C   UNL     1      19.747  15.031  -0.329  1.00  0.00     0.000 C 
BRANCH   3   4
ATOM      4  C   UNL     1      20.335  16.044   0.664  1.00  0.00     0.000 C 
BRANCH   4   5
ATOM      5  C   UNL     1      21.811  15.734   0.956  1.00  0.00     0.000 C 
BRANCH   5   6
ATOM      6  C   UNL     1      22.175  15.935   2.435  1.00  0.00     0.000 C 
BRANCH   6   7
ATOM      7  C   UNL     1      23.037  14.789   2.994  1.00  0.00     0.006 C 
BRANCH   7   8
ATOM      8  C   UNL     1      22.754  14.522   4.479  1.00  0.00     0.053 C 
BRANCH   8   9
ATOM      9  C   UNL     1      22.882  13.067   4.815  1.00  0.00     0.041 C 
ATOM     10  O   UNL     1      23.380  12.266   3.980  1.00  0.00    -0.550 OA
ATOM     11  O   UNL     1      22.483  12.603   6.062  1.00  0.00    -0.550 OA
ENDBRANCH   8   9
ENDBRANCH   7   8
ENDBRANCH   6   7
ENDBRANCH   5   6
ENDBRANCH   4   5
ENDBRANCH   3   4
ENDBRANCH   2   3
ENDBRANCH   1   2
BRANCH   1  12
ATOM     12  C   UNL     1      19.461  12.860  -2.065  1.00  0.00     0.000 C 
BRANCH  12  13
ATOM     13  C   UNL     1      20.567  11.968  -2.648  1.00  0.00    -0.000 C 
BRANCH  13  14
ATOM     14  C   UNL     1      21.590  12.758  -3.480  1.00  0.00    -0.000 C 
BRANCH  14  15
ATOM     15  C   UNL     1      22.980  12.792  -2.830  1.00  0.00    -0.000 C 
BRANCH  15  16
ATOM     16  C   UNL     1      22.927  13.464  -1.453  1.00  0.00    -0.000 C 
BRANCH  16  17
ATOM     17  C   UNL     1      23.558  12.568  -0.378  1.00  0.00    -0.000 C 
BRANCH  17  18
ATOM     18  C   UNL     1      22.530  12.054   0.643  1.00  0.00    -0.000 C 
BRANCH  18  19
ATOM     19  C   UNL     1      22.612  10.535   0.850  1.00  0.00    -0.003 C 
ATOM     20  C   UNL     1      21.867   9.789  -0.253  1.00  0.00     0.004 C 
ENDBRANCH  18  19
ENDBRANCH  17  18
ENDBRANCH  16  17
ENDBRANCH  15  16
ENDBRANCH  14  15
ENDBRANCH  13  14
ENDBRANCH  12  13
ENDBRANCH   1  12
TORSDOF 16
ENDMDL
MODEL 6
REMARK VINA RESULT:    -5.386      1.241      3.156
REMARK INTER + INTRA:         -13.244
REMARK INTER:                 -10.916
REMARK INTRA:                  -2.327
REMARK UNBOUND:                -2.820
REMARK SMILES CCCCCCCCCCCCCCCCCC(=O)[O-]
REMARK SMILES IDX 10 1 11 2 12 3 13 4 14 5 15 6 16 7 17 8 18 9 19 10 20 11
REMARK SMILES IDX 9 12 8 13 7 14 6 15 5 16 4 17 3 18 2 19 1 20
REMARK H PARENT
REMARK Flexibility Score: inf
ROOT
ATOM      1  C   UNL     1      21.104  10.970  -0.090  1.00  0.00     0.000 C 
ENDROOT
BRANCH   1   2
ATOM      2  C   UNL     1      21.971  11.770   0.899  1.00  0.00     0.000 C 
BRANCH   2   3
ATOM      3  C   UNL     1      23.471  11.824   0.556  1.00  0.00     0.000 C 
BRANCH   3   4
ATOM      4  C   UNL     1      23.899  13.168  -0.052  1.00  0.00     0.000 C 
BRANCH   4   5
ATOM      5  C   UNL     1      22.996  13.547  -1.236  1.00  0.00     0.000 C 
BRANCH   5   6
ATOM      6  C   UNL     1      23.586  13.115  -2.588  1.00  0.00     0.000 C 
BRANCH   6   7
ATOM      7  C   UNL     1      22.542  12.452  -3.505  1.00  0.00     0.006 C 
BRANCH   7   8
ATOM      8  C   UNL     1      22.748  12.822  -4.980  1.00  0.00     0.053 C 
BRANCH   8   9
ATOM      9  C   UNL     1      23.602  11.815  -5.690  1.00  0.00     0.041 C 
ATOM     10  O   UNL     1      23.527  11.691  -6.941  1.00  0.00    -0.550 OA
ATOM     11  O   UNL     1      24.504  11.039  -4.974  1.00  0.00    -0.550 OA
ENDBRANCH   8   9
ENDBRANCH   7   8
ENDBRANCH   6   7
ENDBRANCH   5   6
ENDBRANCH   4   5
ENDBRANCH   3   4
ENDBRANCH   2   3
ENDBRANCH   1   2
BRANCH   1  12
ATOM     12  C   UNL     1      19.904  11.769  -0.617  1.00  0.00     0.000 C 
BRANCH  12  13
ATOM     13  C   UNL     1      19.554  12.925   0.331  1.00  0.00    -0.000 C 
BRANCH  13  14
ATOM     14  C   UNL     1      19.436  14.274  -0.396  1.00  0.00    -0.000 C 
BRANCH  14  15
ATOM     15  C   UNL     1      20.165  15.408   0.340  1.00  0.00    -0.000 C 
BRANCH  15  16
ATOM     16  C   UNL     1      20.881  14.881   1.590  1.00  0.00    -0.000 C 
BRANCH  16  17
ATOM     17  C   UNL     1      21.903  15.902   2.110  1.00  0.00    -0.000 C 
BRANCH  17  18
ATOM     18  C   UNL     1      22.455  15.532   3.497  1.00  0.00    -0.000 C 
BRANCH  18  19
ATOM     19  C   UNL     1      23.295  14.247   3.475  1.00  0.00    -0.003 C 
ATOM     20  C   UNL     1      22.724  13.202   4.430  1.00  0.00     0.004 C 
ENDBRANCH  18  19
ENDBRANCH  17  18
ENDBRANCH  16  17
ENDBRANCH  15  16
ENDBRANCH  14  15
ENDBRANCH  13  14
ENDBRANCH  12  13
ENDBRANCH   1  12
TORSDOF 16
ENDMDL
MODEL 7
REMARK VINA RESULT:    -5.341      1.329      3.620
REMARK INTER + INTRA:         -13.157
REMARK INTER:                 -10.922
REMARK INTRA:                  -2.235
REMARK UNBOUND:                -2.820
REMARK SMILES CCCCCCCCCCCCCCCCCC(=O)[O-]
REMARK SMILES IDX 10 1 11 2 12 3 13 4 14 5 15 6 16 7 17 8 18 9 19 10 20 11
REMARK SMILES IDX 9 12 8 13 7 14 6 15 5 16 4 17 3 18 2 19 1 20
REMARK H PARENT
REMARK Flexibility Score: inf
ROOT
ATOM      1  C   UNL     1      22.083  11.956   1.277  1.00  0.00     0.000 C 
ENDROOT
BRANCH   1   2
ATOM      2  C   UNL     1      23.404  12.122   0.504  1.00  0.00     0.000 C 
BRANCH   2   3
ATOM      3  C   UNL     1      23.317  13.007  -0.753  1.00  0.00     0.000 C 
BRANCH   3   4
ATOM      4  C   UNL     1      21.966  12.895  -1.473  1.00  0.00     0.000 C 
BRANCH   4   5
ATOM      5  C   UNL     1      22.121  12.172  -2.820  1.00  0.00     0.000 C 
BRANCH   5   6
ATOM      6  C   UNL     1      23.090  12.895  -3.770  1.00  0.00     0.000 C 
BRANCH   6   7
ATOM      7  C   UNL     1      22.907  12.472  -5.238  1.00  0.00     0.006 C 
BRANCH   7   8
ATOM      8  C   UNL     1      23.968  11.458  -5.686  1.00  0.00     0.053 C 
BRANCH   8   9
ATOM      9  C   UNL     1      23.870  11.163  -7.152  1.00  0.00     0.041 C 
ATOM     10  O   UNL     1      23.989   9.981  -7.569  1.00  0.00    -0.550 OA
ATOM     11  O   UNL     1      23.612  12.189  -8.052  1.00  0.00    -0.550 OA
ENDBRANCH   8   9
ENDBRANCH   7   8
ENDBRANCH   6   7
ENDBRANCH   5   6
ENDBRANCH   4   5
ENDBRANCH   3   4
ENDBRANCH   2   3
ENDBRANCH   1   2
BRANCH   1  12
ATOM     12  C   UNL     1      22.188  12.392   2.745  1.00  0.00     0.000 C 
BRANCH  12  13
ATOM     13  C   UNL     1      23.238  13.500   2.914  1.00  0.00    -0.000 C 
BRANCH  13  14
ATOM     14  C   UNL     1      22.768  14.625   3.851  1.00  0.00    -0.000 C 
BRANCH  14  15
ATOM     15  C   UNL     1      22.226  15.842   3.087  1.00  0.00    -0.000 C 
BRANCH  15  16
ATOM     16  C   UNL     1      22.756  15.870   1.649  1.00  0.00    -0.000 C 
BRANCH  16  17
ATOM     17  C   UNL     1      21.603  15.925   0.637  1.00  0.00    -0.000 C 
BRANCH  17  18
ATOM     18  C   UNL     1      20.316  15.274   1.169  1.00  0.00    -0.000 C 
BRANCH  18  19
ATOM     19  C   UNL     1      19.327  14.919   0.050  1.00  0.00    -0.003 C 
ATOM     20  C   UNL     1      18.888  13.461   0.146  1.00  0.00     0.004 C 
ENDBRANCH  18  19
ENDBRANCH  17  18
ENDBRANCH  16  17
ENDBRANCH  15  16
ENDBRANCH  14  15
ENDBRANCH  13  14
ENDBRANCH  12  13
ENDBRANCH   1  12
TORSDOF 16
ENDMDL
MODEL 8
REMARK VINA RESULT:    -5.328      1.272      2.455
REMARK INTER + INTRA:         -13.132
REMARK INTER:                 -10.852
REMARK INTRA:                  -2.280
REMARK UNBOUND:                -2.820
REMARK SMILES CCCCCCCCCCCCCCCCCC(=O)[O-]
REMARK SMILES IDX 10 1 11 2 12 3 13 4 14 5 15 6 16 7 17 8 18 9 19 10 20 11
REMARK SMILES IDX 9 12 8 13 7 14 6 15 5 16 4 17 3 18 2 19 1 20
REMARK H PARENT
REMARK Flexibility Score: inf
ROOT
ATOM      1  C   UNL     1      19.366  13.462   0.378  1.00  0.00     0.000 C 
ENDROOT
BRANCH   1   2
ATOM      2  C   UNL     1      19.495  12.555  -0.860  1.00  0.00     0.000 C 
BRANCH   2   3
ATOM      3  C   UNL     1      19.840  13.285  -2.171  1.00  0.00     0.000 C 
BRANCH   3   4
ATOM      4  C   UNL     1      20.882  12.539  -3.016  1.00  0.00     0.000 C 
BRANCH   4   5
ATOM      5  C   UNL     1      22.309  12.911  -2.584  1.00  0.00     0.000 C 
BRANCH   5   6
ATOM      6  C   UNL     1      23.264  13.072  -3.777  1.00  0.00     0.000 C 
BRANCH   6   7
ATOM      7  C   UNL     1      22.818  12.261  -5.006  1.00  0.00     0.006 C 
BRANCH   7   8
ATOM      8  C   UNL     1      23.995  11.554  -5.692  1.00  0.00     0.053 C 
BRANCH   8   9
ATOM      9  C   UNL     1      23.719  11.299  -7.143  1.00  0.00     0.041 C 
ATOM     10  O   UNL     1      23.631  12.263  -7.949  1.00  0.00    -0.550 OA
ATOM     11  O   UNL     1      23.594   9.997  -7.610  1.00  0.00    -0.550 OA
ENDBRANCH   8   9
ENDBRANCH   7   8
ENDBRANCH   6   7
ENDBRANCH   5   6
ENDBRANCH   4   5
ENDBRANCH   3   4
ENDBRANCH   2   3
ENDBRANCH   1   2
BRANCH   1  12
ATOM     12  C   UNL     1      19.380  14.957   0.030  1.00  0.00     0.000 C 
BRANCH  12  13
ATOM     13  C   UNL     1      20.523  15.680   0.759  1.00  0.00    -0.000 C 
BRANCH  13  14
ATOM     14  C   UNL     1      21.900  15.067   0.459  1.00  0.00    -0.000 C 
BRANCH  14  15
ATOM     15  C   UNL     1      22.835  15.087   1.677  1.00  0.00    -0.000 C 
BRANCH  15  16
ATOM     16  C   UNL     1      22.264  14.241   2.821  1.00  0.00    -0.000 C 
BRANCH  16  17
ATOM     17  C   UNL     1      22.943  12.865   2.881  1.00  0.00    -0.000 C 
BRANCH  17  18
ATOM     18  C   UNL     1      22.163  11.786   2.113  1.00  0.00    -0.000 C 
BRANCH  18  19
ATOM     19  C   UNL     1      22.803  11.444   0.760  1.00  0.00    -0.003 C 
ATOM     20  C   UNL     1      22.126  10.235   0.121  1.00  0.00     0.004 C 
ENDBRANCH  18  19
ENDBRANCH  17  18
ENDBRANCH  16  17
ENDBRANCH  15  16
ENDBRANCH  14  15
ENDBRANCH  13  14
ENDBRANCH  12  13
ENDBRANCH   1  12
TORSDOF 16
ENDMDL
MODEL 9
REMARK VINA RESULT:    -5.254      3.519      6.283
REMARK INTER + INTRA:         -12.989
REMARK INTER:                 -10.458
REMARK INTRA:                  -2.531
REMARK UNBOUND:                -2.820
REMARK SMILES CCCCCCCCCCCCCCCCCC(=O)[O-]
REMARK SMILES IDX 10 1 11 2 12 3 13 4 14 5 15 6 16 7 17 8 18 9 19 10 20 11
REMARK SMILES IDX 9 12 8 13 7 14 6 15 5 16 4 17 3 18 2 19 1 20
REMARK H PARENT
REMARK Flexibility Score: inf
ROOT
ATOM      1  C   UNL     1      19.312  12.998  -0.932  1.00  0.00     0.000 C 
ENDROOT
BRANCH   1   2
ATOM      2  C   UNL     1      20.138  14.278  -0.710  1.00  0.00     0.000 C 
BRANCH   2   3
ATOM      3  C   UNL     1      19.481  15.328   0.205  1.00  0.00     0.000 C 
BRANCH   3   4
ATOM      4  C   UNL     1      20.491  16.057   1.103  1.00  0.00     0.000 C 
BRANCH   4   5
ATOM      5  C   UNL     1      21.929  15.822   0.615  1.00  0.00     0.000 C 
BRANCH   5   6
ATOM      6  C   UNL     1      22.853  15.303   1.728  1.00  0.00     0.000 C 
BRANCH   6   7
ATOM      7  C   UNL     1      22.081  14.891   2.994  1.00  0.00     0.006 C 
BRANCH   7   8
ATOM      8  C   UNL     1      23.019  14.550   4.160  1.00  0.00     0.053 C 
BRANCH   8   9
ATOM      9  C   UNL     1      22.814  13.146   4.644  1.00  0.00     0.041 C 
ATOM     10  O   UNL     1      23.099  12.172   3.899  1.00  0.00    -0.550 OA
ATOM     11  O   UNL     1      22.342  12.915   5.930  1.00  0.00    -0.550 OA
ENDBRANCH   8   9
ENDBRANCH   7   8
ENDBRANCH   6   7
ENDBRANCH   5   6
ENDBRANCH   4   5
ENDBRANCH   3   4
ENDBRANCH   2   3
ENDBRANCH   1   2
BRANCH   1  12
ATOM     12  C   UNL     1      19.988  11.741  -0.366  1.00  0.00     0.000 C 
BRANCH  12  13
ATOM     13  C   UNL     1      21.080  12.114   0.647  1.00  0.00    -0.000 C 
BRANCH  13  14
ATOM     14  C   UNL     1      22.427  11.439   0.343  1.00  0.00    -0.000 C 
BRANCH  14  15
ATOM     15  C   UNL     1      23.625  12.360   0.614  1.00  0.00    -0.000 C 
BRANCH  15  16
ATOM     16  C   UNL     1      24.379  12.677  -0.683  1.00  0.00    -0.000 C 
BRANCH  16  17
ATOM     17  C   UNL     1      23.425  13.221  -1.756  1.00  0.00    -0.000 C 
BRANCH  17  18
ATOM     18  C   UNL     1      24.004  13.108  -3.176  1.00  0.00    -0.000 C 
BRANCH  18  19
ATOM     19  C   UNL     1      22.913  13.043  -4.255  1.00  0.00    -0.003 C 
ATOM     20  C   UNL     1      21.637  12.409  -3.709  1.00  0.00     0.004 C 
ENDBRANCH  18  19
ENDBRANCH  17  18
ENDBRANCH  16  17
ENDBRANCH  15  16
ENDBRANCH  14  15
ENDBRANCH  13  14
ENDBRANCH  12  13
ENDBRANCH   1  12
TORSDOF 16
ENDMDL
