MODEL 1
REMARK VINA RESULT:    -3.819      0.000      0.000
REMARK INTER + INTRA:          -7.678
REMARK INTER:                  -6.498
REMARK INTRA:                  -1.180
REMARK UNBOUND:                -1.180
REMARK SMILES CCCCCCCCCCCCCC(=O)[O-]
REMARK SMILES IDX 8 1 9 2 10 3 11 4 12 5 13 6 14 7 15 8 16 9 7 10 6 11 5 12
REMARK SMILES IDX 4 13 3 14 2 15 1 16
REMARK H PARENT
REMARK Flexibility Score: inf
ROOT
ATOM      1  C   UNL     1      45.496 -30.370 -28.575  1.00  0.00     0.000 C 
ENDROOT
BRANCH   1   2
ATOM      2  C   UNL     1      44.896 -29.311 -29.515  1.00  0.00     0.000 C 
BRANCH   2   3
ATOM      3  C   UNL     1      45.958 -28.341 -30.062  1.00  0.00     0.000 C 
BRANCH   3   4
ATOM      4  C   UNL     1      46.127 -28.448 -31.586  1.00  0.00     0.000 C 
BRANCH   4   5
ATOM      5  C   UNL     1      47.493 -29.028 -31.992  1.00  0.00     0.006 C 
BRANCH   5   6
ATOM      6  C   UNL     1      48.426 -27.957 -32.576  1.00  0.00     0.053 C 
BRANCH   6   7
ATOM      7  C   UNL     1      49.835 -28.123 -32.097  1.00  0.00     0.041 C 
ATOM      8  O   UNL     1      50.123 -29.034 -31.277  1.00  0.00    -0.550 OA
ATOM      9  O   UNL     1      50.837 -27.290 -32.580  1.00  0.00    -0.550 OA
ENDBRANCH   6   7
ENDBRANCH   5   6
ENDBRANCH   4   5
ENDBRANCH   3   4
ENDBRANCH   2   3
ENDBRANCH   1   2
BRANCH   1  10
ATOM     10  C   UNL     1      46.029 -31.598 -29.335  1.00  0.00     0.000 C 
BRANCH  10  11
ATOM     11  C   UNL     1      47.547 -31.793 -29.166  1.00  0.00    -0.000 C 
BRANCH  11  12
ATOM     12  C   UNL     1      48.005 -33.251 -28.973  1.00  0.00    -0.000 C 
BRANCH  12  13
ATOM     13  C   UNL     1      46.890 -34.273 -29.257  1.00  0.00    -0.000 C 
BRANCH  13  14
ATOM     14  C   UNL     1      46.529 -35.110 -28.020  1.00  0.00    -0.000 C 
BRANCH  14  15
ATOM     15  C   UNL     1      46.832 -34.381 -26.702  1.00  0.00    -0.003 C 
ATOM     16  C   UNL     1      45.596 -33.653 -26.181  1.00  0.00     0.004 C 
ENDBRANCH  14  15
ENDBRANCH  13  14
ENDBRANCH  12  13
ENDBRANCH  11  12
ENDBRANCH  10  11
ENDBRANCH   1  10
TORSDOF 12
ENDMDL
MODEL 2
REMARK VINA RESULT:    -3.755      2.448      4.929
REMARK INTER + INTRA:          -7.569
REMARK INTER:                  -6.428
REMARK INTRA:                  -1.141
REMARK UNBOUND:                -1.180
REMARK SMILES CCCCCCCCCCCCCC(=O)[O-]
REMARK SMILES IDX 8 1 9 2 10 3 11 4 12 5 13 6 14 7 15 8 16 9 7 10 6 11 5 12
REMARK SMILES IDX 4 13 3 14 2 15 1 16
REMARK H PARENT
REMARK Flexibility Score: inf
ROOT
ATOM      1  C   UNL     1      45.312 -30.896 -29.205  1.00  0.00     0.000 C 
ENDROOT
BRANCH   1   2
ATOM      2  C   UNL     1      46.317 -29.921 -29.839  1.00  0.00     0.000 C 
BRANCH   2   3
ATOM      3  C   UNL     1      45.627 -28.795 -30.628  1.00  0.00     0.000 C 
BRANCH   3   4
ATOM      4  C   UNL     1      46.615 -27.972 -31.471  1.00  0.00     0.000 C 
BRANCH   4   5
ATOM      5  C   UNL     1      47.560 -28.853 -32.307  1.00  0.00     0.006 C 
BRANCH   5   6
ATOM      6  C   UNL     1      48.722 -28.048 -32.905  1.00  0.00     0.053 C 
BRANCH   6   7
ATOM      7  C   UNL     1      49.935 -28.081 -32.026  1.00  0.00     0.041 C 
ATOM      8  O   UNL     1      50.030 -28.939 -31.110  1.00  0.00    -0.550 OA
ATOM      9  O   UNL     1      50.973 -27.182 -32.238  1.00  0.00    -0.550 OA
ENDBRANCH   6   7
ENDBRANCH   5   6
ENDBRANCH   4   5
ENDBRANCH   3   4
ENDBRANCH   2   3
ENDBRANCH   1   2
BRANCH   1  10
ATOM     10  C   UNL     1      43.850 -30.491 -29.471  1.00  0.00     0.000 C 
BRANCH  10  11
ATOM     11  C   UNL     1      43.040 -30.285 -28.179  1.00  0.00    -0.000 C 
BRANCH  11  12
ATOM     12  C   UNL     1      41.580 -29.838 -28.382  1.00  0.00    -0.000 C 
BRANCH  12  13
ATOM     13  C   UNL     1      41.204 -29.674 -29.864  1.00  0.00    -0.000 C 
BRANCH  13  14
ATOM     14  C   UNL     1      41.029 -28.202 -30.269  1.00  0.00    -0.000 C 
BRANCH  14  15
ATOM     15  C   UNL     1      42.010 -27.770 -31.370  1.00  0.00    -0.003 C 
ATOM     16  C   UNL     1      42.089 -28.818 -32.477  1.00  0.00     0.004 C 
ENDBRANCH  14  15
ENDBRANCH  13  14
ENDBRANCH  12  13
ENDBRANCH  11  12
ENDBRANCH  10  11
ENDBRANCH   1  10
TORSDOF 12
ENDMDL
MODEL 3
REMARK VINA RESULT:    -3.736      3.262      5.162
REMARK INTER + INTRA:          -7.537
REMARK INTER:                  -6.690
REMARK INTRA:                  -0.848
REMARK UNBOUND:                -1.180
REMARK SMILES CCCCCCCCCCCCCC(=O)[O-]
REMARK SMILES IDX 8 1 9 2 10 3 11 4 12 5 13 6 14 7 15 8 16 9 7 10 6 11 5 12
REMARK SMILES IDX 4 13 3 14 2 15 1 16
REMARK H PARENT
REMARK Flexibility Score: inf
ROOT
ATOM      1  C   UNL     1      46.479 -29.248 -30.733  1.00  0.00     0.000 C 
ENDROOT
BRANCH   1   2
ATOM      2  C   UNL     1      46.745 -28.581 -32.093  1.00  0.00     0.000 C 
BRANCH   2   3
ATOM      3  C   UNL     1      47.885 -27.551 -32.031  1.00  0.00     0.000 C 
BRANCH   3   4
ATOM      4  C   UNL     1      49.061 -27.913 -32.953  1.00  0.00     0.000 C 
BRANCH   4   5
ATOM      5  C   UNL     1      50.428 -27.593 -32.323  1.00  0.00     0.006 C 
BRANCH   5   6
ATOM      6  C   UNL     1      50.814 -28.603 -31.233  1.00  0.00     0.053 C 
BRANCH   6   7
ATOM      7  C   UNL     1      52.089 -29.317 -31.559  1.00  0.00     0.041 C 
ATOM      8  O   UNL     1      52.836 -29.734 -30.635  1.00  0.00    -0.550 OA
ATOM      9  O   UNL     1      52.439 -29.549 -32.883  1.00  0.00    -0.550 OA
ENDBRANCH   6   7
ENDBRANCH   5   6
ENDBRANCH   4   5
ENDBRANCH   3   4
ENDBRANCH   2   3
ENDBRANCH   1   2
BRANCH   1  10
ATOM     10  C   UNL     1      45.079 -28.922 -30.181  1.00  0.00     0.000 C 
BRANCH  10  11
ATOM     11  C   UNL     1      44.412 -30.126 -29.492  1.00  0.00    -0.000 C 
BRANCH  11  12
ATOM     12  C   UNL     1      42.875 -30.168 -29.584  1.00  0.00    -0.000 C 
BRANCH  12  13
ATOM     13  C   UNL     1      42.230 -28.776 -29.471  1.00  0.00    -0.000 C 
BRANCH  13  14
ATOM     14  C   UNL     1      41.378 -28.420 -30.700  1.00  0.00    -0.000 C 
BRANCH  14  15
ATOM     15  C   UNL     1      41.833 -29.155 -31.970  1.00  0.00    -0.003 C 
ATOM     16  C   UNL     1      42.799 -28.299 -32.783  1.00  0.00     0.004 C 
ENDBRANCH  14  15
ENDBRANCH  13  14
ENDBRANCH  12  13
ENDBRANCH  11  12
ENDBRANCH  10  11
ENDBRANCH   1  10
TORSDOF 12
ENDMDL
MODEL 4
REMARK VINA RESULT:    -3.720      1.496      2.771
REMARK INTER + INTRA:          -7.509
REMARK INTER:                  -6.378
REMARK INTRA:                  -1.131
REMARK UNBOUND:                -1.180
REMARK SMILES CCCCCCCCCCCCCC(=O)[O-]
REMARK SMILES IDX 8 1 9 2 10 3 11 4 12 5 13 6 14 7 15 8 16 9 7 10 6 11 5 12
REMARK SMILES IDX 4 13 3 14 2 15 1 16
REMARK H PARENT
REMARK Flexibility Score: inf
ROOT
ATOM      1  C   UNL     1      46.099 -28.293 -30.253  1.00  0.00     0.000 C 
ENDROOT
BRANCH   1   2
ATOM      2  C   UNL     1      46.338 -28.317 -31.772  1.00  0.00     0.000 C 
BRANCH   2   3
ATOM      3  C   UNL     1      47.563 -27.483 -32.188  1.00  0.00     0.000 C 
BRANCH   3   4
ATOM      4  C   UNL     1      48.827 -28.338 -32.367  1.00  0.00     0.000 C 
BRANCH   4   5
ATOM      5  C   UNL     1      49.975 -27.902 -31.439  1.00  0.00     0.006 C 
BRANCH   5   6
ATOM      6  C   UNL     1      50.818 -29.093 -30.964  1.00  0.00     0.053 C 
BRANCH   6   7
ATOM      7  C   UNL     1      52.149 -29.145 -31.650  1.00  0.00     0.041 C 
ATOM      8  O   UNL     1      52.226 -29.492 -32.857  1.00  0.00    -0.550 OA
ATOM      9  O   UNL     1      53.300 -28.780 -30.964  1.00  0.00    -0.550 OA
ENDBRANCH   6   7
ENDBRANCH   5   6
ENDBRANCH   4   5
ENDBRANCH   3   4
ENDBRANCH   2   3
ENDBRANCH   1   2
BRANCH   1  10
ATOM     10  C   UNL     1      45.479 -29.603 -29.734  1.00  0.00     0.000 C 
BRANCH  10  11
ATOM     11  C   UNL     1      46.449 -30.797 -29.812  1.00  0.00    -0.000 C 
BRANCH  11  12
ATOM     12  C   UNL     1      47.868 -30.528 -29.278  1.00  0.00    -0.000 C 
BRANCH  12  13
ATOM     13  C   UNL     1      48.318 -31.556 -28.226  1.00  0.00    -0.000 C 
BRANCH  13  14
ATOM     14  C   UNL     1      48.485 -32.966 -28.814  1.00  0.00    -0.000 C 
BRANCH  14  15
ATOM     15  C   UNL     1      47.399 -33.941 -28.334  1.00  0.00    -0.003 C 
ATOM     16  C   UNL     1      46.491 -34.362 -29.486  1.00  0.00     0.004 C 
ENDBRANCH  14  15
ENDBRANCH  13  14
ENDBRANCH  12  13
ENDBRANCH  11  12
ENDBRANCH  10  11
ENDBRANCH   1  10
TORSDOF 12
ENDMDL
MODEL 5
REMARK VINA RESULT:    -3.689      1.421      2.248
REMARK INTER + INTRA:          -7.456
REMARK INTER:                  -5.869
REMARK INTRA:                  -1.587
REMARK UNBOUND:                -1.180
REMARK SMILES CCCCCCCCCCCCCC(=O)[O-]
REMARK SMILES IDX 8 1 9 2 10 3 11 4 12 5 13 6 14 7 15 8 16 9 7 10 6 11 5 12
REMARK SMILES IDX 4 13 3 14 2 15 1 16
REMARK H PARENT
REMARK Flexibility Score: inf
ROOT
ATOM      1  C   UNL     1      46.258 -30.177 -29.546  1.00  0.00     0.000 C 
ENDROOT
BRANCH   1   2
ATOM      2  C   UNL     1      45.355 -29.186 -30.299  1.00  0.00     0.000 C 
BRANCH   2   3
ATOM      3  C   UNL     1      46.145 -28.286 -31.264  1.00  0.00     0.000 C 
BRANCH   3   4
ATOM      4  C   UNL     1      47.223 -29.057 -32.043  1.00  0.00     0.000 C 
BRANCH   4   5
ATOM      5  C   UNL     1      48.518 -28.245 -32.224  1.00  0.00     0.006 C 
BRANCH   5   6
ATOM      6  C   UNL     1      48.901 -27.477 -30.952  1.00  0.00     0.053 C 
BRANCH   6   7
ATOM      7  C   UNL     1      50.203 -26.752 -31.109  1.00  0.00     0.041 C 
ATOM      8  O   UNL     1      50.524 -25.845 -30.297  1.00  0.00    -0.550 OA
ATOM      9  O   UNL     1      51.074 -27.098 -32.134  1.00  0.00    -0.550 OA
ENDBRANCH   6   7
ENDBRANCH   5   6
ENDBRANCH   4   5
ENDBRANCH   3   4
ENDBRANCH   2   3
ENDBRANCH   1   2
BRANCH   1  10
ATOM     10  C   UNL     1      46.837 -29.578 -28.251  1.00  0.00     0.000 C 
BRANCH  10  11
ATOM     11  C   UNL     1      48.278 -30.042 -27.968  1.00  0.00    -0.000 C 
BRANCH  11  12
ATOM     12  C   UNL     1      48.963 -30.799 -29.121  1.00  0.00    -0.000 C 
BRANCH  12  13
ATOM     13  C   UNL     1      49.619 -32.115 -28.667  1.00  0.00    -0.000 C 
BRANCH  13  14
ATOM     14  C   UNL     1      48.589 -33.167 -28.228  1.00  0.00    -0.000 C 
BRANCH  14  15
ATOM     15  C   UNL     1      47.747 -33.697 -29.398  1.00  0.00    -0.003 C 
ATOM     16  C   UNL     1      46.513 -34.440 -28.894  1.00  0.00     0.004 C 
ENDBRANCH  14  15
ENDBRANCH  13  14
ENDBRANCH  12  13
ENDBRANCH  11  12
ENDBRANCH  10  11
ENDBRANCH   1  10
TORSDOF 12
ENDMDL
MODEL 6
REMARK VINA RESULT:    -3.686     11.141     13.259
REMARK INTER + INTRA:          -7.452
REMARK INTER:                  -5.556
REMARK INTRA:                  -1.897
REMARK UNBOUND:                -1.180
REMARK SMILES CCCCCCCCCCCCCC(=O)[O-]
REMARK SMILES IDX 8 1 9 2 10 3 11 4 12 5 13 6 14 7 15 8 16 9 7 10 6 11 5 12
REMARK SMILES IDX 4 13 3 14 2 15 1 16
REMARK H PARENT
REMARK Flexibility Score: inf
ROOT
ATOM      1  C   UNL     1      51.506 -40.650 -30.047  1.00  0.00     0.000 C 
ENDROOT
BRANCH   1   2
ATOM      2  C   UNL     1      52.481 -40.526 -28.864  1.00  0.00     0.000 C 
BRANCH   2   3
ATOM      3  C   UNL     1      51.885 -41.063 -27.551  1.00  0.00     0.000 C 
BRANCH   3   4
ATOM      4  C   UNL     1      52.324 -42.504 -27.248  1.00  0.00     0.000 C 
BRANCH   4   5
ATOM      5  C   UNL     1      53.731 -42.821 -27.784  1.00  0.00     0.006 C 
BRANCH   5   6
ATOM      6  C   UNL     1      54.820 -42.575 -26.731  1.00  0.00     0.053 C 
BRANCH   6   7
ATOM      7  C   UNL     1      56.191 -42.841 -27.272  1.00  0.00     0.041 C 
ATOM      8  O   UNL     1      56.636 -44.018 -27.318  1.00  0.00    -0.550 OA
ATOM      9  O   UNL     1      56.965 -41.793 -27.754  1.00  0.00    -0.550 OA
ENDBRANCH   6   7
ENDBRANCH   5   6
ENDBRANCH   4   5
ENDBRANCH   3   4
ENDBRANCH   2   3
ENDBRANCH   1   2
BRANCH   1  10
ATOM     10  C   UNL     1      51.889 -41.791 -31.008  1.00  0.00     0.000 C 
BRANCH  10  11
ATOM     11  C   UNL     1      51.158 -43.109 -30.695  1.00  0.00    -0.000 C 
BRANCH  11  12
ATOM     12  C   UNL     1      49.682 -42.961 -30.284  1.00  0.00    -0.000 C 
BRANCH  12  13
ATOM     13  C   UNL     1      49.320 -43.786 -29.037  1.00  0.00    -0.000 C 
BRANCH  13  14
ATOM     14  C   UNL     1      48.529 -42.974 -28.001  1.00  0.00    -0.000 C 
BRANCH  14  15
ATOM     15  C   UNL     1      48.328 -41.510 -28.423  1.00  0.00    -0.003 C 
ATOM     16  C   UNL     1      48.113 -40.613 -27.208  1.00  0.00     0.004 C 
ENDBRANCH  14  15
ENDBRANCH  13  14
ENDBRANCH  12  13
ENDBRANCH  11  12
ENDBRANCH  10  11
ENDBRANCH   1  10
TORSDOF 12
ENDMDL
MODEL 7
REMARK VINA RESULT:    -3.612     11.398     13.197
REMARK INTER + INTRA:          -7.327
REMARK INTER:                  -5.455
REMARK INTRA:                  -1.871
REMARK UNBOUND:                -1.180
REMARK SMILES CCCCCCCCCCCCCC(=O)[O-]
REMARK SMILES IDX 8 1 9 2 10 3 11 4 12 5 13 6 14 7 15 8 16 9 7 10 6 11 5 12
REMARK SMILES IDX 4 13 3 14 2 15 1 16
REMARK H PARENT
REMARK Flexibility Score: inf
ROOT
ATOM      1  C   UNL     1      54.367 -37.758 -26.230  1.00  0.00     0.000 C 
ENDROOT
BRANCH   1   2
ATOM      2  C   UNL     1      54.575 -38.866 -27.276  1.00  0.00     0.000 C 
BRANCH   2   3
ATOM      3  C   UNL     1      55.964 -38.803 -27.933  1.00  0.00     0.000 C 
BRANCH   3   4
ATOM      4  C   UNL     1      56.736 -40.126 -27.813  1.00  0.00     0.000 C 
BRANCH   4   5
ATOM      5  C   UNL     1      56.523 -41.049 -29.026  1.00  0.00     0.006 C 
BRANCH   5   6
ATOM      6  C   UNL     1      56.604 -40.286 -30.355  1.00  0.00     0.053 C 
BRANCH   6   7
ATOM      7  C   UNL     1      55.466 -40.628 -31.266  1.00  0.00     0.041 C 
ATOM      8  O   UNL     1      54.446 -41.211 -30.814  1.00  0.00    -0.550 OA
ATOM      9  O   UNL     1      55.519 -40.277 -32.609  1.00  0.00    -0.550 OA
ENDBRANCH   6   7
ENDBRANCH   5   6
ENDBRANCH   4   5
ENDBRANCH   3   4
ENDBRANCH   2   3
ENDBRANCH   1   2
BRANCH   1  10
ATOM     10  C   UNL     1      55.628 -36.900 -26.022  1.00  0.00     0.000 C 
BRANCH  10  11
ATOM     11  C   UNL     1      56.230 -37.051 -24.613  1.00  0.00    -0.000 C 
BRANCH  11  12
ATOM     12  C   UNL     1      57.556 -37.831 -24.544  1.00  0.00    -0.000 C 
BRANCH  12  13
ATOM     13  C   UNL     1      57.358 -39.324 -24.232  1.00  0.00    -0.000 C 
BRANCH  13  14
ATOM     14  C   UNL     1      56.063 -39.597 -23.451  1.00  0.00    -0.000 C 
BRANCH  14  15
ATOM     15  C   UNL     1      55.209 -40.704 -24.087  1.00  0.00    -0.003 C 
ATOM     16  C   UNL     1      56.084 -41.833 -24.622  1.00  0.00     0.004 C 
ENDBRANCH  14  15
ENDBRANCH  13  14
ENDBRANCH  12  13
ENDBRANCH  11  12
ENDBRANCH  10  11
ENDBRANCH   1  10
TORSDOF 12
ENDMDL
MODEL 8
REMARK VINA RESULT:    -3.591     12.267     14.420
REMARK INTER + INTRA:          -7.290
REMARK INTER:                  -5.140
REMARK INTRA:                  -2.151
REMARK UNBOUND:                -1.180
REMARK SMILES CCCCCCCCCCCCCC(=O)[O-]
REMARK SMILES IDX 8 1 9 2 10 3 11 4 12 5 13 6 14 7 15 8 16 9 7 10 6 11 5 12
REMARK SMILES IDX 4 13 3 14 2 15 1 16
REMARK H PARENT
REMARK Flexibility Score: inf
ROOT
ATOM      1  C   UNL     1      53.364 -43.416 -26.349  1.00  0.00     0.000 C 
ENDROOT
BRANCH   1   2
ATOM      2  C   UNL     1      54.788 -43.966 -26.538  1.00  0.00     0.000 C 
BRANCH   2   3
ATOM      3  C   UNL     1      55.859 -43.050 -25.922  1.00  0.00     0.000 C 
BRANCH   3   4
ATOM      4  C   UNL     1      56.252 -41.891 -26.851  1.00  0.00     0.000 C 
BRANCH   4   5
ATOM      5  C   UNL     1      55.938 -40.512 -26.246  1.00  0.00     0.006 C 
BRANCH   5   6
ATOM      6  C   UNL     1      55.502 -40.611 -24.777  1.00  0.00     0.053 C 
BRANCH   6   7
ATOM      7  C   UNL     1      56.354 -39.763 -23.883  1.00  0.00     0.041 C 
ATOM      8  O   UNL     1      57.548 -39.513 -24.196  1.00  0.00    -0.550 OA
ATOM      9  O   UNL     1      55.820 -39.223 -22.720  1.00  0.00    -0.550 OA
ENDBRANCH   6   7
ENDBRANCH   5   6
ENDBRANCH   4   5
ENDBRANCH   3   4
ENDBRANCH   2   3
ENDBRANCH   1   2
BRANCH   1  10
ATOM     10  C   UNL     1      52.447 -43.731 -27.545  1.00  0.00     0.000 C 
BRANCH  10  11
ATOM     11  C   UNL     1      51.860 -42.467 -28.199  1.00  0.00    -0.000 C 
BRANCH  11  12
ATOM     12  C   UNL     1      52.423 -41.133 -27.674  1.00  0.00    -0.000 C 
BRANCH  12  13
ATOM     13  C   UNL     1      53.234 -40.366 -28.733  1.00  0.00    -0.000 C 
BRANCH  13  14
ATOM     14  C   UNL     1      53.435 -41.177 -30.023  1.00  0.00    -0.000 C 
BRANCH  14  15
ATOM     15  C   UNL     1      54.908 -41.535 -30.274  1.00  0.00    -0.003 C 
ATOM     16  C   UNL     1      55.119 -43.046 -30.242  1.00  0.00     0.004 C 
ENDBRANCH  14  15
ENDBRANCH  13  14
ENDBRANCH  12  13
ENDBRANCH  11  12
ENDBRANCH  10  11
ENDBRANCH   1  10
TORSDOF 12
ENDMDL
MODEL 9
REMARK VINA RESULT:    -3.570     11.039     13.710
REMARK INTER + INTRA:          -7.254
REMARK INTER:                  -5.284
REMARK INTRA:                  -1.969
REMARK UNBOUND:                -1.180
REMARK SMILES CCCCCCCCCCCCCC(=O)[O-]
REMARK SMILES IDX 8 1 9 2 10 3 11 4 12 5 13 6 14 7 15 8 16 9 7 10 6 11 5 12
REMARK SMILES IDX 4 13 3 14 2 15 1 16
REMARK H PARENT
REMARK Flexibility Score: inf
ROOT
ATOM      1  C   UNL     1      55.275 -40.377 -23.944  1.00  0.00     0.000 C 
ENDROOT
BRANCH   1   2
ATOM      2  C   UNL     1      56.046 -41.613 -24.439  1.00  0.00     0.000 C 
BRANCH   2   3
ATOM      3  C   UNL     1      55.543 -42.112 -25.804  1.00  0.00     0.000 C 
BRANCH   3   4
ATOM      4  C   UNL     1      55.331 -40.969 -26.810  1.00  0.00     0.000 C 
BRANCH   4   5
ATOM      5  C   UNL     1      56.617 -40.600 -27.570  1.00  0.00     0.006 C 
BRANCH   5   6
ATOM      6  C   UNL     1      56.336 -39.695 -28.777  1.00  0.00     0.053 C 
BRANCH   6   7
ATOM      7  C   UNL     1      56.504 -40.426 -30.074  1.00  0.00     0.041 C 
ATOM      8  O   UNL     1      56.720 -41.666 -30.079  1.00  0.00    -0.550 OA
ATOM      9  O   UNL     1      56.392 -39.742 -31.278  1.00  0.00    -0.550 OA
ENDBRANCH   6   7
ENDBRANCH   5   6
ENDBRANCH   4   5
ENDBRANCH   3   4
ENDBRANCH   2   3
ENDBRANCH   1   2
BRANCH   1  10
ATOM     10  C   UNL     1      56.212 -39.244 -23.486  1.00  0.00     0.000 C 
BRANCH  10  11
ATOM     11  C   UNL     1      57.590 -39.292 -24.170  1.00  0.00    -0.000 C 
BRANCH  11  12
ATOM     12  C   UNL     1      57.900 -38.110 -25.108  1.00  0.00    -0.000 C 
BRANCH  12  13
ATOM     13  C   UNL     1      56.848 -36.990 -25.030  1.00  0.00    -0.000 C 
BRANCH  13  14
ATOM     14  C   UNL     1      56.074 -36.816 -26.346  1.00  0.00    -0.000 C 
BRANCH  14  15
ATOM     15  C   UNL     1      54.679 -37.458 -26.303  1.00  0.00    -0.003 C 
ATOM     16  C   UNL     1      53.684 -36.561 -25.572  1.00  0.00     0.004 C 
ENDBRANCH  14  15
ENDBRANCH  13  14
ENDBRANCH  12  13
ENDBRANCH  11  12
ENDBRANCH  10  11
ENDBRANCH   1  10
TORSDOF 12
ENDMDL
