MODEL 1
REMARK VINA RESULT:    -7.218      0.000      0.000
REMARK INTER + INTRA:         -14.048
REMARK INTER:                 -13.125
REMARK INTRA:                  -0.923
REMARK UNBOUND:                -0.923
REMARK SMILES CCCCCCCCCCCCCCCC(=O)[O-]
REMARK SMILES IDX 9 1 10 2 11 3 12 4 13 5 14 6 15 7 16 8 17 9 18 10 8 11 7 12
REMARK SMILES IDX 6 13 5 14 4 15 3 16 2 17 1 18
REMARK H PARENT
REMARK Flexibility Score: inf
ROOT
ATOM      1  C   UNL     1      -7.340  -3.446 -21.155  1.00  0.00     0.000 C 
ENDROOT
BRANCH   1   2
ATOM      2  C   UNL     1      -7.085  -1.938 -21.001  1.00  0.00     0.000 C 
BRANCH   2   3
ATOM      3  C   UNL     1      -7.536  -1.398 -19.633  1.00  0.00     0.000 C 
BRANCH   3   4
ATOM      4  C   UNL     1      -6.395  -0.677 -18.884  1.00  0.00     0.000 C 
BRANCH   4   5
ATOM      5  C   UNL     1      -5.090  -1.494 -18.810  1.00  0.00     0.000 C 
BRANCH   5   6
ATOM      6  C   UNL     1      -3.817  -0.717 -19.194  1.00  0.00     0.006 C 
BRANCH   6   7
ATOM      7  C   UNL     1      -2.824  -0.521 -18.037  1.00  0.00     0.053 C 
BRANCH   7   8
ATOM      8  C   UNL     1      -3.220   0.615 -17.145  1.00  0.00     0.041 C 
ATOM      9  O   UNL     1      -4.204   0.498 -16.368  1.00  0.00    -0.550 OA
ATOM     10  O   UNL     1      -2.524   1.816 -17.198  1.00  0.00    -0.550 OA
ENDBRANCH   7   8
ENDBRANCH   6   7
ENDBRANCH   5   6
ENDBRANCH   4   5
ENDBRANCH   3   4
ENDBRANCH   2   3
ENDBRANCH   1   2
BRANCH   1  11
ATOM     11  C   UNL     1      -6.618  -4.281 -20.082  1.00  0.00     0.000 C 
BRANCH  11  12
ATOM     12  C   UNL     1      -7.592  -4.946 -19.096  1.00  0.00    -0.000 C 
BRANCH  12  13
ATOM     13  C   UNL     1      -8.975  -5.202 -19.715  1.00  0.00    -0.000 C 
BRANCH  13  14
ATOM     14  C   UNL     1      -9.193  -6.702 -19.964  1.00  0.00    -0.000 C 
BRANCH  14  15
ATOM     15  C   UNL     1      -8.278  -7.587 -19.101  1.00  0.00    -0.000 C 
BRANCH  15  16
ATOM     16  C   UNL     1      -8.523  -9.088 -19.327  1.00  0.00    -0.000 C 
BRANCH  16  17
ATOM     17  C   UNL     1      -7.886  -9.600 -20.629  1.00  0.00    -0.003 C 
ATOM     18  C   UNL     1      -7.894 -11.125 -20.734  1.00  0.00     0.004 C 
ENDBRANCH  16  17
ENDBRANCH  15  16
ENDBRANCH  14  15
ENDBRANCH  13  14
ENDBRANCH  12  13
ENDBRANCH  11  12
ENDBRANCH   1  11
TORSDOF 14
ENDMDL
MODEL 2
REMARK VINA RESULT:    -7.046      4.503      8.833
REMARK INTER + INTRA:         -13.735
REMARK INTER:                 -12.867
REMARK INTRA:                  -0.868
REMARK UNBOUND:                -0.923
REMARK SMILES CCCCCCCCCCCCCCCC(=O)[O-]
REMARK SMILES IDX 9 1 10 2 11 3 12 4 13 5 14 6 15 7 16 8 17 9 18 10 8 11 7 12
REMARK SMILES IDX 6 13 5 14 4 15 3 16 2 17 1 18
REMARK H PARENT
REMARK Flexibility Score: inf
ROOT
ATOM      1  C   UNL     1      -6.901  -2.756 -21.169  1.00  0.00     0.000 C 
ENDROOT
BRANCH   1   2
ATOM      2  C   UNL     1      -7.573  -4.026 -20.626  1.00  0.00     0.000 C 
BRANCH   2   3
ATOM      3  C   UNL     1      -7.666  -4.037 -19.091  1.00  0.00     0.000 C 
BRANCH   3   4
ATOM      4  C   UNL     1      -8.181  -5.386 -18.545  1.00  0.00     0.000 C 
BRANCH   4   5
ATOM      5  C   UNL     1      -8.781  -6.303 -19.629  1.00  0.00     0.000 C 
BRANCH   5   6
ATOM      6  C   UNL     1      -7.900  -7.506 -20.018  1.00  0.00     0.006 C 
BRANCH   6   7
ATOM      7  C   UNL     1      -8.513  -8.874 -19.677  1.00  0.00     0.053 C 
BRANCH   7   8
ATOM      8  C   UNL     1      -8.147  -9.919 -20.685  1.00  0.00     0.041 C 
ATOM      9  O   UNL     1      -8.448  -9.762 -21.898  1.00  0.00    -0.550 OA
ATOM     10  O   UNL     1      -7.502 -11.081 -20.280  1.00  0.00    -0.550 OA
ENDBRANCH   7   8
ENDBRANCH   6   7
ENDBRANCH   5   6
ENDBRANCH   4   5
ENDBRANCH   3   4
ENDBRANCH   2   3
ENDBRANCH   1   2
BRANCH   1  11
ATOM     11  C   UNL     1      -5.438  -2.993 -21.586  1.00  0.00     0.000 C 
BRANCH  11  12
ATOM     12  C   UNL     1      -4.441  -2.220 -20.709  1.00  0.00    -0.000 C 
BRANCH  12  13
ATOM     13  C   UNL     1      -5.132  -1.411 -19.601  1.00  0.00    -0.000 C 
BRANCH  13  14
ATOM     14  C   UNL     1      -4.421  -1.610 -18.254  1.00  0.00    -0.000 C 
BRANCH  14  15
ATOM     15  C   UNL     1      -2.896  -1.437 -18.356  1.00  0.00    -0.000 C 
BRANCH  15  16
ATOM     16  C   UNL     1      -2.401  -0.145 -17.685  1.00  0.00    -0.000 C 
BRANCH  16  17
ATOM     17  C   UNL     1      -3.100   1.109 -18.235  1.00  0.00    -0.003 C 
ATOM     18  C   UNL     1      -2.517   2.407 -17.676  1.00  0.00     0.004 C 
ENDBRANCH  16  17
ENDBRANCH  15  16
ENDBRANCH  14  15
ENDBRANCH  13  14
ENDBRANCH  12  13
ENDBRANCH  11  12
ENDBRANCH   1  11
TORSDOF 14
ENDMDL
MODEL 3
REMARK VINA RESULT:    -6.944      0.947      2.278
REMARK INTER + INTRA:         -13.550
REMARK INTER:                 -12.391
REMARK INTRA:                  -1.159
REMARK UNBOUND:                -0.923
REMARK SMILES CCCCCCCCCCCCCCCC(=O)[O-]
REMARK SMILES IDX 9 1 10 2 11 3 12 4 13 5 14 6 15 7 16 8 17 9 18 10 8 11 7 12
REMARK SMILES IDX 6 13 5 14 4 15 3 16 2 17 1 18
REMARK H PARENT
REMARK Flexibility Score: inf
ROOT
ATOM      1  C   UNL     1      -7.604  -0.594 -19.775  1.00  0.00     0.000 C 
ENDROOT
BRANCH   1   2
ATOM      2  C   UNL     1      -6.267  -0.116 -19.185  1.00  0.00     0.000 C 
BRANCH   2   3
ATOM      3  C   UNL     1      -5.419  -1.273 -18.629  1.00  0.00     0.000 C 
BRANCH   3   4
ATOM      4  C   UNL     1      -4.055  -1.394 -19.342  1.00  0.00     0.000 C 
BRANCH   4   5
ATOM      5  C   UNL     1      -2.924  -1.908 -18.431  1.00  0.00     0.000 C 
BRANCH   5   6
ATOM      6  C   UNL     1      -1.957  -0.821 -17.923  1.00  0.00     0.006 C 
BRANCH   6   7
ATOM      7  C   UNL     1      -2.244   0.586 -18.474  1.00  0.00     0.053 C 
BRANCH   7   8
ATOM      8  C   UNL     1      -2.906   1.461 -17.455  1.00  0.00     0.041 C 
ATOM      9  O   UNL     1      -3.756   0.979 -16.661  1.00  0.00    -0.550 OA
ATOM     10  O   UNL     1      -2.608   2.817 -17.404  1.00  0.00    -0.550 OA
ENDBRANCH   7   8
ENDBRANCH   6   7
ENDBRANCH   5   6
ENDBRANCH   4   5
ENDBRANCH   3   4
ENDBRANCH   2   3
ENDBRANCH   1   2
BRANCH   1  11
ATOM     11  C   UNL     1      -7.768  -2.122 -19.707  1.00  0.00     0.000 C 
BRANCH  11  12
ATOM     12  C   UNL     1      -7.248  -2.829 -20.969  1.00  0.00    -0.000 C 
BRANCH  12  13
ATOM     13  C   UNL     1      -6.856  -4.292 -20.706  1.00  0.00    -0.000 C 
BRANCH  13  14
ATOM     14  C   UNL     1      -6.864  -4.599 -19.201  1.00  0.00    -0.000 C 
BRANCH  14  15
ATOM     15  C   UNL     1      -7.967  -5.593 -18.803  1.00  0.00    -0.000 C 
BRANCH  15  16
ATOM     16  C   UNL     1      -8.257  -6.627 -19.904  1.00  0.00    -0.000 C 
BRANCH  16  17
ATOM     17  C   UNL     1      -8.395  -8.054 -19.350  1.00  0.00    -0.003 C 
ATOM     18  C   UNL     1      -8.107  -9.128 -20.399  1.00  0.00     0.004 C 
ENDBRANCH  16  17
ENDBRANCH  15  16
ENDBRANCH  14  15
ENDBRANCH  13  14
ENDBRANCH  12  13
ENDBRANCH  11  12
ENDBRANCH   1  11
TORSDOF 14
ENDMDL
MODEL 4
REMARK VINA RESULT:    -6.870      4.455      9.135
REMARK INTER + INTRA:         -13.416
REMARK INTER:                 -12.765
REMARK INTRA:                  -0.651
REMARK UNBOUND:                -0.923
REMARK SMILES CCCCCCCCCCCCCCCC(=O)[O-]
REMARK SMILES IDX 9 1 10 2 11 3 12 4 13 5 14 6 15 7 16 8 17 9 18 10 8 11 7 12
REMARK SMILES IDX 6 13 5 14 4 15 3 16 2 17 1 18
REMARK H PARENT
REMARK Flexibility Score: inf
ROOT
ATOM      1  C   UNL     1      -7.382  -1.789 -20.863  1.00  0.00     0.000 C 
ENDROOT
BRANCH   1   2
ATOM      2  C   UNL     1      -6.925  -3.247 -21.032  1.00  0.00     0.000 C 
BRANCH   2   3
ATOM      3  C   UNL     1      -7.609  -4.200 -20.037  1.00  0.00     0.000 C 
BRANCH   3   4
ATOM      4  C   UNL     1      -7.073  -5.644 -20.147  1.00  0.00     0.000 C 
BRANCH   4   5
ATOM      5  C   UNL     1      -7.854  -6.660 -19.291  1.00  0.00     0.000 C 
BRANCH   5   6
ATOM      6  C   UNL     1      -8.670  -7.691 -20.095  1.00  0.00     0.006 C 
BRANCH   6   7
ATOM      7  C   UNL     1      -8.589  -9.125 -19.547  1.00  0.00     0.053 C 
BRANCH   7   8
ATOM      8  C   UNL     1      -8.060 -10.085 -20.569  1.00  0.00     0.041 C 
ATOM      9  O   UNL     1      -7.444 -11.122 -20.206  1.00  0.00    -0.550 OA
ATOM     10  O   UNL     1      -8.218  -9.817 -21.922  1.00  0.00    -0.550 OA
ENDBRANCH   7   8
ENDBRANCH   6   7
ENDBRANCH   5   6
ENDBRANCH   4   5
ENDBRANCH   3   4
ENDBRANCH   2   3
ENDBRANCH   1   2
BRANCH   1  11
ATOM     11  C   UNL     1      -7.507  -1.375 -19.386  1.00  0.00     0.000 C 
BRANCH  11  12
ATOM     12  C   UNL     1      -6.530  -0.253 -19.002  1.00  0.00    -0.000 C 
BRANCH  12  13
ATOM     13  C   UNL     1      -5.064  -0.631 -19.264  1.00  0.00    -0.000 C 
BRANCH  13  14
ATOM     14  C   UNL     1      -4.283  -0.741 -17.946  1.00  0.00    -0.000 C 
BRANCH  14  15
ATOM     15  C   UNL     1      -2.765  -0.867 -18.163  1.00  0.00    -0.000 C 
BRANCH  15  16
ATOM     16  C   UNL     1      -2.058   0.498 -18.199  1.00  0.00    -0.000 C 
BRANCH  16  17
ATOM     17  C   UNL     1      -2.895   1.613 -17.552  1.00  0.00    -0.003 C 
ATOM     18  C   UNL     1      -2.203   2.975 -17.594  1.00  0.00     0.004 C 
ENDBRANCH  16  17
ENDBRANCH  15  16
ENDBRANCH  14  15
ENDBRANCH  13  14
ENDBRANCH  12  13
ENDBRANCH  11  12
ENDBRANCH   1  11
TORSDOF 14
ENDMDL
MODEL 5
REMARK VINA RESULT:    -6.807      2.439      4.345
REMARK INTER + INTRA:         -13.302
REMARK INTER:                 -12.421
REMARK INTRA:                  -0.881
REMARK UNBOUND:                -0.923
REMARK SMILES CCCCCCCCCCCCCCCC(=O)[O-]
REMARK SMILES IDX 9 1 10 2 11 3 12 4 13 5 14 6 15 7 16 8 17 9 18 10 8 11 7 12
REMARK SMILES IDX 6 13 5 14 4 15 3 16 2 17 1 18
REMARK H PARENT
REMARK Flexibility Score: inf
ROOT
ATOM      1  C   UNL     1      -5.336  -1.086 -18.603  1.00  0.00     0.000 C 
ENDROOT
BRANCH   1   2
ATOM      2  C   UNL     1      -4.271  -0.035 -18.951  1.00  0.00     0.000 C 
BRANCH   2   3
ATOM      3  C   UNL     1      -2.976  -0.214 -18.141  1.00  0.00     0.000 C 
BRANCH   3   4
ATOM      4  C   UNL     1      -2.156   1.091 -18.052  1.00  0.00     0.000 C 
BRANCH   4   5
ATOM      5  C   UNL     1      -2.958   2.289 -17.506  1.00  0.00     0.000 C 
BRANCH   5   6
ATOM      6  C   UNL     1      -2.160   3.602 -17.389  1.00  0.00     0.006 C 
BRANCH   6   7
ATOM      7  C   UNL     1      -2.949   4.858 -17.797  1.00  0.00     0.053 C 
BRANCH   7   8
ATOM      8  C   UNL     1      -3.394   5.650 -16.606  1.00  0.00     0.041 C 
ATOM      9  O   UNL     1      -2.693   6.608 -16.184  1.00  0.00    -0.550 OA
ATOM     10  O   UNL     1      -4.566   5.310 -15.943  1.00  0.00    -0.550 OA
ENDBRANCH   7   8
ENDBRANCH   6   7
ENDBRANCH   5   6
ENDBRANCH   4   5
ENDBRANCH   3   4
ENDBRANCH   2   3
ENDBRANCH   1   2
BRANCH   1  11
ATOM     11  C   UNL     1      -6.745  -0.679 -19.071  1.00  0.00     0.000 C 
BRANCH  11  12
ATOM     12  C   UNL     1      -7.353  -1.685 -20.062  1.00  0.00    -0.000 C 
BRANCH  12  13
ATOM     13  C   UNL     1      -6.338  -2.739 -20.529  1.00  0.00    -0.000 C 
BRANCH  13  14
ATOM     14  C   UNL     1      -6.876  -4.159 -20.294  1.00  0.00    -0.000 C 
BRANCH  14  15
ATOM     15  C   UNL     1      -6.990  -4.512 -18.802  1.00  0.00    -0.000 C 
BRANCH  15  16
ATOM     16  C   UNL     1      -8.238  -5.352 -18.486  1.00  0.00    -0.000 C 
BRANCH  16  17
ATOM     17  C   UNL     1      -8.732  -6.153 -19.701  1.00  0.00    -0.003 C 
ATOM     18  C   UNL     1      -8.296  -7.617 -19.664  1.00  0.00     0.004 C 
ENDBRANCH  16  17
ENDBRANCH  15  16
ENDBRANCH  14  15
ENDBRANCH  13  14
ENDBRANCH  12  13
ENDBRANCH  11  12
ENDBRANCH   1  11
TORSDOF 14
ENDMDL
MODEL 6
REMARK VINA RESULT:    -6.659      1.971      3.509
REMARK INTER + INTRA:         -13.032
REMARK INTER:                 -12.510
REMARK INTRA:                  -0.522
REMARK UNBOUND:                -0.923
REMARK SMILES CCCCCCCCCCCCCCCC(=O)[O-]
REMARK SMILES IDX 9 1 10 2 11 3 12 4 13 5 14 6 15 7 16 8 17 9 18 10 8 11 7 12
REMARK SMILES IDX 6 13 5 14 4 15 3 16 2 17 1 18
REMARK H PARENT
REMARK Flexibility Score: inf
ROOT
ATOM      1  C   UNL     1      -5.238  -2.432 -18.731  1.00  0.00     0.000 C 
ENDROOT
BRANCH   1   2
ATOM      2  C   UNL     1      -3.887  -1.700 -18.697  1.00  0.00     0.000 C 
BRANCH   2   3
ATOM      3  C   UNL     1      -4.044  -0.175 -18.572  1.00  0.00     0.000 C 
BRANCH   3   4
ATOM      4  C   UNL     1      -3.289   0.393 -17.350  1.00  0.00     0.000 C 
BRANCH   4   5
ATOM      5  C   UNL     1      -1.942   1.052 -17.707  1.00  0.00     0.000 C 
BRANCH   5   6
ATOM      6  C   UNL     1      -1.881   2.572 -17.465  1.00  0.00     0.006 C 
BRANCH   6   7
ATOM      7  C   UNL     1      -3.254   3.264 -17.451  1.00  0.00     0.053 C 
BRANCH   7   8
ATOM      8  C   UNL     1      -3.128   4.757 -17.463  1.00  0.00     0.041 C 
ATOM      9  O   UNL     1      -2.041   5.304 -17.140  1.00  0.00    -0.550 OA
ATOM     10  O   UNL     1      -4.222   5.544 -17.801  1.00  0.00    -0.550 OA
ENDBRANCH   7   8
ENDBRANCH   6   7
ENDBRANCH   5   6
ENDBRANCH   4   5
ENDBRANCH   3   4
ENDBRANCH   2   3
ENDBRANCH   1   2
BRANCH   1  11
ATOM     11  C   UNL     1      -6.303  -1.671 -19.540  1.00  0.00     0.000 C 
BRANCH  11  12
ATOM     12  C   UNL     1      -6.768  -2.447 -20.783  1.00  0.00    -0.000 C 
BRANCH  12  13
ATOM     13  C   UNL     1      -6.985  -3.941 -20.498  1.00  0.00    -0.000 C 
BRANCH  13  14
ATOM     14  C   UNL     1      -7.999  -4.140 -19.361  1.00  0.00    -0.000 C 
BRANCH  14  15
ATOM     15  C   UNL     1      -8.082  -5.601 -18.888  1.00  0.00    -0.000 C 
BRANCH  15  16
ATOM     16  C   UNL     1      -8.915  -6.483 -19.833  1.00  0.00    -0.000 C 
BRANCH  16  17
ATOM     17  C   UNL     1      -8.222  -7.815 -20.159  1.00  0.00    -0.003 C 
ATOM     18  C   UNL     1      -8.599  -8.934 -19.187  1.00  0.00     0.004 C 
ENDBRANCH  16  17
ENDBRANCH  15  16
ENDBRANCH  14  15
ENDBRANCH  13  14
ENDBRANCH  12  13
ENDBRANCH  11  12
ENDBRANCH   1  11
TORSDOF 14
ENDMDL
MODEL 7
REMARK VINA RESULT:    -6.566      3.456      9.377
REMARK INTER + INTRA:         -12.862
REMARK INTER:                 -12.070
REMARK INTRA:                  -0.792
REMARK UNBOUND:                -0.923
REMARK SMILES CCCCCCCCCCCCCCCC(=O)[O-]
REMARK SMILES IDX 9 1 10 2 11 3 12 4 13 5 14 6 15 7 16 8 17 9 18 10 8 11 7 12
REMARK SMILES IDX 6 13 5 14 4 15 3 16 2 17 1 18
REMARK H PARENT
REMARK Flexibility Score: inf
ROOT
ATOM      1  C   UNL     1      -4.651  -1.471 -19.166  1.00  0.00     0.000 C 
ENDROOT
BRANCH   1   2
ATOM      2  C   UNL     1      -5.980  -0.710 -19.052  1.00  0.00     0.000 C 
BRANCH   2   3
ATOM      3  C   UNL     1      -7.200  -1.600 -19.345  1.00  0.00     0.000 C 
BRANCH   3   4
ATOM      4  C   UNL     1      -7.385  -1.862 -20.855  1.00  0.00     0.000 C 
BRANCH   4   5
ATOM      5  C   UNL     1      -7.110  -3.321 -21.268  1.00  0.00     0.000 C 
BRANCH   5   6
ATOM      6  C   UNL     1      -6.522  -4.209 -20.155  1.00  0.00     0.006 C 
BRANCH   6   7
ATOM      7  C   UNL     1      -7.363  -5.455 -19.831  1.00  0.00     0.053 C 
BRANCH   7   8
ATOM      8  C   UNL     1      -8.275  -5.226 -18.665  1.00  0.00     0.041 C 
ATOM      9  O   UNL     1      -7.890  -5.497 -17.497  1.00  0.00    -0.550 OA
ATOM     10  O   UNL     1      -9.562  -4.745 -18.871  1.00  0.00    -0.550 OA
ENDBRANCH   7   8
ENDBRANCH   6   7
ENDBRANCH   5   6
ENDBRANCH   4   5
ENDBRANCH   3   4
ENDBRANCH   2   3
ENDBRANCH   1   2
BRANCH   1  11
ATOM     11  C   UNL     1      -3.429  -0.574 -18.899  1.00  0.00     0.000 C 
BRANCH  11  12
ATOM     12  C   UNL     1      -3.557   0.225 -17.592  1.00  0.00    -0.000 C 
BRANCH  12  13
ATOM     13  C   UNL     1      -2.218   0.822 -17.132  1.00  0.00    -0.000 C 
BRANCH  13  14
ATOM     14  C   UNL     1      -1.876   2.083 -17.941  1.00  0.00    -0.000 C 
BRANCH  14  15
ATOM     15  C   UNL     1      -2.698   3.309 -17.507  1.00  0.00    -0.000 C 
BRANCH  15  16
ATOM     16  C   UNL     1      -1.928   4.628 -17.678  1.00  0.00    -0.000 C 
BRANCH  16  17
ATOM     17  C   UNL     1      -2.861   5.833 -17.881  1.00  0.00    -0.003 C 
ATOM     18  C   UNL     1      -4.131   5.749 -17.034  1.00  0.00     0.004 C 
ENDBRANCH  16  17
ENDBRANCH  15  16
ENDBRANCH  14  15
ENDBRANCH  13  14
ENDBRANCH  12  13
ENDBRANCH  11  12
ENDBRANCH   1  11
TORSDOF 14
ENDMDL
MODEL 8
REMARK VINA RESULT:    -6.481      3.848      9.958
REMARK INTER + INTRA:         -12.709
REMARK INTER:                 -12.020
REMARK INTRA:                  -0.689
REMARK UNBOUND:                -0.923
REMARK SMILES CCCCCCCCCCCCCCCC(=O)[O-]
REMARK SMILES IDX 9 1 10 2 11 3 12 4 13 5 14 6 15 7 16 8 17 9 18 10 8 11 7 12
REMARK SMILES IDX 6 13 5 14 4 15 3 16 2 17 1 18
REMARK H PARENT
REMARK Flexibility Score: inf
ROOT
ATOM      1  C   UNL     1      -3.789   0.243 -18.393  1.00  0.00     0.000 C 
ENDROOT
BRANCH   1   2
ATOM      2  C   UNL     1      -3.041  -1.097 -18.325  1.00  0.00     0.000 C 
BRANCH   2   3
ATOM      3  C   UNL     1      -3.817  -2.243 -18.996  1.00  0.00     0.000 C 
BRANCH   3   4
ATOM      4  C   UNL     1      -5.113  -2.596 -18.236  1.00  0.00     0.000 C 
BRANCH   4   5
ATOM      5  C   UNL     1      -5.656  -4.002 -18.559  1.00  0.00     0.000 C 
BRANCH   5   6
ATOM      6  C   UNL     1      -7.166  -4.060 -18.859  1.00  0.00     0.006 C 
BRANCH   6   7
ATOM      7  C   UNL     1      -7.506  -4.386 -20.322  1.00  0.00     0.053 C 
BRANCH   7   8
ATOM      8  C   UNL     1      -6.995  -3.338 -21.262  1.00  0.00     0.041 C 
ATOM      9  O   UNL     1      -6.078  -3.613 -22.080  1.00  0.00    -0.550 OA
ATOM     10  O   UNL     1      -7.508  -2.048 -21.212  1.00  0.00    -0.550 OA
ENDBRANCH   7   8
ENDBRANCH   6   7
ENDBRANCH   5   6
ENDBRANCH   4   5
ENDBRANCH   3   4
ENDBRANCH   2   3
ENDBRANCH   1   2
BRANCH   1  11
ATOM     11  C   UNL     1      -3.243   1.278 -17.393  1.00  0.00     0.000 C 
BRANCH  11  12
ATOM     12  C   UNL     1      -1.978   1.985 -17.905  1.00  0.00    -0.000 C 
BRANCH  12  13
ATOM     13  C   UNL     1      -1.889   3.446 -17.440  1.00  0.00    -0.000 C 
BRANCH  13  14
ATOM     14  C   UNL     1      -3.266   4.126 -17.505  1.00  0.00    -0.000 C 
BRANCH  14  15
ATOM     15  C   UNL     1      -3.261   5.537 -16.893  1.00  0.00    -0.000 C 
BRANCH  15  16
ATOM     16  C   UNL     1      -4.672   6.027 -16.525  1.00  0.00    -0.000 C 
BRANCH  16  17
ATOM     17  C   UNL     1      -5.194   5.394 -15.225  1.00  0.00    -0.003 C 
ATOM     18  C   UNL     1      -6.181   6.294 -14.482  1.00  0.00     0.004 C 
ENDBRANCH  16  17
ENDBRANCH  15  16
ENDBRANCH  14  15
ENDBRANCH  13  14
ENDBRANCH  12  13
ENDBRANCH  11  12
ENDBRANCH   1  11
TORSDOF 14
ENDMDL
MODEL 9
REMARK VINA RESULT:    -6.473      3.046      5.423
REMARK INTER + INTRA:         -12.694
REMARK INTER:                 -11.965
REMARK INTRA:                  -0.730
REMARK UNBOUND:                -0.923
REMARK SMILES CCCCCCCCCCCCCCCC(=O)[O-]
REMARK SMILES IDX 9 1 10 2 11 3 12 4 13 5 14 6 15 7 16 8 17 9 18 10 8 11 7 12
REMARK SMILES IDX 6 13 5 14 4 15 3 16 2 17 1 18
REMARK H PARENT
REMARK Flexibility Score: inf
ROOT
ATOM      1  C   UNL     1      -3.885  -0.248 -18.753  1.00  0.00     0.000 C 
ENDROOT
BRANCH   1   2
ATOM      2  C   UNL     1      -3.013   0.337 -17.632  1.00  0.00     0.000 C 
BRANCH   2   3
ATOM      3  C   UNL     1      -1.948   1.315 -18.159  1.00  0.00     0.000 C 
BRANCH   3   4
ATOM      4  C   UNL     1      -1.875   2.608 -17.319  1.00  0.00     0.000 C 
BRANCH   4   5
ATOM      5  C   UNL     1      -3.123   3.503 -17.450  1.00  0.00     0.000 C 
BRANCH   5   6
ATOM      6  C   UNL     1      -2.916   4.970 -17.030  1.00  0.00     0.006 C 
BRANCH   6   7
ATOM      7  C   UNL     1      -4.176   5.843 -17.144  1.00  0.00     0.053 C 
BRANCH   7   8
ATOM      8  C   UNL     1      -4.795   6.110 -15.807  1.00  0.00     0.041 C 
ATOM      9  O   UNL     1      -4.838   7.283 -15.350  1.00  0.00    -0.550 OA
ATOM     10  O   UNL     1      -5.294   5.058 -15.049  1.00  0.00    -0.550 OA
ENDBRANCH   7   8
ENDBRANCH   6   7
ENDBRANCH   5   6
ENDBRANCH   4   5
ENDBRANCH   3   4
ENDBRANCH   2   3
ENDBRANCH   1   2
BRANCH   1  11
ATOM     11  C   UNL     1      -3.838  -1.785 -18.799  1.00  0.00     0.000 C 
BRANCH  11  12
ATOM     12  C   UNL     1      -5.235  -2.422 -18.728  1.00  0.00    -0.000 C 
BRANCH  12  13
ATOM     13  C   UNL     1      -6.357  -1.422 -19.046  1.00  0.00    -0.000 C 
BRANCH  13  14
ATOM     14  C   UNL     1      -7.475  -2.093 -19.858  1.00  0.00    -0.000 C 
BRANCH  14  15
ATOM     15  C   UNL     1      -6.934  -3.019 -20.961  1.00  0.00    -0.000 C 
BRANCH  15  16
ATOM     16  C   UNL     1      -7.189  -4.505 -20.664  1.00  0.00    -0.000 C 
BRANCH  16  17
ATOM     17  C   UNL     1      -8.171  -4.713 -19.500  1.00  0.00    -0.003 C 
ATOM     18  C   UNL     1      -8.912  -6.048 -19.579  1.00  0.00     0.004 C 
ENDBRANCH  16  17
ENDBRANCH  15  16
ENDBRANCH  14  15
ENDBRANCH  13  14
ENDBRANCH  12  13
ENDBRANCH  11  12
ENDBRANCH   1  11
TORSDOF 14
ENDMDL
