MODEL 1
REMARK VINA RESULT:    -3.337      0.000      0.000
REMARK INTER + INTRA:          -6.394
REMARK INTER:                  -5.679
REMARK INTRA:                  -0.716
REMARK UNBOUND:                -0.716
REMARK SMILES CCCCCCCCCCCCCC(=O)[O-]
REMARK SMILES IDX 8 1 9 2 10 3 11 4 12 5 13 6 14 7 15 8 16 9 7 10 6 11 5 12
REMARK SMILES IDX 4 13 3 14 2 15 1 16
REMARK H PARENT
REMARK Flexibility Score: inf
ROOT
ATOM      1  C   UNL     1      12.651 -15.928  -1.209  1.00  0.00     0.000 C 
ENDROOT
BRANCH   1   2
ATOM      2  C   UNL     1      13.077 -15.859   0.267  1.00  0.00     0.000 C 
BRANCH   2   3
ATOM      3  C   UNL     1      14.439 -16.522   0.525  1.00  0.00     0.000 C 
BRANCH   3   4
ATOM      4  C   UNL     1      15.028 -16.061   1.867  1.00  0.00     0.000 C 
BRANCH   4   5
ATOM      5  C   UNL     1      14.898 -17.125   2.973  1.00  0.00     0.006 C 
BRANCH   5   6
ATOM      6  C   UNL     1      13.917 -16.752   4.096  1.00  0.00     0.053 C 
BRANCH   6   7
ATOM      7  C   UNL     1      14.554 -16.840   5.449  1.00  0.00     0.041 C 
ATOM      8  O   UNL     1      15.115 -17.905   5.817  1.00  0.00    -0.550 OA
ATOM      9  O   UNL     1      14.498 -15.756   6.316  1.00  0.00    -0.550 OA
ENDBRANCH   6   7
ENDBRANCH   5   6
ENDBRANCH   4   5
ENDBRANCH   3   4
ENDBRANCH   2   3
ENDBRANCH   1   2
BRANCH   1  10
ATOM     10  C   UNL     1      12.384 -14.538  -1.812  1.00  0.00     0.000 C 
BRANCH  10  11
ATOM     11  C   UNL     1      12.875 -13.398  -0.906  1.00  0.00    -0.000 C 
BRANCH  11  12
ATOM     12  C   UNL     1      13.456 -12.217  -1.704  1.00  0.00    -0.000 C 
BRANCH  12  13
ATOM     13  C   UNL     1      14.179 -12.669  -2.983  1.00  0.00    -0.000 C 
BRANCH  13  14
ATOM     14  C   UNL     1      13.629 -11.989  -4.248  1.00  0.00    -0.000 C 
BRANCH  14  15
ATOM     15  C   UNL     1      14.372 -12.425  -5.521  1.00  0.00    -0.003 C 
ATOM     16  C   UNL     1      14.121 -13.889  -5.878  1.00  0.00     0.004 C 
ENDBRANCH  14  15
ENDBRANCH  13  14
ENDBRANCH  12  13
ENDBRANCH  11  12
ENDBRANCH  10  11
ENDBRANCH   1  10
TORSDOF 12
ENDMDL
MODEL 2
REMARK VINA RESULT:    -2.925      2.840      5.479
REMARK INTER + INTRA:          -5.692
REMARK INTER:                  -4.816
REMARK INTRA:                  -0.877
REMARK UNBOUND:                -0.716
REMARK SMILES CCCCCCCCCCCCCC(=O)[O-]
REMARK SMILES IDX 8 1 9 2 10 3 11 4 12 5 13 6 14 7 15 8 16 9 7 10 6 11 5 12
REMARK SMILES IDX 4 13 3 14 2 15 1 16
REMARK H PARENT
REMARK Flexibility Score: inf
ROOT
ATOM      1  C   UNL     1      13.923 -12.302  -4.621  1.00  0.00     0.000 C 
ENDROOT
BRANCH   1   2
ATOM      2  C   UNL     1      15.058 -11.985  -3.632  1.00  0.00     0.000 C 
BRANCH   2   3
ATOM      3  C   UNL     1      14.644 -12.191  -2.166  1.00  0.00     0.000 C 
BRANCH   3   4
ATOM      4  C   UNL     1      13.116 -12.274  -2.035  1.00  0.00     0.000 C 
BRANCH   4   5
ATOM      5  C   UNL     1      12.658 -13.394  -1.082  1.00  0.00     0.006 C 
BRANCH   5   6
ATOM      6  C   UNL     1      13.719 -13.825  -0.057  1.00  0.00     0.053 C 
BRANCH   6   7
ATOM      7  C   UNL     1      13.659 -15.294   0.229  1.00  0.00     0.041 C 
ATOM      8  O   UNL     1      12.813 -16.019  -0.357  1.00  0.00    -0.550 OA
ATOM      9  O   UNL     1      14.515 -15.856   1.167  1.00  0.00    -0.550 OA
ENDBRANCH   6   7
ENDBRANCH   5   6
ENDBRANCH   4   5
ENDBRANCH   3   4
ENDBRANCH   2   3
ENDBRANCH   1   2
BRANCH   1  10
ATOM     10  C   UNL     1      14.444 -12.828  -5.970  1.00  0.00     0.000 C 
BRANCH  10  11
ATOM     11  C   UNL     1      14.372 -14.360  -6.073  1.00  0.00    -0.000 C 
BRANCH  11  12
ATOM     12  C   UNL     1      14.073 -15.029  -4.719  1.00  0.00    -0.000 C 
BRANCH  12  13
ATOM     13  C   UNL     1      13.561 -16.470  -4.875  1.00  0.00    -0.000 C 
BRANCH  13  14
ATOM     14  C   UNL     1      13.251 -17.139  -3.524  1.00  0.00    -0.000 C 
BRANCH  14  15
ATOM     15  C   UNL     1      13.532 -18.650  -3.538  1.00  0.00    -0.003 C 
ATOM     16  C   UNL     1      14.942 -18.992  -3.058  1.00  0.00     0.004 C 
ENDBRANCH  14  15
ENDBRANCH  13  14
ENDBRANCH  12  13
ENDBRANCH  11  12
ENDBRANCH  10  11
ENDBRANCH   1  10
TORSDOF 12
ENDMDL
MODEL 3
REMARK VINA RESULT:    -2.801      4.550      6.684
REMARK INTER + INTRA:          -5.483
REMARK INTER:                  -4.321
REMARK INTRA:                  -1.162
REMARK UNBOUND:                -0.716
REMARK SMILES CCCCCCCCCCCCCC(=O)[O-]
REMARK SMILES IDX 8 1 9 2 10 3 11 4 12 5 13 6 14 7 15 8 16 9 7 10 6 11 5 12
REMARK SMILES IDX 4 13 3 14 2 15 1 16
REMARK H PARENT
REMARK Flexibility Score: inf
ROOT
ATOM      1  C   UNL     1      14.032 -15.162   1.190  1.00  0.00     0.000 C 
ENDROOT
BRANCH   1   2
ATOM      2  C   UNL     1      14.936 -13.921   1.283  1.00  0.00     0.000 C 
BRANCH   2   3
ATOM      3  C   UNL     1      14.288 -12.667   0.675  1.00  0.00     0.000 C 
BRANCH   3   4
ATOM      4  C   UNL     1      15.102 -12.157  -0.524  1.00  0.00     0.000 C 
BRANCH   4   5
ATOM      5  C   UNL     1      14.230 -11.880  -1.763  1.00  0.00     0.006 C 
BRANCH   5   6
ATOM      6  C   UNL     1      14.715 -12.575  -3.045  1.00  0.00     0.053 C 
BRANCH   6   7
ATOM      7  C   UNL     1      13.700 -12.499  -4.143  1.00  0.00     0.041 C 
ATOM      8  O   UNL     1      12.558 -12.017  -3.918  1.00  0.00    -0.550 OA
ATOM      9  O   UNL     1      14.002 -12.990  -5.407  1.00  0.00    -0.550 OA
ENDBRANCH   6   7
ENDBRANCH   5   6
ENDBRANCH   4   5
ENDBRANCH   3   4
ENDBRANCH   2   3
ENDBRANCH   1   2
BRANCH   1  10
ATOM     10  C   UNL     1      13.798 -15.615  -0.262  1.00  0.00     0.000 C 
BRANCH  10  11
ATOM     11  C   UNL     1      12.488 -15.064  -0.848  1.00  0.00    -0.000 C 
BRANCH  11  12
ATOM     12  C   UNL     1      12.306 -15.428  -2.332  1.00  0.00    -0.000 C 
BRANCH  12  13
ATOM     13  C   UNL     1      12.504 -16.929  -2.599  1.00  0.00    -0.000 C 
BRANCH  13  14
ATOM     14  C   UNL     1      13.324 -17.203  -3.871  1.00  0.00    -0.000 C 
BRANCH  14  15
ATOM     15  C   UNL     1      13.882 -18.634  -3.915  1.00  0.00    -0.003 C 
ATOM     16  C   UNL     1      14.099 -19.225  -2.523  1.00  0.00     0.004 C 
ENDBRANCH  14  15
ENDBRANCH  13  14
ENDBRANCH  12  13
ENDBRANCH  11  12
ENDBRANCH  10  11
ENDBRANCH   1  10
TORSDOF 12
ENDMDL
MODEL 4
REMARK VINA RESULT:    -2.461      3.645      6.439
REMARK INTER + INTRA:          -4.903
REMARK INTER:                  -3.503
REMARK INTRA:                  -1.400
REMARK UNBOUND:                -0.716
REMARK SMILES CCCCCCCCCCCCCC(=O)[O-]
REMARK SMILES IDX 8 1 9 2 10 3 11 4 12 5 13 6 14 7 15 8 16 9 7 10 6 11 5 12
REMARK SMILES IDX 4 13 3 14 2 15 1 16
REMARK H PARENT
REMARK Flexibility Score: inf
ROOT
ATOM      1  C   UNL     1      12.862 -12.440  -1.751  1.00  0.00     0.000 C 
ENDROOT
BRANCH   1   2
ATOM      2  C   UNL     1      12.500 -12.907  -3.171  1.00  0.00     0.000 C 
BRANCH   2   3
ATOM      3  C   UNL     1      12.563 -14.435  -3.328  1.00  0.00     0.000 C 
BRANCH   3   4
ATOM      4  C   UNL     1      12.297 -15.135  -1.987  1.00  0.00     0.000 C 
BRANCH   4   5
ATOM      5  C   UNL     1      12.873 -16.562  -1.933  1.00  0.00     0.006 C 
BRANCH   5   6
ATOM      6  C   UNL     1      13.105 -17.203  -3.310  1.00  0.00     0.053 C 
BRANCH   6   7
ATOM      7  C   UNL     1      13.669 -18.586  -3.197  1.00  0.00     0.041 C 
ATOM      8  O   UNL     1      14.635 -18.937  -3.924  1.00  0.00    -0.550 OA
ATOM      9  O   UNL     1      13.107 -19.497  -2.313  1.00  0.00    -0.550 OA
ENDBRANCH   6   7
ENDBRANCH   5   6
ENDBRANCH   4   5
ENDBRANCH   3   4
ENDBRANCH   2   3
ENDBRANCH   1   2
BRANCH   1  10
ATOM     10  C   UNL     1      14.326 -11.981  -1.635  1.00  0.00     0.000 C 
BRANCH  10  11
ATOM     11  C   UNL     1      15.120 -12.801  -0.606  1.00  0.00    -0.000 C 
BRANCH  11  12
ATOM     12  C   UNL     1      14.481 -12.771   0.794  1.00  0.00    -0.000 C 
BRANCH  12  13
ATOM     13  C   UNL     1      14.042 -14.165   1.271  1.00  0.00    -0.000 C 
BRANCH  13  14
ATOM     14  C   UNL     1      15.022 -15.273   0.849  1.00  0.00    -0.000 C 
BRANCH  14  15
ATOM     15  C   UNL     1      14.653 -16.641   1.442  1.00  0.00    -0.003 C 
ATOM     16  C   UNL     1      14.604 -16.629   2.970  1.00  0.00     0.004 C 
ENDBRANCH  14  15
ENDBRANCH  13  14
ENDBRANCH  12  13
ENDBRANCH  11  12
ENDBRANCH  10  11
ENDBRANCH   1  10
TORSDOF 12
ENDMDL
MODEL 5
REMARK VINA RESULT:    -2.371      3.655      5.231
REMARK INTER + INTRA:          -4.749
REMARK INTER:                  -3.177
REMARK INTRA:                  -1.572
REMARK UNBOUND:                -0.716
REMARK SMILES CCCCCCCCCCCCCC(=O)[O-]
REMARK SMILES IDX 8 1 9 2 10 3 11 4 12 5 13 6 14 7 15 8 16 9 7 10 6 11 5 12
REMARK SMILES IDX 4 13 3 14 2 15 1 16
REMARK H PARENT
REMARK Flexibility Score: inf
ROOT
ATOM      1  C   UNL     1      14.220 -15.515   1.020  1.00  0.00     0.000 C 
ENDROOT
BRANCH   1   2
ATOM      2  C   UNL     1      13.908 -15.838  -0.451  1.00  0.00     0.000 C 
BRANCH   2   3
ATOM      3  C   UNL     1      12.402 -15.822  -0.757  1.00  0.00     0.000 C 
BRANCH   3   4
ATOM      4  C   UNL     1      12.151 -15.827  -2.272  1.00  0.00     0.000 C 
BRANCH   4   5
ATOM      5  C   UNL     1      13.395 -16.233  -3.083  1.00  0.00     0.006 C 
BRANCH   5   6
ATOM      6  C   UNL     1      13.233 -17.540  -3.877  1.00  0.00     0.053 C 
BRANCH   6   7
ATOM      7  C   UNL     1      13.914 -18.692  -3.204  1.00  0.00     0.041 C 
ATOM      8  O   UNL     1      15.078 -19.027  -3.545  1.00  0.00    -0.550 OA
ATOM      9  O   UNL     1      13.248 -19.417  -2.223  1.00  0.00    -0.550 OA
ENDBRANCH   6   7
ENDBRANCH   5   6
ENDBRANCH   4   5
ENDBRANCH   3   4
ENDBRANCH   2   3
ENDBRANCH   1   2
BRANCH   1  10
ATOM     10  C   UNL     1      14.749 -14.083   1.211  1.00  0.00     0.000 C 
BRANCH  10  11
ATOM     11  C   UNL     1      14.095 -13.080   0.246  1.00  0.00    -0.000 C 
BRANCH  11  12
ATOM     12  C   UNL     1      15.125 -12.349  -0.633  1.00  0.00    -0.000 C 
BRANCH  12  13
ATOM     13  C   UNL     1      14.628 -12.140  -2.073  1.00  0.00    -0.000 C 
BRANCH  13  14
ATOM     14  C   UNL     1      13.099 -12.253  -2.195  1.00  0.00    -0.000 C 
BRANCH  14  15
ATOM     15  C   UNL     1      12.636 -12.427  -3.650  1.00  0.00    -0.003 C 
ATOM     16  C   UNL     1      13.800 -12.644  -4.617  1.00  0.00     0.004 C 
ENDBRANCH  14  15
ENDBRANCH  13  14
ENDBRANCH  12  13
ENDBRANCH  11  12
ENDBRANCH  10  11
ENDBRANCH   1  10
TORSDOF 12
ENDMDL
MODEL 6
REMARK VINA RESULT:    -2.177      3.749      5.892
REMARK INTER + INTRA:          -4.420
REMARK INTER:                  -4.519
REMARK INTRA:                   0.098
REMARK UNBOUND:                -0.716
REMARK SMILES CCCCCCCCCCCCCC(=O)[O-]
REMARK SMILES IDX 8 1 9 2 10 3 11 4 12 5 13 6 14 7 15 8 16 9 7 10 6 11 5 12
REMARK SMILES IDX 4 13 3 14 2 15 1 16
REMARK H PARENT
REMARK Flexibility Score: inf
ROOT
ATOM      1  C   UNL     1      11.664 -14.897  -1.483  1.00  0.00     0.000 C 
ENDROOT
BRANCH   1   2
ATOM      2  C   UNL     1      11.520 -13.736  -2.482  1.00  0.00     0.000 C 
BRANCH   2   3
ATOM      3  C   UNL     1      12.858 -13.335  -3.123  1.00  0.00     0.000 C 
BRANCH   3   4
ATOM      4  C   UNL     1      13.415 -12.059  -2.474  1.00  0.00     0.000 C 
BRANCH   4   5
ATOM      5  C   UNL     1      14.878 -12.209  -2.018  1.00  0.00     0.006 C 
BRANCH   5   6
ATOM      6  C   UNL     1      15.117 -11.875  -0.537  1.00  0.00     0.053 C 
BRANCH   6   7
ATOM      7  C   UNL     1      14.361 -12.794   0.373  1.00  0.00     0.041 C 
ATOM      8  O   UNL     1      13.709 -12.328   1.344  1.00  0.00    -0.550 OA
ATOM      9  O   UNL     1      14.404 -14.167   0.168  1.00  0.00    -0.550 OA
ENDBRANCH   6   7
ENDBRANCH   5   6
ENDBRANCH   4   5
ENDBRANCH   3   4
ENDBRANCH   2   3
ENDBRANCH   1   2
BRANCH   1  10
ATOM     10  C   UNL     1      12.893 -15.777  -1.773  1.00  0.00     0.000 C 
BRANCH  10  11
ATOM     11  C   UNL     1      12.525 -17.083  -2.496  1.00  0.00    -0.000 C 
BRANCH  11  12
ATOM     12  C   UNL     1      12.991 -17.097  -3.962  1.00  0.00    -0.000 C 
BRANCH  12  13
ATOM     13  C   UNL     1      13.651 -18.428  -4.358  1.00  0.00    -0.000 C 
BRANCH  13  14
ATOM     14  C   UNL     1      14.705 -18.894  -3.339  1.00  0.00    -0.000 C 
BRANCH  14  15
ATOM     15  C   UNL     1      14.075 -19.423  -2.041  1.00  0.00    -0.003 C 
ATOM     16  C   UNL     1      14.720 -18.831  -0.789  1.00  0.00     0.004 C 
ENDBRANCH  14  15
ENDBRANCH  13  14
ENDBRANCH  12  13
ENDBRANCH  11  12
ENDBRANCH  10  11
ENDBRANCH   1  10
TORSDOF 12
ENDMDL
MODEL 7
REMARK VINA RESULT:    -1.814      2.733      4.578
REMARK INTER + INTRA:          -3.802
REMARK INTER:                  -3.022
REMARK INTRA:                  -0.780
REMARK UNBOUND:                -0.716
REMARK SMILES CCCCCCCCCCCCCC(=O)[O-]
REMARK SMILES IDX 8 1 9 2 10 3 11 4 12 5 13 6 14 7 15 8 16 9 7 10 6 11 5 12
REMARK SMILES IDX 4 13 3 14 2 15 1 16
REMARK H PARENT
REMARK Flexibility Score: inf
ROOT
ATOM      1  C   UNL     1      11.783 -14.091  -1.386  1.00  0.00     0.000 C 
ENDROOT
BRANCH   1   2
ATOM      2  C   UNL     1      12.582 -12.937  -2.013  1.00  0.00     0.000 C 
BRANCH   2   3
ATOM      3  C   UNL     1      14.034 -12.877  -1.512  1.00  0.00     0.000 C 
BRANCH   3   4
ATOM      4  C   UNL     1      14.087 -12.949   0.021  1.00  0.00     0.000 C 
BRANCH   4   5
ATOM      5  C   UNL     1      14.941 -14.123   0.535  1.00  0.00     0.006 C 
BRANCH   5   6
ATOM      6  C   UNL     1      14.448 -14.732   1.858  1.00  0.00     0.053 C 
BRANCH   6   7
ATOM      7  C   UNL     1      14.731 -16.200   1.939  1.00  0.00     0.041 C 
ATOM      8  O   UNL     1      15.010 -16.850   0.898  1.00  0.00    -0.550 OA
ATOM      9  O   UNL     1      14.652 -16.857   3.160  1.00  0.00    -0.550 OA
ENDBRANCH   6   7
ENDBRANCH   5   6
ENDBRANCH   4   5
ENDBRANCH   3   4
ENDBRANCH   2   3
ENDBRANCH   1   2
BRANCH   1  10
ATOM     10  C   UNL     1      12.542 -15.429  -1.432  1.00  0.00     0.000 C 
BRANCH  10  11
ATOM     11  C   UNL     1      12.271 -16.215  -2.725  1.00  0.00    -0.000 C 
BRANCH  11  12
ATOM     12  C   UNL     1      13.554 -16.486  -3.531  1.00  0.00    -0.000 C 
BRANCH  12  13
ATOM     13  C   UNL     1      13.419 -17.700  -4.464  1.00  0.00    -0.000 C 
BRANCH  13  14
ATOM     14  C   UNL     1      13.652 -19.036  -3.737  1.00  0.00    -0.000 C 
BRANCH  14  15
ATOM     15  C   UNL     1      15.039 -19.114  -3.081  1.00  0.00    -0.003 C 
ATOM     16  C   UNL     1      14.965 -19.320  -1.568  1.00  0.00     0.004 C 
ENDBRANCH  14  15
ENDBRANCH  13  14
ENDBRANCH  12  13
ENDBRANCH  11  12
ENDBRANCH  10  11
ENDBRANCH   1  10
TORSDOF 12
ENDMDL
MODEL 8
REMARK VINA RESULT:    -1.306      3.319      4.514
REMARK INTER + INTRA:          -2.939
REMARK INTER:                  -2.631
REMARK INTRA:                  -0.308
REMARK UNBOUND:                -0.716
REMARK SMILES CCCCCCCCCCCCCC(=O)[O-]
REMARK SMILES IDX 8 1 9 2 10 3 11 4 12 5 13 6 14 7 15 8 16 9 7 10 6 11 5 12
REMARK SMILES IDX 4 13 3 14 2 15 1 16
REMARK H PARENT
REMARK Flexibility Score: inf
ROOT
ATOM      1  C   UNL     1      13.372 -18.057  -3.733  1.00  0.00     0.000 C 
ENDROOT
BRANCH   1   2
ATOM      2  C   UNL     1      13.147 -17.453  -2.337  1.00  0.00     0.000 C 
BRANCH   2   3
ATOM      3  C   UNL     1      12.492 -16.064  -2.388  1.00  0.00     0.000 C 
BRANCH   3   4
ATOM      4  C   UNL     1      12.367 -15.465  -0.979  1.00  0.00     0.000 C 
BRANCH   4   5
ATOM      5  C   UNL     1      12.395 -13.925  -0.980  1.00  0.00     0.006 C 
BRANCH   5   6
ATOM      6  C   UNL     1      13.806 -13.319  -0.916  1.00  0.00     0.053 C 
BRANCH   6   7
ATOM      7  C   UNL     1      14.291 -13.174   0.493  1.00  0.00     0.041 C 
ATOM      8  O   UNL     1      14.352 -12.037   1.029  1.00  0.00    -0.550 OA
ATOM      9  O   UNL     1      14.707 -14.293   1.204  1.00  0.00    -0.550 OA
ENDBRANCH   6   7
ENDBRANCH   5   6
ENDBRANCH   4   5
ENDBRANCH   3   4
ENDBRANCH   2   3
ENDBRANCH   1   2
BRANCH   1  10
ATOM     10  C   UNL     1      13.177 -17.028  -4.860  1.00  0.00     0.000 C 
BRANCH  10  11
ATOM     11  C   UNL     1      14.377 -16.078  -5.004  1.00  0.00    -0.000 C 
BRANCH  11  12
ATOM     12  C   UNL     1      13.980 -14.599  -4.849  1.00  0.00    -0.000 C 
BRANCH  12  13
ATOM     13  C   UNL     1      14.337 -13.760  -6.086  1.00  0.00    -0.000 C 
BRANCH  13  14
ATOM     14  C   UNL     1      14.314 -12.248  -5.805  1.00  0.00    -0.000 C 
BRANCH  14  15
ATOM     15  C   UNL     1      14.043 -11.928  -4.327  1.00  0.00    -0.003 C 
ATOM     16  C   UNL     1      12.551 -11.875  -3.999  1.00  0.00     0.004 C 
ENDBRANCH  14  15
ENDBRANCH  13  14
ENDBRANCH  12  13
ENDBRANCH  11  12
ENDBRANCH  10  11
ENDBRANCH   1  10
TORSDOF 12
ENDMDL
