MODEL 1
REMARK VINA RESULT:    -5.507      0.000      0.000
REMARK INTER + INTRA:          -6.871
REMARK INTER:                  -6.634
REMARK INTRA:                  -0.236
REMARK UNBOUND:                -0.236
REMARK SMILES O=c1c(O)c(-c2ccc(O)c(O)c2)oc2cc(O)cc(O)c12
REMARK SMILES IDX 5 1 3 2 2 3 1 4 22 5 20 6 19 7 17 8 16 9 15 10 14 11 6 12
REMARK SMILES IDX 7 13 8 14 9 15 13 16 11 17 10 18 12 20 4 22 21 24 18 26
REMARK H PARENT 10 19 12 21 4 23 21 25 18 27
REMARK Flexibility Score: inf
ROOT
ATOM      1  C   UNL     1      45.963  15.054  -3.905  1.00  0.00     0.180 A 
ATOM      2  C   UNL     1      46.735  13.976  -3.442  1.00  0.00     0.208 A 
ATOM      3  C   UNL     1      48.104  13.938  -3.748  1.00  0.00     0.238 A 
ATOM      4  O   UNL     1      48.779  12.942  -3.375  1.00  0.00    -0.285 OA
ATOM      5  C   UNL     1      48.688  14.986  -4.499  1.00  0.00     0.111 A 
ATOM      6  C   UNL     1      50.074  15.071  -4.832  1.00  0.00     0.134 A 
ATOM      7  C   UNL     1      50.517  16.085  -5.689  1.00  0.00     0.093 A 
ATOM      8  C   UNL     1      49.636  17.055  -6.173  1.00  0.00     0.123 A 
ATOM      9  C   UNL     1      48.293  17.016  -5.805  1.00  0.00     0.094 A 
ATOM     10  C   UNL     1      47.814  15.995  -4.981  1.00  0.00     0.146 A 
ATOM     11  O   UNL     1      46.525  15.988  -4.663  1.00  0.00    -0.452 OA
ENDROOT
BRANCH   1  12
ATOM     12  C   UNL     1      44.517  15.177  -3.603  1.00  0.00     0.025 A 
ATOM     13  C   UNL     1      43.569  14.338  -4.213  1.00  0.00     0.016 A 
ATOM     14  C   UNL     1      42.213  14.455  -3.894  1.00  0.00     0.051 A 
ATOM     15  C   UNL     1      41.787  15.402  -2.954  1.00  0.00     0.157 A 
ATOM     16  C   UNL     1      44.088  16.110  -2.646  1.00  0.00     0.062 A 
ATOM     17  C   UNL     1      42.730  16.232  -2.325  1.00  0.00     0.158 A 
BRANCH  15  18
ATOM     18  O   UNL     1      40.434  15.518  -2.640  1.00  0.00    -0.504 OA
ATOM     19  H   UNL     1      39.766  14.802  -2.900  1.00  0.00     0.293 HD
ENDBRANCH  15  18
BRANCH  17  20
ATOM     20  O   UNL     1      42.340  17.179  -1.380  1.00  0.00    -0.504 OA
ATOM     21  H   UNL     1      42.986  17.555  -0.696  1.00  0.00     0.293 HD
ENDBRANCH  17  20
ENDBRANCH   1  12
BRANCH   2  22
ATOM     22  O   UNL     1      46.134  12.940  -2.721  1.00  0.00    -0.502 OA
ATOM     23  H   UNL     1      46.445  12.670  -1.795  1.00  0.00     0.293 HD
ENDBRANCH   2  22
BRANCH   6  24
ATOM     24  O   UNL     1      51.051  14.207  -4.328  1.00  0.00    -0.507 OA
ATOM     25  H   UNL     1      52.043  14.388  -4.347  1.00  0.00     0.293 HD
ENDBRANCH   6  24
BRANCH   8  26
ATOM     26  O   UNL     1      50.088  18.069  -7.014  1.00  0.00    -0.508 OA
ATOM     27  H   UNL     1      50.128  19.034  -6.707  1.00  0.00     0.293 HD
ENDBRANCH   8  26
TORSDOF 6
ENDMDL
MODEL 2
REMARK VINA RESULT:    -5.319      1.327      1.400
REMARK INTER + INTRA:          -6.644
REMARK INTER:                  -6.458
REMARK INTRA:                  -0.186
REMARK UNBOUND:                -0.236
REMARK SMILES O=c1c(O)c(-c2ccc(O)c(O)c2)oc2cc(O)cc(O)c12
REMARK SMILES IDX 5 1 3 2 2 3 1 4 22 5 20 6 19 7 17 8 16 9 15 10 14 11 6 12
REMARK SMILES IDX 7 13 8 14 9 15 13 16 11 17 10 18 12 20 4 22 21 24 18 26
REMARK H PARENT 10 19 12 21 4 23 21 25 18 27
REMARK Flexibility Score: inf
ROOT
ATOM      1  C   UNL     1      45.575  15.821  -4.102  1.00  0.00     0.180 A 
ATOM      2  C   UNL     1      45.880  14.536  -3.621  1.00  0.00     0.208 A 
ATOM      3  C   UNL     1      47.175  14.029  -3.811  1.00  0.00     0.238 A 
ATOM      4  O   UNL     1      47.427  12.857  -3.425  1.00  0.00    -0.285 OA
ATOM      5  C   UNL     1      48.154  14.817  -4.463  1.00  0.00     0.111 A 
ATOM      6  C   UNL     1      49.508  14.419  -4.673  1.00  0.00     0.134 A 
ATOM      7  C   UNL     1      50.353  15.226  -5.444  1.00  0.00     0.093 A 
ATOM      8  C   UNL     1      49.911  16.446  -5.959  1.00  0.00     0.123 A 
ATOM      9  C   UNL     1      48.609  16.872  -5.710  1.00  0.00     0.094 A 
ATOM     10  C   UNL     1      47.731  16.072  -4.974  1.00  0.00     0.146 A 
ATOM     11  O   UNL     1      46.494  16.510  -4.768  1.00  0.00    -0.452 OA
ENDROOT
BRANCH   1  12
ATOM     12  C   UNL     1      44.239  16.434  -3.920  1.00  0.00     0.025 A 
ATOM     13  C   UNL     1      43.381  16.655  -5.011  1.00  0.00     0.016 A 
ATOM     14  C   UNL     1      42.115  17.213  -4.812  1.00  0.00     0.051 A 
ATOM     15  C   UNL     1      41.683  17.546  -3.521  1.00  0.00     0.157 A 
ATOM     16  C   UNL     1      43.794  16.750  -2.626  1.00  0.00     0.062 A 
ATOM     17  C   UNL     1      42.527  17.310  -2.423  1.00  0.00     0.158 A 
BRANCH  15  18
ATOM     18  O   UNL     1      40.421  18.104  -3.327  1.00  0.00    -0.504 OA
ATOM     19  H   UNL     1      40.257  18.814  -2.622  1.00  0.00     0.293 HD
ENDBRANCH  15  18
BRANCH  17  20
ATOM     20  O   UNL     1      42.125  17.623  -1.125  1.00  0.00    -0.504 OA
ATOM     21  H   UNL     1      42.766  18.008  -0.441  1.00  0.00     0.293 HD
ENDBRANCH  17  20
ENDBRANCH   1  12
BRANCH   2  22
ATOM     22  O   UNL     1      44.893  13.766  -3.000  1.00  0.00    -0.502 OA
ATOM     23  H   UNL     1      44.823  12.764  -3.132  1.00  0.00     0.293 HD
ENDBRANCH   2  22
BRANCH   6  24
ATOM     24  O   UNL     1      50.076  13.264  -4.125  1.00  0.00    -0.507 OA
ATOM     25  H   UNL     1      49.569  12.419  -3.915  1.00  0.00     0.293 HD
ENDBRANCH   6  24
BRANCH   8  26
ATOM     26  O   UNL     1      50.763  17.250  -6.714  1.00  0.00    -0.508 OA
ATOM     27  H   UNL     1      50.936  17.065  -7.695  1.00  0.00     0.293 HD
ENDBRANCH   8  26
TORSDOF 6
ENDMDL
MODEL 3
REMARK VINA RESULT:    -5.316      1.765      3.525
REMARK INTER + INTRA:          -6.640
REMARK INTER:                  -6.911
REMARK INTRA:                   0.271
REMARK UNBOUND:                -0.236
REMARK SMILES O=c1c(O)c(-c2ccc(O)c(O)c2)oc2cc(O)cc(O)c12
REMARK SMILES IDX 5 1 3 2 2 3 1 4 22 5 20 6 19 7 17 8 16 9 15 10 14 11 6 12
REMARK SMILES IDX 7 13 8 14 9 15 13 16 11 17 10 18 12 20 4 22 21 24 18 26
REMARK H PARENT 10 19 12 21 4 23 21 25 18 27
REMARK Flexibility Score: inf
ROOT
ATOM      1  C   UNL     1      45.510  16.018  -3.767  1.00  0.00     0.180 A 
ATOM      2  C   UNL     1      46.150  16.517  -4.914  1.00  0.00     0.208 A 
ATOM      3  C   UNL     1      47.311  15.878  -5.378  1.00  0.00     0.238 A 
ATOM      4  O   UNL     1      47.910  16.362  -6.374  1.00  0.00    -0.285 OA
ATOM      5  C   UNL     1      47.807  14.739  -4.700  1.00  0.00     0.111 A 
ATOM      6  C   UNL     1      48.952  13.988  -5.105  1.00  0.00     0.134 A 
ATOM      7  C   UNL     1      49.428  12.958  -4.286  1.00  0.00     0.093 A 
ATOM      8  C   UNL     1      48.763  12.609  -3.108  1.00  0.00     0.123 A 
ATOM      9  C   UNL     1      47.611  13.296  -2.735  1.00  0.00     0.094 A 
ATOM     10  C   UNL     1      47.132  14.353  -3.513  1.00  0.00     0.146 A 
ATOM     11  O   UNL     1      46.037  14.989  -3.114  1.00  0.00    -0.452 OA
ENDROOT
BRANCH   1  12
ATOM     12  C   UNL     1      44.268  16.623  -3.230  1.00  0.00     0.025 A 
ATOM     13  C   UNL     1      44.003  17.996  -3.375  1.00  0.00     0.016 A 
ATOM     14  C   UNL     1      42.814  18.541  -2.882  1.00  0.00     0.051 A 
ATOM     15  C   UNL     1      41.868  17.722  -2.251  1.00  0.00     0.157 A 
ATOM     16  C   UNL     1      43.309  15.803  -2.616  1.00  0.00     0.062 A 
ATOM     17  C   UNL     1      42.117  16.345  -2.121  1.00  0.00     0.158 A 
BRANCH  15  18
ATOM     18  O   UNL     1      40.684  18.269  -1.760  1.00  0.00    -0.504 OA
ATOM     19  H   UNL     1      40.224  17.890  -0.940  1.00  0.00     0.293 HD
ENDBRANCH  15  18
BRANCH  17  20
ATOM     20  O   UNL     1      41.193  15.502  -1.505  1.00  0.00    -0.504 OA
ATOM     21  H   UNL     1      41.207  15.326  -0.507  1.00  0.00     0.293 HD
ENDBRANCH  17  20
ENDBRANCH   1  12
BRANCH   2  22
ATOM     22  O   UNL     1      45.656  17.657  -5.555  1.00  0.00    -0.502 OA
ATOM     23  H   UNL     1      44.892  17.618  -6.220  1.00  0.00     0.293 HD
ENDBRANCH   2  22
BRANCH   6  24
ATOM     24  O   UNL     1      49.634  14.195  -6.309  1.00  0.00    -0.507 OA
ATOM     25  H   UNL     1      50.634  14.138  -6.419  1.00  0.00     0.293 HD
ENDBRANCH   6  24
BRANCH   8  26
ATOM     26  O   UNL     1      49.235  11.572  -2.306  1.00  0.00    -0.508 OA
ATOM     27  H   UNL     1      49.611  10.721  -2.707  1.00  0.00     0.293 HD
ENDBRANCH   8  26
TORSDOF 6
ENDMDL
MODEL 4
REMARK VINA RESULT:    -5.231      1.474      3.118
REMARK INTER + INTRA:          -6.538
REMARK INTER:                  -6.220
REMARK INTRA:                  -0.317
REMARK UNBOUND:                -0.236
REMARK SMILES O=c1c(O)c(-c2ccc(O)c(O)c2)oc2cc(O)cc(O)c12
REMARK SMILES IDX 5 1 3 2 2 3 1 4 22 5 20 6 19 7 17 8 16 9 15 10 14 11 6 12
REMARK SMILES IDX 7 13 8 14 9 15 13 16 11 17 10 18 12 20 4 22 21 24 18 26
REMARK H PARENT 10 19 12 21 4 23 21 25 18 27
REMARK Flexibility Score: inf
ROOT
ATOM      1  C   UNL     1      45.390  15.954  -4.281  1.00  0.00     0.180 A 
ATOM      2  C   UNL     1      46.132  16.830  -5.092  1.00  0.00     0.208 A 
ATOM      3  C   UNL     1      47.466  16.513  -5.392  1.00  0.00     0.238 A 
ATOM      4  O   UNL     1      48.142  17.328  -6.075  1.00  0.00    -0.285 OA
ATOM      5  C   UNL     1      48.037  15.319  -4.893  1.00  0.00     0.111 A 
ATOM      6  C   UNL     1      49.367  14.878  -5.167  1.00  0.00     0.134 A 
ATOM      7  C   UNL     1      49.868  13.746  -4.514  1.00  0.00     0.093 A 
ATOM      8  C   UNL     1      49.066  13.002  -3.646  1.00  0.00     0.123 A 
ATOM      9  C   UNL     1      47.748  13.389  -3.418  1.00  0.00     0.094 A 
ATOM     10  C   UNL     1      47.231  14.534  -4.026  1.00  0.00     0.146 A 
ATOM     11  O   UNL     1      45.973  14.875  -3.773  1.00  0.00    -0.452 OA
ENDROOT
BRANCH   1  12
ATOM     12  C   UNL     1      43.970  16.207  -3.940  1.00  0.00     0.025 A 
ATOM     13  C   UNL     1      42.935  15.881  -4.833  1.00  0.00     0.016 A 
ATOM     14  C   UNL     1      41.601  16.105  -4.481  1.00  0.00     0.051 A 
ATOM     15  C   UNL     1      41.282  16.646  -3.228  1.00  0.00     0.157 A 
ATOM     16  C   UNL     1      43.645  16.729  -2.678  1.00  0.00     0.062 A 
ATOM     17  C   UNL     1      42.310  16.957  -2.322  1.00  0.00     0.158 A 
BRANCH  15  18
ATOM     18  O   UNL     1      39.951  16.871  -2.881  1.00  0.00    -0.504 OA
ATOM     19  H   UNL     1      39.586  16.600  -1.975  1.00  0.00     0.293 HD
ENDBRANCH  15  18
BRANCH  17  20
ATOM     20  O   UNL     1      42.026  17.489  -1.065  1.00  0.00    -0.504 OA
ATOM     21  H   UNL     1      42.160  16.958  -0.213  1.00  0.00     0.293 HD
ENDBRANCH  17  20
ENDBRANCH   1  12
BRANCH   2  22
ATOM     22  O   UNL     1      45.555  18.015  -5.557  1.00  0.00    -0.502 OA
ATOM     23  H   UNL     1      44.817  18.494  -5.054  1.00  0.00     0.293 HD
ENDBRANCH   2  22
BRANCH   6  24
ATOM     24  O   UNL     1      50.219  15.497  -6.087  1.00  0.00    -0.507 OA
ATOM     25  H   UNL     1      50.073  16.414  -6.479  1.00  0.00     0.293 HD
ENDBRANCH   6  24
BRANCH   8  26
ATOM     26  O   UNL     1      49.568  11.867  -3.012  1.00  0.00    -0.508 OA
ATOM     27  H   UNL     1      50.322  11.926  -2.337  1.00  0.00     0.293 HD
ENDBRANCH   8  26
TORSDOF 6
ENDMDL
MODEL 5
REMARK VINA RESULT:    -5.231      1.924      7.176
REMARK INTER + INTRA:          -6.537
REMARK INTER:                  -6.876
REMARK INTRA:                   0.339
REMARK UNBOUND:                -0.236
REMARK SMILES O=c1c(O)c(-c2ccc(O)c(O)c2)oc2cc(O)cc(O)c12
REMARK SMILES IDX 5 1 3 2 2 3 1 4 22 5 20 6 19 7 17 8 16 9 15 10 14 11 6 12
REMARK SMILES IDX 7 13 8 14 9 15 13 16 11 17 10 18 12 20 4 22 21 24 18 26
REMARK H PARENT 10 19 12 21 4 23 21 25 18 27
REMARK Flexibility Score: inf
ROOT
ATOM      1  C   UNL     1      46.381  16.364  -4.652  1.00  0.00     0.180 A 
ATOM      2  C   UNL     1      45.971  17.355  -5.561  1.00  0.00     0.208 A 
ATOM      3  C   UNL     1      44.687  17.907  -5.432  1.00  0.00     0.238 A 
ATOM      4  O   UNL     1      44.306  18.755  -6.282  1.00  0.00    -0.285 OA
ATOM      5  C   UNL     1      43.834  17.475  -4.388  1.00  0.00     0.111 A 
ATOM      6  C   UNL     1      42.528  17.994  -4.139  1.00  0.00     0.134 A 
ATOM      7  C   UNL     1      41.725  17.401  -3.158  1.00  0.00     0.093 A 
ATOM      8  C   UNL     1      42.204  16.349  -2.374  1.00  0.00     0.123 A 
ATOM      9  C   UNL     1      43.498  15.874  -2.569  1.00  0.00     0.094 A 
ATOM     10  C   UNL     1      44.311  16.422  -3.564  1.00  0.00     0.146 A 
ATOM     11  O   UNL     1      45.535  15.932  -3.724  1.00  0.00    -0.452 OA
ENDROOT
BRANCH   1  12
ATOM     12  C   UNL     1      47.728  15.752  -4.708  1.00  0.00     0.025 A 
ATOM     13  C   UNL     1      48.803  16.405  -5.336  1.00  0.00     0.016 A 
ATOM     14  C   UNL     1      50.072  15.819  -5.355  1.00  0.00     0.051 A 
ATOM     15  C   UNL     1      50.288  14.580  -4.738  1.00  0.00     0.157 A 
ATOM     16  C   UNL     1      47.955  14.520  -4.073  1.00  0.00     0.062 A 
ATOM     17  C   UNL     1      49.225  13.930  -4.091  1.00  0.00     0.158 A 
BRANCH  15  18
ATOM     18  O   UNL     1      51.555  13.998  -4.761  1.00  0.00    -0.504 OA
ATOM     19  H   UNL     1      51.976  13.611  -3.925  1.00  0.00     0.293 HD
ENDBRANCH  15  18
BRANCH  17  20
ATOM     20  O   UNL     1      49.409  12.700  -3.461  1.00  0.00    -0.504 OA
ATOM     21  H   UNL     1      50.101  12.566  -2.734  1.00  0.00     0.293 HD
ENDBRANCH  17  20
ENDBRANCH   1  12
BRANCH   2  22
ATOM     22  O   UNL     1      46.820  17.751  -6.598  1.00  0.00    -0.502 OA
ATOM     23  H   UNL     1      47.004  18.725  -6.808  1.00  0.00     0.293 HD
ENDBRANCH   2  22
BRANCH   6  24
ATOM     24  O   UNL     1      41.990  19.101  -4.803  1.00  0.00    -0.507 OA
ATOM     25  H   UNL     1      41.050  19.154  -5.162  1.00  0.00     0.293 HD
ENDBRANCH   6  24
BRANCH   8  26
ATOM     26  O   UNL     1      41.402  15.774  -1.390  1.00  0.00    -0.508 OA
ATOM     27  H   UNL     1      41.710  15.708  -0.427  1.00  0.00     0.293 HD
ENDBRANCH   8  26
TORSDOF 6
ENDMDL
MODEL 6
REMARK VINA RESULT:    -5.227      2.152      3.377
REMARK INTER + INTRA:          -6.534
REMARK INTER:                  -6.436
REMARK INTRA:                  -0.097
REMARK UNBOUND:                -0.236
REMARK SMILES O=c1c(O)c(-c2ccc(O)c(O)c2)oc2cc(O)cc(O)c12
REMARK SMILES IDX 5 1 3 2 2 3 1 4 22 5 20 6 19 7 17 8 16 9 15 10 14 11 6 12
REMARK SMILES IDX 7 13 8 14 9 15 13 16 11 17 10 18 12 20 4 22 21 24 18 26
REMARK H PARENT 10 19 12 21 4 23 21 25 18 27
REMARK Flexibility Score: inf
ROOT
ATOM      1  C   UNL     1      45.453  15.670  -3.800  1.00  0.00     0.180 A 
ATOM      2  C   UNL     1      44.849  14.473  -3.379  1.00  0.00     0.208 A 
ATOM      3  C   UNL     1      45.643  13.325  -3.232  1.00  0.00     0.238 A 
ATOM      4  O   UNL     1      45.087  12.243  -2.906  1.00  0.00    -0.285 OA
ATOM      5  C   UNL     1      47.033  13.390  -3.492  1.00  0.00     0.111 A 
ATOM      6  C   UNL     1      47.940  12.299  -3.337  1.00  0.00     0.134 A 
ATOM      7  C   UNL     1      49.271  12.443  -3.747  1.00  0.00     0.093 A 
ATOM      8  C   UNL     1      49.742  13.659  -4.247  1.00  0.00     0.123 A 
ATOM      9  C   UNL     1      48.880  14.748  -4.346  1.00  0.00     0.094 A 
ATOM     10  C   UNL     1      47.538  14.625  -3.979  1.00  0.00     0.146 A 
ATOM     11  O   UNL     1      46.747  15.684  -4.100  1.00  0.00    -0.452 OA
ENDROOT
BRANCH   1  12
ATOM     12  C   UNL     1      44.687  16.928  -3.955  1.00  0.00     0.025 A 
ATOM     13  C   UNL     1      44.582  17.572  -5.200  1.00  0.00     0.016 A 
ATOM     14  C   UNL     1      43.833  18.745  -5.328  1.00  0.00     0.051 A 
ATOM     15  C   UNL     1      43.169  19.285  -4.219  1.00  0.00     0.157 A 
ATOM     16  C   UNL     1      44.002  17.461  -2.851  1.00  0.00     0.062 A 
ATOM     17  C   UNL     1      43.253  18.637  -2.975  1.00  0.00     0.158 A 
BRANCH  15  18
ATOM     18  O   UNL     1      42.425  20.456  -4.349  1.00  0.00    -0.504 OA
ATOM     19  H   UNL     1      42.788  21.352  -4.045  1.00  0.00     0.293 HD
ENDBRANCH  15  18
BRANCH  17  20
ATOM     20  O   UNL     1      42.597  19.144  -1.853  1.00  0.00    -0.504 OA
ATOM     21  H   UNL     1      42.869  18.890  -0.911  1.00  0.00     0.293 HD
ENDBRANCH  17  20
ENDBRANCH   1  12
BRANCH   2  22
ATOM     22  O   UNL     1      43.471  14.425  -3.149  1.00  0.00    -0.502 OA
ATOM     23  H   UNL     1      43.070  13.950  -2.349  1.00  0.00     0.293 HD
ENDBRANCH   2  22
BRANCH   6  24
ATOM     24  O   UNL     1      47.592  11.072  -2.763  1.00  0.00    -0.507 OA
ATOM     25  H   UNL     1      46.651  10.787  -2.543  1.00  0.00     0.293 HD
ENDBRANCH   6  24
BRANCH   8  26
ATOM     26  O   UNL     1      51.072  13.798  -4.639  1.00  0.00    -0.508 OA
ATOM     27  H   UNL     1      51.836  13.525  -4.031  1.00  0.00     0.293 HD
ENDBRANCH   8  26
TORSDOF 6
ENDMDL
MODEL 7
REMARK VINA RESULT:    -5.074      2.106      7.041
REMARK INTER + INTRA:          -6.349
REMARK INTER:                  -6.602
REMARK INTRA:                   0.252
REMARK UNBOUND:                -0.236
REMARK SMILES O=c1c(O)c(-c2ccc(O)c(O)c2)oc2cc(O)cc(O)c12
REMARK SMILES IDX 5 1 3 2 2 3 1 4 22 5 20 6 19 7 17 8 16 9 15 10 14 11 6 12
REMARK SMILES IDX 7 13 8 14 9 15 13 16 11 17 10 18 12 20 4 22 21 24 18 26
REMARK H PARENT 10 19 12 21 4 23 21 25 18 27
REMARK Flexibility Score: inf
ROOT
ATOM      1  C   UNL     1      49.034  14.934  -4.987  1.00  0.00     0.180 A 
ATOM      2  C   UNL     1      48.517  14.078  -4.000  1.00  0.00     0.208 A 
ATOM      3  C   UNL     1      47.198  14.266  -3.559  1.00  0.00     0.238 A 
ATOM      4  O   UNL     1      46.759  13.530  -2.636  1.00  0.00    -0.285 OA
ATOM      5  C   UNL     1      46.406  15.295  -4.121  1.00  0.00     0.111 A 
ATOM      6  C   UNL     1      45.044  15.550  -3.779  1.00  0.00     0.134 A 
ATOM      7  C   UNL     1      44.399  16.676  -4.304  1.00  0.00     0.093 A 
ATOM      8  C   UNL     1      45.047  17.520  -5.209  1.00  0.00     0.123 A 
ATOM      9  C   UNL     1      46.356  17.247  -5.596  1.00  0.00     0.094 A 
ATOM     10  C   UNL     1      47.038  16.151  -5.061  1.00  0.00     0.146 A 
ATOM     11  O   UNL     1      48.289  15.932  -5.448  1.00  0.00    -0.452 OA
ENDROOT
BRANCH   1  12
ATOM     12  C   UNL     1      50.408  14.784  -5.520  1.00  0.00     0.025 A 
ATOM     13  C   UNL     1      51.041  13.530  -5.567  1.00  0.00     0.016 A 
ATOM     14  C   UNL     1      52.329  13.409  -6.097  1.00  0.00     0.051 A 
ATOM     15  C   UNL     1      52.996  14.533  -6.599  1.00  0.00     0.157 A 
ATOM     16  C   UNL     1      51.072  15.905  -6.044  1.00  0.00     0.062 A 
ATOM     17  C   UNL     1      52.363  15.787  -6.574  1.00  0.00     0.158 A 
BRANCH  15  18
ATOM     18  O   UNL     1      54.281  14.409  -7.125  1.00  0.00    -0.504 OA
ATOM     19  H   UNL     1      54.948  13.746  -6.746  1.00  0.00     0.293 HD
ENDBRANCH  15  18
BRANCH  17  20
ATOM     20  O   UNL     1      52.997  16.924  -7.073  1.00  0.00    -0.504 OA
ATOM     21  H   UNL     1      54.001  16.971  -7.194  1.00  0.00     0.293 HD
ENDBRANCH  17  20
ENDBRANCH   1  12
BRANCH   2  22
ATOM     22  O   UNL     1      49.323  13.082  -3.442  1.00  0.00    -0.502 OA
ATOM     23  H   UNL     1      50.294  13.241  -3.198  1.00  0.00     0.293 HD
ENDBRANCH   2  22
BRANCH   6  24
ATOM     24  O   UNL     1      44.278  14.718  -2.957  1.00  0.00    -0.507 OA
ATOM     25  H   UNL     1      44.612  13.871  -2.525  1.00  0.00     0.293 HD
ENDBRANCH   6  24
BRANCH   8  26
ATOM     26  O   UNL     1      44.392  18.631  -5.738  1.00  0.00    -0.508 OA
ATOM     27  H   UNL     1      43.481  18.920  -5.402  1.00  0.00     0.293 HD
ENDBRANCH   8  26
TORSDOF 6
ENDMDL
MODEL 8
REMARK VINA RESULT:    -4.916      2.600      4.490
REMARK INTER + INTRA:          -6.159
REMARK INTER:                  -6.225
REMARK INTRA:                   0.066
REMARK UNBOUND:                -0.236
REMARK SMILES O=c1c(O)c(-c2ccc(O)c(O)c2)oc2cc(O)cc(O)c12
REMARK SMILES IDX 5 1 3 2 2 3 1 4 22 5 20 6 19 7 17 8 16 9 15 10 14 11 6 12
REMARK SMILES IDX 7 13 8 14 9 15 13 16 11 17 10 18 12 20 4 22 21 24 18 26
REMARK H PARENT 10 19 12 21 4 23 21 25 18 27
REMARK Flexibility Score: inf
ROOT
ATOM      1  C   UNL     1      46.330  16.304  -4.671  1.00  0.00     0.180 A 
ATOM      2  C   UNL     1      47.719  16.357  -4.878  1.00  0.00     0.208 A 
ATOM      3  C   UNL     1      48.509  15.270  -4.474  1.00  0.00     0.238 A 
ATOM      4  O   UNL     1      49.758  15.346  -4.613  1.00  0.00    -0.285 OA
ATOM      5  C   UNL     1      47.901  14.136  -3.885  1.00  0.00     0.111 A 
ATOM      6  C   UNL     1      48.600  12.960  -3.475  1.00  0.00     0.134 A 
ATOM      7  C   UNL     1      47.914  11.954  -2.785  1.00  0.00     0.093 A 
ATOM      8  C   UNL     1      46.541  12.052  -2.547  1.00  0.00     0.123 A 
ATOM      9  C   UNL     1      45.838  13.167  -2.996  1.00  0.00     0.094 A 
ATOM     10  C   UNL     1      46.502  14.204  -3.655  1.00  0.00     0.146 A 
ATOM     11  O   UNL     1      45.796  15.255  -4.056  1.00  0.00    -0.452 OA
ENDROOT
BRANCH   1  12
ATOM     12  C   UNL     1      45.427  17.401  -5.092  1.00  0.00     0.025 A 
ATOM     13  C   UNL     1      45.568  18.025  -6.343  1.00  0.00     0.016 A 
ATOM     14  C   UNL     1      44.690  19.041  -6.729  1.00  0.00     0.051 A 
ATOM     15  C   UNL     1      43.651  19.439  -5.877  1.00  0.00     0.157 A 
ATOM     16  C   UNL     1      44.372  17.788  -4.250  1.00  0.00     0.062 A 
ATOM     17  C   UNL     1      43.491  18.807  -4.633  1.00  0.00     0.158 A 
BRANCH  15  18
ATOM     18  O   UNL     1      42.778  20.455  -6.264  1.00  0.00    -0.504 OA
ATOM     19  H   UNL     1      42.655  21.291  -5.705  1.00  0.00     0.293 HD
ENDBRANCH  15  18
BRANCH  17  20
ATOM     20  O   UNL     1      42.463  19.175  -3.765  1.00  0.00    -0.504 OA
ATOM     21  H   UNL     1      41.516  18.832  -3.877  1.00  0.00     0.293 HD
ENDBRANCH  17  20
ENDBRANCH   1  12
BRANCH   2  22
ATOM     22  O   UNL     1      48.302  17.496  -5.441  1.00  0.00    -0.502 OA
ATOM     23  H   UNL     1      47.873  18.004  -6.206  1.00  0.00     0.293 HD
ENDBRANCH   2  22
BRANCH   6  24
ATOM     24  O   UNL     1      49.951  12.723  -3.746  1.00  0.00    -0.507 OA
ATOM     25  H   UNL     1      50.714  13.278  -3.390  1.00  0.00     0.293 HD
ENDBRANCH   6  24
BRANCH   8  26
ATOM     26  O   UNL     1      45.863  11.038  -1.873  1.00  0.00    -0.508 OA
ATOM     27  H   UNL     1      45.232  11.241  -1.106  1.00  0.00     0.293 HD
ENDBRANCH   8  26
TORSDOF 6
ENDMDL
MODEL 9
REMARK VINA RESULT:    -4.901      1.272      6.784
REMARK INTER + INTRA:          -6.140
REMARK INTER:                  -6.247
REMARK INTRA:                   0.106
REMARK UNBOUND:                -0.236
REMARK SMILES O=c1c(O)c(-c2ccc(O)c(O)c2)oc2cc(O)cc(O)c12
REMARK SMILES IDX 5 1 3 2 2 3 1 4 22 5 20 6 19 7 17 8 16 9 15 10 14 11 6 12
REMARK SMILES IDX 7 13 8 14 9 15 13 16 11 17 10 18 12 20 4 22 21 24 18 26
REMARK H PARENT 10 19 12 21 4 23 21 25 18 27
REMARK Flexibility Score: inf
ROOT
ATOM      1  C   UNL     1      46.599  15.456  -4.450  1.00  0.00     0.180 A 
ATOM      2  C   UNL     1      46.068  14.157  -4.369  1.00  0.00     0.208 A 
ATOM      3  C   UNL     1      44.762  13.986  -3.885  1.00  0.00     0.238 A 
ATOM      4  O   UNL     1      44.311  12.816  -3.764  1.00  0.00    -0.285 OA
ATOM      5  C   UNL     1      43.997  15.114  -3.504  1.00  0.00     0.111 A 
ATOM      6  C   UNL     1      42.649  15.061  -3.037  1.00  0.00     0.134 A 
ATOM      7  C   UNL     1      42.035  16.227  -2.566  1.00  0.00     0.093 A 
ATOM      8  C   UNL     1      42.698  17.456  -2.603  1.00  0.00     0.123 A 
ATOM      9  C   UNL     1      43.992  17.529  -3.112  1.00  0.00     0.094 A 
ATOM     10  C   UNL     1      44.644  16.376  -3.556  1.00  0.00     0.146 A 
ATOM     11  O   UNL     1      45.882  16.488  -4.024  1.00  0.00    -0.452 OA
ENDROOT
BRANCH   1  12
ATOM     12  C   UNL     1      47.960  15.719  -4.973  1.00  0.00     0.025 A 
ATOM     13  C   UNL     1      48.208  16.774  -5.868  1.00  0.00     0.016 A 
ATOM     14  C   UNL     1      49.504  17.020  -6.329  1.00  0.00     0.051 A 
ATOM     15  C   UNL     1      50.573  16.225  -5.894  1.00  0.00     0.157 A 
ATOM     16  C   UNL     1      49.037  14.938  -4.523  1.00  0.00     0.062 A 
ATOM     17  C   UNL     1      50.337  15.181  -4.984  1.00  0.00     0.158 A 
BRANCH  15  18
ATOM     18  O   UNL     1      51.864  16.471  -6.358  1.00  0.00    -0.504 OA
ATOM     19  H   UNL     1      52.087  17.303  -6.892  1.00  0.00     0.293 HD
ENDBRANCH  15  18
BRANCH  17  20
ATOM     20  O   UNL     1      51.379  14.376  -4.526  1.00  0.00    -0.504 OA
ATOM     21  H   UNL     1      51.664  13.535  -5.013  1.00  0.00     0.293 HD
ENDBRANCH  17  20
ENDBRANCH   1  12
BRANCH   2  22
ATOM     22  O   UNL     1      46.848  13.055  -4.730  1.00  0.00    -0.502 OA
ATOM     23  H   UNL     1      47.072  12.312  -4.079  1.00  0.00     0.293 HD
ENDBRANCH   2  22
BRANCH   6  24
ATOM     24  O   UNL     1      41.867  13.902  -3.044  1.00  0.00    -0.507 OA
ATOM     25  H   UNL     1      40.865  13.884  -2.932  1.00  0.00     0.293 HD
ENDBRANCH   6  24
BRANCH   8  26
ATOM     26  O   UNL     1      42.073  18.614  -2.145  1.00  0.00    -0.508 OA
ATOM     27  H   UNL     1      42.574  19.492  -2.071  1.00  0.00     0.293 HD
ENDBRANCH   8  26
TORSDOF 6
ENDMDL
