MODEL 1
REMARK VINA RESULT:    -4.784      0.000      0.000
REMARK INTER + INTRA:          -9.289
REMARK INTER:                  -8.140
REMARK INTRA:                  -1.149
REMARK UNBOUND:                -1.149
REMARK SMILES CCCCCCCCCCCCCC(=O)[O-]
REMARK SMILES IDX 8 1 9 2 10 3 11 4 12 5 13 6 14 7 15 8 16 9 7 10 6 11 5 12
REMARK SMILES IDX 4 13 3 14 2 15 1 16
REMARK H PARENT
REMARK Flexibility Score: inf
ROOT
ATOM      1  C   UNL     1       5.815 -31.391 -17.288  1.00  0.00     0.000 C 
ENDROOT
BRANCH   1   2
ATOM      2  C   UNL     1       6.994 -31.866 -18.145  1.00  0.00     0.000 C 
BRANCH   2   3
ATOM      3  C   UNL     1       6.550 -32.150 -19.586  1.00  0.00     0.000 C 
BRANCH   3   4
ATOM      4  C   UNL     1       7.241 -33.406 -20.137  1.00  0.00     0.000 C 
BRANCH   4   5
ATOM      5  C   UNL     1       6.356 -34.184 -21.123  1.00  0.00     0.006 C 
BRANCH   5   6
ATOM      6  C   UNL     1       6.494 -35.704 -20.968  1.00  0.00     0.053 C 
BRANCH   6   7
ATOM      7  C   UNL     1       6.777 -36.339 -22.293  1.00  0.00     0.041 C 
ATOM      8  O   UNL     1       7.465 -37.392 -22.356  1.00  0.00    -0.550 OA
ATOM      9  O   UNL     1       6.322 -35.743 -23.461  1.00  0.00    -0.550 OA
ENDBRANCH   6   7
ENDBRANCH   5   6
ENDBRANCH   4   5
ENDBRANCH   3   4
ENDBRANCH   2   3
ENDBRANCH   1   2
BRANCH   1  10
ATOM     10  C   UNL     1       4.869 -30.495 -18.102  1.00  0.00     0.000 C 
BRANCH  10  11
ATOM     11  C   UNL     1       4.439 -29.235 -17.334  1.00  0.00    -0.000 C 
BRANCH  11  12
ATOM     12  C   UNL     1       4.763 -27.940 -18.093  1.00  0.00    -0.000 C 
BRANCH  12  13
ATOM     13  C   UNL     1       5.995 -27.247 -17.498  1.00  0.00    -0.000 C 
BRANCH  13  14
ATOM     14  C   UNL     1       6.361 -27.851 -16.135  1.00  0.00    -0.000 C 
BRANCH  14  15
ATOM     15  C   UNL     1       7.773 -28.458 -16.118  1.00  0.00    -0.003 C 
ATOM     16  C   UNL     1       8.446 -28.428 -17.490  1.00  0.00     0.004 C 
ENDBRANCH  14  15
ENDBRANCH  13  14
ENDBRANCH  12  13
ENDBRANCH  11  12
ENDBRANCH  10  11
ENDBRANCH   1  10
TORSDOF 12
ENDMDL
MODEL 2
REMARK VINA RESULT:    -4.405      1.594      2.696
REMARK INTER + INTRA:          -8.644
REMARK INTER:                  -7.965
REMARK INTRA:                  -0.679
REMARK UNBOUND:                -1.149
REMARK SMILES CCCCCCCCCCCCCC(=O)[O-]
REMARK SMILES IDX 8 1 9 2 10 3 11 4 12 5 13 6 14 7 15 8 16 9 7 10 6 11 5 12
REMARK SMILES IDX 4 13 3 14 2 15 1 16
REMARK H PARENT
REMARK Flexibility Score: inf
ROOT
ATOM      1  C   UNL     1       7.033 -32.077 -18.645  1.00  0.00     0.000 C 
ENDROOT
BRANCH   1   2
ATOM      2  C   UNL     1       6.642 -32.489 -20.070  1.00  0.00     0.000 C 
BRANCH   2   3
ATOM      3  C   UNL     1       7.099 -33.920 -20.375  1.00  0.00     0.000 C 
BRANCH   3   4
ATOM      4  C   UNL     1       6.353 -34.489 -21.592  1.00  0.00     0.000 C 
BRANCH   4   5
ATOM      5  C   UNL     1       6.884 -35.865 -22.021  1.00  0.00     0.006 C 
BRANCH   5   6
ATOM      6  C   UNL     1       5.813 -36.962 -21.939  1.00  0.00     0.053 C 
BRANCH   6   7
ATOM      7  C   UNL     1       5.432 -37.212 -20.514  1.00  0.00     0.041 C 
ATOM      8  O   UNL     1       4.342 -36.772 -20.063  1.00  0.00    -0.550 OA
ATOM      9  O   UNL     1       6.302 -37.891 -19.670  1.00  0.00    -0.550 OA
ENDBRANCH   6   7
ENDBRANCH   5   6
ENDBRANCH   4   5
ENDBRANCH   3   4
ENDBRANCH   2   3
ENDBRANCH   1   2
BRANCH   1  10
ATOM     10  C   UNL     1       6.455 -30.697 -18.293  1.00  0.00     0.000 C 
BRANCH  10  11
ATOM     11  C   UNL     1       7.168 -30.043 -17.099  1.00  0.00    -0.000 C 
BRANCH  11  12
ATOM     12  C   UNL     1       7.970 -28.795 -17.499  1.00  0.00    -0.000 C 
BRANCH  12  13
ATOM     13  C   UNL     1       7.103 -27.533 -17.409  1.00  0.00    -0.000 C 
BRANCH  13  14
ATOM     14  C   UNL     1       6.005 -27.694 -16.349  1.00  0.00    -0.000 C 
BRANCH  14  15
ATOM     15  C   UNL     1       4.617 -27.288 -16.871  1.00  0.00    -0.003 C 
ATOM     16  C   UNL     1       4.427 -27.606 -18.353  1.00  0.00     0.004 C 
ENDBRANCH  14  15
ENDBRANCH  13  14
ENDBRANCH  12  13
ENDBRANCH  11  12
ENDBRANCH  10  11
ENDBRANCH   1  10
TORSDOF 12
ENDMDL
MODEL 3
REMARK VINA RESULT:    -4.269      1.432      2.471
REMARK INTER + INTRA:          -8.413
REMARK INTER:                  -7.554
REMARK INTRA:                  -0.859
REMARK UNBOUND:                -1.149
REMARK SMILES CCCCCCCCCCCCCC(=O)[O-]
REMARK SMILES IDX 8 1 9 2 10 3 11 4 12 5 13 6 14 7 15 8 16 9 7 10 6 11 5 12
REMARK SMILES IDX 4 13 3 14 2 15 1 16
REMARK H PARENT
REMARK Flexibility Score: inf
ROOT
ATOM      1  C   UNL     1       6.591 -30.478 -17.909  1.00  0.00     0.000 C 
ENDROOT
BRANCH   1   2
ATOM      2  C   UNL     1       7.209 -31.794 -18.399  1.00  0.00     0.000 C 
BRANCH   2   3
ATOM      3  C   UNL     1       6.337 -32.445 -19.479  1.00  0.00     0.000 C 
BRANCH   3   4
ATOM      4  C   UNL     1       7.110 -33.545 -20.222  1.00  0.00     0.000 C 
BRANCH   4   5
ATOM      5  C   UNL     1       6.282 -34.198 -21.339  1.00  0.00     0.006 C 
BRANCH   5   6
ATOM      6  C   UNL     1       6.789 -35.600 -21.707  1.00  0.00     0.053 C 
BRANCH   6   7
ATOM      7  C   UNL     1       6.064 -36.640 -20.912  1.00  0.00     0.041 C 
ATOM      8  O   UNL     1       4.845 -36.490 -20.635  1.00  0.00    -0.550 OA
ATOM      9  O   UNL     1       6.746 -37.753 -20.438  1.00  0.00    -0.550 OA
ENDBRANCH   6   7
ENDBRANCH   5   6
ENDBRANCH   4   5
ENDBRANCH   3   4
ENDBRANCH   2   3
ENDBRANCH   1   2
BRANCH   1  10
ATOM     10  C   UNL     1       7.665 -29.554 -17.315  1.00  0.00     0.000 C 
BRANCH  10  11
ATOM     11  C   UNL     1       7.582 -28.121 -17.864  1.00  0.00    -0.000 C 
BRANCH  11  12
ATOM     12  C   UNL     1       6.603 -27.240 -17.074  1.00  0.00    -0.000 C 
BRANCH  12  13
ATOM     13  C   UNL     1       5.267 -27.103 -17.813  1.00  0.00    -0.000 C 
BRANCH  13  14
ATOM     14  C   UNL     1       4.086 -27.382 -16.872  1.00  0.00    -0.000 C 
BRANCH  14  15
ATOM     15  C   UNL     1       4.522 -28.058 -15.562  1.00  0.00    -0.003 C 
ATOM     16  C   UNL     1       4.004 -29.490 -15.436  1.00  0.00     0.004 C 
ENDBRANCH  14  15
ENDBRANCH  13  14
ENDBRANCH  12  13
ENDBRANCH  11  12
ENDBRANCH  10  11
ENDBRANCH   1  10
TORSDOF 12
ENDMDL
MODEL 4
REMARK VINA RESULT:    -4.213      2.369      3.467
REMARK INTER + INTRA:          -8.318
REMARK INTER:                  -7.680
REMARK INTRA:                  -0.638
REMARK UNBOUND:                -1.149
REMARK SMILES CCCCCCCCCCCCCC(=O)[O-]
REMARK SMILES IDX 8 1 9 2 10 3 11 4 12 5 13 6 14 7 15 8 16 9 7 10 6 11 5 12
REMARK SMILES IDX 4 13 3 14 2 15 1 16
REMARK H PARENT
REMARK Flexibility Score: inf
ROOT
ATOM      1  C   UNL     1       6.680 -32.852 -20.347  1.00  0.00     0.000 C 
ENDROOT
BRANCH   1   2
ATOM      2  C   UNL     1       7.153 -34.300 -20.532  1.00  0.00     0.000 C 
BRANCH   2   3
ATOM      3  C   UNL     1       5.986 -35.215 -20.921  1.00  0.00     0.000 C 
BRANCH   3   4
ATOM      4  C   UNL     1       5.847 -35.310 -22.448  1.00  0.00     0.000 C 
BRANCH   4   5
ATOM      5  C   UNL     1       5.014 -36.522 -22.892  1.00  0.00     0.006 C 
BRANCH   5   6
ATOM      6  C   UNL     1       3.691 -36.117 -23.557  1.00  0.00     0.053 C 
BRANCH   6   7
ATOM      7  C   UNL     1       2.531 -36.600 -22.745  1.00  0.00     0.041 C 
ATOM      8  O   UNL     1       1.452 -36.921 -23.310  1.00  0.00    -0.550 OA
ATOM      9  O   UNL     1       2.625 -36.651 -21.360  1.00  0.00    -0.550 OA
ENDBRANCH   6   7
ENDBRANCH   5   6
ENDBRANCH   4   5
ENDBRANCH   3   4
ENDBRANCH   2   3
ENDBRANCH   1   2
BRANCH   1  10
ATOM     10  C   UNL     1       7.171 -32.280 -19.009  1.00  0.00     0.000 C 
BRANCH  10  11
ATOM     11  C   UNL     1       6.146 -31.339 -18.355  1.00  0.00    -0.000 C 
BRANCH  11  12
ATOM     12  C   UNL     1       6.429 -31.097 -16.865  1.00  0.00    -0.000 C 
BRANCH  12  13
ATOM     13  C   UNL     1       5.906 -29.726 -16.421  1.00  0.00    -0.000 C 
BRANCH  13  14
ATOM     14  C   UNL     1       5.817 -28.759 -17.610  1.00  0.00    -0.000 C 
BRANCH  14  15
ATOM     15  C   UNL     1       6.809 -27.591 -17.498  1.00  0.00    -0.003 C 
ATOM     16  C   UNL     1       8.263 -28.032 -17.668  1.00  0.00     0.004 C 
ENDBRANCH  14  15
ENDBRANCH  13  14
ENDBRANCH  12  13
ENDBRANCH  11  12
ENDBRANCH  10  11
ENDBRANCH   1  10
TORSDOF 12
ENDMDL
MODEL 5
REMARK VINA RESULT:    -4.155      8.679     12.506
REMARK INTER + INTRA:          -8.219
REMARK INTER:                  -7.599
REMARK INTRA:                  -0.620
REMARK UNBOUND:                -1.149
REMARK SMILES CCCCCCCCCCCCCC(=O)[O-]
REMARK SMILES IDX 8 1 9 2 10 3 11 4 12 5 13 6 14 7 15 8 16 9 7 10 6 11 5 12
REMARK SMILES IDX 4 13 3 14 2 15 1 16
REMARK H PARENT
REMARK Flexibility Score: inf
ROOT
ATOM      1  C   UNL     1      -0.791 -40.761 -20.141  1.00  0.00     0.000 C 
ENDROOT
BRANCH   1   2
ATOM      2  C   UNL     1      -1.629 -39.685 -20.844  1.00  0.00     0.000 C 
BRANCH   2   3
ATOM      3  C   UNL     1      -0.779 -38.887 -21.840  1.00  0.00     0.000 C 
BRANCH   3   4
ATOM      4  C   UNL     1      -0.647 -37.421 -21.400  1.00  0.00     0.000 C 
BRANCH   4   5
ATOM      5  C   UNL     1       0.666 -36.778 -21.872  1.00  0.00     0.006 C 
BRANCH   5   6
ATOM      6  C   UNL     1       1.148 -37.339 -23.217  1.00  0.00     0.053 C 
BRANCH   6   7
ATOM      7  C   UNL     1       2.511 -36.815 -23.541  1.00  0.00     0.041 C 
ATOM      8  O   UNL     1       2.997 -35.860 -22.879  1.00  0.00    -0.550 OA
ATOM      9  O   UNL     1       3.227 -37.349 -24.604  1.00  0.00    -0.550 OA
ENDBRANCH   6   7
ENDBRANCH   5   6
ENDBRANCH   4   5
ENDBRANCH   3   4
ENDBRANCH   2   3
ENDBRANCH   1   2
BRANCH   1  10
ATOM     10  C   UNL     1      -1.526 -41.312 -18.909  1.00  0.00     0.000 C 
BRANCH  10  11
ATOM     11  C   UNL     1      -0.887 -42.600 -18.365  1.00  0.00    -0.000 C 
BRANCH  11  12
ATOM     12  C   UNL     1       0.483 -42.353 -17.716  1.00  0.00    -0.000 C 
BRANCH  12  13
ATOM     13  C   UNL     1       1.553 -43.264 -18.329  1.00  0.00    -0.000 C 
BRANCH  13  14
ATOM     14  C   UNL     1       1.795 -44.499 -17.449  1.00  0.00    -0.000 C 
BRANCH  14  15
ATOM     15  C   UNL     1       1.122 -45.763 -18.007  1.00  0.00    -0.003 C 
ATOM     16  C   UNL     1      -0.170 -46.117 -17.272  1.00  0.00     0.004 C 
ENDBRANCH  14  15
ENDBRANCH  13  14
ENDBRANCH  12  13
ENDBRANCH  11  12
ENDBRANCH  10  11
ENDBRANCH   1  10
TORSDOF 12
ENDMDL
MODEL 6
REMARK VINA RESULT:    -4.083     12.479     14.507
REMARK INTER + INTRA:          -8.096
REMARK INTER:                  -6.390
REMARK INTRA:                  -1.706
REMARK UNBOUND:                -1.149
REMARK SMILES CCCCCCCCCCCCCC(=O)[O-]
REMARK SMILES IDX 8 1 9 2 10 3 11 4 12 5 13 6 14 7 15 8 16 9 7 10 6 11 5 12
REMARK SMILES IDX 4 13 3 14 2 15 1 16
REMARK H PARENT
REMARK Flexibility Score: inf
ROOT
ATOM      1  C   UNL     1      -1.399 -45.761 -17.499  1.00  0.00     0.000 C 
ENDROOT
BRANCH   1   2
ATOM      2  C   UNL     1       0.072 -45.370 -17.696  1.00  0.00     0.000 C 
BRANCH   2   3
ATOM      3  C   UNL     1       0.976 -46.609 -17.696  1.00  0.00     0.000 C 
BRANCH   3   4
ATOM      4  C   UNL     1       2.358 -46.281 -17.111  1.00  0.00     0.000 C 
BRANCH   4   5
ATOM      5  C   UNL     1       2.272 -45.604 -15.734  1.00  0.00     0.006 C 
BRANCH   5   6
ATOM      6  C   UNL     1       3.519 -44.771 -15.407  1.00  0.00     0.053 C 
BRANCH   6   7
ATOM      7  C   UNL     1       3.292 -43.334 -15.758  1.00  0.00     0.041 C 
ATOM      8  O   UNL     1       2.918 -42.518 -14.875  1.00  0.00    -0.550 OA
ATOM      9  O   UNL     1       3.448 -42.906 -17.070  1.00  0.00    -0.550 OA
ENDBRANCH   6   7
ENDBRANCH   5   6
ENDBRANCH   4   5
ENDBRANCH   3   4
ENDBRANCH   2   3
ENDBRANCH   1   2
BRANCH   1  10
ATOM     10  C   UNL     1      -2.067 -44.869 -16.442  1.00  0.00     0.000 C 
BRANCH  10  11
ATOM     11  C   UNL     1      -1.210 -44.706 -15.176  1.00  0.00    -0.000 C 
BRANCH  11  12
ATOM     12  C   UNL     1      -0.841 -43.242 -14.895  1.00  0.00    -0.000 C 
BRANCH  12  13
ATOM     13  C   UNL     1      -1.169 -42.351 -16.099  1.00  0.00    -0.000 C 
BRANCH  13  14
ATOM     14  C   UNL     1       0.108 -41.752 -16.705  1.00  0.00    -0.000 C 
BRANCH  14  15
ATOM     15  C   UNL     1       0.060 -41.689 -18.240  1.00  0.00    -0.003 C 
ATOM     16  C   UNL     1      -1.355 -41.488 -18.779  1.00  0.00     0.004 C 
ENDBRANCH  14  15
ENDBRANCH  13  14
ENDBRANCH  12  13
ENDBRANCH  11  12
ENDBRANCH  10  11
ENDBRANCH   1  10
TORSDOF 12
ENDMDL
MODEL 7
REMARK VINA RESULT:    -4.053      2.993      5.218
REMARK INTER + INTRA:          -8.045
REMARK INTER:                  -7.472
REMARK INTRA:                  -0.573
REMARK UNBOUND:                -1.149
REMARK SMILES CCCCCCCCCCCCCC(=O)[O-]
REMARK SMILES IDX 8 1 9 2 10 3 11 4 12 5 13 6 14 7 15 8 16 9 7 10 6 11 5 12
REMARK SMILES IDX 4 13 3 14 2 15 1 16
REMARK H PARENT
REMARK Flexibility Score: inf
ROOT
ATOM      1  C   UNL     1       6.115 -34.728 -21.976  1.00  0.00     0.000 C 
ENDROOT
BRANCH   1   2
ATOM      2  C   UNL     1       5.312 -36.019 -21.775  1.00  0.00     0.000 C 
BRANCH   2   3
ATOM      3  C   UNL     1       6.241 -37.212 -21.520  1.00  0.00     0.000 C 
BRANCH   3   4
ATOM      4  C   UNL     1       6.091 -37.728 -20.081  1.00  0.00     0.000 C 
BRANCH   4   5
ATOM      5  C   UNL     1       7.139 -38.794 -19.723  1.00  0.00     0.006 C 
BRANCH   5   6
ATOM      6  C   UNL     1       7.687 -38.627 -18.299  1.00  0.00     0.053 C 
BRANCH   6   7
ATOM      7  C   UNL     1       8.319 -39.900 -17.831  1.00  0.00     0.041 C 
ATOM      8  O   UNL     1       8.957 -39.929 -16.746  1.00  0.00    -0.550 OA
ATOM      9  O   UNL     1       8.243 -41.043 -18.616  1.00  0.00    -0.550 OA
ENDBRANCH   6   7
ENDBRANCH   5   6
ENDBRANCH   4   5
ENDBRANCH   3   4
ENDBRANCH   2   3
ENDBRANCH   1   2
BRANCH   1  10
ATOM     10  C   UNL     1       6.919 -34.379 -20.714  1.00  0.00     0.000 C 
BRANCH  10  11
ATOM     11  C   UNL     1       6.496 -33.037 -20.094  1.00  0.00    -0.000 C 
BRANCH  11  12
ATOM     12  C   UNL     1       7.499 -32.525 -19.049  1.00  0.00    -0.000 C 
BRANCH  12  13
ATOM     13  C   UNL     1       6.980 -31.254 -18.366  1.00  0.00    -0.000 C 
BRANCH  13  14
ATOM     14  C   UNL     1       6.104 -31.598 -17.154  1.00  0.00    -0.000 C 
BRANCH  14  15
ATOM     15  C   UNL     1       4.892 -30.663 -17.017  1.00  0.00    -0.003 C 
ATOM     16  C   UNL     1       4.426 -30.099 -18.359  1.00  0.00     0.004 C 
ENDBRANCH  14  15
ENDBRANCH  13  14
ENDBRANCH  12  13
ENDBRANCH  11  12
ENDBRANCH  10  11
ENDBRANCH   1  10
TORSDOF 12
ENDMDL
MODEL 8
REMARK VINA RESULT:    -4.024      4.451      8.844
REMARK INTER + INTRA:          -7.995
REMARK INTER:                  -7.594
REMARK INTRA:                  -0.402
REMARK UNBOUND:                -1.149
REMARK SMILES CCCCCCCCCCCCCC(=O)[O-]
REMARK SMILES IDX 8 1 9 2 10 3 11 4 12 5 13 6 14 7 15 8 16 9 7 10 6 11 5 12
REMARK SMILES IDX 4 13 3 14 2 15 1 16
REMARK H PARENT
REMARK Flexibility Score: inf
ROOT
ATOM      1  C   UNL     1       6.700 -35.580 -20.969  1.00  0.00     0.000 C 
ENDROOT
BRANCH   1   2
ATOM      2  C   UNL     1       6.397 -34.082 -21.099  1.00  0.00     0.000 C 
BRANCH   2   3
ATOM      3  C   UNL     1       7.224 -33.263 -20.100  1.00  0.00     0.000 C 
BRANCH   3   4
ATOM      4  C   UNL     1       6.361 -32.186 -19.424  1.00  0.00     0.000 C 
BRANCH   4   5
ATOM      5  C   UNL     1       7.114 -31.436 -18.314  1.00  0.00     0.006 C 
BRANCH   5   6
ATOM      6  C   UNL     1       6.375 -30.173 -17.851  1.00  0.00     0.053 C 
BRANCH   6   7
ATOM      7  C   UNL     1       7.334 -29.210 -17.225  1.00  0.00     0.041 C 
ATOM      8  O   UNL     1       8.063 -28.481 -17.948  1.00  0.00    -0.550 OA
ATOM      9  O   UNL     1       7.457 -29.150 -15.842  1.00  0.00    -0.550 OA
ENDBRANCH   6   7
ENDBRANCH   5   6
ENDBRANCH   4   5
ENDBRANCH   3   4
ENDBRANCH   2   3
ENDBRANCH   1   2
BRANCH   1  10
ATOM     10  C   UNL     1       6.309 -36.333 -22.250  1.00  0.00     0.000 C 
BRANCH  10  11
ATOM     11  C   UNL     1       4.904 -35.960 -22.751  1.00  0.00    -0.000 C 
BRANCH  11  12
ATOM     12  C   UNL     1       4.710 -36.260 -24.245  1.00  0.00    -0.000 C 
BRANCH  12  13
ATOM     13  C   UNL     1       3.401 -37.022 -24.486  1.00  0.00    -0.000 C 
BRANCH  13  14
ATOM     14  C   UNL     1       2.255 -36.423 -23.660  1.00  0.00    -0.000 C 
BRANCH  14  15
ATOM     15  C   UNL     1       1.655 -37.430 -22.665  1.00  0.00    -0.003 C 
ATOM     16  C   UNL     1       0.148 -37.255 -22.484  1.00  0.00     0.004 C 
ENDBRANCH  14  15
ENDBRANCH  13  14
ENDBRANCH  12  13
ENDBRANCH  11  12
ENDBRANCH  10  11
ENDBRANCH   1  10
TORSDOF 12
ENDMDL
MODEL 9
REMARK VINA RESULT:    -3.988      9.725     12.433
REMARK INTER + INTRA:          -7.935
REMARK INTER:                  -7.536
REMARK INTRA:                  -0.399
REMARK UNBOUND:                -1.149
REMARK SMILES CCCCCCCCCCCCCC(=O)[O-]
REMARK SMILES IDX 8 1 9 2 10 3 11 4 12 5 13 6 14 7 15 8 16 9 7 10 6 11 5 12
REMARK SMILES IDX 4 13 3 14 2 15 1 16
REMARK H PARENT
REMARK Flexibility Score: inf
ROOT
ATOM      1  C   UNL     1      -1.005 -40.431 -20.937  1.00  0.00     0.000 C 
ENDROOT
BRANCH   1   2
ATOM      2  C   UNL     1      -1.431 -40.908 -19.542  1.00  0.00     0.000 C 
BRANCH   2   3
ATOM      3  C   UNL     1      -0.338 -41.767 -18.896  1.00  0.00     0.000 C 
BRANCH   3   4
ATOM      4  C   UNL     1      -0.922 -42.661 -17.791  1.00  0.00     0.000 C 
BRANCH   4   5
ATOM      5  C   UNL     1      -0.021 -43.861 -17.463  1.00  0.00     0.006 C 
BRANCH   5   6
ATOM      6  C   UNL     1      -0.769 -45.199 -17.540  1.00  0.00     0.053 C 
BRANCH   6   7
ATOM      7  C   UNL     1      -2.063 -45.115 -16.794  1.00  0.00     0.041 C 
ATOM      8  O   UNL     1      -3.157 -45.184 -17.414  1.00  0.00    -0.550 OA
ATOM      9  O   UNL     1      -2.062 -44.913 -15.420  1.00  0.00    -0.550 OA
ENDBRANCH   6   7
ENDBRANCH   5   6
ENDBRANCH   4   5
ENDBRANCH   3   4
ENDBRANCH   2   3
ENDBRANCH   1   2
BRANCH   1  10
ATOM     10  C   UNL     1      -1.075 -38.900 -21.039  1.00  0.00     0.000 C 
BRANCH  10  11
ATOM     11  C   UNL     1      -0.159 -38.337 -22.139  1.00  0.00    -0.000 C 
BRANCH  11  12
ATOM     12  C   UNL     1       0.143 -36.843 -21.951  1.00  0.00    -0.000 C 
BRANCH  12  13
ATOM     13  C   UNL     1       1.598 -36.526 -22.319  1.00  0.00    -0.000 C 
BRANCH  13  14
ATOM     14  C   UNL     1       2.046 -37.340 -23.541  1.00  0.00    -0.000 C 
BRANCH  14  15
ATOM     15  C   UNL     1       3.002 -36.557 -24.455  1.00  0.00    -0.003 C 
ATOM     16  C   UNL     1       2.379 -36.217 -25.808  1.00  0.00     0.004 C 
ENDBRANCH  14  15
ENDBRANCH  13  14
ENDBRANCH  12  13
ENDBRANCH  11  12
ENDBRANCH  10  11
ENDBRANCH   1  10
TORSDOF 12
ENDMDL
