MODEL 1
REMARK VINA RESULT:     9.353      0.000      0.000
REMARK INTER + INTRA:          29.092
REMARK INTER:                  24.662
REMARK INTRA:                   4.430
REMARK UNBOUND:                 4.430
REMARK SMILES CCCCCCCCCCCCCCCCCCCCCCCCCCCCCC(=O)[O-]
REMARK SMILES IDX 16 1 17 2 18 3 19 4 20 5 21 6 22 7 23 8 24 9 25 10 26 11
REMARK SMILES IDX 27 12 28 13 29 14 30 15 31 16 32 17 15 18 14 19 13 20 12 21
REMARK SMILES IDX 11 22 10 23 9 24 8 25 7 26 6 27 5 28 4 29 3 30 2 31 1 32
REMARK H PARENT
REMARK Flexibility Score: inf
ROOT
ATOM      1  C   UNL     1     -23.891  -1.185 -27.762  1.00  0.00     0.000 C 
ENDROOT
BRANCH   1   2
ATOM      2  C   UNL     1     -24.047  -1.956 -26.440  1.00  0.00     0.000 C 
BRANCH   2   3
ATOM      3  C   UNL     1     -24.633  -3.362 -26.649  1.00  0.00     0.000 C 
BRANCH   3   4
ATOM      4  C   UNL     1     -26.147  -3.332 -26.926  1.00  0.00     0.000 C 
BRANCH   4   5
ATOM      5  C   UNL     1     -26.521  -2.437 -28.121  1.00  0.00     0.000 C 
BRANCH   5   6
ATOM      6  C   UNL     1     -27.970  -2.591 -28.620  1.00  0.00     0.000 C 
BRANCH   6   7
ATOM      7  C   UNL     1     -29.009  -2.405 -27.504  1.00  0.00     0.000 C 
BRANCH   7   8
ATOM      8  C   UNL     1     -30.378  -2.950 -27.930  1.00  0.00     0.000 C 
BRANCH   8   9
ATOM      9  C   UNL     1     -31.472  -2.517 -26.945  1.00  0.00     0.000 C 
BRANCH   9  10
ATOM     10  C   UNL     1     -31.865  -1.037 -27.092  1.00  0.00     0.000 C 
BRANCH  10  11
ATOM     11  C   UNL     1     -31.360  -0.139 -25.943  1.00  0.00     0.000 C 
BRANCH  11  12
ATOM     12  C   UNL     1     -31.872   1.307 -26.062  1.00  0.00     0.000 C 
BRANCH  12  13
ATOM     13  C   UNL     1     -30.893   2.335 -25.469  1.00  0.00     0.006 C 
BRANCH  13  14
ATOM     14  C   UNL     1     -31.310   3.785 -25.749  1.00  0.00     0.053 C 
BRANCH  14  15
ATOM     15  C   UNL     1     -31.454   4.012 -27.221  1.00  0.00     0.041 C 
ATOM     16  O   UNL     1     -30.977   5.051 -27.751  1.00  0.00    -0.550 OA
ATOM     17  O   UNL     1     -32.070   3.054 -28.016  1.00  0.00    -0.550 OA
ENDBRANCH  14  15
ENDBRANCH  13  14
ENDBRANCH  12  13
ENDBRANCH  11  12
ENDBRANCH  10  11
ENDBRANCH   9  10
ENDBRANCH   8   9
ENDBRANCH   7   8
ENDBRANCH   6   7
ENDBRANCH   5   6
ENDBRANCH   4   5
ENDBRANCH   3   4
ENDBRANCH   2   3
ENDBRANCH   1   2
BRANCH   1  18
ATOM     18  C   UNL     1     -23.141   0.145 -27.583  1.00  0.00     0.000 C 
BRANCH  18  19
ATOM     19  C   UNL     1     -22.689   0.750 -28.924  1.00  0.00     0.000 C 
BRANCH  19  20
ATOM     20  C   UNL     1     -22.254   2.221 -28.810  1.00  0.00     0.000 C 
BRANCH  20  21
ATOM     21  C   UNL     1     -22.761   2.932 -27.538  1.00  0.00     0.000 C 
BRANCH  21  22
ATOM     22  C   UNL     1     -22.439   4.438 -27.530  1.00  0.00     0.000 C 
BRANCH  22  23
ATOM     23  C   UNL     1     -21.655   4.883 -28.775  1.00  0.00     0.000 C 
BRANCH  23  24
ATOM     24  C   UNL     1     -20.135   4.735 -28.605  1.00  0.00    -0.000 C 
BRANCH  24  25
ATOM     25  C   UNL     1     -19.776   4.419 -27.149  1.00  0.00    -0.000 C 
BRANCH  25  26
ATOM     26  C   UNL     1     -20.020   2.938 -26.825  1.00  0.00    -0.000 C 
BRANCH  26  27
ATOM     27  C   UNL     1     -20.745   2.738 -25.486  1.00  0.00    -0.000 C 
BRANCH  27  28
ATOM     28  C   UNL     1     -21.834   1.655 -25.555  1.00  0.00    -0.000 C 
BRANCH  28  29
ATOM     29  C   UNL     1     -21.591   0.497 -24.570  1.00  0.00    -0.000 C 
BRANCH  29  30
ATOM     30  C   UNL     1     -21.483   0.914 -23.088  1.00  0.00    -0.000 C 
BRANCH  30  31
ATOM     31  C   UNL     1     -21.277  -0.247 -22.099  1.00  0.00    -0.003 C 
ATOM     32  C   UNL     1     -21.889  -1.559 -22.586  1.00  0.00     0.004 C 
ENDBRANCH  30  31
ENDBRANCH  29  30
ENDBRANCH  28  29
ENDBRANCH  27  28
ENDBRANCH  26  27
ENDBRANCH  25  26
ENDBRANCH  24  25
ENDBRANCH  23  24
ENDBRANCH  22  23
ENDBRANCH  21  22
ENDBRANCH  20  21
ENDBRANCH  19  20
ENDBRANCH  18  19
ENDBRANCH   1  18
TORSDOF 28
ENDMDL
MODEL 2
REMARK VINA RESULT:     9.476      2.765     10.049
REMARK INTER + INTRA:          29.416
REMARK INTER:                  25.445
REMARK INTRA:                   3.971
REMARK UNBOUND:                 4.430
REMARK SMILES CCCCCCCCCCCCCCCCCCCCCCCCCCCCCC(=O)[O-]
REMARK SMILES IDX 16 1 17 2 18 3 19 4 20 5 21 6 22 7 23 8 24 9 25 10 26 11
REMARK SMILES IDX 27 12 28 13 29 14 30 15 31 16 32 17 15 18 14 19 13 20 12 21
REMARK SMILES IDX 11 22 10 23 9 24 8 25 7 26 6 27 5 28 4 29 3 30 2 31 1 32
REMARK H PARENT
REMARK Flexibility Score: inf
ROOT
ATOM      1  C   UNL     1     -24.455  -2.926 -26.280  1.00  0.00     0.000 C 
ENDROOT
BRANCH   1   2
ATOM      2  C   UNL     1     -23.624  -2.146 -27.312  1.00  0.00     0.000 C 
BRANCH   2   3
ATOM      3  C   UNL     1     -23.890  -0.633 -27.254  1.00  0.00     0.000 C 
BRANCH   3   4
ATOM      4  C   UNL     1     -22.814   0.181 -27.996  1.00  0.00     0.000 C 
BRANCH   4   5
ATOM      5  C   UNL     1     -23.208   1.655 -28.195  1.00  0.00     0.000 C 
BRANCH   5   6
ATOM      6  C   UNL     1     -22.065   2.667 -27.990  1.00  0.00     0.000 C 
BRANCH   6   7
ATOM      7  C   UNL     1     -22.439   4.089 -28.432  1.00  0.00     0.000 C 
BRANCH   7   8
ATOM      8  C   UNL     1     -21.363   5.098 -28.012  1.00  0.00     0.000 C 
BRANCH   8   9
ATOM      9  C   UNL     1     -20.173   5.067 -28.981  1.00  0.00     0.000 C 
BRANCH   9  10
ATOM     10  C   UNL     1     -18.812   5.100 -28.264  1.00  0.00     0.000 C 
BRANCH  10  11
ATOM     11  C   UNL     1     -18.678   4.064 -27.128  1.00  0.00     0.000 C 
BRANCH  11  12
ATOM     12  C   UNL     1     -19.846   3.062 -27.108  1.00  0.00     0.000 C 
BRANCH  12  13
ATOM     13  C   UNL     1     -20.291   2.695 -25.682  1.00  0.00     0.006 C 
BRANCH  13  14
ATOM     14  C   UNL     1     -21.797   2.423 -25.580  1.00  0.00     0.053 C 
BRANCH  14  15
ATOM     15  C   UNL     1     -22.061   1.293 -24.636  1.00  0.00     0.041 C 
ATOM     16  O   UNL     1     -21.284   1.083 -23.666  1.00  0.00    -0.550 OA
ATOM     17  O   UNL     1     -23.192   0.501 -24.796  1.00  0.00    -0.550 OA
ENDBRANCH  14  15
ENDBRANCH  13  14
ENDBRANCH  12  13
ENDBRANCH  11  12
ENDBRANCH  10  11
ENDBRANCH   9  10
ENDBRANCH   8   9
ENDBRANCH   7   8
ENDBRANCH   6   7
ENDBRANCH   5   6
ENDBRANCH   4   5
ENDBRANCH   3   4
ENDBRANCH   2   3
ENDBRANCH   1   2
BRANCH   1  18
ATOM     18  C   UNL     1     -25.693  -3.592 -26.903  1.00  0.00     0.000 C 
BRANCH  18  19
ATOM     19  C   UNL     1     -26.331  -2.731 -28.007  1.00  0.00     0.000 C 
BRANCH  19  20
ATOM     20  C   UNL     1     -27.854  -2.577 -27.852  1.00  0.00     0.000 C 
BRANCH  20  21
ATOM     21  C   UNL     1     -28.663  -3.041 -29.081  1.00  0.00     0.000 C 
BRANCH  21  22
ATOM     22  C   UNL     1     -30.175  -3.127 -28.799  1.00  0.00     0.000 C 
BRANCH  22  23
ATOM     23  C   UNL     1     -30.721  -1.868 -28.108  1.00  0.00     0.000 C 
BRANCH  23  24
ATOM     24  C   UNL     1     -31.655  -2.192 -26.933  1.00  0.00    -0.000 C 
BRANCH  24  25
ATOM     25  C   UNL     1     -31.883  -0.954 -26.058  1.00  0.00    -0.000 C 
BRANCH  25  26
ATOM     26  C   UNL     1     -30.676  -0.005 -26.112  1.00  0.00    -0.000 C 
BRANCH  26  27
ATOM     27  C   UNL     1     -30.404   0.682 -24.765  1.00  0.00    -0.000 C 
BRANCH  27  28
ATOM     28  C   UNL     1     -31.677   1.261 -24.125  1.00  0.00    -0.000 C 
BRANCH  28  29
ATOM     29  C   UNL     1     -31.753   2.794 -24.227  1.00  0.00    -0.000 C 
BRANCH  29  30
ATOM     30  C   UNL     1     -32.124   3.338 -25.623  1.00  0.00    -0.000 C 
BRANCH  30  31
ATOM     31  C   UNL     1     -30.977   4.034 -26.376  1.00  0.00    -0.003 C 
ATOM     32  C   UNL     1     -31.169   4.023 -27.892  1.00  0.00     0.004 C 
ENDBRANCH  30  31
ENDBRANCH  29  30
ENDBRANCH  28  29
ENDBRANCH  27  28
ENDBRANCH  26  27
ENDBRANCH  25  26
ENDBRANCH  24  25
ENDBRANCH  23  24
ENDBRANCH  22  23
ENDBRANCH  21  22
ENDBRANCH  20  21
ENDBRANCH  19  20
ENDBRANCH  18  19
ENDBRANCH   1  18
TORSDOF 28
ENDMDL
MODEL 3
REMARK VINA RESULT:    10.020      3.402      8.867
REMARK INTER + INTRA:          30.851
REMARK INTER:                  30.519
REMARK INTRA:                   0.333
REMARK UNBOUND:                 4.430
REMARK SMILES CCCCCCCCCCCCCCCCCCCCCCCCCCCCCC(=O)[O-]
REMARK SMILES IDX 16 1 17 2 18 3 19 4 20 5 21 6 22 7 23 8 24 9 25 10 26 11
REMARK SMILES IDX 27 12 28 13 29 14 30 15 31 16 32 17 15 18 14 19 13 20 12 21
REMARK SMILES IDX 11 22 10 23 9 24 8 25 7 26 6 27 5 28 4 29 3 30 2 31 1 32
REMARK H PARENT
REMARK Flexibility Score: inf
ROOT
ATOM      1  C   UNL     1     -31.544  -1.936 -27.034  1.00  0.00     0.000 C 
ENDROOT
BRANCH   1   2
ATOM      2  C   UNL     1     -30.132  -2.169 -27.597  1.00  0.00     0.000 C 
BRANCH   2   3
ATOM      3  C   UNL     1     -29.959  -3.582 -28.176  1.00  0.00     0.000 C 
BRANCH   3   4
ATOM      4  C   UNL     1     -28.611  -3.759 -28.898  1.00  0.00     0.000 C 
BRANCH   4   5
ATOM      5  C   UNL     1     -27.826  -2.443 -29.037  1.00  0.00     0.000 C 
BRANCH   5   6
ATOM      6  C   UNL     1     -26.296  -2.586 -28.945  1.00  0.00     0.000 C 
BRANCH   6   7
ATOM      7  C   UNL     1     -25.708  -1.921 -27.691  1.00  0.00     0.000 C 
BRANCH   7   8
ATOM      8  C   UNL     1     -24.230  -1.568 -27.896  1.00  0.00     0.000 C 
BRANCH   8   9
ATOM      9  C   UNL     1     -24.066  -0.096 -28.296  1.00  0.00     0.000 C 
BRANCH   9  10
ATOM     10  C   UNL     1     -22.648   0.443 -28.041  1.00  0.00     0.000 C 
BRANCH  10  11
ATOM     11  C   UNL     1     -22.423   1.880 -28.559  1.00  0.00     0.000 C 
BRANCH  11  12
ATOM     12  C   UNL     1     -21.748   2.781 -27.510  1.00  0.00     0.000 C 
BRANCH  12  13
ATOM     13  C   UNL     1     -22.636   3.028 -26.279  1.00  0.00     0.006 C 
BRANCH  13  14
ATOM     14  C   UNL     1     -23.008   1.734 -25.544  1.00  0.00     0.053 C 
BRANCH  14  15
ATOM     15  C   UNL     1     -21.794   1.116 -24.926  1.00  0.00     0.041 C 
ATOM     16  O   UNL     1     -20.711   1.067 -25.569  1.00  0.00    -0.550 OA
ATOM     17  O   UNL     1     -21.842   0.640 -23.622  1.00  0.00    -0.550 OA
ENDBRANCH  14  15
ENDBRANCH  13  14
ENDBRANCH  12  13
ENDBRANCH  11  12
ENDBRANCH  10  11
ENDBRANCH   9  10
ENDBRANCH   8   9
ENDBRANCH   7   8
ENDBRANCH   6   7
ENDBRANCH   5   6
ENDBRANCH   4   5
ENDBRANCH   3   4
ENDBRANCH   2   3
ENDBRANCH   1   2
BRANCH   1  18
ATOM     18  C   UNL     1     -32.062  -0.516 -27.310  1.00  0.00     0.000 C 
BRANCH  18  19
ATOM     19  C   UNL     1     -32.124  -0.195 -28.813  1.00  0.00     0.000 C 
BRANCH  19  20
ATOM     20  C   UNL     1     -31.925   1.299 -29.124  1.00  0.00     0.000 C 
BRANCH  20  21
ATOM     21  C   UNL     1     -31.940   2.210 -27.879  1.00  0.00     0.000 C 
BRANCH  21  22
ATOM     22  C   UNL     1     -30.999   3.421 -28.016  1.00  0.00     0.000 C 
BRANCH  22  23
ATOM     23  C   UNL     1     -30.942   4.275 -26.739  1.00  0.00     0.000 C 
BRANCH  23  24
ATOM     24  C   UNL     1     -32.125   4.012 -25.795  1.00  0.00    -0.000 C 
BRANCH  24  25
ATOM     25  C   UNL     1     -31.640   3.805 -24.356  1.00  0.00    -0.000 C 
BRANCH  25  26
ATOM     26  C   UNL     1     -31.797   2.340 -23.922  1.00  0.00    -0.000 C 
BRANCH  26  27
ATOM     27  C   UNL     1     -31.257   1.353 -24.968  1.00  0.00    -0.000 C 
BRANCH  27  28
ATOM     28  C   UNL     1     -30.910  -0.020 -24.367  1.00  0.00    -0.000 C 
BRANCH  28  29
ATOM     29  C   UNL     1     -30.698   0.031 -22.843  1.00  0.00    -0.000 C 
BRANCH  29  30
ATOM     30  C   UNL     1     -31.004  -1.285 -22.098  1.00  0.00    -0.000 C 
BRANCH  30  31
ATOM     31  C   UNL     1     -29.877  -1.791 -21.180  1.00  0.00    -0.003 C 
ATOM     32  C   UNL     1     -28.510  -1.215 -21.545  1.00  0.00     0.004 C 
ENDBRANCH  30  31
ENDBRANCH  29  30
ENDBRANCH  28  29
ENDBRANCH  27  28
ENDBRANCH  26  27
ENDBRANCH  25  26
ENDBRANCH  24  25
ENDBRANCH  23  24
ENDBRANCH  22  23
ENDBRANCH  21  22
ENDBRANCH  20  21
ENDBRANCH  19  20
ENDBRANCH  18  19
ENDBRANCH   1  18
TORSDOF 28
ENDMDL
MODEL 4
REMARK VINA RESULT:    10.369      3.101      8.553
REMARK INTER + INTRA:          31.773
REMARK INTER:                  33.145
REMARK INTRA:                  -1.372
REMARK UNBOUND:                 4.430
REMARK SMILES CCCCCCCCCCCCCCCCCCCCCCCCCCCCCC(=O)[O-]
REMARK SMILES IDX 16 1 17 2 18 3 19 4 20 5 21 6 22 7 23 8 24 9 25 10 26 11
REMARK SMILES IDX 27 12 28 13 29 14 30 15 31 16 32 17 15 18 14 19 13 20 12 21
REMARK SMILES IDX 11 22 10 23 9 24 8 25 7 26 6 27 5 28 4 29 3 30 2 31 1 32
REMARK H PARENT
REMARK Flexibility Score: inf
ROOT
ATOM      1  C   UNL     1     -31.186   0.047 -27.278  1.00  0.00     0.000 C 
ENDROOT
BRANCH   1   2
ATOM      2  C   UNL     1     -31.941  -1.250 -26.939  1.00  0.00     0.000 C 
BRANCH   2   3
ATOM      3  C   UNL     1     -31.169  -2.507 -27.372  1.00  0.00     0.000 C 
BRANCH   3   4
ATOM      4  C   UNL     1     -29.814  -2.168 -28.020  1.00  0.00     0.000 C 
BRANCH   4   5
ATOM      5  C   UNL     1     -29.261  -3.313 -28.887  1.00  0.00     0.000 C 
BRANCH   5   6
ATOM      6  C   UNL     1     -27.749  -3.568 -28.738  1.00  0.00     0.000 C 
BRANCH   6   7
ATOM      7  C   UNL     1     -26.910  -2.291 -28.896  1.00  0.00     0.000 C 
BRANCH   7   8
ATOM      8  C   UNL     1     -25.500  -2.483 -28.323  1.00  0.00     0.000 C 
BRANCH   8   9
ATOM      9  C   UNL     1     -25.540  -3.307 -27.029  1.00  0.00     0.000 C 
BRANCH   9  10
ATOM     10  C   UNL     1     -24.341  -3.036 -26.105  1.00  0.00     0.000 C 
BRANCH  10  11
ATOM     11  C   UNL     1     -23.215  -2.213 -26.767  1.00  0.00     0.000 C 
BRANCH  11  12
ATOM     12  C   UNL     1     -23.458  -0.698 -26.662  1.00  0.00     0.000 C 
BRANCH  12  13
ATOM     13  C   UNL     1     -22.426   0.126 -27.452  1.00  0.00     0.006 C 
BRANCH  13  14
ATOM     14  C   UNL     1     -21.629   1.091 -26.564  1.00  0.00     0.053 C 
BRANCH  14  15
ATOM     15  C   UNL     1     -21.881   2.508 -26.975  1.00  0.00     0.041 C 
ATOM     16  O   UNL     1     -21.907   2.817 -28.197  1.00  0.00    -0.550 OA
ATOM     17  O   UNL     1     -22.137   3.477 -26.013  1.00  0.00    -0.550 OA
ENDBRANCH  14  15
ENDBRANCH  13  14
ENDBRANCH  12  13
ENDBRANCH  11  12
ENDBRANCH  10  11
ENDBRANCH   9  10
ENDBRANCH   8   9
ENDBRANCH   7   8
ENDBRANCH   6   7
ENDBRANCH   5   6
ENDBRANCH   4   5
ENDBRANCH   3   4
ENDBRANCH   2   3
ENDBRANCH   1   2
BRANCH   1  18
ATOM     18  C   UNL     1     -32.124   1.257 -27.412  1.00  0.00     0.000 C 
BRANCH  18  19
ATOM     19  C   UNL     1     -32.124   1.846 -28.833  1.00  0.00     0.000 C 
BRANCH  19  20
ATOM     20  C   UNL     1     -30.942   2.797 -29.096  1.00  0.00     0.000 C 
BRANCH  20  21
ATOM     21  C   UNL     1     -31.266   4.286 -28.858  1.00  0.00     0.000 C 
BRANCH  21  22
ATOM     22  C   UNL     1     -30.891   4.757 -27.440  1.00  0.00     0.000 C 
BRANCH  22  23
ATOM     23  C   UNL     1     -32.117   4.924 -26.528  1.00  0.00     0.000 C 
BRANCH  23  24
ATOM     24  C   UNL     1     -31.885   4.374 -25.113  1.00  0.00    -0.000 C 
BRANCH  24  25
ATOM     25  C   UNL     1     -30.517   3.690 -25.009  1.00  0.00    -0.000 C 
BRANCH  25  26
ATOM     26  C   UNL     1     -30.651   2.163 -25.095  1.00  0.00    -0.000 C 
BRANCH  26  27
ATOM     27  C   UNL     1     -31.647   1.598 -24.070  1.00  0.00    -0.000 C 
BRANCH  27  28
ATOM     28  C   UNL     1     -31.342   0.140 -23.686  1.00  0.00    -0.000 C 
BRANCH  28  29
ATOM     29  C   UNL     1     -31.193  -0.059 -22.167  1.00  0.00    -0.000 C 
BRANCH  29  30
ATOM     30  C   UNL     1     -30.649  -1.439 -21.740  1.00  0.00    -0.000 C 
BRANCH  30  31
ATOM     31  C   UNL     1     -29.203  -1.732 -22.175  1.00  0.00    -0.003 C 
ATOM     32  C   UNL     1     -28.180  -1.426 -21.082  1.00  0.00     0.004 C 
ENDBRANCH  30  31
ENDBRANCH  29  30
ENDBRANCH  28  29
ENDBRANCH  27  28
ENDBRANCH  26  27
ENDBRANCH  25  26
ENDBRANCH  24  25
ENDBRANCH  23  24
ENDBRANCH  22  23
ENDBRANCH  21  22
ENDBRANCH  20  21
ENDBRANCH  19  20
ENDBRANCH  18  19
ENDBRANCH   1  18
TORSDOF 28
ENDMDL
MODEL 5
REMARK VINA RESULT:    10.527      2.532      3.451
REMARK INTER + INTRA:          32.187
REMARK INTER:                  30.549
REMARK INTRA:                   1.638
REMARK UNBOUND:                 4.430
REMARK SMILES CCCCCCCCCCCCCCCCCCCCCCCCCCCCCC(=O)[O-]
REMARK SMILES IDX 16 1 17 2 18 3 19 4 20 5 21 6 22 7 23 8 24 9 25 10 26 11
REMARK SMILES IDX 27 12 28 13 29 14 30 15 31 16 32 17 15 18 14 19 13 20 12 21
REMARK SMILES IDX 11 22 10 23 9 24 8 25 7 26 6 27 5 28 4 29 3 30 2 31 1 32
REMARK H PARENT
REMARK Flexibility Score: inf
ROOT
ATOM      1  C   UNL     1     -24.114  -3.169 -26.067  1.00  0.00     0.000 C 
ENDROOT
BRANCH   1   2
ATOM      2  C   UNL     1     -25.331  -3.796 -26.769  1.00  0.00     0.000 C 
BRANCH   2   3
ATOM      3  C   UNL     1     -26.347  -2.740 -27.232  1.00  0.00     0.000 C 
BRANCH   3   4
ATOM      4  C   UNL     1     -27.771  -3.313 -27.363  1.00  0.00     0.000 C 
BRANCH   4   5
ATOM      5  C   UNL     1     -28.755  -2.330 -28.021  1.00  0.00     0.000 C 
BRANCH   5   6
ATOM      6  C   UNL     1     -29.966  -2.987 -28.709  1.00  0.00     0.000 C 
BRANCH   6   7
ATOM      7  C   UNL     1     -31.270  -2.203 -28.501  1.00  0.00     0.000 C 
BRANCH   7   8
ATOM      8  C   UNL     1     -31.932  -2.579 -27.169  1.00  0.00     0.000 C 
BRANCH   8   9
ATOM      9  C   UNL     1     -31.699  -1.492 -26.112  1.00  0.00     0.000 C 
BRANCH   9  10
ATOM     10  C   UNL     1     -31.833  -0.066 -26.674  1.00  0.00     0.000 C 
BRANCH  10  11
ATOM     11  C   UNL     1     -31.177   1.018 -25.793  1.00  0.00     0.000 C 
BRANCH  11  12
ATOM     12  C   UNL     1     -31.220   0.661 -24.297  1.00  0.00     0.000 C 
BRANCH  12  13
ATOM     13  C   UNL     1     -30.528  -0.677 -23.985  1.00  0.00     0.006 C 
BRANCH  13  14
ATOM     14  C   UNL     1     -29.604  -0.600 -22.763  1.00  0.00     0.053 C 
BRANCH  14  15
ATOM     15  C   UNL     1     -30.336  -1.022 -21.527  1.00  0.00     0.041 C 
ATOM     16  O   UNL     1     -31.550  -0.719 -21.376  1.00  0.00    -0.550 OA
ATOM     17  O   UNL     1     -29.693  -1.793 -20.567  1.00  0.00    -0.550 OA
ENDBRANCH  14  15
ENDBRANCH  13  14
ENDBRANCH  12  13
ENDBRANCH  11  12
ENDBRANCH  10  11
ENDBRANCH   9  10
ENDBRANCH   8   9
ENDBRANCH   7   8
ENDBRANCH   6   7
ENDBRANCH   5   6
ENDBRANCH   4   5
ENDBRANCH   3   4
ENDBRANCH   2   3
ENDBRANCH   1   2
BRANCH   1  18
ATOM     18  C   UNL     1     -24.108  -1.635 -26.157  1.00  0.00     0.000 C 
BRANCH  18  19
ATOM     19  C   UNL     1     -23.720  -1.130 -27.558  1.00  0.00     0.000 C 
BRANCH  19  20
ATOM     20  C   UNL     1     -22.336  -0.459 -27.601  1.00  0.00     0.000 C 
BRANCH  20  21
ATOM     21  C   UNL     1     -22.293   0.846 -28.422  1.00  0.00     0.000 C 
BRANCH  21  22
ATOM     22  C   UNL     1     -23.355   1.867 -27.971  1.00  0.00     0.000 C 
BRANCH  22  23
ATOM     23  C   UNL     1     -22.742   3.216 -27.561  1.00  0.00     0.000 C 
BRANCH  23  24
ATOM     24  C   UNL     1     -22.083   3.952 -28.737  1.00  0.00    -0.000 C 
BRANCH  24  25
ATOM     25  C   UNL     1     -21.231   5.125 -28.239  1.00  0.00    -0.000 C 
BRANCH  25  26
ATOM     26  C   UNL     1     -20.346   4.706 -27.055  1.00  0.00    -0.000 C 
BRANCH  26  27
ATOM     27  C   UNL     1     -19.665   3.348 -27.278  1.00  0.00    -0.000 C 
BRANCH  27  28
ATOM     28  C   UNL     1     -20.164   2.265 -26.306  1.00  0.00    -0.000 C 
BRANCH  28  29
ATOM     29  C   UNL     1     -21.383   2.717 -25.483  1.00  0.00    -0.000 C 
BRANCH  29  30
ATOM     30  C   UNL     1     -22.131   1.584 -24.748  1.00  0.00    -0.000 C 
BRANCH  30  31
ATOM     31  C   UNL     1     -21.231   0.604 -23.976  1.00  0.00    -0.003 C 
ATOM     32  C   UNL     1     -21.963  -0.105 -22.838  1.00  0.00     0.004 C 
ENDBRANCH  30  31
ENDBRANCH  29  30
ENDBRANCH  28  29
ENDBRANCH  27  28
ENDBRANCH  26  27
ENDBRANCH  25  26
ENDBRANCH  24  25
ENDBRANCH  23  24
ENDBRANCH  22  23
ENDBRANCH  21  22
ENDBRANCH  20  21
ENDBRANCH  19  20
ENDBRANCH  18  19
ENDBRANCH   1  18
TORSDOF 28
ENDMDL
MODEL 6
REMARK VINA RESULT:    10.713      2.530      3.024
REMARK INTER + INTRA:          32.679
REMARK INTER:                  29.672
REMARK INTRA:                   3.007
REMARK UNBOUND:                 4.430
REMARK SMILES CCCCCCCCCCCCCCCCCCCCCCCCCCCCCC(=O)[O-]
REMARK SMILES IDX 16 1 17 2 18 3 19 4 20 5 21 6 22 7 23 8 24 9 25 10 26 11
REMARK SMILES IDX 27 12 28 13 29 14 30 15 31 16 32 17 15 18 14 19 13 20 12 21
REMARK SMILES IDX 11 22 10 23 9 24 8 25 7 26 6 27 5 28 4 29 3 30 2 31 1 32
REMARK H PARENT
REMARK Flexibility Score: inf
ROOT
ATOM      1  C   UNL     1     -23.796  -1.301 -27.703  1.00  0.00     0.000 C 
ENDROOT
BRANCH   1   2
ATOM      2  C   UNL     1     -24.085  -2.021 -26.374  1.00  0.00     0.000 C 
BRANCH   2   3
ATOM      3  C   UNL     1     -24.590  -3.457 -26.585  1.00  0.00     0.000 C 
BRANCH   3   4
ATOM      4  C   UNL     1     -26.097  -3.510 -26.895  1.00  0.00     0.000 C 
BRANCH   4   5
ATOM      5  C   UNL     1     -26.515  -2.531 -28.007  1.00  0.00     0.000 C 
BRANCH   5   6
ATOM      6  C   UNL     1     -27.935  -2.749 -28.563  1.00  0.00     0.000 C 
BRANCH   6   7
ATOM      7  C   UNL     1     -29.034  -2.309 -27.585  1.00  0.00     0.000 C 
BRANCH   7   8
ATOM      8  C   UNL     1     -30.400  -2.869 -28.002  1.00  0.00     0.000 C 
BRANCH   8   9
ATOM      9  C   UNL     1     -31.519  -2.308 -27.114  1.00  0.00     0.000 C 
BRANCH   9  10
ATOM     10  C   UNL     1     -31.670  -0.782 -27.228  1.00  0.00     0.000 C 
BRANCH  10  11
ATOM     11  C   UNL     1     -31.267  -0.016 -25.949  1.00  0.00     0.000 C 
BRANCH  11  12
ATOM     12  C   UNL     1     -31.189  -0.935 -24.717  1.00  0.00     0.000 C 
BRANCH  12  13
ATOM     13  C   UNL     1     -30.568  -0.238 -23.494  1.00  0.00     0.006 C 
BRANCH  13  14
ATOM     14  C   UNL     1     -30.826  -0.993 -22.184  1.00  0.00     0.053 C 
BRANCH  14  15
ATOM     15  C   UNL     1     -29.534  -1.439 -21.575  1.00  0.00     0.041 C 
ATOM     16  O   UNL     1     -29.537  -2.224 -20.589  1.00  0.00    -0.550 OA
ATOM     17  O   UNL     1     -28.327  -1.028 -22.125  1.00  0.00    -0.550 OA
ENDBRANCH  14  15
ENDBRANCH  13  14
ENDBRANCH  12  13
ENDBRANCH  11  12
ENDBRANCH  10  11
ENDBRANCH   9  10
ENDBRANCH   8   9
ENDBRANCH   7   8
ENDBRANCH   6   7
ENDBRANCH   5   6
ENDBRANCH   4   5
ENDBRANCH   3   4
ENDBRANCH   2   3
ENDBRANCH   1   2
BRANCH   1  18
ATOM     18  C   UNL     1     -23.092   0.050 -27.501  1.00  0.00     0.000 C 
BRANCH  18  19
ATOM     19  C   UNL     1     -22.748   0.739 -28.833  1.00  0.00     0.000 C 
BRANCH  19  20
ATOM     20  C   UNL     1     -22.268   2.191 -28.659  1.00  0.00     0.000 C 
BRANCH  20  21
ATOM     21  C   UNL     1     -22.893   2.922 -27.453  1.00  0.00     0.000 C 
BRANCH  21  22
ATOM     22  C   UNL     1     -22.395   4.372 -27.312  1.00  0.00     0.000 C 
BRANCH  22  23
ATOM     23  C   UNL     1     -21.588   4.842 -28.533  1.00  0.00     0.000 C 
BRANCH  23  24
ATOM     24  C   UNL     1     -20.100   4.474 -28.441  1.00  0.00    -0.000 C 
BRANCH  24  25
ATOM     25  C   UNL     1     -19.738   4.008 -27.026  1.00  0.00    -0.000 C 
BRANCH  25  26
ATOM     26  C   UNL     1     -20.207   2.566 -26.779  1.00  0.00    -0.000 C 
BRANCH  26  27
ATOM     27  C   UNL     1     -20.689   2.341 -25.338  1.00  0.00    -0.000 C 
BRANCH  27  28
ATOM     28  C   UNL     1     -22.043   1.613 -25.270  1.00  0.00    -0.000 C 
BRANCH  28  29
ATOM     29  C   UNL     1     -22.039   0.435 -24.280  1.00  0.00    -0.000 C 
BRANCH  29  30
ATOM     30  C   UNL     1     -21.256   0.683 -22.974  1.00  0.00    -0.000 C 
BRANCH  30  31
ATOM     31  C   UNL     1     -21.113  -0.546 -22.057  1.00  0.00    -0.003 C 
ATOM     32  C   UNL     1     -22.107  -1.656 -22.393  1.00  0.00     0.004 C 
ENDBRANCH  30  31
ENDBRANCH  29  30
ENDBRANCH  28  29
ENDBRANCH  27  28
ENDBRANCH  26  27
ENDBRANCH  25  26
ENDBRANCH  24  25
ENDBRANCH  23  24
ENDBRANCH  22  23
ENDBRANCH  21  22
ENDBRANCH  20  21
ENDBRANCH  19  20
ENDBRANCH  18  19
ENDBRANCH   1  18
TORSDOF 28
ENDMDL
MODEL 7
REMARK VINA RESULT:    10.788      3.082      9.510
REMARK INTER + INTRA:          32.877
REMARK INTER:                  32.960
REMARK INTRA:                  -0.083
REMARK UNBOUND:                 4.430
REMARK SMILES CCCCCCCCCCCCCCCCCCCCCCCCCCCCCC(=O)[O-]
REMARK SMILES IDX 16 1 17 2 18 3 19 4 20 5 21 6 22 7 23 8 24 9 25 10 26 11
REMARK SMILES IDX 27 12 28 13 29 14 30 15 31 16 32 17 15 18 14 19 13 20 12 21
REMARK SMILES IDX 11 22 10 23 9 24 8 25 7 26 6 27 5 28 4 29 3 30 2 31 1 32
REMARK H PARENT
REMARK Flexibility Score: inf
ROOT
ATOM      1  C   UNL     1     -25.568  -3.853 -25.841  1.00  0.00     0.000 C 
ENDROOT
BRANCH   1   2
ATOM      2  C   UNL     1     -24.460  -3.412 -26.813  1.00  0.00     0.000 C 
BRANCH   2   3
ATOM      3  C   UNL     1     -23.936  -2.001 -26.500  1.00  0.00     0.000 C 
BRANCH   3   4
ATOM      4  C   UNL     1     -23.900  -1.099 -27.748  1.00  0.00     0.000 C 
BRANCH   4   5
ATOM      5  C   UNL     1     -22.763  -0.063 -27.707  1.00  0.00     0.000 C 
BRANCH   5   6
ATOM      6  C   UNL     1     -22.805   0.991 -28.828  1.00  0.00     0.000 C 
BRANCH   6   7
ATOM      7  C   UNL     1     -21.864   2.177 -28.568  1.00  0.00     0.000 C 
BRANCH   7   8
ATOM      8  C   UNL     1     -22.658   3.445 -28.225  1.00  0.00     0.000 C 
BRANCH   8   9
ATOM      9  C   UNL     1     -21.873   4.706 -28.611  1.00  0.00     0.000 C 
BRANCH   9  10
ATOM     10  C   UNL     1     -20.844   5.124 -27.546  1.00  0.00     0.000 C 
BRANCH  10  11
ATOM     11  C   UNL     1     -19.439   4.524 -27.765  1.00  0.00     0.000 C 
BRANCH  11  12
ATOM     12  C   UNL     1     -19.184   3.292 -26.879  1.00  0.00     0.000 C 
BRANCH  12  13
ATOM     13  C   UNL     1     -20.313   3.046 -25.864  1.00  0.00     0.006 C 
BRANCH  13  14
ATOM     14  C   UNL     1     -20.698   1.565 -25.749  1.00  0.00     0.053 C 
BRANCH  14  15
ATOM     15  C   UNL     1     -21.983   1.416 -24.997  1.00  0.00     0.041 C 
ATOM     16  O   UNL     1     -22.924   2.233 -25.184  1.00  0.00    -0.550 OA
ATOM     17  O   UNL     1     -22.161   0.347 -24.127  1.00  0.00    -0.550 OA
ENDBRANCH  14  15
ENDBRANCH  13  14
ENDBRANCH  12  13
ENDBRANCH  11  12
ENDBRANCH  10  11
ENDBRANCH   9  10
ENDBRANCH   8   9
ENDBRANCH   7   8
ENDBRANCH   6   7
ENDBRANCH   5   6
ENDBRANCH   4   5
ENDBRANCH   3   4
ENDBRANCH   2   3
ENDBRANCH   1   2
BRANCH   1  18
ATOM     18  C   UNL     1     -26.971  -3.742 -26.458  1.00  0.00     0.000 C 
BRANCH  18  19
ATOM     19  C   UNL     1     -27.007  -2.793 -27.669  1.00  0.00     0.000 C 
BRANCH  19  20
ATOM     20  C   UNL     1     -28.241  -2.999 -28.566  1.00  0.00     0.000 C 
BRANCH  20  21
ATOM     21  C   UNL     1     -29.468  -2.161 -28.152  1.00  0.00     0.000 C 
BRANCH  21  22
ATOM     22  C   UNL     1     -30.797  -2.775 -28.630  1.00  0.00     0.000 C 
BRANCH  22  23
ATOM     23  C   UNL     1     -31.998  -2.317 -27.787  1.00  0.00     0.000 C 
BRANCH  23  24
ATOM     24  C   UNL     1     -32.034  -0.795 -27.581  1.00  0.00    -0.000 C 
BRANCH  24  25
ATOM     25  C   UNL     1     -31.368  -0.407 -26.255  1.00  0.00    -0.000 C 
BRANCH  25  26
ATOM     26  C   UNL     1     -31.392   1.114 -26.045  1.00  0.00    -0.000 C 
BRANCH  26  27
ATOM     27  C   UNL     1     -30.934   1.523 -24.637  1.00  0.00    -0.000 C 
BRANCH  27  28
ATOM     28  C   UNL     1     -31.784   0.882 -23.526  1.00  0.00    -0.000 C 
BRANCH  28  29
ATOM     29  C   UNL     1     -31.141  -0.388 -22.940  1.00  0.00    -0.000 C 
BRANCH  29  30
ATOM     30  C   UNL     1     -30.633  -0.253 -21.489  1.00  0.00    -0.000 C 
BRANCH  30  31
ATOM     31  C   UNL     1     -29.926  -1.499 -20.928  1.00  0.00    -0.003 C 
ATOM     32  C   UNL     1     -28.461  -1.592 -21.350  1.00  0.00     0.004 C 
ENDBRANCH  30  31
ENDBRANCH  29  30
ENDBRANCH  28  29
ENDBRANCH  27  28
ENDBRANCH  26  27
ENDBRANCH  25  26
ENDBRANCH  24  25
ENDBRANCH  23  24
ENDBRANCH  22  23
ENDBRANCH  21  22
ENDBRANCH  20  21
ENDBRANCH  19  20
ENDBRANCH  18  19
ENDBRANCH   1  18
TORSDOF 28
ENDMDL
MODEL 8
REMARK VINA RESULT:    11.273      3.122     10.191
REMARK INTER + INTRA:          34.157
REMARK INTER:                  32.873
REMARK INTRA:                   1.283
REMARK UNBOUND:                 4.430
REMARK SMILES CCCCCCCCCCCCCCCCCCCCCCCCCCCCCC(=O)[O-]
REMARK SMILES IDX 16 1 17 2 18 3 19 4 20 5 21 6 22 7 23 8 24 9 25 10 26 11
REMARK SMILES IDX 27 12 28 13 29 14 30 15 31 16 32 17 15 18 14 19 13 20 12 21
REMARK SMILES IDX 11 22 10 23 9 24 8 25 7 26 6 27 5 28 4 29 3 30 2 31 1 32
REMARK H PARENT
REMARK Flexibility Score: inf
ROOT
ATOM      1  C   UNL     1     -24.405  -1.524 -27.705  1.00  0.00     0.000 C 
ENDROOT
BRANCH   1   2
ATOM      2  C   UNL     1     -23.357  -0.426 -27.454  1.00  0.00     0.000 C 
BRANCH   2   3
ATOM      3  C   UNL     1     -23.059   0.397 -28.717  1.00  0.00     0.000 C 
BRANCH   3   4
ATOM      4  C   UNL     1     -22.079   1.554 -28.445  1.00  0.00     0.000 C 
BRANCH   4   5
ATOM      5  C   UNL     1     -22.747   2.757 -27.756  1.00  0.00     0.000 C 
BRANCH   5   6
ATOM      6  C   UNL     1     -22.728   4.064 -28.570  1.00  0.00     0.000 C 
BRANCH   6   7
ATOM      7  C   UNL     1     -21.773   5.116 -27.987  1.00  0.00     0.000 C 
BRANCH   7   8
ATOM      8  C   UNL     1     -20.318   4.810 -28.365  1.00  0.00     0.000 C 
BRANCH   8   9
ATOM      9  C   UNL     1     -19.440   4.680 -27.113  1.00  0.00     0.000 C 
BRANCH   9  10
ATOM     10  C   UNL     1     -19.165   3.219 -26.719  1.00  0.00     0.000 C 
BRANCH  10  11
ATOM     11  C   UNL     1     -20.440   2.394 -26.446  1.00  0.00     0.000 C 
BRANCH  11  12
ATOM     12  C   UNL     1     -21.380   3.083 -25.441  1.00  0.00     0.000 C 
BRANCH  12  13
ATOM     13  C   UNL     1     -22.111   2.084 -24.529  1.00  0.00     0.006 C 
BRANCH  13  14
ATOM     14  C   UNL     1     -21.549   0.660 -24.633  1.00  0.00     0.053 C 
BRANCH  14  15
ATOM     15  C   UNL     1     -21.608  -0.024 -23.304  1.00  0.00     0.041 C 
ATOM     16  O   UNL     1     -22.670  -0.592 -22.931  1.00  0.00    -0.550 OA
ATOM     17  O   UNL     1     -20.478  -0.079 -22.498  1.00  0.00    -0.550 OA
ENDBRANCH  14  15
ENDBRANCH  13  14
ENDBRANCH  12  13
ENDBRANCH  11  12
ENDBRANCH  10  11
ENDBRANCH   9  10
ENDBRANCH   8   9
ENDBRANCH   7   8
ENDBRANCH   6   7
ENDBRANCH   5   6
ENDBRANCH   4   5
ENDBRANCH   3   4
ENDBRANCH   2   3
ENDBRANCH   1   2
BRANCH   1  18
ATOM     18  C   UNL     1     -24.577  -2.461 -26.499  1.00  0.00     0.000 C 
BRANCH  18  19
ATOM     19  C   UNL     1     -25.744  -3.447 -26.682  1.00  0.00     0.000 C 
BRANCH  19  20
ATOM     20  C   UNL     1     -26.756  -2.999 -27.752  1.00  0.00     0.000 C 
BRANCH  20  21
ATOM     21  C   UNL     1     -28.206  -2.886 -27.241  1.00  0.00     0.000 C 
BRANCH  21  22
ATOM     22  C   UNL     1     -29.248  -3.149 -28.344  1.00  0.00     0.000 C 
BRANCH  22  23
ATOM     23  C   UNL     1     -30.419  -2.154 -28.302  1.00  0.00     0.000 C 
BRANCH  23  24
ATOM     24  C   UNL     1     -30.776  -1.716 -26.874  1.00  0.00    -0.000 C 
BRANCH  24  25
ATOM     25  C   UNL     1     -32.122  -0.983 -26.847  1.00  0.00    -0.000 C 
BRANCH  25  26
ATOM     26  C   UNL     1     -31.936   0.510 -26.534  1.00  0.00    -0.000 C 
BRANCH  26  27
ATOM     27  C   UNL     1     -31.093   0.748 -25.272  1.00  0.00    -0.000 C 
BRANCH  27  28
ATOM     28  C   UNL     1     -31.381   2.107 -24.612  1.00  0.00    -0.000 C 
BRANCH  28  29
ATOM     29  C   UNL     1     -32.110   3.085 -25.550  1.00  0.00    -0.000 C 
BRANCH  29  30
ATOM     30  C   UNL     1     -31.265   3.607 -26.732  1.00  0.00    -0.000 C 
BRANCH  30  31
ATOM     31  C   UNL     1     -32.004   3.678 -28.080  1.00  0.00    -0.003 C 
ATOM     32  C   UNL     1     -31.257   4.504 -29.125  1.00  0.00     0.004 C 
ENDBRANCH  30  31
ENDBRANCH  29  30
ENDBRANCH  28  29
ENDBRANCH  27  28
ENDBRANCH  26  27
ENDBRANCH  25  26
ENDBRANCH  24  25
ENDBRANCH  23  24
ENDBRANCH  22  23
ENDBRANCH  21  22
ENDBRANCH  20  21
ENDBRANCH  19  20
ENDBRANCH  18  19
ENDBRANCH   1  18
TORSDOF 28
ENDMDL
