MODEL 1
REMARK VINA RESULT:    -6.375      0.000      0.000
REMARK INTER + INTRA:          -9.179
REMARK INTER:                  -8.424
REMARK INTRA:                  -0.754
REMARK UNBOUND:                -0.754
REMARK SMILES CC[C@@H](C=C[C@@H](C)[C@@H]1CC[C@@H]2[C@H]3CC=C4C[C@H](O)CC[C@@]4(C)[C@H]3CC[C@]21C)C(C)C
REMARK SMILES IDX 6 1 7 2 5 3 4 4 3 5 2 6 1 7 28 8 29 9 30 10 8 11 9 12 26 13
REMARK SMILES IDX 10 14 11 15 25 16 27 17 12 18 24 19 23 20 13 21 21 22 14 23
REMARK SMILES IDX 15 24 20 25 22 26 16 27 19 28 17 29 18 30
REMARK H PARENT 18 31
REMARK Flexibility Score: inf
ROOT
ATOM      1  C   UNL     1       0.002  43.311  12.000  1.00  0.00     0.012 C 
ATOM      2  C   UNL     1      -1.117  43.033  13.027  1.00  0.00     0.012 C 
ENDROOT
BRANCH   1   3
ATOM      3  C   UNL     1       1.329  42.866  12.588  1.00  0.00    -0.028 C 
ATOM      4  C   UNL     1       1.997  41.813  12.079  1.00  0.00    -0.027 C 
BRANCH   4   5
ATOM      5  C   UNL     1       3.362  41.316  12.545  1.00  0.00     0.014 C 
BRANCH   5   6
ATOM      6  C   UNL     1       4.587  42.076  11.957  1.00  0.00     0.004 C 
ATOM      7  C   UNL     1       4.415  42.586  10.526  1.00  0.00     0.004 C 
ENDBRANCH   5   6
BRANCH   5   8
ATOM      8  C   UNL     1       3.435  39.756  12.472  1.00  0.00    -0.011 C 
ATOM      9  C   UNL     1       2.121  39.074  12.877  1.00  0.00     0.008 C 
ATOM     10  C   UNL     1       4.623  39.130  13.228  1.00  0.00     0.008 C 
ENDBRANCH   5   8
ENDBRANCH   4   5
ENDBRANCH   1   3
BRANCH   1  11
ATOM     11  C   UNL     1       0.141  44.786  11.487  1.00  0.00     0.002 C 
ATOM     12  C   UNL     1      -1.125  45.442  10.890  1.00  0.00     0.005 C 
ATOM     13  C   UNL     1       1.286  45.161  10.504  1.00  0.00    -0.026 C 
ATOM     14  C   UNL     1      -0.620  46.585   9.989  1.00  0.00     0.005 C 
ATOM     15  C   UNL     1       0.896  46.619  10.212  1.00  0.00    -0.001 C 
ATOM     16  C   UNL     1       2.704  45.146  11.143  1.00  0.00     0.007 C 
ATOM     17  C   UNL     1       1.252  44.270   9.223  1.00  0.00     0.012 C 
ATOM     18  C   UNL     1       1.771  47.301   9.127  1.00  0.00     0.000 C 
ATOM     19  C   UNL     1       3.612  46.325  10.699  1.00  0.00     0.005 C 
ATOM     20  C   UNL     1       3.302  46.891   9.272  1.00  0.00     0.003 C 
ATOM     21  C   UNL     1       1.514  48.842   9.134  1.00  0.00     0.031 C 
ATOM     22  C   UNL     1       4.276  48.054   8.824  1.00  0.00    -0.008 C 
ATOM     23  C   UNL     1       2.613  49.634   9.781  1.00  0.00    -0.027 C 
ATOM     24  C   UNL     1       3.905  49.331   9.570  1.00  0.00    -0.065 C 
ATOM     25  C   UNL     1       5.773  47.722   9.123  1.00  0.00     0.014 C 
ATOM     26  C   UNL     1       4.137  48.276   7.291  1.00  0.00     0.016 C 
ATOM     27  C   UNL     1       4.988  50.164  10.223  1.00  0.00     0.063 C 
ATOM     28  C   UNL     1       6.725  48.888   8.788  1.00  0.00     0.033 C 
ATOM     29  C   UNL     1       6.229  50.265   9.319  1.00  0.00     0.118 C 
BRANCH  29  30
ATOM     30  O   UNL     1       5.940  51.124   8.248  1.00  0.00    -0.393 OA
ATOM     31  H   UNL     1       6.181  52.042   8.539  1.00  0.00     0.210 HD
ENDBRANCH  29  30
ENDBRANCH   1  11
TORSDOF 6
ENDMDL
MODEL 2
REMARK VINA RESULT:    -5.649      1.477      2.923
REMARK INTER + INTRA:          -8.220
REMARK INTER:                  -7.830
REMARK INTRA:                  -0.390
REMARK UNBOUND:                -0.754
REMARK SMILES CC[C@@H](C=C[C@@H](C)[C@@H]1CC[C@@H]2[C@H]3CC=C4C[C@H](O)CC[C@@]4(C)[C@H]3CC[C@]21C)C(C)C
REMARK SMILES IDX 6 1 7 2 5 3 4 4 3 5 2 6 1 7 28 8 29 9 30 10 8 11 9 12 26 13
REMARK SMILES IDX 10 14 11 15 25 16 27 17 12 18 24 19 23 20 13 21 21 22 14 23
REMARK SMILES IDX 15 24 20 25 22 26 16 27 19 28 17 29 18 30
REMARK H PARENT 18 31
REMARK Flexibility Score: inf
ROOT
ATOM      1  C   UNL     1       2.805  41.883  12.743  1.00  0.00     0.012 C 
ATOM      2  C   UNL     1       4.228  41.447  12.332  1.00  0.00     0.012 C 
ENDROOT
BRANCH   1   3
ATOM      3  C   UNL     1       1.815  40.834  12.273  1.00  0.00    -0.028 C 
ATOM      4  C   UNL     1       1.539  39.751  13.025  1.00  0.00    -0.027 C 
BRANCH   4   5
ATOM      5  C   UNL     1       0.519  38.668  12.685  1.00  0.00     0.014 C 
BRANCH   5   6
ATOM      6  C   UNL     1      -0.811  38.725  13.491  1.00  0.00     0.004 C 
ATOM      7  C   UNL     1      -1.111  40.065  14.165  1.00  0.00     0.004 C 
ENDBRANCH   5   6
BRANCH   5   8
ATOM      8  C   UNL     1       1.208  37.266  12.614  1.00  0.00    -0.011 C 
ATOM      9  C   UNL     1       2.600  37.312  11.970  1.00  0.00     0.008 C 
ATOM     10  C   UNL     1       0.351  36.160  11.967  1.00  0.00     0.008 C 
ENDBRANCH   5   8
ENDBRANCH   4   5
ENDBRANCH   1   3
BRANCH   1  11
ATOM     11  C   UNL     1       2.327  43.293  12.251  1.00  0.00     0.002 C 
ATOM     12  C   UNL     1       0.828  43.442  11.904  1.00  0.00     0.005 C 
ATOM     13  C   UNL     1       3.078  44.005  11.091  1.00  0.00    -0.026 C 
ATOM     14  C   UNL     1       0.736  44.654  10.958  1.00  0.00     0.005 C 
ATOM     15  C   UNL     1       2.157  45.223  10.909  1.00  0.00    -0.001 C 
ATOM     16  C   UNL     1       4.500  44.511  11.467  1.00  0.00     0.007 C 
ATOM     17  C   UNL     1       3.135  43.110   9.814  1.00  0.00     0.012 C 
ATOM     18  C   UNL     1       2.534  46.125   9.704  1.00  0.00     0.000 C 
ATOM     19  C   UNL     1       4.845  45.914  10.900  1.00  0.00     0.005 C 
ATOM     20  C   UNL     1       4.112  46.281   9.565  1.00  0.00     0.003 C 
ATOM     21  C   UNL     1       1.760  47.479   9.795  1.00  0.00     0.031 C 
ATOM     22  C   UNL     1       4.523  47.692   8.981  1.00  0.00    -0.008 C 
ATOM     23  C   UNL     1       2.607  48.628  10.257  1.00  0.00    -0.027 C 
ATOM     24  C   UNL     1       3.865  48.787   9.814  1.00  0.00    -0.065 C 
ATOM     25  C   UNL     1       6.069  47.915   9.002  1.00  0.00     0.014 C 
ATOM     26  C   UNL     1       4.051  47.792   7.504  1.00  0.00     0.016 C 
ATOM     27  C   UNL     1       4.685  49.971  10.285  1.00  0.00     0.063 C 
ATOM     28  C   UNL     1       6.479  49.325   8.534  1.00  0.00     0.033 C 
ATOM     29  C   UNL     1       5.634  50.462   9.179  1.00  0.00     0.118 C 
BRANCH  29  30
ATOM     30  O   UNL     1       4.880  51.125   8.197  1.00  0.00    -0.393 OA
ATOM     31  H   UNL     1       4.154  50.506   7.923  1.00  0.00     0.210 HD
ENDBRANCH  29  30
ENDBRANCH   1  11
TORSDOF 6
ENDMDL
MODEL 3
REMARK VINA RESULT:    -5.555      1.518      2.949
REMARK INTER + INTRA:          -8.096
REMARK INTER:                  -7.880
REMARK INTRA:                  -0.216
REMARK UNBOUND:                -0.754
REMARK SMILES CC[C@@H](C=C[C@@H](C)[C@@H]1CC[C@@H]2[C@H]3CC=C4C[C@H](O)CC[C@@]4(C)[C@H]3CC[C@]21C)C(C)C
REMARK SMILES IDX 6 1 7 2 5 3 4 4 3 5 2 6 1 7 28 8 29 9 30 10 8 11 9 12 26 13
REMARK SMILES IDX 10 14 11 15 25 16 27 17 12 18 24 19 23 20 13 21 21 22 14 23
REMARK SMILES IDX 15 24 20 25 22 26 16 27 19 28 17 29 18 30
REMARK H PARENT 18 31
REMARK Flexibility Score: inf
ROOT
ATOM      1  C   UNL     1       3.086  41.810  12.673  1.00  0.00     0.012 C 
ATOM      2  C   UNL     1       4.482  41.464  12.110  1.00  0.00     0.012 C 
ENDROOT
BRANCH   1   3
ATOM      3  C   UNL     1       2.153  40.641  12.424  1.00  0.00    -0.028 C 
ATOM      4  C   UNL     1       2.296  39.480  13.093  1.00  0.00    -0.027 C 
BRANCH   4   5
ATOM      5  C   UNL     1       1.383  38.265  12.972  1.00  0.00     0.014 C 
BRANCH   5   6
ATOM      6  C   UNL     1       1.852  37.172  11.967  1.00  0.00     0.004 C 
ATOM      7  C   UNL     1       3.346  37.183  11.640  1.00  0.00     0.004 C 
ENDBRANCH   5   6
BRANCH   5   8
ATOM      8  C   UNL     1      -0.111  38.708  12.841  1.00  0.00    -0.011 C 
ATOM      9  C   UNL     1      -0.527  39.737  13.901  1.00  0.00     0.008 C 
ATOM     10  C   UNL     1      -1.125  37.549  12.788  1.00  0.00     0.008 C 
ENDBRANCH   5   8
ENDBRANCH   4   5
ENDBRANCH   1   3
BRANCH   1  11
ATOM     11  C   UNL     1       2.414  43.123  12.139  1.00  0.00     0.002 C 
ATOM     12  C   UNL     1       0.912  43.045  11.784  1.00  0.00     0.005 C 
ATOM     13  C   UNL     1       3.063  43.903  10.961  1.00  0.00    -0.026 C 
ATOM     14  C   UNL     1       0.653  44.204  10.803  1.00  0.00     0.005 C 
ATOM     15  C   UNL     1       1.978  44.970  10.742  1.00  0.00    -0.001 C 
ATOM     16  C   UNL     1       4.395  44.618  11.328  1.00  0.00     0.007 C 
ATOM     17  C   UNL     1       3.257  42.989   9.711  1.00  0.00     0.012 C 
ATOM     18  C   UNL     1       2.230  45.883   9.513  1.00  0.00     0.000 C 
ATOM     19  C   UNL     1       4.539  46.039  10.722  1.00  0.00     0.005 C 
ATOM     20  C   UNL     1       3.770  46.260   9.374  1.00  0.00     0.003 C 
ATOM     21  C   UNL     1       1.269  47.113   9.564  1.00  0.00     0.031 C 
ATOM     22  C   UNL     1       3.978  47.699   8.752  1.00  0.00    -0.008 C 
ATOM     23  C   UNL     1       1.938  48.385   9.995  1.00  0.00    -0.027 C 
ATOM     24  C   UNL     1       3.164  48.711   9.551  1.00  0.00    -0.065 C 
ATOM     25  C   UNL     1       5.476  48.143   8.771  1.00  0.00     0.014 C 
ATOM     26  C   UNL     1       3.506  47.689   7.271  1.00  0.00     0.016 C 
ATOM     27  C   UNL     1       3.802  50.013   9.991  1.00  0.00     0.063 C 
ATOM     28  C   UNL     1       5.682  49.584   8.264  1.00  0.00     0.033 C 
ATOM     29  C   UNL     1       4.678  50.605   8.874  1.00  0.00     0.118 C 
BRANCH  29  30
ATOM     30  O   UNL     1       3.843  51.124   7.872  1.00  0.00    -0.393 OA
ATOM     31  H   UNL     1       3.136  51.650   8.328  1.00  0.00     0.210 HD
ENDBRANCH  29  30
ENDBRANCH   1  11
TORSDOF 6
ENDMDL
MODEL 4
REMARK VINA RESULT:    -4.759      2.662      7.355
REMARK INTER + INTRA:          -7.044
REMARK INTER:                  -6.421
REMARK INTRA:                  -0.623
REMARK UNBOUND:                -0.754
REMARK SMILES CC[C@@H](C=C[C@@H](C)[C@@H]1CC[C@@H]2[C@H]3CC=C4C[C@H](O)CC[C@@]4(C)[C@H]3CC[C@]21C)C(C)C
REMARK SMILES IDX 6 1 7 2 5 3 4 4 3 5 2 6 1 7 28 8 29 9 30 10 8 11 9 12 26 13
REMARK SMILES IDX 10 14 11 15 25 16 27 17 12 18 24 19 23 20 13 21 21 22 14 23
REMARK SMILES IDX 15 24 20 25 22 26 16 27 19 28 17 29 18 30
REMARK H PARENT 18 31
REMARK Flexibility Score: inf
ROOT
ATOM      1  C   UNL     1      -0.232  49.746   7.571  1.00  0.00     0.012 C 
ATOM      2  C   UNL     1      -1.125  50.347   6.464  1.00  0.00     0.012 C 
ENDROOT
BRANCH   1   3
ATOM      3  C   UNL     1       1.096  50.481   7.583  1.00  0.00    -0.028 C 
ATOM      4  C   UNL     1       2.121  50.055   8.346  1.00  0.00    -0.027 C 
BRANCH   4   5
ATOM      5  C   UNL     1       3.515  50.673   8.390  1.00  0.00     0.014 C 
BRANCH   5   6
ATOM      6  C   UNL     1       4.624  49.878   7.641  1.00  0.00     0.004 C 
ATOM      7  C   UNL     1       4.480  48.357   7.683  1.00  0.00     0.004 C 
ENDBRANCH   5   6
BRANCH   5   8
ATOM      8  C   UNL     1       3.871  51.124   9.845  1.00  0.00    -0.011 C 
ATOM      9  C   UNL     1       5.325  50.815  10.229  1.00  0.00     0.008 C 
ATOM     10  C   UNL     1       2.906  50.613  10.933  1.00  0.00     0.008 C 
ENDBRANCH   5   8
ENDBRANCH   4   5
ENDBRANCH   1   3
BRANCH   1  11
ATOM     11  C   UNL     1       0.040  48.204   7.503  1.00  0.00     0.002 C 
ATOM     12  C   UNL     1      -0.934  47.358   6.651  1.00  0.00     0.005 C 
ATOM     13  C   UNL     1       0.232  47.391   8.814  1.00  0.00    -0.026 C 
ATOM     14  C   UNL     1      -0.814  45.918   7.183  1.00  0.00     0.005 C 
ATOM     15  C   UNL     1       0.313  45.975   8.219  1.00  0.00    -0.001 C 
ATOM     16  C   UNL     1       1.563  47.691   9.560  1.00  0.00     0.007 C 
ATOM     17  C   UNL     1      -0.986  47.562   9.774  1.00  0.00     0.012 C 
ATOM     18  C   UNL     1       0.375  44.847   9.283  1.00  0.00     0.000 C 
ATOM     19  C   UNL     1       2.264  46.433  10.139  1.00  0.00     0.005 C 
ATOM     20  C   UNL     1       1.298  45.257  10.513  1.00  0.00     0.003 C 
ATOM     21  C   UNL     1       0.775  43.500   8.600  1.00  0.00     0.031 C 
ATOM     22  C   UNL     1       2.032  44.010  11.150  1.00  0.00    -0.008 C 
ATOM     23  C   UNL     1       2.201  43.099   8.843  1.00  0.00    -0.027 C 
ATOM     24  C   UNL     1       2.768  43.249  10.052  1.00  0.00    -0.065 C 
ATOM     25  C   UNL     1       3.067  44.425  12.244  1.00  0.00     0.014 C 
ATOM     26  C   UNL     1       0.979  43.084  11.822  1.00  0.00     0.016 C 
ATOM     27  C   UNL     1       4.203  42.815  10.268  1.00  0.00     0.063 C 
ATOM     28  C   UNL     1       3.865  43.229  12.801  1.00  0.00     0.033 C 
ATOM     29  C   UNL     1       4.411  42.280  11.695  1.00  0.00     0.118 C 
BRANCH  29  30
ATOM     30  O   UNL     1       3.807  41.017  11.797  1.00  0.00    -0.393 OA
ATOM     31  H   UNL     1       3.701  40.671  10.872  1.00  0.00     0.210 HD
ENDBRANCH  29  30
ENDBRANCH   1  11
TORSDOF 6
ENDMDL
