MODEL 1
REMARK VINA RESULT:    -5.304      0.000      0.000
REMARK INTER + INTRA:          -6.357
REMARK INTER:                  -6.234
REMARK INTRA:                  -0.123
REMARK UNBOUND:                -0.123
REMARK SMILES O=C([O-])C=Cc1ccc(O)c(O)c1
REMARK SMILES IDX 6 1 13 2 7 3 11 4 8 5 9 6 5 7 4 8 2 9 1 10 3 11 12 12 10 14
REMARK H PARENT 12 13 10 15
REMARK Flexibility Score: inf
ROOT
ATOM      1  C   UNL     1     -13.507  39.483  -9.912  1.00  0.00    -0.022 A 
ATOM      2  C   UNL     1     -13.193  40.823  -9.610  1.00  0.00     0.058 A 
ATOM      3  C   UNL     1     -14.849  39.133 -10.129  1.00  0.00     0.012 A 
ATOM      4  C   UNL     1     -14.203  41.797  -9.554  1.00  0.00     0.157 A 
ATOM      5  C   UNL     1     -15.855  40.102 -10.075  1.00  0.00     0.051 A 
ATOM      6  C   UNL     1     -15.538  41.433  -9.791  1.00  0.00     0.157 A 
ENDROOT
BRANCH   1   7
ATOM      7  C   UNL     1     -12.477  38.416  -9.971  1.00  0.00     0.010 C 
ATOM      8  C   UNL     1     -11.216  38.576  -9.550  1.00  0.00     0.025 C 
BRANCH   8   9
ATOM      9  C   UNL     1     -10.223  37.492  -9.640  1.00  0.00     0.064 C 
ATOM     10  O   UNL     1      -9.330  37.540 -10.526  1.00  0.00    -0.545 OA
ATOM     11  O   UNL     1     -10.252  36.417  -8.759  1.00  0.00    -0.545 OA
ENDBRANCH   8   9
ENDBRANCH   1   7
BRANCH   4  12
ATOM     12  O   UNL     1     -13.883  43.121  -9.257  1.00  0.00    -0.504 OA
ATOM     13  H   UNL     1     -14.362  43.896  -9.699  1.00  0.00     0.293 HD
ENDBRANCH   4  12
BRANCH   6  14
ATOM     14  O   UNL     1     -16.562  42.379  -9.745  1.00  0.00    -0.504 OA
ATOM     15  H   UNL     1     -17.485  42.157  -9.391  1.00  0.00     0.293 HD
ENDBRANCH   6  14
TORSDOF 4
ENDMDL
MODEL 2
REMARK VINA RESULT:    -5.284     12.812     13.619
REMARK INTER + INTRA:          -6.333
REMARK INTER:                  -6.211
REMARK INTRA:                  -0.122
REMARK UNBOUND:                -0.123
REMARK SMILES O=C([O-])C=Cc1ccc(O)c(O)c1
REMARK SMILES IDX 6 1 13 2 7 3 11 4 8 5 9 6 5 7 4 8 2 9 1 10 3 11 12 12 10 14
REMARK H PARENT 12 13 10 15
REMARK Flexibility Score: inf
ROOT
ATOM      1  C   UNL     1     -14.170  38.122   3.186  1.00  0.00    -0.022 A 
ATOM      2  C   UNL     1     -13.590  38.418   1.936  1.00  0.00     0.058 A 
ATOM      3  C   UNL     1     -13.428  38.365   4.353  1.00  0.00     0.012 A 
ATOM      4  C   UNL     1     -12.303  38.972   1.861  1.00  0.00     0.157 A 
ATOM      5  C   UNL     1     -12.147  38.918   4.279  1.00  0.00     0.051 A 
ATOM      6  C   UNL     1     -11.581  39.225   3.038  1.00  0.00     0.157 A 
ENDROOT
BRANCH   1   7
ATOM      7  C   UNL     1     -15.522  37.524   3.317  1.00  0.00     0.010 C 
ATOM      8  C   UNL     1     -16.429  37.512   2.331  1.00  0.00     0.025 C 
BRANCH   8   9
ATOM      9  C   UNL     1     -17.765  36.919   2.510  1.00  0.00     0.064 C 
ATOM     10  O   UNL     1     -18.255  36.208   1.595  1.00  0.00    -0.545 OA
ATOM     11  O   UNL     1     -18.493  37.130   3.675  1.00  0.00    -0.545 OA
ENDBRANCH   8   9
ENDBRANCH   1   7
BRANCH   4  12
ATOM     12  O   UNL     1     -11.738  39.265   0.620  1.00  0.00    -0.504 OA
ATOM     13  H   UNL     1     -11.597  40.220   0.312  1.00  0.00     0.293 HD
ENDBRANCH   4  12
BRANCH   6  14
ATOM     14  O   UNL     1     -10.301  39.779   2.995  1.00  0.00    -0.504 OA
ATOM     15  H   UNL     1      -9.708  39.828   3.815  1.00  0.00     0.293 HD
ENDBRANCH   6  14
TORSDOF 4
ENDMDL
MODEL 3
REMARK VINA RESULT:    -5.258      7.568      8.976
REMARK INTER + INTRA:          -6.303
REMARK INTER:                  -6.179
REMARK INTRA:                  -0.125
REMARK UNBOUND:                -0.123
REMARK SMILES O=C([O-])C=Cc1ccc(O)c(O)c1
REMARK SMILES IDX 6 1 13 2 7 3 11 4 8 5 9 6 5 7 4 8 2 9 1 10 3 11 12 12 10 14
REMARK H PARENT 12 13 10 15
REMARK Flexibility Score: inf
ROOT
ATOM      1  C   UNL     1     -12.116  35.433  -3.231  1.00  0.00    -0.022 A 
ATOM      2  C   UNL     1     -12.614  35.793  -1.963  1.00  0.00     0.058 A 
ATOM      3  C   UNL     1     -12.494  34.198  -3.782  1.00  0.00     0.012 A 
ATOM      4  C   UNL     1     -13.492  34.942  -1.274  1.00  0.00     0.157 A 
ATOM      5  C   UNL     1     -13.371  33.352  -3.098  1.00  0.00     0.051 A 
ATOM      6  C   UNL     1     -13.874  33.719  -1.847  1.00  0.00     0.157 A 
ENDROOT
BRANCH   1   7
ATOM      7  C   UNL     1     -11.175  36.292  -3.993  1.00  0.00     0.010 C 
ATOM      8  C   UNL     1     -10.139  36.934  -3.438  1.00  0.00     0.025 C 
BRANCH   8   9
ATOM      9  C   UNL     1      -9.237  37.787  -4.230  1.00  0.00     0.064 C 
ATOM     10  O   UNL     1      -8.333  37.256  -4.926  1.00  0.00    -0.545 OA
ATOM     11  O   UNL     1      -9.371  39.170  -4.225  1.00  0.00    -0.545 OA
ENDBRANCH   8   9
ENDBRANCH   1   7
BRANCH   4  12
ATOM     12  O   UNL     1     -13.982  35.308  -0.021  1.00  0.00    -0.504 OA
ATOM     13  H   UNL     1     -13.392  35.756   0.671  1.00  0.00     0.293 HD
ENDBRANCH   4  12
BRANCH   6  14
ATOM     14  O   UNL     1     -14.749  32.855  -1.189  1.00  0.00    -0.504 OA
ATOM     15  H   UNL     1     -15.016  32.994  -0.222  1.00  0.00     0.293 HD
ENDBRANCH   6  14
TORSDOF 4
ENDMDL
MODEL 4
REMARK VINA RESULT:    -5.133      8.055      9.837
REMARK INTER + INTRA:          -6.155
REMARK INTER:                  -6.031
REMARK INTRA:                  -0.124
REMARK UNBOUND:                -0.123
REMARK SMILES O=C([O-])C=Cc1ccc(O)c(O)c1
REMARK SMILES IDX 6 1 13 2 7 3 11 4 8 5 9 6 5 7 4 8 2 9 1 10 3 11 12 12 10 14
REMARK H PARENT 12 13 10 15
REMARK Flexibility Score: inf
ROOT
ATOM      1  C   UNL     1     -15.421  35.358  -2.896  1.00  0.00    -0.022 A 
ATOM      2  C   UNL     1     -14.926  35.932  -4.084  1.00  0.00     0.058 A 
ATOM      3  C   UNL     1     -15.091  34.026  -2.599  1.00  0.00     0.012 A 
ATOM      4  C   UNL     1     -14.097  35.193  -4.942  1.00  0.00     0.157 A 
ATOM      5  C   UNL     1     -14.264  33.290  -3.451  1.00  0.00     0.051 A 
ATOM      6  C   UNL     1     -13.763  33.868  -4.621  1.00  0.00     0.157 A 
ENDROOT
BRANCH   1   7
ATOM      7  C   UNL     1     -16.310  36.094  -1.964  1.00  0.00     0.010 C 
ATOM      8  C   UNL     1     -17.331  36.865  -2.362  1.00  0.00     0.025 C 
BRANCH   8   9
ATOM      9  C   UNL     1     -18.180  37.588  -1.401  1.00  0.00     0.064 C 
ATOM     10  O   UNL     1     -19.220  37.038  -0.956  1.00  0.00    -0.545 OA
ATOM     11  O   UNL     1     -17.851  38.869  -0.975  1.00  0.00    -0.545 OA
ENDBRANCH   8   9
ENDBRANCH   1   7
BRANCH   4  12
ATOM     12  O   UNL     1     -13.610  35.771  -6.114  1.00  0.00    -0.504 OA
ATOM     13  H   UNL     1     -13.398  36.760  -6.171  1.00  0.00     0.293 HD
ENDBRANCH   4  12
BRANCH   6  14
ATOM     14  O   UNL     1     -12.938  33.110  -5.452  1.00  0.00    -0.504 OA
ATOM     15  H   UNL     1     -12.378  33.531  -6.184  1.00  0.00     0.293 HD
ENDBRANCH   6  14
TORSDOF 4
ENDMDL
MODEL 5
REMARK VINA RESULT:    -5.126      8.017      8.413
REMARK INTER + INTRA:          -6.147
REMARK INTER:                  -5.993
REMARK INTRA:                  -0.155
REMARK UNBOUND:                -0.123
REMARK SMILES O=C([O-])C=Cc1ccc(O)c(O)c1
REMARK SMILES IDX 6 1 13 2 7 3 11 4 8 5 9 6 5 7 4 8 2 9 1 10 3 11 12 12 10 14
REMARK H PARENT 12 13 10 15
REMARK Flexibility Score: inf
ROOT
ATOM      1  C   UNL     1     -16.052  36.181  -3.082  1.00  0.00    -0.022 A 
ATOM      2  C   UNL     1     -16.375  37.026  -4.163  1.00  0.00     0.058 A 
ATOM      3  C   UNL     1     -16.557  36.488  -1.808  1.00  0.00     0.012 A 
ATOM      4  C   UNL     1     -17.208  38.139  -3.973  1.00  0.00     0.157 A 
ATOM      5  C   UNL     1     -17.388  37.595  -1.619  1.00  0.00     0.051 A 
ATOM      6  C   UNL     1     -17.718  38.422  -2.697  1.00  0.00     0.157 A 
ENDROOT
BRANCH   1   7
ATOM      7  C   UNL     1     -15.166  35.000  -3.229  1.00  0.00     0.010 C 
ATOM      8  C   UNL     1     -14.905  34.138  -2.236  1.00  0.00     0.025 C 
BRANCH   8   9
ATOM      9  C   UNL     1     -14.008  32.986  -2.423  1.00  0.00     0.064 C 
ATOM     10  O   UNL     1     -13.642  32.666  -3.584  1.00  0.00    -0.545 OA
ATOM     11  O   UNL     1     -13.555  32.246  -1.338  1.00  0.00    -0.545 OA
ENDBRANCH   8   9
ENDBRANCH   1   7
BRANCH   4  12
ATOM     12  O   UNL     1     -17.524  38.968  -5.050  1.00  0.00    -0.504 OA
ATOM     13  H   UNL     1     -18.276  39.645  -4.997  1.00  0.00     0.293 HD
ENDBRANCH   4  12
BRANCH   6  14
ATOM     14  O   UNL     1     -18.552  39.518  -2.479  1.00  0.00    -0.504 OA
ATOM     15  H   UNL     1     -19.261  39.797  -3.146  1.00  0.00     0.293 HD
ENDBRANCH   6  14
TORSDOF 4
ENDMDL
MODEL 6
REMARK VINA RESULT:    -5.117      7.852      8.339
REMARK INTER + INTRA:          -6.137
REMARK INTER:                  -5.983
REMARK INTRA:                  -0.154
REMARK UNBOUND:                -0.123
REMARK SMILES O=C([O-])C=Cc1ccc(O)c(O)c1
REMARK SMILES IDX 6 1 13 2 7 3 11 4 8 5 9 6 5 7 4 8 2 9 1 10 3 11 12 12 10 14
REMARK H PARENT 12 13 10 15
REMARK Flexibility Score: inf
ROOT
ATOM      1  C   UNL     1     -15.904  36.341  -3.001  1.00  0.00    -0.022 A 
ATOM      2  C   UNL     1     -16.844  37.353  -2.722  1.00  0.00     0.058 A 
ATOM      3  C   UNL     1     -15.419  36.209  -4.312  1.00  0.00     0.012 A 
ATOM      4  C   UNL     1     -17.268  38.230  -3.733  1.00  0.00     0.157 A 
ATOM      5  C   UNL     1     -15.839  37.083  -5.318  1.00  0.00     0.051 A 
ATOM      6  C   UNL     1     -16.760  38.095  -5.034  1.00  0.00     0.157 A 
ENDROOT
BRANCH   1   7
ATOM      7  C   UNL     1     -15.435  35.382  -1.971  1.00  0.00     0.010 C 
ATOM      8  C   UNL     1     -14.779  34.249  -2.253  1.00  0.00     0.025 C 
BRANCH   8   9
ATOM      9  C   UNL     1     -14.342  33.319  -1.198  1.00  0.00     0.064 C 
ATOM     10  O   UNL     1     -14.632  33.562   0.002  1.00  0.00    -0.545 OA
ATOM     11  O   UNL     1     -13.617  32.174  -1.506  1.00  0.00    -0.545 OA
ENDBRANCH   8   9
ENDBRANCH   1   7
BRANCH   4  12
ATOM     12  O   UNL     1     -18.197  39.231  -3.447  1.00  0.00    -0.504 OA
ATOM     13  H   UNL     1     -17.981  40.211  -3.580  1.00  0.00     0.293 HD
ENDBRANCH   4  12
BRANCH   6  14
ATOM     14  O   UNL     1     -17.160  38.955  -6.058  1.00  0.00    -0.504 OA
ATOM     15  H   UNL     1     -16.659  39.015  -6.936  1.00  0.00     0.293 HD
ENDBRANCH   6  14
TORSDOF 4
ENDMDL
MODEL 7
REMARK VINA RESULT:    -5.104      8.522      9.828
REMARK INTER + INTRA:          -6.122
REMARK INTER:                  -5.977
REMARK INTRA:                  -0.144
REMARK UNBOUND:                -0.123
REMARK SMILES O=C([O-])C=Cc1ccc(O)c(O)c1
REMARK SMILES IDX 6 1 13 2 7 3 11 4 8 5 9 6 5 7 4 8 2 9 1 10 3 11 12 12 10 14
REMARK H PARENT 12 13 10 15
REMARK Flexibility Score: inf
ROOT
ATOM      1  C   UNL     1     -16.891  36.767  -2.992  1.00  0.00    -0.022 A 
ATOM      2  C   UNL     1     -16.827  37.393  -4.253  1.00  0.00     0.058 A 
ATOM      3  C   UNL     1     -15.959  35.762  -2.687  1.00  0.00     0.012 A 
ATOM      4  C   UNL     1     -15.833  37.037  -5.177  1.00  0.00     0.157 A 
ATOM      5  C   UNL     1     -14.967  35.408  -3.606  1.00  0.00     0.051 A 
ATOM      6  C   UNL     1     -14.898  36.043  -4.850  1.00  0.00     0.157 A 
ENDROOT
BRANCH   1   7
ATOM      7  C   UNL     1     -17.930  37.099  -1.987  1.00  0.00     0.010 C 
ATOM      8  C   UNL     1     -17.794  36.872  -0.673  1.00  0.00     0.025 C 
BRANCH   8   9
ATOM      9  C   UNL     1     -18.858  37.206   0.288  1.00  0.00     0.064 C 
ATOM     10  O   UNL     1     -18.702  38.177   1.073  1.00  0.00    -0.545 OA
ATOM     11  O   UNL     1     -20.034  36.468   0.342  1.00  0.00    -0.545 OA
ENDBRANCH   8   9
ENDBRANCH   1   7
BRANCH   4  12
ATOM     12  O   UNL     1     -15.777  37.665  -6.421  1.00  0.00    -0.504 OA
ATOM     13  H   UNL     1     -15.674  38.669  -6.506  1.00  0.00     0.293 HD
ENDBRANCH   4  12
BRANCH   6  14
ATOM     14  O   UNL     1     -13.896  35.671  -5.746  1.00  0.00    -0.504 OA
ATOM     15  H   UNL     1     -14.101  35.400  -6.700  1.00  0.00     0.293 HD
ENDBRANCH   6  14
TORSDOF 4
ENDMDL
MODEL 8
REMARK VINA RESULT:    -5.017      7.189      8.653
REMARK INTER + INTRA:          -6.020
REMARK INTER:                  -5.896
REMARK INTRA:                  -0.124
REMARK UNBOUND:                -0.123
REMARK SMILES O=C([O-])C=Cc1ccc(O)c(O)c1
REMARK SMILES IDX 6 1 13 2 7 3 11 4 8 5 9 6 5 7 4 8 2 9 1 10 3 11 12 12 10 14
REMARK H PARENT 12 13 10 15
REMARK Flexibility Score: inf
ROOT
ATOM      1  C   UNL     1     -11.295  36.289  -3.590  1.00  0.00    -0.022 A 
ATOM      2  C   UNL     1     -11.035  36.893  -2.345  1.00  0.00     0.058 A 
ATOM      3  C   UNL     1     -10.805  36.899  -4.756  1.00  0.00     0.012 A 
ATOM      4  C   UNL     1     -10.276  38.072  -2.269  1.00  0.00     0.157 A 
ATOM      5  C   UNL     1     -10.048  38.071  -4.681  1.00  0.00     0.051 A 
ATOM      6  C   UNL     1      -9.779  38.660  -3.442  1.00  0.00     0.157 A 
ENDROOT
BRANCH   1   7
ATOM      7  C   UNL     1     -12.102  35.050  -3.724  1.00  0.00     0.010 C 
ATOM      8  C   UNL     1     -12.816  34.516  -2.724  1.00  0.00     0.025 C 
BRANCH   8   9
ATOM      9  C   UNL     1     -13.592  33.277  -2.898  1.00  0.00     0.064 C 
ATOM     10  O   UNL     1     -13.837  32.553  -1.898  1.00  0.00    -0.545 OA
ATOM     11  O   UNL     1     -14.064  32.895  -4.148  1.00  0.00    -0.545 OA
ENDBRANCH   8   9
ENDBRANCH   1   7
BRANCH   4  12
ATOM     12  O   UNL     1     -10.022  38.661  -1.031  1.00  0.00    -0.504 OA
ATOM     13  H   UNL     1      -9.125  39.080  -0.816  1.00  0.00     0.293 HD
ENDBRANCH   4  12
BRANCH   6  14
ATOM     14  O   UNL     1      -9.018  39.828  -3.398  1.00  0.00    -0.504 OA
ATOM     15  H   UNL     1      -9.443  40.744  -3.319  1.00  0.00     0.293 HD
ENDBRANCH   6  14
TORSDOF 4
ENDMDL
MODEL 9
REMARK VINA RESULT:    -4.904      8.717      9.082
REMARK INTER + INTRA:          -5.887
REMARK INTER:                  -5.763
REMARK INTRA:                  -0.124
REMARK UNBOUND:                -0.123
REMARK SMILES O=C([O-])C=Cc1ccc(O)c(O)c1
REMARK SMILES IDX 6 1 13 2 7 3 11 4 8 5 9 6 5 7 4 8 2 9 1 10 3 11 12 12 10 14
REMARK H PARENT 12 13 10 15
REMARK Flexibility Score: inf
ROOT
ATOM      1  C   UNL     1     -16.064  36.156  -2.648  1.00  0.00    -0.022 A 
ATOM      2  C   UNL     1     -15.954  36.135  -1.243  1.00  0.00     0.058 A 
ATOM      3  C   UNL     1     -17.106  36.890  -3.236  1.00  0.00     0.012 A 
ATOM      4  C   UNL     1     -16.856  36.857  -0.447  1.00  0.00     0.157 A 
ATOM      5  C   UNL     1     -18.004  37.611  -2.443  1.00  0.00     0.051 A 
ATOM      6  C   UNL     1     -17.882  37.600  -1.051  1.00  0.00     0.157 A 
ENDROOT
BRANCH   1   7
ATOM      7  C   UNL     1     -15.143  35.399  -3.532  1.00  0.00     0.010 C 
ATOM      8  C   UNL     1     -14.817  34.114  -3.341  1.00  0.00     0.025 C 
BRANCH   8   9
ATOM      9  C   UNL     1     -13.887  33.406  -4.237  1.00  0.00     0.064 C 
ATOM     10  O   UNL     1     -14.326  32.511  -5.005  1.00  0.00    -0.545 OA
ATOM     11  O   UNL     1     -12.531  33.712  -4.251  1.00  0.00    -0.545 OA
ENDBRANCH   8   9
ENDBRANCH   1   7
BRANCH   4  12
ATOM     12  O   UNL     1     -16.738  36.832   0.942  1.00  0.00    -0.504 OA
ATOM     13  H   UNL     1     -17.344  36.259   1.518  1.00  0.00     0.293 HD
ENDBRANCH   4  12
BRANCH   6  14
ATOM     14  O   UNL     1     -18.791  38.331  -0.286  1.00  0.00    -0.504 OA
ATOM     15  H   UNL     1     -18.794  38.296   0.726  1.00  0.00     0.293 HD
ENDBRANCH   6  14
TORSDOF 4
ENDMDL
