MODEL 1
REMARK VINA RESULT:    10.087      0.000      0.000
REMARK INTER + INTRA:          28.016
REMARK INTER:                  25.418
REMARK INTRA:                   2.599
REMARK UNBOUND:                 2.599
REMARK SMILES CCCCCCCCCCCCCCCCCCCCCCCCCCCC(=O)[O-]
REMARK SMILES IDX 15 1 16 2 17 3 18 4 19 5 20 6 21 7 22 8 23 9 24 10 25 11
REMARK SMILES IDX 26 12 27 13 28 14 29 15 30 16 14 17 13 18 12 19 11 20 10 21
REMARK SMILES IDX 9 22 8 23 7 24 6 25 5 26 4 27 3 28 2 29 1 30
REMARK H PARENT
REMARK Flexibility Score: inf
ROOT
ATOM      1  C   UNL     1      -6.088  36.234  23.102  1.00  0.00     0.000 C 
ENDROOT
BRANCH   1   2
ATOM      2  C   UNL     1      -6.023  34.841  22.440  1.00  0.00     0.000 C 
BRANCH   2   3
ATOM      3  C   UNL     1      -6.073  33.697  23.470  1.00  0.00     0.000 C 
BRANCH   3   4
ATOM      4  C   UNL     1      -6.109  34.210  24.919  1.00  0.00     0.000 C 
BRANCH   4   5
ATOM      5  C   UNL     1      -5.185  35.423  25.134  1.00  0.00     0.000 C 
BRANCH   5   6
ATOM      6  C   UNL     1      -5.888  36.578  25.864  1.00  0.00     0.000 C 
BRANCH   6   7
ATOM      7  C   UNL     1      -4.895  37.542  26.531  1.00  0.00     0.000 C 
BRANCH   7   8
ATOM      8  C   UNL     1      -3.455  37.231  26.101  1.00  0.00     0.000 C 
BRANCH   8   9
ATOM      9  C   UNL     1      -2.568  36.936  27.321  1.00  0.00     0.000 C 
BRANCH   9  10
ATOM     10  C   UNL     1      -2.353  35.431  27.545  1.00  0.00     0.000 C 
BRANCH  10  11
ATOM     11  C   UNL     1      -1.982  35.094  28.998  1.00  0.00     0.000 C 
BRANCH  11  12
ATOM     12  C   UNL     1      -2.283  33.620  29.313  1.00  0.00     0.006 C 
BRANCH  12  13
ATOM     13  C   UNL     1      -1.072  32.892  29.908  1.00  0.00     0.053 C 
BRANCH  13  14
ATOM     14  C   UNL     1       0.194  33.667  29.710  1.00  0.00     0.041 C 
ATOM     15  O   UNL     1       1.149  33.169  29.056  1.00  0.00    -0.550 OA
ATOM     16  O   UNL     1       0.312  34.951  30.227  1.00  0.00    -0.550 OA
ENDBRANCH  13  14
ENDBRANCH  12  13
ENDBRANCH  11  12
ENDBRANCH  10  11
ENDBRANCH   9  10
ENDBRANCH   8   9
ENDBRANCH   7   8
ENDBRANCH   6   7
ENDBRANCH   5   6
ENDBRANCH   4   5
ENDBRANCH   3   4
ENDBRANCH   2   3
ENDBRANCH   1   2
BRANCH   1  17
ATOM     17  C   UNL     1      -5.242  37.309  22.392  1.00  0.00     0.000 C 
BRANCH  17  18
ATOM     18  C   UNL     1      -6.013  38.196  21.401  1.00  0.00     0.000 C 
BRANCH  18  19
ATOM     19  C   UNL     1      -5.709  37.859  19.934  1.00  0.00     0.000 C 
BRANCH  19  20
ATOM     20  C   UNL     1      -5.710  36.340  19.712  1.00  0.00     0.000 C 
BRANCH  20  21
ATOM     21  C   UNL     1      -4.334  35.701  19.960  1.00  0.00     0.000 C 
BRANCH  21  22
ATOM     22  C   UNL     1      -4.199  34.320  19.293  1.00  0.00    -0.000 C 
BRANCH  22  23
ATOM     23  C   UNL     1      -4.807  34.273  17.879  1.00  0.00    -0.000 C 
BRANCH  23  24
ATOM     24  C   UNL     1      -4.322  35.376  16.919  1.00  0.00    -0.000 C 
BRANCH  24  25
ATOM     25  C   UNL     1      -3.027  35.057  16.148  1.00  0.00    -0.000 C 
BRANCH  25  26
ATOM     26  C   UNL     1      -2.721  36.043  15.000  1.00  0.00    -0.000 C 
BRANCH  26  27
ATOM     27  C   UNL     1      -3.792  36.022  13.895  1.00  0.00    -0.000 C 
BRANCH  27  28
ATOM     28  C   UNL     1      -4.751  37.223  13.972  1.00  0.00    -0.000 C 
BRANCH  28  29
ATOM     29  C   UNL     1      -4.039  38.588  13.879  1.00  0.00    -0.003 C 
ATOM     30  C   UNL     1      -4.881  39.722  14.462  1.00  0.00     0.004 C 
ENDBRANCH  28  29
ENDBRANCH  27  28
ENDBRANCH  26  27
ENDBRANCH  25  26
ENDBRANCH  24  25
ENDBRANCH  23  24
ENDBRANCH  22  23
ENDBRANCH  21  22
ENDBRANCH  20  21
ENDBRANCH  19  20
ENDBRANCH  18  19
ENDBRANCH  17  18
ENDBRANCH   1  17
TORSDOF 26
ENDMDL
MODEL 2
REMARK VINA RESULT:    11.005      4.502     11.236
REMARK INTER + INTRA:          30.330
REMARK INTER:                  30.435
REMARK INTRA:                  -0.105
REMARK UNBOUND:                 2.599
REMARK SMILES CCCCCCCCCCCCCCCCCCCCCCCCCCCC(=O)[O-]
REMARK SMILES IDX 15 1 16 2 17 3 18 4 19 5 20 6 21 7 22 8 23 9 24 10 25 11
REMARK SMILES IDX 26 12 27 13 28 14 29 15 30 16 14 17 13 18 12 19 11 20 10 21
REMARK SMILES IDX 9 22 8 23 7 24 6 25 5 26 4 27 3 28 2 29 1 30
REMARK H PARENT
REMARK Flexibility Score: inf
ROOT
ATOM      1  C   UNL     1      -5.326  36.272  24.973  1.00  0.00     0.000 C 
ENDROOT
BRANCH   1   2
ATOM      2  C   UNL     1      -6.075  34.922  24.977  1.00  0.00     0.000 C 
BRANCH   2   3
ATOM      3  C   UNL     1      -6.007  34.207  23.614  1.00  0.00     0.000 C 
BRANCH   3   4
ATOM      4  C   UNL     1      -4.759  34.599  22.805  1.00  0.00     0.000 C 
BRANCH   4   5
ATOM      5  C   UNL     1      -5.107  35.441  21.564  1.00  0.00     0.000 C 
BRANCH   5   6
ATOM      6  C   UNL     1      -5.970  36.666  21.904  1.00  0.00     0.000 C 
BRANCH   6   7
ATOM      7  C   UNL     1      -5.810  37.800  20.880  1.00  0.00     0.000 C 
BRANCH   7   8
ATOM      8  C   UNL     1      -4.713  37.468  19.860  1.00  0.00     0.000 C 
BRANCH   8   9
ATOM      9  C   UNL     1      -5.209  36.438  18.834  1.00  0.00     0.000 C 
BRANCH   9  10
ATOM     10  C   UNL     1      -4.334  35.175  18.793  1.00  0.00     0.000 C 
BRANCH  10  11
ATOM     11  C   UNL     1      -4.347  34.487  17.420  1.00  0.00     0.000 C 
BRANCH  11  12
ATOM     12  C   UNL     1      -3.402  35.199  16.439  1.00  0.00     0.006 C 
BRANCH  12  13
ATOM     13  C   UNL     1      -4.148  35.794  15.239  1.00  0.00     0.053 C 
BRANCH  13  14
ATOM     14  C   UNL     1      -3.280  36.726  14.451  1.00  0.00     0.041 C 
ATOM     15  O   UNL     1      -2.115  36.380  14.119  1.00  0.00    -0.550 OA
ATOM     16  O   UNL     1      -3.766  37.967  14.062  1.00  0.00    -0.550 OA
ENDBRANCH  13  14
ENDBRANCH  12  13
ENDBRANCH  11  12
ENDBRANCH  10  11
ENDBRANCH   9  10
ENDBRANCH   8   9
ENDBRANCH   7   8
ENDBRANCH   6   7
ENDBRANCH   5   6
ENDBRANCH   4   5
ENDBRANCH   3   4
ENDBRANCH   2   3
ENDBRANCH   1   2
BRANCH   1  17
ATOM     17  C   UNL     1      -5.791  37.253  26.067  1.00  0.00     0.000 C 
BRANCH  17  18
ATOM     18  C   UNL     1      -4.661  37.896  26.889  1.00  0.00     0.000 C 
BRANCH  18  19
ATOM     19  C   UNL     1      -3.343  38.007  26.108  1.00  0.00     0.000 C 
BRANCH  19  20
ATOM     20  C   UNL     1      -2.274  37.083  26.710  1.00  0.00     0.000 C 
BRANCH  20  21
ATOM     21  C   UNL     1      -2.857  36.077  27.716  1.00  0.00     0.000 C 
BRANCH  21  22
ATOM     22  C   UNL     1      -1.775  35.456  28.618  1.00  0.00    -0.000 C 
BRANCH  22  23
ATOM     23  C   UNL     1      -2.165  34.066  29.156  1.00  0.00    -0.000 C 
BRANCH  23  24
ATOM     24  C   UNL     1      -0.996  33.216  29.688  1.00  0.00    -0.000 C 
BRANCH  24  25
ATOM     25  C   UNL     1       0.405  33.829  29.499  1.00  0.00    -0.000 C 
BRANCH  25  26
ATOM     26  C   UNL     1       1.552  32.796  29.536  1.00  0.00    -0.000 C 
BRANCH  26  27
ATOM     27  C   UNL     1       2.944  33.449  29.481  1.00  0.00    -0.000 C 
BRANCH  27  28
ATOM     28  C   UNL     1       2.994  34.670  28.547  1.00  0.00    -0.000 C 
BRANCH  28  29
ATOM     29  C   UNL     1       4.424  35.174  28.265  1.00  0.00    -0.003 C 
ATOM     30  C   UNL     1       4.732  35.239  26.770  1.00  0.00     0.004 C 
ENDBRANCH  28  29
ENDBRANCH  27  28
ENDBRANCH  26  27
ENDBRANCH  25  26
ENDBRANCH  24  25
ENDBRANCH  23  24
ENDBRANCH  22  23
ENDBRANCH  21  22
ENDBRANCH  20  21
ENDBRANCH  19  20
ENDBRANCH  18  19
ENDBRANCH  17  18
ENDBRANCH   1  17
TORSDOF 26
ENDMDL
MODEL 3
REMARK VINA RESULT:    11.180      1.308      2.902
REMARK INTER + INTRA:          30.772
REMARK INTER:                  28.275
REMARK INTRA:                   2.497
REMARK UNBOUND:                 2.599
REMARK SMILES CCCCCCCCCCCCCCCCCCCCCCCCCCCC(=O)[O-]
REMARK SMILES IDX 15 1 16 2 17 3 18 4 19 5 20 6 21 7 22 8 23 9 24 10 25 11
REMARK SMILES IDX 26 12 27 13 28 14 29 15 30 16 14 17 13 18 12 19 11 20 10 21
REMARK SMILES IDX 9 22 8 23 7 24 6 25 5 26 4 27 3 28 2 29 1 30
REMARK H PARENT
REMARK Flexibility Score: inf
ROOT
ATOM      1  C   UNL     1      -6.106  34.148  24.345  1.00  0.00     0.000 C 
ENDROOT
BRANCH   1   2
ATOM      2  C   UNL     1      -6.078  35.276  25.400  1.00  0.00     0.000 C 
BRANCH   2   3
ATOM      3  C   UNL     1      -6.124  36.678  24.764  1.00  0.00     0.000 C 
BRANCH   3   4
ATOM      4  C   UNL     1      -4.926  37.550  25.175  1.00  0.00     0.000 C 
BRANCH   4   5
ATOM      5  C   UNL     1      -4.006  36.843  26.187  1.00  0.00     0.000 C 
BRANCH   5   6
ATOM      6  C   UNL     1      -2.700  37.614  26.437  1.00  0.00     0.000 C 
BRANCH   6   7
ATOM      7  C   UNL     1      -2.008  37.189  27.741  1.00  0.00     0.000 C 
BRANCH   7   8
ATOM      8  C   UNL     1      -2.521  35.822  28.216  1.00  0.00     0.000 C 
BRANCH   8   9
ATOM      9  C   UNL     1      -1.373  34.967  28.774  1.00  0.00     0.000 C 
BRANCH   9  10
ATOM     10  C   UNL     1      -1.873  33.791  29.627  1.00  0.00     0.000 C 
BRANCH  10  11
ATOM     11  C   UNL     1      -0.775  32.754  29.911  1.00  0.00     0.000 C 
BRANCH  11  12
ATOM     12  C   UNL     1       0.619  33.395  29.831  1.00  0.00     0.006 C 
BRANCH  12  13
ATOM     13  C   UNL     1       1.696  32.395  29.391  1.00  0.00     0.053 C 
BRANCH  13  14
ATOM     14  C   UNL     1       3.036  32.733  29.967  1.00  0.00     0.041 C 
ATOM     15  O   UNL     1       3.461  33.918  29.934  1.00  0.00    -0.550 OA
ATOM     16  O   UNL     1       3.806  31.743  30.563  1.00  0.00    -0.550 OA
ENDBRANCH  13  14
ENDBRANCH  12  13
ENDBRANCH  11  12
ENDBRANCH  10  11
ENDBRANCH   9  10
ENDBRANCH   8   9
ENDBRANCH   7   8
ENDBRANCH   6   7
ENDBRANCH   5   6
ENDBRANCH   4   5
ENDBRANCH   3   4
ENDBRANCH   2   3
ENDBRANCH   1   2
BRANCH   1  17
ATOM     17  C   UNL     1      -5.292  34.455  23.074  1.00  0.00     0.000 C 
BRANCH  17  18
ATOM     18  C   UNL     1      -6.029  35.290  22.013  1.00  0.00     0.000 C 
BRANCH  18  19
ATOM     19  C   UNL     1      -5.102  36.262  21.267  1.00  0.00     0.000 C 
BRANCH  19  20
ATOM     20  C   UNL     1      -5.133  37.652  21.920  1.00  0.00     0.000 C 
BRANCH  20  21
ATOM     21  C   UNL     1      -5.390  38.779  20.907  1.00  0.00     0.000 C 
BRANCH  21  22
ATOM     22  C   UNL     1      -5.636  38.244  19.484  1.00  0.00    -0.000 C 
BRANCH  22  23
ATOM     23  C   UNL     1      -5.551  36.709  19.395  1.00  0.00    -0.000 C 
BRANCH  23  24
ATOM     24  C   UNL     1      -4.507  36.166  18.402  1.00  0.00    -0.000 C 
BRANCH  24  25
ATOM     25  C   UNL     1      -4.647  34.673  18.048  1.00  0.00    -0.000 C 
BRANCH  25  26
ATOM     26  C   UNL     1      -3.746  34.217  16.880  1.00  0.00    -0.000 C 
BRANCH  26  27
ATOM     27  C   UNL     1      -2.867  35.352  16.327  1.00  0.00    -0.000 C 
BRANCH  27  28
ATOM     28  C   UNL     1      -3.311  35.824  14.931  1.00  0.00    -0.000 C 
BRANCH  28  29
ATOM     29  C   UNL     1      -4.296  37.010  14.964  1.00  0.00    -0.003 C 
ATOM     30  C   UNL     1      -3.895  38.124  13.998  1.00  0.00     0.004 C 
ENDBRANCH  28  29
ENDBRANCH  27  28
ENDBRANCH  26  27
ENDBRANCH  25  26
ENDBRANCH  24  25
ENDBRANCH  23  24
ENDBRANCH  22  23
ENDBRANCH  21  22
ENDBRANCH  20  21
ENDBRANCH  19  20
ENDBRANCH  18  19
ENDBRANCH  17  18
ENDBRANCH   1  17
TORSDOF 26
ENDMDL
MODEL 4
REMARK VINA RESULT:    11.336      2.554      4.749
REMARK INTER + INTRA:          31.166
REMARK INTER:                  32.303
REMARK INTRA:                  -1.137
REMARK UNBOUND:                 2.599
REMARK SMILES CCCCCCCCCCCCCCCCCCCCCCCCCCCC(=O)[O-]
REMARK SMILES IDX 15 1 16 2 17 3 18 4 19 5 20 6 21 7 22 8 23 9 24 10 25 11
REMARK SMILES IDX 26 12 27 13 28 14 29 15 30 16 14 17 13 18 12 19 11 20 10 21
REMARK SMILES IDX 9 22 8 23 7 24 6 25 5 26 4 27 3 28 2 29 1 30
REMARK H PARENT
REMARK Flexibility Score: inf
ROOT
ATOM      1  C   UNL     1      -4.614  36.182  25.376  1.00  0.00     0.000 C 
ENDROOT
BRANCH   1   2
ATOM      2  C   UNL     1      -4.182  37.383  26.245  1.00  0.00     0.000 C 
BRANCH   2   3
ATOM      3  C   UNL     1      -2.697  37.312  26.651  1.00  0.00     0.000 C 
BRANCH   3   4
ATOM      4  C   UNL     1      -2.495  36.660  28.029  1.00  0.00     0.000 C 
BRANCH   4   5
ATOM      5  C   UNL     1      -1.670  35.363  27.948  1.00  0.00     0.000 C 
BRANCH   5   6
ATOM      6  C   UNL     1      -2.129  34.307  28.965  1.00  0.00     0.000 C 
BRANCH   6   7
ATOM      7  C   UNL     1      -1.132  34.131  30.120  1.00  0.00     0.000 C 
BRANCH   7   8
ATOM      8  C   UNL     1      -0.113  33.028  29.803  1.00  0.00     0.000 C 
BRANCH   8   9
ATOM      9  C   UNL     1       1.012  33.560  28.901  1.00  0.00     0.000 C 
BRANCH   9  10
ATOM     10  C   UNL     1       2.411  33.248  29.455  1.00  0.00     0.000 C 
BRANCH  10  11
ATOM     11  C   UNL     1       3.365  34.449  29.369  1.00  0.00     0.000 C 
BRANCH  11  12
ATOM     12  C   UNL     1       3.549  34.900  27.912  1.00  0.00     0.006 C 
BRANCH  12  13
ATOM     13  C   UNL     1       4.895  35.599  27.684  1.00  0.00     0.053 C 
BRANCH  13  14
ATOM     14  C   UNL     1       4.717  37.034  27.296  1.00  0.00     0.041 C 
ATOM     15  O   UNL     1       3.686  37.401  26.671  1.00  0.00    -0.550 OA
ATOM     16  O   UNL     1       5.678  37.974  27.647  1.00  0.00    -0.550 OA
ENDBRANCH  13  14
ENDBRANCH  12  13
ENDBRANCH  11  12
ENDBRANCH  10  11
ENDBRANCH   9  10
ENDBRANCH   8   9
ENDBRANCH   7   8
ENDBRANCH   6   7
ENDBRANCH   5   6
ENDBRANCH   4   5
ENDBRANCH   3   4
ENDBRANCH   2   3
ENDBRANCH   1   2
BRANCH   1  17
ATOM     17  C   UNL     1      -5.988  36.357  24.699  1.00  0.00     0.000 C 
BRANCH  17  18
ATOM     18  C   UNL     1      -5.986  37.234  23.437  1.00  0.00     0.000 C 
BRANCH  18  19
ATOM     19  C   UNL     1      -5.722  38.717  23.739  1.00  0.00     0.000 C 
BRANCH  19  20
ATOM     20  C   UNL     1      -5.119  39.423  22.516  1.00  0.00     0.000 C 
BRANCH  20  21
ATOM     21  C   UNL     1      -5.861  39.089  21.211  1.00  0.00     0.000 C 
BRANCH  21  22
ATOM     22  C   UNL     1      -4.980  38.308  20.219  1.00  0.00    -0.000 C 
BRANCH  22  23
ATOM     23  C   UNL     1      -5.572  36.937  19.839  1.00  0.00    -0.000 C 
BRANCH  23  24
ATOM     24  C   UNL     1      -4.538  35.841  19.519  1.00  0.00    -0.000 C 
BRANCH  24  25
ATOM     25  C   UNL     1      -5.123  34.509  19.014  1.00  0.00    -0.000 C 
BRANCH  25  26
ATOM     26  C   UNL     1      -4.678  34.129  17.586  1.00  0.00    -0.000 C 
BRANCH  26  27
ATOM     27  C   UNL     1      -4.218  35.343  16.761  1.00  0.00    -0.000 C 
BRANCH  27  28
ATOM     28  C   UNL     1      -2.801  35.173  16.188  1.00  0.00    -0.000 C 
BRANCH  28  29
ATOM     29  C   UNL     1      -2.604  35.851  14.817  1.00  0.00    -0.003 C 
ATOM     30  C   UNL     1      -3.868  36.562  14.334  1.00  0.00     0.004 C 
ENDBRANCH  28  29
ENDBRANCH  27  28
ENDBRANCH  26  27
ENDBRANCH  25  26
ENDBRANCH  24  25
ENDBRANCH  23  24
ENDBRANCH  22  23
ENDBRANCH  21  22
ENDBRANCH  20  21
ENDBRANCH  19  20
ENDBRANCH  18  19
ENDBRANCH  17  18
ENDBRANCH   1  17
TORSDOF 26
ENDMDL
MODEL 5
REMARK VINA RESULT:    11.559      4.316     10.878
REMARK INTER + INTRA:          31.728
REMARK INTER:                  33.236
REMARK INTRA:                  -1.508
REMARK UNBOUND:                 2.599
REMARK SMILES CCCCCCCCCCCCCCCCCCCCCCCCCCCC(=O)[O-]
REMARK SMILES IDX 15 1 16 2 17 3 18 4 19 5 20 6 21 7 22 8 23 9 24 10 25 11
REMARK SMILES IDX 26 12 27 13 28 14 29 15 30 16 14 17 13 18 12 19 11 20 10 21
REMARK SMILES IDX 9 22 8 23 7 24 6 25 5 26 4 27 3 28 2 29 1 30
REMARK H PARENT
REMARK Flexibility Score: inf
ROOT
ATOM      1  C   UNL     1      -4.760  37.207  25.049  1.00  0.00     0.000 C 
ENDROOT
BRANCH   1   2
ATOM      2  C   UNL     1      -6.120  36.476  25.050  1.00  0.00     0.000 C 
BRANCH   2   3
ATOM      3  C   UNL     1      -5.966  34.947  25.160  1.00  0.00     0.000 C 
BRANCH   3   4
ATOM      4  C   UNL     1      -6.125  34.240  23.803  1.00  0.00     0.000 C 
BRANCH   4   5
ATOM      5  C   UNL     1      -4.770  33.944  23.135  1.00  0.00     0.000 C 
BRANCH   5   6
ATOM      6  C   UNL     1      -4.516  34.823  21.900  1.00  0.00     0.000 C 
BRANCH   6   7
ATOM      7  C   UNL     1      -5.705  35.742  21.579  1.00  0.00     0.000 C 
BRANCH   7   8
ATOM      8  C   UNL     1      -5.292  37.218  21.648  1.00  0.00     0.000 C 
BRANCH   8   9
ATOM      9  C   UNL     1      -5.622  37.944  20.335  1.00  0.00     0.000 C 
BRANCH   9  10
ATOM     10  C   UNL     1      -4.747  37.473  19.163  1.00  0.00     0.000 C 
BRANCH  10  11
ATOM     11  C   UNL     1      -5.276  36.190  18.504  1.00  0.00     0.000 C 
BRANCH  11  12
ATOM     12  C   UNL     1      -4.189  35.105  18.464  1.00  0.00     0.006 C 
BRANCH  12  13
ATOM     13  C   UNL     1      -4.116  34.403  17.103  1.00  0.00     0.053 C 
BRANCH  13  14
ATOM     14  C   UNL     1      -3.272  35.165  16.129  1.00  0.00     0.041 C 
ATOM     15  O   UNL     1      -3.811  35.823  15.200  1.00  0.00    -0.550 OA
ATOM     16  O   UNL     1      -1.889  35.170  16.262  1.00  0.00    -0.550 OA
ENDBRANCH  13  14
ENDBRANCH  12  13
ENDBRANCH  11  12
ENDBRANCH  10  11
ENDBRANCH   9  10
ENDBRANCH   8   9
ENDBRANCH   7   8
ENDBRANCH   6   7
ENDBRANCH   5   6
ENDBRANCH   4   5
ENDBRANCH   3   4
ENDBRANCH   2   3
ENDBRANCH   1   2
BRANCH   1  17
ATOM     17  C   UNL     1      -4.239  37.569  26.453  1.00  0.00     0.000 C 
BRANCH  17  18
ATOM     18  C   UNL     1      -2.709  37.564  26.602  1.00  0.00     0.000 C 
BRANCH  18  19
ATOM     19  C   UNL     1      -2.247  37.198  28.021  1.00  0.00     0.000 C 
BRANCH  19  20
ATOM     20  C   UNL     1      -1.341  35.958  27.996  1.00  0.00     0.000 C 
BRANCH  20  21
ATOM     21  C   UNL     1      -2.106  34.658  28.293  1.00  0.00     0.000 C 
BRANCH  21  22
ATOM     22  C   UNL     1      -1.600  33.956  29.567  1.00  0.00    -0.000 C 
BRANCH  22  23
ATOM     23  C   UNL     1      -0.106  34.208  29.839  1.00  0.00    -0.000 C 
BRANCH  23  24
ATOM     24  C   UNL     1       0.867  33.414  28.947  1.00  0.00    -0.000 C 
BRANCH  24  25
ATOM     25  C   UNL     1       2.219  33.060  29.596  1.00  0.00    -0.000 C 
BRANCH  25  26
ATOM     26  C   UNL     1       3.224  34.232  29.632  1.00  0.00    -0.000 C 
BRANCH  26  27
ATOM     27  C   UNL     1       3.998  34.394  28.314  1.00  0.00    -0.000 C 
BRANCH  27  28
ATOM     28  C   UNL     1       3.712  35.734  27.614  1.00  0.00    -0.000 C 
BRANCH  28  29
ATOM     29  C   UNL     1       4.865  36.752  27.732  1.00  0.00    -0.003 C 
ATOM     30  C   UNL     1       4.830  37.800  26.621  1.00  0.00     0.004 C 
ENDBRANCH  28  29
ENDBRANCH  27  28
ENDBRANCH  26  27
ENDBRANCH  25  26
ENDBRANCH  24  25
ENDBRANCH  23  24
ENDBRANCH  22  23
ENDBRANCH  21  22
ENDBRANCH  20  21
ENDBRANCH  19  20
ENDBRANCH  18  19
ENDBRANCH  17  18
ENDBRANCH   1  17
TORSDOF 26
ENDMDL
MODEL 6
REMARK VINA RESULT:    11.636      4.577     11.818
REMARK INTER + INTRA:          31.922
REMARK INTER:                  32.271
REMARK INTRA:                  -0.349
REMARK UNBOUND:                 2.599
REMARK SMILES CCCCCCCCCCCCCCCCCCCCCCCCCCCC(=O)[O-]
REMARK SMILES IDX 15 1 16 2 17 3 18 4 19 5 20 6 21 7 22 8 23 9 24 10 25 11
REMARK SMILES IDX 26 12 27 13 28 14 29 15 30 16 14 17 13 18 12 19 11 20 10 21
REMARK SMILES IDX 9 22 8 23 7 24 6 25 5 26 4 27 3 28 2 29 1 30
REMARK H PARENT
REMARK Flexibility Score: inf
ROOT
ATOM      1  C   UNL     1      -5.807  35.165  24.321  1.00  0.00     0.000 C 
ENDROOT
BRANCH   1   2
ATOM      2  C   UNL     1      -5.560  35.391  22.814  1.00  0.00     0.000 C 
BRANCH   2   3
ATOM      3  C   UNL     1      -6.065  36.765  22.334  1.00  0.00     0.000 C 
BRANCH   3   4
ATOM      4  C   UNL     1      -4.965  37.587  21.641  1.00  0.00     0.000 C 
BRANCH   4   5
ATOM      5  C   UNL     1      -5.474  38.297  20.374  1.00  0.00     0.000 C 
BRANCH   5   6
ATOM      6  C   UNL     1      -5.767  37.318  19.226  1.00  0.00     0.000 C 
BRANCH   6   7
ATOM      7  C   UNL     1      -4.549  36.455  18.865  1.00  0.00     0.000 C 
BRANCH   7   8
ATOM      8  C   UNL     1      -4.896  34.961  18.929  1.00  0.00     0.000 C 
BRANCH   8   9
ATOM      9  C   UNL     1      -4.306  34.207  17.727  1.00  0.00     0.000 C 
BRANCH   9  10
ATOM     10  C   UNL     1      -3.948  35.141  16.561  1.00  0.00     0.000 C 
BRANCH  10  11
ATOM     11  C   UNL     1      -2.437  35.205  16.293  1.00  0.00     0.000 C 
BRANCH  11  12
ATOM     12  C   UNL     1      -2.134  36.068  15.057  1.00  0.00     0.006 C 
BRANCH  12  13
ATOM     13  C   UNL     1      -3.305  36.098  14.068  1.00  0.00     0.053 C 
BRANCH  13  14
ATOM     14  C   UNL     1      -4.125  37.342  14.216  1.00  0.00     0.041 C 
ATOM     15  O   UNL     1      -3.595  38.409  14.626  1.00  0.00    -0.550 OA
ATOM     16  O   UNL     1      -5.472  37.331  13.878  1.00  0.00    -0.550 OA
ENDBRANCH  13  14
ENDBRANCH  12  13
ENDBRANCH  11  12
ENDBRANCH  10  11
ENDBRANCH   9  10
ENDBRANCH   8   9
ENDBRANCH   7   8
ENDBRANCH   6   7
ENDBRANCH   5   6
ENDBRANCH   4   5
ENDBRANCH   3   4
ENDBRANCH   2   3
ENDBRANCH   1   2
BRANCH   1  17
ATOM     17  C   UNL     1      -5.889  36.463  25.147  1.00  0.00     0.000 C 
BRANCH  17  18
ATOM     18  C   UNL     1      -4.907  37.568  24.724  1.00  0.00     0.000 C 
BRANCH  18  19
ATOM     19  C   UNL     1      -4.012  38.046  25.878  1.00  0.00     0.000 C 
BRANCH  19  20
ATOM     20  C   UNL     1      -3.723  36.898  26.855  1.00  0.00     0.000 C 
BRANCH  20  21
ATOM     21  C   UNL     1      -2.224  36.738  27.157  1.00  0.00     0.000 C 
BRANCH  21  22
ATOM     22  C   UNL     1      -1.967  36.049  28.510  1.00  0.00    -0.000 C 
BRANCH  22  23
ATOM     23  C   UNL     1      -2.446  34.586  28.540  1.00  0.00    -0.000 C 
BRANCH  23  24
ATOM     24  C   UNL     1      -1.633  33.647  29.451  1.00  0.00    -0.000 C 
BRANCH  24  25
ATOM     25  C   UNL     1      -0.174  34.073  29.703  1.00  0.00    -0.000 C 
BRANCH  25  26
ATOM     26  C   UNL     1       0.863  33.271  28.887  1.00  0.00    -0.000 C 
BRANCH  26  27
ATOM     27  C   UNL     1       2.093  32.868  29.719  1.00  0.00    -0.000 C 
BRANCH  27  28
ATOM     28  C   UNL     1       3.104  34.016  29.885  1.00  0.00    -0.000 C 
BRANCH  28  29
ATOM     29  C   UNL     1       4.217  34.017  28.817  1.00  0.00    -0.003 C 
ATOM     30  C   UNL     1       5.614  33.948  29.435  1.00  0.00     0.004 C 
ENDBRANCH  28  29
ENDBRANCH  27  28
ENDBRANCH  26  27
ENDBRANCH  25  26
ENDBRANCH  24  25
ENDBRANCH  23  24
ENDBRANCH  22  23
ENDBRANCH  21  22
ENDBRANCH  20  21
ENDBRANCH  19  20
ENDBRANCH  18  19
ENDBRANCH  17  18
ENDBRANCH   1  17
TORSDOF 26
ENDMDL
MODEL 7
REMARK VINA RESULT:    11.781      5.162     11.798
REMARK INTER + INTRA:          32.286
REMARK INTER:                  33.614
REMARK INTRA:                  -1.328
REMARK UNBOUND:                 2.599
REMARK SMILES CCCCCCCCCCCCCCCCCCCCCCCCCCCC(=O)[O-]
REMARK SMILES IDX 15 1 16 2 17 3 18 4 19 5 20 6 21 7 22 8 23 9 24 10 25 11
REMARK SMILES IDX 26 12 27 13 28 14 29 15 30 16 14 17 13 18 12 19 11 20 10 21
REMARK SMILES IDX 9 22 8 23 7 24 6 25 5 26 4 27 3 28 2 29 1 30
REMARK H PARENT
REMARK Flexibility Score: inf
ROOT
ATOM      1  C   UNL     1      -3.018  37.125  26.541  1.00  0.00     0.000 C 
ENDROOT
BRANCH   1   2
ATOM      2  C   UNL     1      -4.267  37.598  25.766  1.00  0.00     0.000 C 
BRANCH   2   3
ATOM      3  C   UNL     1      -5.229  36.442  25.438  1.00  0.00     0.000 C 
BRANCH   3   4
ATOM      4  C   UNL     1      -5.541  36.344  23.935  1.00  0.00     0.000 C 
BRANCH   4   5
ATOM      5  C   UNL     1      -5.079  35.007  23.326  1.00  0.00     0.000 C 
BRANCH   5   6
ATOM      6  C   UNL     1      -4.692  35.135  21.845  1.00  0.00     0.000 C 
BRANCH   6   7
ATOM      7  C   UNL     1      -5.447  36.271  21.136  1.00  0.00     0.000 C 
BRANCH   7   8
ATOM      8  C   UNL     1      -5.097  36.316  19.643  1.00  0.00     0.000 C 
BRANCH   8   9
ATOM      9  C   UNL     1      -4.699  34.924  19.129  1.00  0.00     0.000 C 
BRANCH   9  10
ATOM     10  C   UNL     1      -4.773  34.816  17.598  1.00  0.00     0.000 C 
BRANCH  10  11
ATOM     11  C   UNL     1      -3.990  35.929  16.885  1.00  0.00     0.000 C 
BRANCH  11  12
ATOM     12  C   UNL     1      -2.963  35.337  15.906  1.00  0.00     0.006 C 
BRANCH  12  13
ATOM     13  C   UNL     1      -2.712  36.252  14.702  1.00  0.00     0.053 C 
BRANCH  13  14
ATOM     14  C   UNL     1      -3.947  36.999  14.304  1.00  0.00     0.041 C 
ATOM     15  O   UNL     1      -4.968  36.374  13.910  1.00  0.00    -0.550 OA
ATOM     16  O   UNL     1      -3.981  38.384  14.391  1.00  0.00    -0.550 OA
ENDBRANCH  13  14
ENDBRANCH  12  13
ENDBRANCH  11  12
ENDBRANCH  10  11
ENDBRANCH   9  10
ENDBRANCH   8   9
ENDBRANCH   7   8
ENDBRANCH   6   7
ENDBRANCH   5   6
ENDBRANCH   4   5
ENDBRANCH   3   4
ENDBRANCH   2   3
ENDBRANCH   1   2
BRANCH   1  17
ATOM     17  C   UNL     1      -3.247  35.860  27.392  1.00  0.00     0.000 C 
BRANCH  17  18
ATOM     18  C   UNL     1      -2.018  35.370  28.175  1.00  0.00     0.000 C 
BRANCH  18  19
ATOM     19  C   UNL     1      -2.323  34.161  29.071  1.00  0.00     0.000 C 
BRANCH  19  20
ATOM     20  C   UNL     1      -1.180  33.918  30.067  1.00  0.00     0.000 C 
BRANCH  20  21
ATOM     21  C   UNL     1       0.191  34.338  29.512  1.00  0.00     0.000 C 
BRANCH  21  22
ATOM     22  C   UNL     1       0.994  33.144  28.966  1.00  0.00    -0.000 C 
BRANCH  22  23
ATOM     23  C   UNL     1       2.276  32.861  29.772  1.00  0.00    -0.000 C 
BRANCH  23  24
ATOM     24  C   UNL     1       3.190  34.080  30.000  1.00  0.00    -0.000 C 
BRANCH  24  25
ATOM     25  C   UNL     1       4.258  34.317  28.916  1.00  0.00    -0.000 C 
BRANCH  25  26
ATOM     26  C   UNL     1       3.717  35.000  27.641  1.00  0.00    -0.000 C 
BRANCH  26  27
ATOM     27  C   UNL     1       4.769  35.881  26.945  1.00  0.00    -0.000 C 
BRANCH  27  28
ATOM     28  C   UNL     1       5.073  37.174  27.723  1.00  0.00    -0.000 C 
BRANCH  28  29
ATOM     29  C   UNL     1       4.396  38.425  27.128  1.00  0.00    -0.003 C 
ATOM     30  C   UNL     1       5.185  39.011  25.957  1.00  0.00     0.004 C 
ENDBRANCH  28  29
ENDBRANCH  27  28
ENDBRANCH  26  27
ENDBRANCH  25  26
ENDBRANCH  24  25
ENDBRANCH  23  24
ENDBRANCH  22  23
ENDBRANCH  21  22
ENDBRANCH  20  21
ENDBRANCH  19  20
ENDBRANCH  18  19
ENDBRANCH  17  18
ENDBRANCH   1  17
TORSDOF 26
ENDMDL
MODEL 8
REMARK VINA RESULT:    12.062      4.736     11.656
REMARK INTER + INTRA:          32.994
REMARK INTER:                  34.346
REMARK INTRA:                  -1.352
REMARK UNBOUND:                 2.599
REMARK SMILES CCCCCCCCCCCCCCCCCCCCCCCCCCCC(=O)[O-]
REMARK SMILES IDX 15 1 16 2 17 3 18 4 19 5 20 6 21 7 22 8 23 9 24 10 25 11
REMARK SMILES IDX 26 12 27 13 28 14 29 15 30 16 14 17 13 18 12 19 11 20 10 21
REMARK SMILES IDX 9 22 8 23 7 24 6 25 5 26 4 27 3 28 2 29 1 30
REMARK H PARENT
REMARK Flexibility Score: inf
ROOT
ATOM      1  C   UNL     1      -5.387  36.424  25.857  1.00  0.00     0.000 C 
ENDROOT
BRANCH   1   2
ATOM      2  C   UNL     1      -5.950  36.215  24.435  1.00  0.00     0.000 C 
BRANCH   2   3
ATOM      3  C   UNL     1      -5.897  34.740  23.992  1.00  0.00     0.000 C 
BRANCH   3   4
ATOM      4  C   UNL     1      -6.019  34.579  22.467  1.00  0.00     0.000 C 
BRANCH   4   5
ATOM      5  C   UNL     1      -4.997  35.440  21.703  1.00  0.00     0.000 C 
BRANCH   5   6
ATOM      6  C   UNL     1      -5.664  36.546  20.869  1.00  0.00     0.000 C 
BRANCH   6   7
ATOM      7  C   UNL     1      -5.642  36.240  19.364  1.00  0.00     0.000 C 
BRANCH   7   8
ATOM      8  C   UNL     1      -4.258  35.743  18.924  1.00  0.00     0.000 C 
BRANCH   8   9
ATOM      9  C   UNL     1      -4.381  34.630  17.871  1.00  0.00     0.000 C 
BRANCH   9  10
ATOM     10  C   UNL     1      -4.013  35.109  16.459  1.00  0.00     0.000 C 
BRANCH  10  11
ATOM     11  C   UNL     1      -2.499  35.296  16.270  1.00  0.00     0.000 C 
BRANCH  11  12
ATOM     12  C   UNL     1      -2.182  35.822  14.862  1.00  0.00     0.006 C 
BRANCH  12  13
ATOM     13  C   UNL     1      -3.432  35.910  13.978  1.00  0.00     0.053 C 
BRANCH  13  14
ATOM     14  C   UNL     1      -4.145  37.215  14.151  1.00  0.00     0.041 C 
ATOM     15  O   UNL     1      -5.371  37.312  13.876  1.00  0.00    -0.550 OA
ATOM     16  O   UNL     1      -3.461  38.321  14.639  1.00  0.00    -0.550 OA
ENDBRANCH  13  14
ENDBRANCH  12  13
ENDBRANCH  11  12
ENDBRANCH  10  11
ENDBRANCH   9  10
ENDBRANCH   8   9
ENDBRANCH   7   8
ENDBRANCH   6   7
ENDBRANCH   5   6
ENDBRANCH   4   5
ENDBRANCH   3   4
ENDBRANCH   2   3
ENDBRANCH   1   2
BRANCH   1  17
ATOM     17  C   UNL     1      -4.599  37.737  26.035  1.00  0.00     0.000 C 
BRANCH  17  18
ATOM     18  C   UNL     1      -3.207  37.581  26.668  1.00  0.00     0.000 C 
BRANCH  18  19
ATOM     19  C   UNL     1      -2.564  36.218  26.371  1.00  0.00     0.000 C 
BRANCH  19  20
ATOM     20  C   UNL     1      -1.462  35.901  27.393  1.00  0.00     0.000 C 
BRANCH  20  21
ATOM     21  C   UNL     1      -2.019  35.604  28.795  1.00  0.00     0.000 C 
BRANCH  21  22
ATOM     22  C   UNL     1      -2.303  34.105  29.008  1.00  0.00    -0.000 C 
BRANCH  22  23
ATOM     23  C   UNL     1      -1.316  33.439  29.985  1.00  0.00    -0.000 C 
BRANCH  23  24
ATOM     24  C   UNL     1      -0.086  32.783  29.330  1.00  0.00    -0.000 C 
BRANCH  24  25
ATOM     25  C   UNL     1       1.274  33.391  29.723  1.00  0.00    -0.000 C 
BRANCH  25  26
ATOM     26  C   UNL     1       2.024  34.061  28.552  1.00  0.00    -0.000 C 
BRANCH  26  27
ATOM     27  C   UNL     1       3.220  34.909  29.017  1.00  0.00    -0.000 C 
BRANCH  27  28
ATOM     28  C   UNL     1       4.450  34.757  28.105  1.00  0.00    -0.000 C 
BRANCH  28  29
ATOM     29  C   UNL     1       4.466  35.744  26.920  1.00  0.00    -0.003 C 
ATOM     30  C   UNL     1       5.225  37.030  27.245  1.00  0.00     0.004 C 
ENDBRANCH  28  29
ENDBRANCH  27  28
ENDBRANCH  26  27
ENDBRANCH  25  26
ENDBRANCH  24  25
ENDBRANCH  23  24
ENDBRANCH  22  23
ENDBRANCH  21  22
ENDBRANCH  20  21
ENDBRANCH  19  20
ENDBRANCH  18  19
ENDBRANCH  17  18
ENDBRANCH   1  17
TORSDOF 26
ENDMDL
MODEL 9
REMARK VINA RESULT:    12.432      1.890      3.938
REMARK INTER + INTRA:          33.927
REMARK INTER:                  35.815
REMARK INTRA:                  -1.888
REMARK UNBOUND:                 2.599
REMARK SMILES CCCCCCCCCCCCCCCCCCCCCCCCCCCC(=O)[O-]
REMARK SMILES IDX 15 1 16 2 17 3 18 4 19 5 20 6 21 7 22 8 23 9 24 10 25 11
REMARK SMILES IDX 26 12 27 13 28 14 29 15 30 16 14 17 13 18 12 19 11 20 10 21
REMARK SMILES IDX 9 22 8 23 7 24 6 25 5 26 4 27 3 28 2 29 1 30
REMARK H PARENT
REMARK Flexibility Score: inf
ROOT
ATOM      1  C   UNL     1      -6.123  36.790  24.799  1.00  0.00     0.000 C 
ENDROOT
BRANCH   1   2
ATOM      2  C   UNL     1      -5.267  37.246  25.999  1.00  0.00     0.000 C 
BRANCH   2   3
ATOM      3  C   UNL     1      -3.875  36.586  26.015  1.00  0.00     0.000 C 
BRANCH   3   4
ATOM      4  C   UNL     1      -2.772  37.550  26.483  1.00  0.00     0.000 C 
BRANCH   4   5
ATOM      5  C   UNL     1      -2.177  37.143  27.844  1.00  0.00     0.000 C 
BRANCH   5   6
ATOM      6  C   UNL     1      -1.595  35.721  27.831  1.00  0.00     0.000 C 
BRANCH   6   7
ATOM      7  C   UNL     1      -2.297  34.790  28.832  1.00  0.00     0.000 C 
BRANCH   7   8
ATOM      8  C   UNL     1      -1.304  34.249  29.869  1.00  0.00     0.000 C 
BRANCH   8   9
ATOM      9  C   UNL     1      -0.956  32.779  29.584  1.00  0.00     0.000 C 
BRANCH   9  10
ATOM     10  C   UNL     1       0.524  32.581  29.224  1.00  0.00     0.000 C 
BRANCH  10  11
ATOM     11  C   UNL     1       1.443  33.612  29.898  1.00  0.00     0.000 C 
BRANCH  11  12
ATOM     12  C   UNL     1       2.785  33.718  29.158  1.00  0.00     0.006 C 
BRANCH  12  13
ATOM     13  C   UNL     1       3.980  33.745  30.118  1.00  0.00     0.053 C 
BRANCH  13  14
ATOM     14  C   UNL     1       3.960  32.583  31.063  1.00  0.00     0.041 C 
ATOM     15  O   UNL     1       4.160  32.762  32.294  1.00  0.00    -0.550 OA
ATOM     16  O   UNL     1       3.695  31.305  30.588  1.00  0.00    -0.550 OA
ENDBRANCH  13  14
ENDBRANCH  12  13
ENDBRANCH  11  12
ENDBRANCH  10  11
ENDBRANCH   9  10
ENDBRANCH   8   9
ENDBRANCH   7   8
ENDBRANCH   6   7
ENDBRANCH   5   6
ENDBRANCH   4   5
ENDBRANCH   3   4
ENDBRANCH   2   3
ENDBRANCH   1   2
BRANCH   1  17
ATOM     17  C   UNL     1      -5.830  37.550  23.491  1.00  0.00     0.000 C 
BRANCH  17  18
ATOM     18  C   UNL     1      -5.408  39.017  23.670  1.00  0.00     0.000 C 
BRANCH  18  19
ATOM     19  C   UNL     1      -5.101  39.719  22.338  1.00  0.00     0.000 C 
BRANCH  19  20
ATOM     20  C   UNL     1      -5.902  39.085  21.192  1.00  0.00     0.000 C 
BRANCH  20  21
ATOM     21  C   UNL     1      -5.015  38.314  20.202  1.00  0.00     0.000 C 
BRANCH  21  22
ATOM     22  C   UNL     1      -5.592  36.930  19.851  1.00  0.00    -0.000 C 
BRANCH  22  23
ATOM     23  C   UNL     1      -4.971  35.792  20.682  1.00  0.00    -0.000 C 
BRANCH  23  24
ATOM     24  C   UNL     1      -4.456  34.590  19.867  1.00  0.00    -0.000 C 
BRANCH  24  25
ATOM     25  C   UNL     1      -5.321  34.195  18.654  1.00  0.00    -0.000 C 
BRANCH  25  26
ATOM     26  C   UNL     1      -4.550  34.158  17.318  1.00  0.00    -0.000 C 
BRANCH  26  27
ATOM     27  C   UNL     1      -3.590  35.349  17.150  1.00  0.00    -0.000 C 
BRANCH  27  28
ATOM     28  C   UNL     1      -3.986  36.276  15.988  1.00  0.00    -0.000 C 
BRANCH  28  29
ATOM     29  C   UNL     1      -3.425  35.829  14.622  1.00  0.00    -0.003 C 
ATOM     30  C   UNL     1      -1.901  35.918  14.564  1.00  0.00     0.004 C 
ENDBRANCH  28  29
ENDBRANCH  27  28
ENDBRANCH  26  27
ENDBRANCH  25  26
ENDBRANCH  24  25
ENDBRANCH  23  24
ENDBRANCH  22  23
ENDBRANCH  21  22
ENDBRANCH  20  21
ENDBRANCH  19  20
ENDBRANCH  18  19
ENDBRANCH  17  18
ENDBRANCH   1  17
TORSDOF 26
ENDMDL
