MODEL 1
REMARK VINA RESULT:    -4.391      0.000      0.000
REMARK INTER + INTRA:          -4.821
REMARK INTER:                  -4.776
REMARK INTRA:                  -0.045
REMARK UNBOUND:                -0.045
REMARK SMILES COc1cc2ccc(=O)oc2cc1O
REMARK SMILES IDX 3 1 13 2 12 3 11 4 5 5 4 6 6 7 7 8 8 9 9 10 10 11 2 12 1 13
REMARK SMILES IDX 14 14
REMARK H PARENT 14 15
REMARK Flexibility Score: inf
ROOT
ATOM      1  C   UNL     1    -102.863 185.800  49.586  1.00  0.00     0.161 A 
ATOM      2  C   UNL     1    -103.224 184.634  50.278  1.00  0.00     0.161 A 
ATOM      3  C   UNL     1    -104.362 184.619  51.097  1.00  0.00     0.098 A 
ATOM      4  C   UNL     1    -105.148 185.766  51.231  1.00  0.00     0.142 A 
ATOM      5  C   UNL     1    -104.793 186.942  50.538  1.00  0.00     0.022 A 
ATOM      6  C   UNL     1    -103.655 186.958  49.720  1.00  0.00     0.062 A 
ATOM      7  C   UNL     1    -105.600 188.075  50.691  1.00  0.00     0.019 A 
ATOM      8  C   UNL     1    -106.721 188.010  51.517  1.00  0.00     0.094 A 
ATOM      9  C   UNL     1    -107.012 186.808  52.173  1.00  0.00     0.336 A 
ATOM     10  O   UNL     1    -108.020 186.729  52.922  1.00  0.00    -0.246 OA
ATOM     11  O   UNL     1    -106.227 185.747  52.009  1.00  0.00    -0.423 OA
ENDROOT
BRANCH   1  12
ATOM     12  O   UNL     1    -101.715 185.769  48.778  1.00  0.00    -0.493 OA
ATOM     13  C   UNL     1    -101.206 186.886  48.057  1.00  0.00     0.278 C 
ENDBRANCH   1  12
BRANCH   2  14
ATOM     14  O   UNL     1    -102.441 183.487  50.147  1.00  0.00    -0.504 OA
ATOM     15  H   UNL     1    -101.730 183.409  49.431  1.00  0.00     0.293 HD
ENDBRANCH   2  14
TORSDOF 2
ENDMDL
MODEL 2
REMARK VINA RESULT:    -4.293      1.843      5.295
REMARK INTER + INTRA:          -4.715
REMARK INTER:                  -4.650
REMARK INTRA:                  -0.065
REMARK UNBOUND:                -0.045
REMARK SMILES COc1cc2ccc(=O)oc2cc1O
REMARK SMILES IDX 3 1 13 2 12 3 11 4 5 5 4 6 6 7 7 8 8 9 9 10 10 11 2 12 1 13
REMARK SMILES IDX 14 14
REMARK H PARENT 14 15
REMARK Flexibility Score: inf
ROOT
ATOM      1  C   UNL     1    -105.897 184.992  50.940  1.00  0.00     0.161 A 
ATOM      2  C   UNL     1    -106.189 186.077  50.099  1.00  0.00     0.161 A 
ATOM      3  C   UNL     1    -105.176 186.673  49.334  1.00  0.00     0.098 A 
ATOM      4  C   UNL     1    -103.867 186.192  49.402  1.00  0.00     0.142 A 
ATOM      5  C   UNL     1    -103.565 185.102  50.244  1.00  0.00     0.022 A 
ATOM      6  C   UNL     1    -104.576 184.505  51.010  1.00  0.00     0.062 A 
ATOM      7  C   UNL     1    -102.244 184.642  50.290  1.00  0.00     0.019 A 
ATOM      8  C   UNL     1    -101.273 185.269  49.511  1.00  0.00     0.094 A 
ATOM      9  C   UNL     1    -101.647 186.346  48.698  1.00  0.00     0.336 A 
ATOM     10  O   UNL     1    -100.786 186.925  47.987  1.00  0.00    -0.246 OA
ATOM     11  O   UNL     1    -102.910 186.762  48.674  1.00  0.00    -0.423 OA
ENDROOT
BRANCH   1  12
ATOM     12  O   UNL     1    -106.942 184.427  51.688  1.00  0.00    -0.493 OA
ATOM     13  C   UNL     1    -107.595 183.203  51.365  1.00  0.00     0.278 C 
ENDBRANCH   1  12
BRANCH   2  14
ATOM     14  O   UNL     1    -107.496 186.560  50.029  1.00  0.00    -0.504 OA
ATOM     15  H   UNL     1    -107.805 187.337  50.600  1.00  0.00     0.293 HD
ENDBRANCH   2  14
TORSDOF 2
ENDMDL
MODEL 3
REMARK VINA RESULT:    -4.004      2.444      4.756
REMARK INTER + INTRA:          -4.401
REMARK INTER:                  -4.336
REMARK INTRA:                  -0.065
REMARK UNBOUND:                -0.045
REMARK SMILES COc1cc2ccc(=O)oc2cc1O
REMARK SMILES IDX 3 1 13 2 12 3 11 4 5 5 4 6 6 7 7 8 8 9 9 10 10 11 2 12 1 13
REMARK SMILES IDX 14 14
REMARK H PARENT 14 15
REMARK Flexibility Score: inf
ROOT
ATOM      1  C   UNL     1    -106.375 186.213  48.569  1.00  0.00     0.161 A 
ATOM      2  C   UNL     1    -106.540 185.365  49.675  1.00  0.00     0.161 A 
ATOM      3  C   UNL     1    -105.422 184.847  50.345  1.00  0.00     0.098 A 
ATOM      4  C   UNL     1    -104.133 185.173  49.919  1.00  0.00     0.142 A 
ATOM      5  C   UNL     1    -103.957 186.026  48.809  1.00  0.00     0.022 A 
ATOM      6  C   UNL     1    -105.074 186.543  48.138  1.00  0.00     0.062 A 
ATOM      7  C   UNL     1    -102.653 186.334  48.406  1.00  0.00     0.019 A 
ATOM      8  C   UNL     1    -101.575 185.794  49.105  1.00  0.00     0.094 A 
ATOM      9  C   UNL     1    -101.826 184.955  50.197  1.00  0.00     0.336 A 
ATOM     10  O   UNL     1    -100.866 184.459  50.842  1.00  0.00    -0.246 OA
ATOM     11  O   UNL     1    -103.076 184.679  50.559  1.00  0.00    -0.423 OA
ENDROOT
BRANCH   1  12
ATOM     12  O   UNL     1    -107.522 186.707  47.929  1.00  0.00    -0.493 OA
ATOM     13  C   UNL     1    -107.985 186.270  46.655  1.00  0.00     0.278 C 
ENDBRANCH   1  12
BRANCH   2  14
ATOM     14  O   UNL     1    -107.827 185.038  50.103  1.00  0.00    -0.504 OA
ATOM     15  H   UNL     1    -107.983 184.466  50.924  1.00  0.00     0.293 HD
ENDBRANCH   2  14
TORSDOF 2
ENDMDL
MODEL 4
REMARK VINA RESULT:    -3.845     13.103     13.512
REMARK INTER + INTRA:          -4.227
REMARK INTER:                  -4.181
REMARK INTRA:                  -0.046
REMARK UNBOUND:                -0.045
REMARK SMILES COc1cc2ccc(=O)oc2cc1O
REMARK SMILES IDX 3 1 13 2 12 3 11 4 5 5 4 6 6 7 7 8 8 9 9 10 10 11 2 12 1 13
REMARK SMILES IDX 14 14
REMARK H PARENT 14 15
REMARK Flexibility Score: inf
ROOT
ATOM      1  C   UNL     1     -96.849 194.314  58.204  1.00  0.00     0.161 A 
ATOM      2  C   UNL     1     -95.546 193.885  58.500  1.00  0.00     0.161 A 
ATOM      3  C   UNL     1     -95.333 192.661  59.149  1.00  0.00     0.098 A 
ATOM      4  C   UNL     1     -96.416 191.855  59.506  1.00  0.00     0.142 A 
ATOM      5  C   UNL     1     -97.730 192.278  59.212  1.00  0.00     0.022 A 
ATOM      6  C   UNL     1     -97.944 193.503  58.564  1.00  0.00     0.062 A 
ATOM      7  C   UNL     1     -98.795 191.449  59.582  1.00  0.00     0.019 A 
ATOM      8  C   UNL     1     -98.531 190.241  60.225  1.00  0.00     0.094 A 
ATOM      9  C   UNL     1     -97.202 189.887  60.484  1.00  0.00     0.336 A 
ATOM     10  O   UNL     1     -96.942 188.800  61.063  1.00  0.00    -0.246 OA
ATOM     11  O   UNL     1     -96.208 190.694  60.121  1.00  0.00    -0.423 OA
ENDROOT
BRANCH   1  12
ATOM     12  O   UNL     1     -97.015 195.547  57.554  1.00  0.00    -0.493 OA
ATOM     13  C   UNL     1     -98.213 195.961  56.904  1.00  0.00     0.278 C 
ENDBRANCH   1  12
BRANCH   2  14
ATOM     14  O   UNL     1     -94.462 194.688  58.144  1.00  0.00    -0.504 OA
ATOM     15  H   UNL     1     -93.593 194.288  57.811  1.00  0.00     0.293 HD
ENDBRANCH   2  14
TORSDOF 2
ENDMDL
MODEL 5
REMARK VINA RESULT:    -3.635      1.777      4.922
REMARK INTER + INTRA:          -3.999
REMARK INTER:                  -3.943
REMARK INTRA:                  -0.056
REMARK UNBOUND:                -0.045
REMARK SMILES COc1cc2ccc(=O)oc2cc1O
REMARK SMILES IDX 3 1 13 2 12 3 11 4 5 5 4 6 6 7 7 8 8 9 9 10 10 11 2 12 1 13
REMARK SMILES IDX 14 14
REMARK H PARENT 14 15
REMARK Flexibility Score: inf
ROOT
ATOM      1  C   UNL     1    -106.624 184.847  51.227  1.00  0.00     0.161 A 
ATOM      2  C   UNL     1    -105.680 184.157  52.003  1.00  0.00     0.161 A 
ATOM      3  C   UNL     1    -104.321 184.184  51.656  1.00  0.00     0.098 A 
ATOM      4  C   UNL     1    -103.895 184.900  50.536  1.00  0.00     0.142 A 
ATOM      5  C   UNL     1    -104.837 185.598  49.751  1.00  0.00     0.022 A 
ATOM      6  C   UNL     1    -106.195 185.571  50.096  1.00  0.00     0.062 A 
ATOM      7  C   UNL     1    -104.379 186.308  48.635  1.00  0.00     0.019 A 
ATOM      8  C   UNL     1    -103.018 186.304  48.332  1.00  0.00     0.094 A 
ATOM      9  C   UNL     1    -102.142 185.589  49.157  1.00  0.00     0.336 A 
ATOM     10  O   UNL     1    -100.910 185.574  48.901  1.00  0.00    -0.246 OA
ATOM     11  O   UNL     1    -102.605 184.923  50.212  1.00  0.00    -0.423 OA
ENDROOT
BRANCH   1  12
ATOM     12  O   UNL     1    -107.973 184.791  51.611  1.00  0.00    -0.493 OA
ATOM     13  C   UNL     1    -108.812 185.930  51.779  1.00  0.00     0.278 C 
ENDBRANCH   1  12
BRANCH   2  14
ATOM     14  O   UNL     1    -106.102 183.440  53.122  1.00  0.00    -0.504 OA
ATOM     15  H   UNL     1    -105.602 182.622  53.448  1.00  0.00     0.293 HD
ENDBRANCH   2  14
TORSDOF 2
ENDMDL
MODEL 6
REMARK VINA RESULT:    -3.630      2.950      5.244
REMARK INTER + INTRA:          -3.993
REMARK INTER:                  -3.931
REMARK INTRA:                  -0.062
REMARK UNBOUND:                -0.045
REMARK SMILES COc1cc2ccc(=O)oc2cc1O
REMARK SMILES IDX 3 1 13 2 12 3 11 4 5 5 4 6 6 7 7 8 8 9 9 10 10 11 2 12 1 13
REMARK SMILES IDX 14 14
REMARK H PARENT 14 15
REMARK Flexibility Score: inf
ROOT
ATOM      1  C   UNL     1    -106.404 190.389  50.822  1.00  0.00     0.161 A 
ATOM      2  C   UNL     1    -105.297 190.195  51.663  1.00  0.00     0.161 A 
ATOM      3  C   UNL     1    -104.602 188.977  51.650  1.00  0.00     0.098 A 
ATOM      4  C   UNL     1    -105.005 187.946  50.799  1.00  0.00     0.142 A 
ATOM      5  C   UNL     1    -106.115 188.133  49.949  1.00  0.00     0.022 A 
ATOM      6  C   UNL     1    -106.811 189.350  49.962  1.00  0.00     0.062 A 
ATOM      7  C   UNL     1    -106.494 187.081  49.107  1.00  0.00     0.019 A 
ATOM      8  C   UNL     1    -105.771 185.890  49.132  1.00  0.00     0.094 A 
ATOM      9  C   UNL     1    -104.680 185.777  50.001  1.00  0.00     0.336 A 
ATOM     10  O   UNL     1    -104.013 184.710  50.038  1.00  0.00    -0.246 OA
ATOM     11  O   UNL     1    -104.341 186.793  50.791  1.00  0.00    -0.423 OA
ENDROOT
BRANCH   1  12
ATOM     12  O   UNL     1    -107.070 191.624  50.869  1.00  0.00    -0.493 OA
ATOM     13  C   UNL     1    -106.854 192.692  49.952  1.00  0.00     0.278 C 
ENDBRANCH   1  12
BRANCH   2  14
ATOM     14  O   UNL     1    -104.893 191.223  52.515  1.00  0.00    -0.504 OA
ATOM     15  H   UNL     1    -103.916 191.470  52.622  1.00  0.00     0.293 HD
ENDBRANCH   2  14
TORSDOF 2
ENDMDL
MODEL 7
REMARK VINA RESULT:    -3.565      1.244      4.773
REMARK INTER + INTRA:          -3.922
REMARK INTER:                  -3.871
REMARK INTRA:                  -0.051
REMARK UNBOUND:                -0.045
REMARK SMILES COc1cc2ccc(=O)oc2cc1O
REMARK SMILES IDX 3 1 13 2 12 3 11 4 5 5 4 6 6 7 7 8 8 9 9 10 10 11 2 12 1 13
REMARK SMILES IDX 14 14
REMARK H PARENT 14 15
REMARK Flexibility Score: inf
ROOT
ATOM      1  C   UNL     1    -106.719 187.578  50.870  1.00  0.00     0.161 A 
ATOM      2  C   UNL     1    -106.944 186.461  51.689  1.00  0.00     0.161 A 
ATOM      3  C   UNL     1    -105.999 185.427  51.752  1.00  0.00     0.098 A 
ATOM      4  C   UNL     1    -104.824 185.499  51.000  1.00  0.00     0.142 A 
ATOM      5  C   UNL     1    -104.590 186.620  50.175  1.00  0.00     0.022 A 
ATOM      6  C   UNL     1    -105.534 187.653  50.111  1.00  0.00     0.062 A 
ATOM      7  C   UNL     1    -103.404 186.664  49.434  1.00  0.00     0.019 A 
ATOM      8  C   UNL     1    -102.496 185.611  49.531  1.00  0.00     0.094 A 
ATOM      9  C   UNL     1    -102.796 184.532  50.371  1.00  0.00     0.336 A 
ATOM     10  O   UNL     1    -101.989 183.572  50.473  1.00  0.00    -0.246 OA
ATOM     11  O   UNL     1    -103.931 184.516  51.064  1.00  0.00    -0.423 OA
ENDROOT
BRANCH   1  12
ATOM     12  O   UNL     1    -107.693 188.589  50.838  1.00  0.00    -0.493 OA
ATOM     13  C   UNL     1    -107.407 189.984  50.834  1.00  0.00     0.278 C 
ENDBRANCH   1  12
BRANCH   2  14
ATOM     14  O   UNL     1    -108.116 186.385  52.441  1.00  0.00    -0.504 OA
ATOM     15  H   UNL     1    -108.831 187.100  52.383  1.00  0.00     0.293 HD
ENDBRANCH   2  14
TORSDOF 2
ENDMDL
MODEL 8
REMARK VINA RESULT:    -3.557      1.765      2.162
REMARK INTER + INTRA:          -3.913
REMARK INTER:                  -3.848
REMARK INTRA:                  -0.065
REMARK UNBOUND:                -0.045
REMARK SMILES COc1cc2ccc(=O)oc2cc1O
REMARK SMILES IDX 3 1 13 2 12 3 11 4 5 5 4 6 6 7 7 8 8 9 9 10 10 11 2 12 1 13
REMARK SMILES IDX 14 14
REMARK H PARENT 14 15
REMARK Flexibility Score: inf
ROOT
ATOM      1  C   UNL     1    -104.195 186.425  49.973  1.00  0.00     0.161 A 
ATOM      2  C   UNL     1    -105.102 185.556  50.598  1.00  0.00     0.161 A 
ATOM      3  C   UNL     1    -105.942 186.023  51.619  1.00  0.00     0.098 A 
ATOM      4  C   UNL     1    -105.884 187.359  52.024  1.00  0.00     0.142 A 
ATOM      5  C   UNL     1    -104.975 188.239  51.400  1.00  0.00     0.022 A 
ATOM      6  C   UNL     1    -104.134 187.773  50.380  1.00  0.00     0.062 A 
ATOM      7  C   UNL     1    -104.940 189.572  51.827  1.00  0.00     0.019 A 
ATOM      8  C   UNL     1    -105.796 189.987  52.846  1.00  0.00     0.094 A 
ATOM      9  C   UNL     1    -106.671 189.057  53.418  1.00  0.00     0.336 A 
ATOM     10  O   UNL     1    -107.452 189.412  54.338  1.00  0.00    -0.246 OA
ATOM     11  O   UNL     1    -106.684 187.796  52.993  1.00  0.00    -0.423 OA
ENDROOT
BRANCH   1  12
ATOM     12  O   UNL     1    -103.373 185.915  48.957  1.00  0.00    -0.493 OA
ATOM     13  C   UNL     1    -102.003 185.565  49.126  1.00  0.00     0.278 C 
ENDBRANCH   1  12
BRANCH   2  14
ATOM     14  O   UNL     1    -105.163 184.222  50.197  1.00  0.00    -0.504 OA
ATOM     15  H   UNL     1    -104.354 183.746  49.815  1.00  0.00     0.293 HD
ENDBRANCH   2  14
TORSDOF 2
ENDMDL
MODEL 9
REMARK VINA RESULT:    -3.502      2.125      5.538
REMARK INTER + INTRA:          -3.855
REMARK INTER:                  -3.791
REMARK INTRA:                  -0.064
REMARK UNBOUND:                -0.045
REMARK SMILES COc1cc2ccc(=O)oc2cc1O
REMARK SMILES IDX 3 1 13 2 12 3 11 4 5 5 4 6 6 7 7 8 8 9 9 10 10 11 2 12 1 13
REMARK SMILES IDX 14 14
REMARK H PARENT 14 15
REMARK Flexibility Score: inf
ROOT
ATOM      1  C   UNL     1    -106.349 188.082  53.234  1.00  0.00     0.161 A 
ATOM      2  C   UNL     1    -105.608 189.130  52.667  1.00  0.00     0.161 A 
ATOM      3  C   UNL     1    -104.777 188.895  51.562  1.00  0.00     0.098 A 
ATOM      4  C   UNL     1    -104.680 187.614  51.015  1.00  0.00     0.142 A 
ATOM      5  C   UNL     1    -105.423 186.554  51.578  1.00  0.00     0.022 A 
ATOM      6  C   UNL     1    -106.253 186.789  52.683  1.00  0.00     0.062 A 
ATOM      7  C   UNL     1    -105.305 185.281  51.007  1.00  0.00     0.019 A 
ATOM      8  C   UNL     1    -104.466 185.099  49.909  1.00  0.00     0.094 A 
ATOM      9  C   UNL     1    -103.760 186.197  49.404  1.00  0.00     0.336 A 
ATOM     10  O   UNL     1    -102.998 186.053  48.413  1.00  0.00    -0.246 OA
ATOM     11  O   UNL     1    -103.891 187.396  49.966  1.00  0.00    -0.423 OA
ENDROOT
BRANCH   1  12
ATOM     12  O   UNL     1    -107.167 188.364  54.339  1.00  0.00    -0.493 OA
ATOM     13  C   UNL     1    -106.809 188.108  55.694  1.00  0.00     0.278 C 
ENDBRANCH   1  12
BRANCH   2  14
ATOM     14  O   UNL     1    -105.703 190.411  53.211  1.00  0.00    -0.504 OA
ATOM     15  H   UNL     1    -104.999 190.771  53.845  1.00  0.00     0.293 HD
ENDBRANCH   2  14
TORSDOF 2
ENDMDL
