MODEL 1
REMARK VINA RESULT:    -7.208      0.000      0.000
REMARK INTER + INTRA:          -9.013
REMARK INTER:                  -8.683
REMARK INTRA:                  -0.331
REMARK UNBOUND:                -0.331
REMARK SMILES O=c1c(O)c(-c2ccc(O)c(O)c2)oc2cc(O)cc(O)c12
REMARK SMILES IDX 5 1 3 2 2 3 1 4 22 5 20 6 19 7 17 8 16 9 15 10 14 11 6 12
REMARK SMILES IDX 7 13 8 14 9 15 13 16 11 17 10 18 12 20 4 22 21 24 18 26
REMARK H PARENT 10 19 12 21 4 23 21 25 18 27
REMARK Flexibility Score: inf
ROOT
ATOM      1  C   UNL     1      29.370  57.842  -1.284  1.00  0.00     0.180 A 
ATOM      2  C   UNL     1      30.353  58.812  -1.557  1.00  0.00     0.208 A 
ATOM      3  C   UNL     1      30.773  58.998  -2.883  1.00  0.00     0.238 A 
ATOM      4  O   UNL     1      31.645  59.872  -3.142  1.00  0.00    -0.285 OA
ATOM      5  C   UNL     1      30.221  58.201  -3.908  1.00  0.00     0.111 A 
ATOM      6  C   UNL     1      30.593  58.321  -5.268  1.00  0.00     0.134 A 
ATOM      7  C   UNL     1      30.004  57.484  -6.227  1.00  0.00     0.093 A 
ATOM      8  C   UNL     1      29.054  56.530  -5.853  1.00  0.00     0.123 A 
ATOM      9  C   UNL     1      28.683  56.406  -4.511  1.00  0.00     0.094 A 
ATOM     10  C   UNL     1      29.257  57.232  -3.540  1.00  0.00     0.146 A 
ATOM     11  O   UNL     1      28.883  57.099  -2.273  1.00  0.00    -0.452 OA
ENDROOT
BRANCH   1  12
ATOM     12  C   UNL     1      28.862  57.601   0.086  1.00  0.00     0.025 A 
ATOM     13  C   UNL     1      29.414  56.564   0.854  1.00  0.00     0.016 A 
ATOM     14  C   UNL     1      28.936  56.303   2.141  1.00  0.00     0.051 A 
ATOM     15  C   UNL     1      27.888  57.066   2.672  1.00  0.00     0.157 A 
ATOM     16  C   UNL     1      27.796  58.350   0.615  1.00  0.00     0.062 A 
ATOM     17  C   UNL     1      27.313  58.092   1.903  1.00  0.00     0.158 A 
BRANCH  15  18
ATOM     18  O   UNL     1      27.415  56.806   3.957  1.00  0.00    -0.504 OA
ATOM     19  H   UNL     1      26.482  57.077   4.244  1.00  0.00     0.293 HD
ENDBRANCH  15  18
BRANCH  17  20
ATOM     20  O   UNL     1      26.259  58.859   2.397  1.00  0.00    -0.504 OA
ATOM     21  H   UNL     1      26.395  59.559   3.117  1.00  0.00     0.293 HD
ENDBRANCH  17  20
ENDBRANCH   1  12
BRANCH   2  22
ATOM     22  O   UNL     1      30.920  59.556  -0.518  1.00  0.00    -0.502 OA
ATOM     23  H   UNL     1      30.412  59.781   0.329  1.00  0.00     0.293 HD
ENDBRANCH   2  22
BRANCH   6  24
ATOM     24  O   UNL     1      31.539  59.263  -5.674  1.00  0.00    -0.507 OA
ATOM     25  H   UNL     1      31.299  60.027  -6.295  1.00  0.00     0.293 HD
ENDBRANCH   6  24
BRANCH   8  26
ATOM     26  O   UNL     1      28.486  55.710  -6.826  1.00  0.00    -0.508 OA
ATOM     27  H   UNL     1      28.155  56.085  -7.707  1.00  0.00     0.293 HD
ENDBRANCH   8  26
TORSDOF 6
ENDMDL
MODEL 2
REMARK VINA RESULT:    -7.080     12.689     14.640
REMARK INTER + INTRA:          -8.859
REMARK INTER:                  -8.558
REMARK INTRA:                  -0.301
REMARK UNBOUND:                -0.331
REMARK SMILES O=c1c(O)c(-c2ccc(O)c(O)c2)oc2cc(O)cc(O)c12
REMARK SMILES IDX 5 1 3 2 2 3 1 4 22 5 20 6 19 7 17 8 16 9 15 10 14 11 6 12
REMARK SMILES IDX 7 13 8 14 9 15 13 16 11 17 10 18 12 20 4 22 21 24 18 26
REMARK H PARENT 10 19 12 21 4 23 21 25 18 27
REMARK Flexibility Score: inf
ROOT
ATOM      1  C   UNL     1      39.986  60.100   6.498  1.00  0.00     0.180 A 
ATOM      2  C   UNL     1      38.776  59.434   6.225  1.00  0.00     0.208 A 
ATOM      3  C   UNL     1      38.816  58.083   5.845  1.00  0.00     0.238 A 
ATOM      4  O   UNL     1      37.738  57.473   5.609  1.00  0.00    -0.285 OA
ATOM      5  C   UNL     1      40.060  57.429   5.725  1.00  0.00     0.111 A 
ATOM      6  C   UNL     1      40.187  56.072   5.343  1.00  0.00     0.134 A 
ATOM      7  C   UNL     1      41.461  55.496   5.238  1.00  0.00     0.093 A 
ATOM      8  C   UNL     1      42.608  56.249   5.503  1.00  0.00     0.123 A 
ATOM      9  C   UNL     1      42.488  57.590   5.880  1.00  0.00     0.094 A 
ATOM     10  C   UNL     1      41.227  58.182   5.993  1.00  0.00     0.146 A 
ATOM     11  O   UNL     1      41.141  59.456   6.359  1.00  0.00    -0.452 OA
ENDROOT
BRANCH   1  12
ATOM     12  C   UNL     1      40.025  61.519   6.922  1.00  0.00     0.025 A 
ATOM     13  C   UNL     1      39.760  61.847   8.260  1.00  0.00     0.016 A 
ATOM     14  C   UNL     1      39.770  63.180   8.678  1.00  0.00     0.051 A 
ATOM     15  C   UNL     1      40.029  64.206   7.759  1.00  0.00     0.157 A 
ATOM     16  C   UNL     1      40.262  62.553   5.998  1.00  0.00     0.062 A 
ATOM     17  C   UNL     1      40.271  63.890   6.411  1.00  0.00     0.158 A 
BRANCH  15  18
ATOM     18  O   UNL     1      40.040  65.535   8.178  1.00  0.00    -0.504 OA
ATOM     19  H   UNL     1      40.289  66.288   7.548  1.00  0.00     0.293 HD
ENDBRANCH  15  18
BRANCH  17  20
ATOM     20  O   UNL     1      40.517  64.888   5.470  1.00  0.00    -0.504 OA
ATOM     21  H   UNL     1      41.325  65.496   5.528  1.00  0.00     0.293 HD
ENDBRANCH  17  20
ENDBRANCH   1  12
BRANCH   2  22
ATOM     22  O   UNL     1      37.560  60.118   6.304  1.00  0.00    -0.502 OA
ATOM     23  H   UNL     1      37.059  60.432   5.481  1.00  0.00     0.293 HD
ENDBRANCH   2  22
BRANCH   6  24
ATOM     24  O   UNL     1      39.062  55.294   5.070  1.00  0.00    -0.507 OA
ATOM     25  H   UNL     1      38.924  54.386   5.499  1.00  0.00     0.293 HD
ENDBRANCH   6  24
BRANCH   8  26
ATOM     26  O   UNL     1      43.862  55.653   5.388  1.00  0.00    -0.508 OA
ATOM     27  H   UNL     1      44.244  55.077   6.130  1.00  0.00     0.293 HD
ENDBRANCH   8  26
TORSDOF 6
ENDMDL
MODEL 3
REMARK VINA RESULT:    -6.903     14.616     15.590
REMARK INTER + INTRA:          -8.647
REMARK INTER:                  -8.784
REMARK INTRA:                   0.137
REMARK UNBOUND:                -0.331
REMARK SMILES O=c1c(O)c(-c2ccc(O)c(O)c2)oc2cc(O)cc(O)c12
REMARK SMILES IDX 5 1 3 2 2 3 1 4 22 5 20 6 19 7 17 8 16 9 15 10 14 11 6 12
REMARK SMILES IDX 7 13 8 14 9 15 13 16 11 17 10 18 12 20 4 22 21 24 18 26
REMARK H PARENT 10 19 12 21 4 23 21 25 18 27
REMARK Flexibility Score: inf
ROOT
ATOM      1  C   UNL     1      39.933  63.947   6.458  1.00  0.00     0.180 A 
ATOM      2  C   UNL     1      41.252  63.954   5.967  1.00  0.00     0.208 A 
ATOM      3  C   UNL     1      42.039  62.802   6.120  1.00  0.00     0.238 A 
ATOM      4  O   UNL     1      43.219  62.792   5.674  1.00  0.00    -0.285 OA
ATOM      5  C   UNL     1      41.504  61.674   6.776  1.00  0.00     0.111 A 
ATOM      6  C   UNL     1      42.231  60.476   6.975  1.00  0.00     0.134 A 
ATOM      7  C   UNL     1      41.630  59.401   7.646  1.00  0.00     0.093 A 
ATOM      8  C   UNL     1      40.321  59.500   8.123  1.00  0.00     0.123 A 
ATOM      9  C   UNL     1      39.597  60.681   7.929  1.00  0.00     0.094 A 
ATOM     10  C   UNL     1      40.177  61.763   7.261  1.00  0.00     0.146 A 
ATOM     11  O   UNL     1      39.467  62.871   7.085  1.00  0.00    -0.452 OA
ENDROOT
BRANCH   1  12
ATOM     12  C   UNL     1      39.035  65.117   6.318  1.00  0.00     0.025 A 
ATOM     13  C   UNL     1      38.120  65.411   7.341  1.00  0.00     0.016 A 
ATOM     14  C   UNL     1      37.249  66.497   7.221  1.00  0.00     0.051 A 
ATOM     15  C   UNL     1      37.270  67.295   6.070  1.00  0.00     0.157 A 
ATOM     16  C   UNL     1      39.037  65.907   5.155  1.00  0.00     0.062 A 
ATOM     17  C   UNL     1      38.166  66.995   5.030  1.00  0.00     0.158 A 
BRANCH  15  18
ATOM     18  O   UNL     1      36.401  68.379   5.954  1.00  0.00    -0.504 OA
ATOM     19  H   UNL     1      36.739  69.309   5.738  1.00  0.00     0.293 HD
ENDBRANCH  15  18
BRANCH  17  20
ATOM     20  O   UNL     1      38.200  67.760   3.865  1.00  0.00    -0.504 OA
ATOM     21  H   UNL     1      38.878  68.501   3.728  1.00  0.00     0.293 HD
ENDBRANCH  17  20
ENDBRANCH   1  12
BRANCH   2  22
ATOM     22  O   UNL     1      41.776  65.101   5.364  1.00  0.00    -0.502 OA
ATOM     23  H   UNL     1      41.875  65.190   4.360  1.00  0.00     0.293 HD
ENDBRANCH   2  22
BRANCH   6  24
ATOM     24  O   UNL     1      43.541  60.346   6.513  1.00  0.00    -0.507 OA
ATOM     25  H   UNL     1      44.000  61.085   5.994  1.00  0.00     0.293 HD
ENDBRANCH   6  24
BRANCH   8  26
ATOM     26  O   UNL     1      39.748  58.418   8.787  1.00  0.00    -0.508 OA
ATOM     27  H   UNL     1      38.856  58.499   9.260  1.00  0.00     0.293 HD
ENDBRANCH   8  26
TORSDOF 6
ENDMDL
MODEL 4
REMARK VINA RESULT:    -6.871      3.546      7.882
REMARK INTER + INTRA:          -8.607
REMARK INTER:                  -8.281
REMARK INTRA:                  -0.327
REMARK UNBOUND:                -0.331
REMARK SMILES O=c1c(O)c(-c2ccc(O)c(O)c2)oc2cc(O)cc(O)c12
REMARK SMILES IDX 5 1 3 2 2 3 1 4 22 5 20 6 19 7 17 8 16 9 15 10 14 11 6 12
REMARK SMILES IDX 7 13 8 14 9 15 13 16 11 17 10 18 12 20 4 22 21 24 18 26
REMARK H PARENT 10 19 12 21 4 23 21 25 18 27
REMARK Flexibility Score: inf
ROOT
ATOM      1  C   UNL     1      29.878  57.271   1.446  1.00  0.00     0.180 A 
ATOM      2  C   UNL     1      28.802  56.472   1.015  1.00  0.00     0.208 A 
ATOM      3  C   UNL     1      28.014  55.821   1.977  1.00  0.00     0.238 A 
ATOM      4  O   UNL     1      27.040  55.111   1.604  1.00  0.00    -0.285 OA
ATOM      5  C   UNL     1      28.325  55.962   3.345  1.00  0.00     0.111 A 
ATOM      6  C   UNL     1      27.584  55.337   4.376  1.00  0.00     0.134 A 
ATOM      7  C   UNL     1      27.962  55.520   5.714  1.00  0.00     0.093 A 
ATOM      8  C   UNL     1      29.066  56.312   6.041  1.00  0.00     0.123 A 
ATOM      9  C   UNL     1      29.801  56.933   5.027  1.00  0.00     0.094 A 
ATOM     10  C   UNL     1      29.439  56.764   3.687  1.00  0.00     0.146 A 
ATOM     11  O   UNL     1      30.151  57.369   2.743  1.00  0.00    -0.452 OA
ENDROOT
BRANCH   1  12
ATOM     12  C   UNL     1      30.744  58.004   0.493  1.00  0.00     0.025 A 
ATOM     13  C   UNL     1      31.984  57.459   0.127  1.00  0.00     0.016 A 
ATOM     14  C   UNL     1      32.827  58.142  -0.753  1.00  0.00     0.051 A 
ATOM     15  C   UNL     1      32.448  59.389  -1.267  1.00  0.00     0.157 A 
ATOM     16  C   UNL     1      30.377  59.266  -0.009  1.00  0.00     0.062 A 
ATOM     17  C   UNL     1      31.219  59.955  -0.889  1.00  0.00     0.158 A 
BRANCH  15  18
ATOM     18  O   UNL     1      33.290  60.068  -2.147  1.00  0.00    -0.504 OA
ATOM     19  H   UNL     1      33.077  61.005  -2.469  1.00  0.00     0.293 HD
ENDBRANCH  15  18
BRANCH  17  20
ATOM     20  O   UNL     1      30.820  61.201  -1.372  1.00  0.00    -0.504 OA
ATOM     21  H   UNL     1      30.396  61.313  -2.285  1.00  0.00     0.293 HD
ENDBRANCH  17  20
ENDBRANCH   1  12
BRANCH   2  22
ATOM     22  O   UNL     1      28.545  56.308  -0.349  1.00  0.00    -0.502 OA
ATOM     23  H   UNL     1      27.667  56.586  -0.773  1.00  0.00     0.293 HD
ENDBRANCH   2  22
BRANCH   6  24
ATOM     24  O   UNL     1      26.477  54.538   4.084  1.00  0.00    -0.507 OA
ATOM     25  H   UNL     1      25.557  54.935   3.933  1.00  0.00     0.293 HD
ENDBRANCH   6  24
BRANCH   8  26
ATOM     26  O   UNL     1      29.421  56.476   7.378  1.00  0.00    -0.508 OA
ATOM     27  H   UNL     1      29.572  55.680   7.987  1.00  0.00     0.293 HD
ENDBRANCH   8  26
TORSDOF 6
ENDMDL
MODEL 5
REMARK VINA RESULT:    -6.772      2.237      6.897
REMARK INTER + INTRA:          -8.489
REMARK INTER:                  -8.420
REMARK INTRA:                  -0.069
REMARK UNBOUND:                -0.331
REMARK SMILES O=c1c(O)c(-c2ccc(O)c(O)c2)oc2cc(O)cc(O)c12
REMARK SMILES IDX 5 1 3 2 2 3 1 4 22 5 20 6 19 7 17 8 16 9 15 10 14 11 6 12
REMARK SMILES IDX 7 13 8 14 9 15 13 16 11 17 10 18 12 20 4 22 21 24 18 26
REMARK H PARENT 10 19 12 21 4 23 21 25 18 27
REMARK Flexibility Score: inf
ROOT
ATOM      1  C   UNL     1      30.172  57.875  -2.985  1.00  0.00     0.180 A 
ATOM      2  C   UNL     1      29.256  57.965  -1.921  1.00  0.00     0.208 A 
ATOM      3  C   UNL     1      29.742  58.209  -0.627  1.00  0.00     0.238 A 
ATOM      4  O   UNL     1      28.930  58.304   0.334  1.00  0.00    -0.285 OA
ATOM      5  C   UNL     1      31.130  58.340  -0.416  1.00  0.00     0.111 A 
ATOM      6  C   UNL     1      31.701  58.582   0.856  1.00  0.00     0.134 A 
ATOM      7  C   UNL     1      33.093  58.690   0.984  1.00  0.00     0.093 A 
ATOM      8  C   UNL     1      33.925  58.558  -0.131  1.00  0.00     0.123 A 
ATOM      9  C   UNL     1      33.366  58.318  -1.390  1.00  0.00     0.094 A 
ATOM     10  C   UNL     1      31.981  58.209  -1.539  1.00  0.00     0.146 A 
ATOM     11  O   UNL     1      31.475  57.987  -2.747  1.00  0.00    -0.452 OA
ENDROOT
BRANCH   1  12
ATOM     12  C   UNL     1      29.735  57.636  -4.381  1.00  0.00     0.025 A 
ATOM     13  C   UNL     1      29.005  56.478  -4.688  1.00  0.00     0.016 A 
ATOM     14  C   UNL     1      28.601  56.221  -6.000  1.00  0.00     0.051 A 
ATOM     15  C   UNL     1      28.936  57.112  -7.028  1.00  0.00     0.157 A 
ATOM     16  C   UNL     1      30.088  58.516  -5.419  1.00  0.00     0.062 A 
ATOM     17  C   UNL     1      29.688  58.263  -6.736  1.00  0.00     0.158 A 
BRANCH  15  18
ATOM     18  O   UNL     1      28.531  56.855  -8.337  1.00  0.00    -0.504 OA
ATOM     19  H   UNL     1      28.408  55.909  -8.679  1.00  0.00     0.293 HD
ENDBRANCH  15  18
BRANCH  17  20
ATOM     20  O   UNL     1      30.050  59.161  -7.739  1.00  0.00    -0.504 OA
ATOM     21  H   UNL     1      29.458  59.338  -8.541  1.00  0.00     0.293 HD
ENDBRANCH  17  20
ENDBRANCH   1  12
BRANCH   2  22
ATOM     22  O   UNL     1      27.888  57.784  -2.147  1.00  0.00    -0.502 OA
ATOM     23  H   UNL     1      27.436  56.883  -2.047  1.00  0.00     0.293 HD
ENDBRANCH   2  22
BRANCH   6  24
ATOM     24  O   UNL     1      30.899  58.718   1.990  1.00  0.00    -0.507 OA
ATOM     25  H   UNL     1      31.293  58.922   2.901  1.00  0.00     0.293 HD
ENDBRANCH   6  24
BRANCH   8  26
ATOM     26  O   UNL     1      35.305  58.667   0.025  1.00  0.00    -0.508 OA
ATOM     27  H   UNL     1      35.712  59.288   0.715  1.00  0.00     0.293 HD
ENDBRANCH   8  26
TORSDOF 6
ENDMDL
MODEL 6
REMARK VINA RESULT:    -6.724     12.875     14.652
REMARK INTER + INTRA:          -8.430
REMARK INTER:                  -8.103
REMARK INTRA:                  -0.328
REMARK UNBOUND:                -0.331
REMARK SMILES O=c1c(O)c(-c2ccc(O)c(O)c2)oc2cc(O)cc(O)c12
REMARK SMILES IDX 5 1 3 2 2 3 1 4 22 5 20 6 19 7 17 8 16 9 15 10 14 11 6 12
REMARK SMILES IDX 7 13 8 14 9 15 13 16 11 17 10 18 12 20 4 22 21 24 18 26
REMARK H PARENT 10 19 12 21 4 23 21 25 18 27
REMARK Flexibility Score: inf
ROOT
ATOM      1  C   UNL     1      40.653  60.106   6.676  1.00  0.00     0.180 A 
ATOM      2  C   UNL     1      41.884  59.449   6.865  1.00  0.00     0.208 A 
ATOM      3  C   UNL     1      42.010  58.113   6.452  1.00  0.00     0.238 A 
ATOM      4  O   UNL     1      43.111  57.517   6.606  1.00  0.00    -0.285 OA
ATOM      5  C   UNL     1      40.904  57.453   5.877  1.00  0.00     0.111 A 
ATOM      6  C   UNL     1      40.947  56.108   5.439  1.00  0.00     0.134 A 
ATOM      7  C   UNL     1      39.800  55.520   4.886  1.00  0.00     0.093 A 
ATOM      8  C   UNL     1      38.614  56.248   4.764  1.00  0.00     0.123 A 
ATOM      9  C   UNL     1      38.566  57.577   5.195  1.00  0.00     0.094 A 
ATOM     10  C   UNL     1      39.698  58.182   5.748  1.00  0.00     0.146 A 
ATOM     11  O   UNL     1      39.627  59.448   6.145  1.00  0.00    -0.452 OA
ENDROOT
BRANCH   1  12
ATOM     12  C   UNL     1      40.448  61.519   7.069  1.00  0.00     0.025 A 
ATOM     13  C   UNL     1      39.997  61.817   8.364  1.00  0.00     0.016 A 
ATOM     14  C   UNL     1      39.776  63.141   8.750  1.00  0.00     0.051 A 
ATOM     15  C   UNL     1      39.986  64.186   7.840  1.00  0.00     0.157 A 
ATOM     16  C   UNL     1      40.636  62.569   6.152  1.00  0.00     0.062 A 
ATOM     17  C   UNL     1      40.414  63.897   6.534  1.00  0.00     0.158 A 
BRANCH  15  18
ATOM     18  O   UNL     1      39.766  65.507   8.228  1.00  0.00    -0.504 OA
ATOM     19  H   UNL     1      40.534  66.140   8.416  1.00  0.00     0.293 HD
ENDBRANCH  15  18
BRANCH  17  20
ATOM     20  O   UNL     1      40.617  64.913   5.600  1.00  0.00    -0.504 OA
ATOM     21  H   UNL     1      39.859  65.497   5.269  1.00  0.00     0.293 HD
ENDBRANCH  17  20
ENDBRANCH   1  12
BRANCH   2  22
ATOM     22  O   UNL     1      42.950  60.109   7.482  1.00  0.00    -0.502 OA
ATOM     23  H   UNL     1      43.651  60.618   6.956  1.00  0.00     0.293 HD
ENDBRANCH   2  22
BRANCH   6  24
ATOM     24  O   UNL     1      42.116  55.354   5.547  1.00  0.00    -0.507 OA
ATOM     25  H   UNL     1      42.540  55.152   6.445  1.00  0.00     0.293 HD
ENDBRANCH   6  24
BRANCH   8  26
ATOM     26  O   UNL     1      37.488  55.639   4.212  1.00  0.00    -0.508 OA
ATOM     27  H   UNL     1      37.564  54.990   3.438  1.00  0.00     0.293 HD
ENDBRANCH   8  26
TORSDOF 6
ENDMDL
MODEL 7
REMARK VINA RESULT:    -6.718     13.203     15.131
REMARK INTER + INTRA:          -8.424
REMARK INTER:                  -8.091
REMARK INTRA:                  -0.332
REMARK UNBOUND:                -0.331
REMARK SMILES O=c1c(O)c(-c2ccc(O)c(O)c2)oc2cc(O)cc(O)c12
REMARK SMILES IDX 5 1 3 2 2 3 1 4 22 5 20 6 19 7 17 8 16 9 15 10 14 11 6 12
REMARK SMILES IDX 7 13 8 14 9 15 13 16 11 17 10 18 12 20 4 22 21 24 18 26
REMARK H PARENT 10 19 12 21 4 23 21 25 18 27
REMARK Flexibility Score: inf
ROOT
ATOM      1  C   UNL     1      41.133  60.724   6.487  1.00  0.00     0.180 A 
ATOM      2  C   UNL     1      42.031  59.710   6.872  1.00  0.00     0.208 A 
ATOM      3  C   UNL     1      41.705  58.373   6.593  1.00  0.00     0.238 A 
ATOM      4  O   UNL     1      42.506  57.457   6.923  1.00  0.00    -0.285 OA
ATOM      5  C   UNL     1      40.484  58.072   5.954  1.00  0.00     0.111 A 
ATOM      6  C   UNL     1      40.079  56.753   5.641  1.00  0.00     0.134 A 
ATOM      7  C   UNL     1      38.844  56.535   5.012  1.00  0.00     0.093 A 
ATOM      8  C   UNL     1      38.007  57.608   4.694  1.00  0.00     0.123 A 
ATOM      9  C   UNL     1      38.402  58.913   5.001  1.00  0.00     0.094 A 
ATOM     10  C   UNL     1      39.630  59.151   5.625  1.00  0.00     0.146 A 
ATOM     11  O   UNL     1      39.984  60.402   5.901  1.00  0.00    -0.452 OA
ENDROOT
BRANCH   1  12
ATOM     12  C   UNL     1      41.414  62.158   6.731  1.00  0.00     0.025 A 
ATOM     13  C   UNL     1      40.937  62.765   7.902  1.00  0.00     0.016 A 
ATOM     14  C   UNL     1      41.172  64.121   8.143  1.00  0.00     0.051 A 
ATOM     15  C   UNL     1      41.873  64.893   7.208  1.00  0.00     0.157 A 
ATOM     16  C   UNL     1      42.099  62.941   5.785  1.00  0.00     0.062 A 
ATOM     17  C   UNL     1      42.335  64.300   6.021  1.00  0.00     0.158 A 
BRANCH  15  18
ATOM     18  O   UNL     1      42.108  66.246   7.451  1.00  0.00    -0.504 OA
ATOM     19  H   UNL     1      43.041  66.637   7.414  1.00  0.00     0.293 HD
ENDBRANCH  15  18
BRANCH  17  20
ATOM     20  O   UNL     1      43.023  65.044   5.063  1.00  0.00    -0.504 OA
ATOM     21  H   UNL     1      42.547  65.678   4.431  1.00  0.00     0.293 HD
ENDBRANCH  17  20
ENDBRANCH   1  12
BRANCH   2  22
ATOM     22  O   UNL     1      43.211  60.030   7.548  1.00  0.00    -0.502 OA
ATOM     23  H   UNL     1      44.054  60.315   7.063  1.00  0.00     0.293 HD
ENDBRANCH   2  22
BRANCH   6  24
ATOM     24  O   UNL     1      40.890  55.660   5.947  1.00  0.00    -0.507 OA
ATOM     25  H   UNL     1      41.346  55.569   6.847  1.00  0.00     0.293 HD
ENDBRANCH   6  24
BRANCH   8  26
ATOM     26  O   UNL     1      36.785  57.364   4.071  1.00  0.00    -0.508 OA
ATOM     27  H   UNL     1      36.673  57.463   3.069  1.00  0.00     0.293 HD
ENDBRANCH   8  26
TORSDOF 6
ENDMDL
MODEL 8
REMARK VINA RESULT:    -6.709     13.604     15.710
REMARK INTER + INTRA:          -8.413
REMARK INTER:                  -8.120
REMARK INTRA:                  -0.293
REMARK UNBOUND:                -0.331
REMARK SMILES O=c1c(O)c(-c2ccc(O)c(O)c2)oc2cc(O)cc(O)c12
REMARK SMILES IDX 5 1 3 2 2 3 1 4 22 5 20 6 19 7 17 8 16 9 15 10 14 11 6 12
REMARK SMILES IDX 7 13 8 14 9 15 13 16 11 17 10 18 12 20 4 22 21 24 18 26
REMARK H PARENT 10 19 12 21 4 23 21 25 18 27
REMARK Flexibility Score: inf
ROOT
ATOM      1  C   UNL     1      40.815  60.659   6.489  1.00  0.00     0.180 A 
ATOM      2  C   UNL     1      39.956  61.249   7.435  1.00  0.00     0.208 A 
ATOM      3  C   UNL     1      40.036  62.634   7.653  1.00  0.00     0.238 A 
ATOM      4  O   UNL     1      39.264  63.176   8.489  1.00  0.00    -0.285 OA
ATOM      5  C   UNL     1      40.983  63.398   6.939  1.00  0.00     0.111 A 
ATOM      6  C   UNL     1      41.130  64.796   7.102  1.00  0.00     0.134 A 
ATOM      7  C   UNL     1      42.102  65.484   6.361  1.00  0.00     0.093 A 
ATOM      8  C   UNL     1      42.929  64.803   5.464  1.00  0.00     0.123 A 
ATOM      9  C   UNL     1      42.787  63.422   5.298  1.00  0.00     0.094 A 
ATOM     10  C   UNL     1      41.823  62.719   6.026  1.00  0.00     0.146 A 
ATOM     11  O   UNL     1      41.706  61.408   5.846  1.00  0.00    -0.452 OA
ENDROOT
BRANCH   1  12
ATOM     12  C   UNL     1      40.779  59.208   6.192  1.00  0.00     0.025 A 
ATOM     13  C   UNL     1      40.060  58.750   5.077  1.00  0.00     0.016 A 
ATOM     14  C   UNL     1      39.993  57.384   4.789  1.00  0.00     0.051 A 
ATOM     15  C   UNL     1      40.632  56.456   5.621  1.00  0.00     0.157 A 
ATOM     16  C   UNL     1      41.399  58.271   7.037  1.00  0.00     0.062 A 
ATOM     17  C   UNL     1      41.334  56.902   6.754  1.00  0.00     0.158 A 
BRANCH  15  18
ATOM     18  O   UNL     1      40.566  55.094   5.331  1.00  0.00    -0.504 OA
ATOM     19  H   UNL     1      41.075  54.409   5.877  1.00  0.00     0.293 HD
ENDBRANCH  15  18
BRANCH  17  20
ATOM     20  O   UNL     1      41.967  56.002   7.610  1.00  0.00    -0.504 OA
ATOM     21  H   UNL     1      42.265  56.266   8.542  1.00  0.00     0.293 HD
ENDBRANCH  17  20
ENDBRANCH   1  12
BRANCH   2  22
ATOM     22  O   UNL     1      39.061  60.463   8.165  1.00  0.00    -0.502 OA
ATOM     23  H   UNL     1      38.260  60.855   8.646  1.00  0.00     0.293 HD
ENDBRANCH   2  22
BRANCH   6  24
ATOM     24  O   UNL     1      40.321  65.506   7.990  1.00  0.00    -0.507 OA
ATOM     25  H   UNL     1      40.557  65.596   8.972  1.00  0.00     0.293 HD
ENDBRANCH   6  24
BRANCH   8  26
ATOM     26  O   UNL     1      43.888  65.510   4.741  1.00  0.00    -0.508 OA
ATOM     27  H   UNL     1      44.691  65.046   4.332  1.00  0.00     0.293 HD
ENDBRANCH   8  26
TORSDOF 6
ENDMDL
MODEL 9
REMARK VINA RESULT:    -6.593      1.821      7.319
REMARK INTER + INTRA:          -8.273
REMARK INTER:                  -8.702
REMARK INTRA:                   0.430
REMARK UNBOUND:                -0.331
REMARK SMILES O=c1c(O)c(-c2ccc(O)c(O)c2)oc2cc(O)cc(O)c12
REMARK SMILES IDX 5 1 3 2 2 3 1 4 22 5 20 6 19 7 17 8 16 9 15 10 14 11 6 12
REMARK SMILES IDX 7 13 8 14 9 15 13 16 11 17 10 18 12 20 4 22 21 24 18 26
REMARK H PARENT 10 19 12 21 4 23 21 25 18 27
REMARK Flexibility Score: inf
ROOT
ATOM      1  C   UNL     1      29.120  58.047  -1.351  1.00  0.00     0.180 A 
ATOM      2  C   UNL     1      27.979  57.283  -1.044  1.00  0.00     0.208 A 
ATOM      3  C   UNL     1      27.490  57.293   0.272  1.00  0.00     0.238 A 
ATOM      4  O   UNL     1      26.461  56.621   0.557  1.00  0.00    -0.285 OA
ATOM      5  C   UNL     1      28.158  58.047   1.259  1.00  0.00     0.111 A 
ATOM      6  C   UNL     1      27.734  58.107   2.607  1.00  0.00     0.134 A 
ATOM      7  C   UNL     1      28.458  58.874   3.531  1.00  0.00     0.093 A 
ATOM      8  C   UNL     1      29.598  59.578   3.135  1.00  0.00     0.123 A 
ATOM      9  C   UNL     1      30.023  59.522   1.804  1.00  0.00     0.094 A 
ATOM     10  C   UNL     1      29.313  58.766   0.867  1.00  0.00     0.146 A 
ATOM     11  O   UNL     1      29.734  58.734  -0.392  1.00  0.00    -0.452 OA
ENDROOT
BRANCH   1  12
ATOM     12  C   UNL     1      29.685  58.102  -2.719  1.00  0.00     0.025 A 
ATOM     13  C   UNL     1      30.589  59.122  -3.053  1.00  0.00     0.016 A 
ATOM     14  C   UNL     1      31.118  59.206  -4.343  1.00  0.00     0.051 A 
ATOM     15  C   UNL     1      30.737  58.280  -5.324  1.00  0.00     0.157 A 
ATOM     16  C   UNL     1      29.289  57.188  -3.712  1.00  0.00     0.062 A 
ATOM     17  C   UNL     1      29.815  57.269  -5.007  1.00  0.00     0.158 A 
BRANCH  15  18
ATOM     18  O   UNL     1      31.268  58.365  -6.610  1.00  0.00    -0.504 OA
ATOM     19  H   UNL     1      30.682  58.284  -7.432  1.00  0.00     0.293 HD
ENDBRANCH  15  18
BRANCH  17  20
ATOM     20  O   UNL     1      29.405  56.341  -5.964  1.00  0.00    -0.504 OA
ATOM     21  H   UNL     1      28.674  56.548  -6.634  1.00  0.00     0.293 HD
ENDBRANCH  17  20
ENDBRANCH   1  12
BRANCH   2  22
ATOM     22  O   UNL     1      27.363  56.505  -2.028  1.00  0.00    -0.502 OA
ATOM     23  H   UNL     1      27.097  55.540  -1.870  1.00  0.00     0.293 HD
ENDBRANCH   2  22
BRANCH   6  24
ATOM     24  O   UNL     1      26.600  57.415   3.036  1.00  0.00    -0.507 OA
ATOM     25  H   UNL     1      26.621  56.806   3.845  1.00  0.00     0.293 HD
ENDBRANCH   6  24
BRANCH   8  26
ATOM     26  O   UNL     1      30.302  60.331   4.073  1.00  0.00    -0.508 OA
ATOM     27  H   UNL     1      30.757  59.895   4.867  1.00  0.00     0.293 HD
ENDBRANCH   8  26
TORSDOF 6
ENDMDL
