MODEL 1
REMARK VINA RESULT:    -2.481      0.000      0.000
REMARK INTER + INTRA:          -6.106
REMARK INTER:                  -4.802
REMARK INTRA:                  -1.304
REMARK UNBOUND:                -1.304
REMARK SMILES CCCCCCCCCCCCCCCCCC(=O)[O-]
REMARK SMILES IDX 10 1 11 2 12 3 13 4 14 5 15 6 16 7 17 8 18 9 19 10 20 11
REMARK SMILES IDX 9 12 8 13 7 14 6 15 5 16 4 17 3 18 2 19 1 20
REMARK H PARENT
REMARK Flexibility Score: inf
ROOT
ATOM      1  C   UNL     1      57.124  27.318 -34.759  1.00  0.00     0.000 C 
ENDROOT
BRANCH   1   2
ATOM      2  C   UNL     1      55.785  26.560 -34.800  1.00  0.00     0.000 C 
BRANCH   2   3
ATOM      3  C   UNL     1      54.868  27.035 -35.940  1.00  0.00     0.000 C 
BRANCH   3   4
ATOM      4  C   UNL     1      55.044  26.282 -37.275  1.00  0.00     0.000 C 
BRANCH   4   5
ATOM      5  C   UNL     1      54.907  27.152 -38.538  1.00  0.00     0.000 C 
BRANCH   5   6
ATOM      6  C   UNL     1      54.276  28.522 -38.253  1.00  0.00     0.000 C 
BRANCH   6   7
ATOM      7  C   UNL     1      55.279  29.654 -38.519  1.00  0.00     0.006 C 
BRANCH   7   8
ATOM      8  C   UNL     1      54.626  31.040 -38.436  1.00  0.00     0.053 C 
BRANCH   8   9
ATOM      9  C   UNL     1      54.707  31.609 -37.052  1.00  0.00     0.041 C 
ATOM     10  O   UNL     1      55.814  31.673 -36.458  1.00  0.00    -0.550 OA
ATOM     11  O   UNL     1      53.563  32.099 -36.435  1.00  0.00    -0.550 OA
ENDBRANCH   8   9
ENDBRANCH   7   8
ENDBRANCH   6   7
ENDBRANCH   5   6
ENDBRANCH   4   5
ENDBRANCH   3   4
ENDBRANCH   2   3
ENDBRANCH   1   2
BRANCH   1  12
ATOM     12  C   UNL     1      56.942  28.839 -34.872  1.00  0.00     0.000 C 
BRANCH  12  13
ATOM     13  C   UNL     1      57.111  29.556 -33.521  1.00  0.00    -0.000 C 
BRANCH  13  14
ATOM     14  C   UNL     1      55.917  30.477 -33.189  1.00  0.00    -0.000 C 
BRANCH  14  15
ATOM     15  C   UNL     1      55.748  30.759 -31.684  1.00  0.00    -0.000 C 
BRANCH  15  16
ATOM     16  C   UNL     1      57.028  30.596 -30.843  1.00  0.00    -0.000 C 
BRANCH  16  17
ATOM     17  C   UNL     1      56.929  29.571 -29.697  1.00  0.00    -0.000 C 
BRANCH  17  18
ATOM     18  C   UNL     1      57.124  30.204 -28.309  1.00  0.00    -0.000 C 
BRANCH  18  19
ATOM     19  C   UNL     1      56.649  31.664 -28.257  1.00  0.00    -0.003 C 
ATOM     20  C   UNL     1      56.299  32.125 -26.841  1.00  0.00     0.004 C 
ENDBRANCH  18  19
ENDBRANCH  17  18
ENDBRANCH  16  17
ENDBRANCH  15  16
ENDBRANCH  14  15
ENDBRANCH  13  14
ENDBRANCH  12  13
ENDBRANCH   1  12
TORSDOF 16
ENDMDL
MODEL 2
REMARK VINA RESULT:    -2.218     20.208     23.003
REMARK INTER + INTRA:          -5.597
REMARK INTER:                  -4.869
REMARK INTRA:                  -0.728
REMARK UNBOUND:                -1.304
REMARK SMILES CCCCCCCCCCCCCCCCCC(=O)[O-]
REMARK SMILES IDX 10 1 11 2 12 3 13 4 14 5 15 6 16 7 17 8 18 9 19 10 20 11
REMARK SMILES IDX 9 12 8 13 7 14 6 15 5 16 4 17 3 18 2 19 1 20
REMARK H PARENT
REMARK Flexibility Score: inf
ROOT
ATOM      1  C   UNL     1      41.648  13.331 -35.348  1.00  0.00     0.000 C 
ENDROOT
BRANCH   1   2
ATOM      2  C   UNL     1      42.657  13.113 -36.489  1.00  0.00     0.000 C 
BRANCH   2   3
ATOM      3  C   UNL     1      43.823  12.194 -36.085  1.00  0.00     0.000 C 
BRANCH   3   4
ATOM      4  C   UNL     1      43.919  11.889 -34.576  1.00  0.00     0.000 C 
BRANCH   4   5
ATOM      5  C   UNL     1      44.584  12.990 -33.728  1.00  0.00     0.000 C 
BRANCH   5   6
ATOM      6  C   UNL     1      46.118  12.923 -33.762  1.00  0.00     0.000 C 
BRANCH   6   7
ATOM      7  C   UNL     1      46.669  12.314 -32.464  1.00  0.00     0.006 C 
BRANCH   7   8
ATOM      8  C   UNL     1      45.558  11.995 -31.455  1.00  0.00     0.053 C 
BRANCH   8   9
ATOM      9  C   UNL     1      45.782  12.688 -30.146  1.00  0.00     0.041 C 
ATOM     10  O   UNL     1      45.431  13.888 -29.996  1.00  0.00    -0.550 OA
ATOM     11  O   UNL     1      46.347  11.998 -29.082  1.00  0.00    -0.550 OA
ENDBRANCH   8   9
ENDBRANCH   7   8
ENDBRANCH   6   7
ENDBRANCH   5   6
ENDBRANCH   4   5
ENDBRANCH   3   4
ENDBRANCH   2   3
ENDBRANCH   1   2
BRANCH   1  12
ATOM     12  C   UNL     1      40.231  13.625 -35.865  1.00  0.00     0.000 C 
BRANCH  12  13
ATOM     13  C   UNL     1      39.535  12.370 -36.423  1.00  0.00    -0.000 C 
BRANCH  13  14
ATOM     14  C   UNL     1      38.317  12.716 -37.307  1.00  0.00    -0.000 C 
BRANCH  14  15
ATOM     15  C   UNL     1      36.994  12.109 -36.806  1.00  0.00    -0.000 C 
BRANCH  15  16
ATOM     16  C   UNL     1      36.875  11.974 -35.276  1.00  0.00    -0.000 C 
BRANCH  16  17
ATOM     17  C   UNL     1      36.889  13.305 -34.501  1.00  0.00    -0.000 C 
BRANCH  17  18
ATOM     18  C   UNL     1      37.006  13.110 -32.980  1.00  0.00    -0.000 C 
BRANCH  18  19
ATOM     19  C   UNL     1      36.918  14.437 -32.209  1.00  0.00    -0.003 C 
ATOM     20  C   UNL     1      36.944  14.245 -30.692  1.00  0.00     0.004 C 
ENDBRANCH  18  19
ENDBRANCH  17  18
ENDBRANCH  16  17
ENDBRANCH  15  16
ENDBRANCH  14  15
ENDBRANCH  13  14
ENDBRANCH  12  13
ENDBRANCH   1  12
TORSDOF 16
ENDMDL
MODEL 3
REMARK VINA RESULT:    -2.212      1.554      2.151
REMARK INTER + INTRA:          -5.585
REMARK INTER:                  -4.240
REMARK INTRA:                  -1.345
REMARK UNBOUND:                -1.304
REMARK SMILES CCCCCCCCCCCCCCCCCC(=O)[O-]
REMARK SMILES IDX 10 1 11 2 12 3 13 4 14 5 15 6 16 7 17 8 18 9 19 10 20 11
REMARK SMILES IDX 9 12 8 13 7 14 6 15 5 16 4 17 3 18 2 19 1 20
REMARK H PARENT
REMARK Flexibility Score: inf
ROOT
ATOM      1  C   UNL     1      56.931  27.196 -34.678  1.00  0.00     0.000 C 
ENDROOT
BRANCH   1   2
ATOM      2  C   UNL     1      55.531  26.559 -34.739  1.00  0.00     0.000 C 
BRANCH   2   3
ATOM      3  C   UNL     1      54.917  26.607 -36.149  1.00  0.00     0.000 C 
BRANCH   3   4
ATOM      4  C   UNL     1      55.179  25.359 -37.017  1.00  0.00     0.000 C 
BRANCH   4   5
ATOM      5  C   UNL     1      54.758  25.490 -38.493  1.00  0.00     0.000 C 
BRANCH   5   6
ATOM      6  C   UNL     1      53.849  26.701 -38.749  1.00  0.00     0.000 C 
BRANCH   6   7
ATOM      7  C   UNL     1      54.680  27.974 -38.966  1.00  0.00     0.006 C 
BRANCH   7   8
ATOM      8  C   UNL     1      53.838  29.249 -38.823  1.00  0.00     0.053 C 
BRANCH   8   9
ATOM      9  C   UNL     1      54.567  30.312 -38.060  1.00  0.00     0.041 C 
ATOM     10  O   UNL     1      55.813  30.237 -37.903  1.00  0.00    -0.550 OA
ATOM     11  O   UNL     1      53.873  31.403 -37.553  1.00  0.00    -0.550 OA
ENDBRANCH   8   9
ENDBRANCH   7   8
ENDBRANCH   6   7
ENDBRANCH   5   6
ENDBRANCH   4   5
ENDBRANCH   3   4
ENDBRANCH   2   3
ENDBRANCH   1   2
BRANCH   1  12
ATOM     12  C   UNL     1      56.958  28.611 -35.276  1.00  0.00     0.000 C 
BRANCH  12  13
ATOM     13  C   UNL     1      56.999  29.707 -34.196  1.00  0.00    -0.000 C 
BRANCH  13  14
ATOM     14  C   UNL     1      56.079  30.901 -34.533  1.00  0.00    -0.000 C 
BRANCH  14  15
ATOM     15  C   UNL     1      55.703  31.760 -33.311  1.00  0.00    -0.000 C 
BRANCH  15  16
ATOM     16  C   UNL     1      56.793  31.868 -32.228  1.00  0.00    -0.000 C 
BRANCH  16  17
ATOM     17  C   UNL     1      56.287  31.744 -30.779  1.00  0.00    -0.000 C 
BRANCH  17  18
ATOM     18  C   UNL     1      55.943  30.297 -30.387  1.00  0.00    -0.000 C 
BRANCH  18  19
ATOM     19  C   UNL     1      57.125  29.336 -30.589  1.00  0.00    -0.003 C 
ATOM     20  C   UNL     1      56.691  27.959 -31.094  1.00  0.00     0.004 C 
ENDBRANCH  18  19
ENDBRANCH  17  18
ENDBRANCH  16  17
ENDBRANCH  15  16
ENDBRANCH  14  15
ENDBRANCH  13  14
ENDBRANCH  12  13
ENDBRANCH   1  12
TORSDOF 16
ENDMDL
MODEL 4
REMARK VINA RESULT:    -1.862     20.374     22.949
REMARK INTER + INTRA:          -4.908
REMARK INTER:                  -3.890
REMARK INTRA:                  -1.018
REMARK UNBOUND:                -1.304
REMARK SMILES CCCCCCCCCCCCCCCCCC(=O)[O-]
REMARK SMILES IDX 10 1 11 2 12 3 13 4 14 5 15 6 16 7 17 8 18 9 19 10 20 11
REMARK SMILES IDX 9 12 8 13 7 14 6 15 5 16 4 17 3 18 2 19 1 20
REMARK H PARENT
REMARK Flexibility Score: inf
ROOT
ATOM      1  C   UNL     1      39.810  14.803 -35.561  1.00  0.00     0.000 C 
ENDROOT
BRANCH   1   2
ATOM      2  C   UNL     1      41.311  14.495 -35.703  1.00  0.00     0.000 C 
BRANCH   2   3
ATOM      3  C   UNL     1      41.578  13.094 -36.282  1.00  0.00     0.000 C 
BRANCH   3   4
ATOM      4  C   UNL     1      42.997  12.883 -36.848  1.00  0.00     0.000 C 
BRANCH   4   5
ATOM      5  C   UNL     1      43.891  11.929 -36.034  1.00  0.00     0.000 C 
BRANCH   5   6
ATOM      6  C   UNL     1      43.581  11.960 -34.530  1.00  0.00     0.000 C 
BRANCH   6   7
ATOM      7  C   UNL     1      44.701  12.667 -33.754  1.00  0.00     0.006 C 
BRANCH   7   8
ATOM      8  C   UNL     1      44.425  12.711 -32.245  1.00  0.00     0.053 C 
BRANCH   8   9
ATOM      9  C   UNL     1      45.688  12.603 -31.447  1.00  0.00     0.041 C 
ATOM     10  O   UNL     1      46.744  12.180 -31.985  1.00  0.00    -0.550 OA
ATOM     11  O   UNL     1      45.705  13.002 -30.117  1.00  0.00    -0.550 OA
ENDBRANCH   8   9
ENDBRANCH   7   8
ENDBRANCH   6   7
ENDBRANCH   5   6
ENDBRANCH   4   5
ENDBRANCH   3   4
ENDBRANCH   2   3
ENDBRANCH   1   2
BRANCH   1  12
ATOM     12  C   UNL     1      39.111  14.957 -36.920  1.00  0.00     0.000 C 
BRANCH  12  13
ATOM     13  C   UNL     1      37.891  14.029 -37.064  1.00  0.00    -0.000 C 
BRANCH  13  14
ATOM     14  C   UNL     1      38.088  12.681 -36.337  1.00  0.00    -0.000 C 
BRANCH  14  15
ATOM     15  C   UNL     1      37.102  12.452 -35.176  1.00  0.00    -0.000 C 
BRANCH  15  16
ATOM     16  C   UNL     1      36.944  13.641 -34.209  1.00  0.00    -0.000 C 
BRANCH  16  17
ATOM     17  C   UNL     1      37.694  13.497 -32.872  1.00  0.00    -0.000 C 
BRANCH  17  18
ATOM     18  C   UNL     1      36.876  14.002 -31.670  1.00  0.00    -0.000 C 
BRANCH  18  19
ATOM     19  C   UNL     1      37.045  13.113 -30.429  1.00  0.00    -0.003 C 
ATOM     20  C   UNL     1      37.156  13.917 -29.133  1.00  0.00     0.004 C 
ENDBRANCH  18  19
ENDBRANCH  17  18
ENDBRANCH  16  17
ENDBRANCH  15  16
ENDBRANCH  14  15
ENDBRANCH  13  14
ENDBRANCH  12  13
ENDBRANCH   1  12
TORSDOF 16
ENDMDL
MODEL 5
REMARK VINA RESULT:    -1.800     20.250     22.672
REMARK INTER + INTRA:          -4.787
REMARK INTER:                  -4.298
REMARK INTRA:                  -0.489
REMARK UNBOUND:                -1.304
REMARK SMILES CCCCCCCCCCCCCCCCCC(=O)[O-]
REMARK SMILES IDX 10 1 11 2 12 3 13 4 14 5 15 6 16 7 17 8 18 9 19 10 20 11
REMARK SMILES IDX 9 12 8 13 7 14 6 15 5 16 4 17 3 18 2 19 1 20
REMARK H PARENT
REMARK Flexibility Score: inf
ROOT
ATOM      1  C   UNL     1      40.779  13.622 -35.935  1.00  0.00     0.000 C 
ENDROOT
BRANCH   1   2
ATOM      2  C   UNL     1      39.952  14.916 -35.837  1.00  0.00     0.000 C 
BRANCH   2   3
ATOM      3  C   UNL     1      38.527  14.755 -36.394  1.00  0.00     0.000 C 
BRANCH   3   4
ATOM      4  C   UNL     1      38.057  13.297 -36.569  1.00  0.00     0.000 C 
BRANCH   4   5
ATOM      5  C   UNL     1      38.118  12.433 -35.295  1.00  0.00     0.000 C 
BRANCH   5   6
ATOM      6  C   UNL     1      36.875  12.592 -34.407  1.00  0.00     0.000 C 
BRANCH   6   7
ATOM      7  C   UNL     1      37.123  13.623 -33.296  1.00  0.00     0.006 C 
BRANCH   7   8
ATOM      8  C   UNL     1      37.160  12.978 -31.904  1.00  0.00     0.053 C 
BRANCH   8   9
ATOM      9  C   UNL     1      37.202  14.008 -30.817  1.00  0.00     0.041 C 
ATOM     10  O   UNL     1      37.333  15.226 -31.103  1.00  0.00    -0.550 OA
ATOM     11  O   UNL     1      37.063  13.623 -29.490  1.00  0.00    -0.550 OA
ENDBRANCH   8   9
ENDBRANCH   7   8
ENDBRANCH   6   7
ENDBRANCH   5   6
ENDBRANCH   4   5
ENDBRANCH   3   4
ENDBRANCH   2   3
ENDBRANCH   1   2
BRANCH   1  12
ATOM     12  C   UNL     1      41.923  13.733 -36.955  1.00  0.00     0.000 C 
BRANCH  12  13
ATOM     13  C   UNL     1      43.284  13.327 -36.361  1.00  0.00    -0.000 C 
BRANCH  13  14
ATOM     14  C   UNL     1      43.174  12.113 -35.412  1.00  0.00    -0.000 C 
BRANCH  14  15
ATOM     15  C   UNL     1      44.365  11.969 -34.447  1.00  0.00    -0.000 C 
BRANCH  15  16
ATOM     16  C   UNL     1      44.312  12.878 -33.204  1.00  0.00    -0.000 C 
BRANCH  16  17
ATOM     17  C   UNL     1      45.668  13.463 -32.766  1.00  0.00    -0.000 C 
BRANCH  17  18
ATOM     18  C   UNL     1      46.436  12.538 -31.806  1.00  0.00    -0.000 C 
BRANCH  18  19
ATOM     19  C   UNL     1      45.687  12.311 -30.483  1.00  0.00    -0.003 C 
ATOM     20  C   UNL     1      46.625  11.994 -29.317  1.00  0.00     0.004 C 
ENDBRANCH  18  19
ENDBRANCH  17  18
ENDBRANCH  16  17
ENDBRANCH  15  16
ENDBRANCH  14  15
ENDBRANCH  13  14
ENDBRANCH  12  13
ENDBRANCH   1  12
TORSDOF 16
ENDMDL
MODEL 6
REMARK VINA RESULT:    -1.751     18.844     20.283
REMARK INTER + INTRA:          -4.693
REMARK INTER:                  -4.165
REMARK INTRA:                  -0.528
REMARK UNBOUND:                -1.304
REMARK SMILES CCCCCCCCCCCCCCCCCC(=O)[O-]
REMARK SMILES IDX 10 1 11 2 12 3 13 4 14 5 15 6 16 7 17 8 18 9 19 10 20 11
REMARK SMILES IDX 9 12 8 13 7 14 6 15 5 16 4 17 3 18 2 19 1 20
REMARK H PARENT
REMARK Flexibility Score: inf
ROOT
ATOM      1  C   UNL     1      45.550  12.021 -27.804  1.00  0.00     0.000 C 
ENDROOT
BRANCH   1   2
ATOM      2  C   UNL     1      46.862  11.964 -28.606  1.00  0.00     0.000 C 
BRANCH   2   3
ATOM      3  C   UNL     1      46.628  11.875 -30.124  1.00  0.00     0.000 C 
BRANCH   3   4
ATOM      4  C   UNL     1      45.499  12.778 -30.663  1.00  0.00     0.000 C 
BRANCH   4   5
ATOM      5  C   UNL     1      44.789  12.253 -31.925  1.00  0.00     0.000 C 
BRANCH   5   6
ATOM      6  C   UNL     1      44.957  13.183 -33.134  1.00  0.00     0.000 C 
BRANCH   6   7
ATOM      7  C   UNL     1      44.666  12.437 -34.445  1.00  0.00     0.006 C 
BRANCH   7   8
ATOM      8  C   UNL     1      43.170  12.154 -34.631  1.00  0.00     0.053 C 
BRANCH   8   9
ATOM      9  C   UNL     1      42.682  12.611 -35.972  1.00  0.00     0.041 C 
ATOM     10  O   UNL     1      41.686  13.377 -36.056  1.00  0.00    -0.550 OA
ATOM     11  O   UNL     1      43.348  12.218 -37.125  1.00  0.00    -0.550 OA
ENDBRANCH   8   9
ENDBRANCH   7   8
ENDBRANCH   6   7
ENDBRANCH   5   6
ENDBRANCH   4   5
ENDBRANCH   3   4
ENDBRANCH   2   3
ENDBRANCH   1   2
BRANCH   1  12
ATOM     12  C   UNL     1      45.783  11.916 -26.289  1.00  0.00     0.000 C 
BRANCH  12  13
ATOM     13  C   UNL     1      44.490  12.122 -25.478  1.00  0.00    -0.000 C 
BRANCH  13  14
ATOM     14  C   UNL     1      44.771  12.555 -24.023  1.00  0.00    -0.000 C 
BRANCH  14  15
ATOM     15  C   UNL     1      45.911  13.583 -23.890  1.00  0.00    -0.000 C 
BRANCH  15  16
ATOM     16  C   UNL     1      45.609  14.776 -22.963  1.00  0.00    -0.000 C 
BRANCH  16  17
ATOM     17  C   UNL     1      46.646  15.914 -23.007  1.00  0.00    -0.000 C 
BRANCH  17  18
ATOM     18  C   UNL     1      46.004  17.311 -22.967  1.00  0.00    -0.000 C 
BRANCH  18  19
ATOM     19  C   UNL     1      47.047  18.439 -22.992  1.00  0.00    -0.003 C 
ATOM     20  C   UNL     1      47.022  19.242 -24.294  1.00  0.00     0.004 C 
ENDBRANCH  18  19
ENDBRANCH  17  18
ENDBRANCH  16  17
ENDBRANCH  15  16
ENDBRANCH  14  15
ENDBRANCH  13  14
ENDBRANCH  12  13
ENDBRANCH   1  12
TORSDOF 16
ENDMDL
MODEL 7
REMARK VINA RESULT:    -1.715      3.585      8.548
REMARK INTER + INTRA:          -4.623
REMARK INTER:                  -3.385
REMARK INTRA:                  -1.237
REMARK UNBOUND:                -1.304
REMARK SMILES CCCCCCCCCCCCCCCCCC(=O)[O-]
REMARK SMILES IDX 10 1 11 2 12 3 13 4 14 5 15 6 16 7 17 8 18 9 19 10 20 11
REMARK SMILES IDX 9 12 8 13 7 14 6 15 5 16 4 17 3 18 2 19 1 20
REMARK H PARENT
REMARK Flexibility Score: inf
ROOT
ATOM      1  C   UNL     1      56.555  28.622 -35.271  1.00  0.00     0.000 C 
ENDROOT
BRANCH   1   2
ATOM      2  C   UNL     1      55.744  29.623 -36.114  1.00  0.00     0.000 C 
BRANCH   2   3
ATOM      3  C   UNL     1      56.228  31.073 -35.944  1.00  0.00     0.000 C 
BRANCH   3   4
ATOM      4  C   UNL     1      55.231  32.013 -35.235  1.00  0.00     0.000 C 
BRANCH   4   5
ATOM      5  C   UNL     1      55.196  31.891 -33.700  1.00  0.00     0.000 C 
BRANCH   5   6
ATOM      6  C   UNL     1      56.594  31.932 -33.067  1.00  0.00     0.000 C 
BRANCH   6   7
ATOM      7  C   UNL     1      56.884  30.636 -32.296  1.00  0.00     0.006 C 
BRANCH   7   8
ATOM      8  C   UNL     1      55.747  30.265 -31.335  1.00  0.00     0.053 C 
BRANCH   8   9
ATOM      9  C   UNL     1      56.146  29.162 -30.403  1.00  0.00     0.041 C 
ATOM     10  O   UNL     1      55.930  29.267 -29.168  1.00  0.00    -0.550 OA
ATOM     11  O   UNL     1      56.726  28.004 -30.904  1.00  0.00    -0.550 OA
ENDBRANCH   8   9
ENDBRANCH   7   8
ENDBRANCH   6   7
ENDBRANCH   5   6
ENDBRANCH   4   5
ENDBRANCH   3   4
ENDBRANCH   2   3
ENDBRANCH   1   2
BRANCH   1  12
ATOM     12  C   UNL     1      55.659  27.630 -34.514  1.00  0.00     0.000 C 
BRANCH  12  13
ATOM     13  C   UNL     1      55.823  26.185 -35.017  1.00  0.00    -0.000 C 
BRANCH  13  14
ATOM     14  C   UNL     1      55.269  25.992 -36.445  1.00  0.00    -0.000 C 
BRANCH  14  15
ATOM     15  C   UNL     1      54.644  24.604 -36.686  1.00  0.00    -0.000 C 
BRANCH  15  16
ATOM     16  C   UNL     1      54.441  24.228 -38.166  1.00  0.00    -0.000 C 
BRANCH  16  17
ATOM     17  C   UNL     1      54.911  22.812 -38.549  1.00  0.00    -0.000 C 
BRANCH  17  18
ATOM     18  C   UNL     1      53.803  21.755 -38.408  1.00  0.00    -0.000 C 
BRANCH  18  19
ATOM     19  C   UNL     1      54.211  20.594 -37.487  1.00  0.00    -0.003 C 
ATOM     20  C   UNL     1      53.976  19.223 -38.121  1.00  0.00     0.004 C 
ENDBRANCH  18  19
ENDBRANCH  17  18
ENDBRANCH  16  17
ENDBRANCH  15  16
ENDBRANCH  14  15
ENDBRANCH  13  14
ENDBRANCH  12  13
ENDBRANCH   1  12
TORSDOF 16
ENDMDL
MODEL 8
REMARK VINA RESULT:    -1.445     20.396     22.232
REMARK INTER + INTRA:          -4.101
REMARK INTER:                  -4.617
REMARK INTRA:                   0.516
REMARK UNBOUND:                -1.304
REMARK SMILES CCCCCCCCCCCCCCCCCC(=O)[O-]
REMARK SMILES IDX 10 1 11 2 12 3 13 4 14 5 15 6 16 7 17 8 18 9 19 10 20 11
REMARK SMILES IDX 9 12 8 13 7 14 6 15 5 16 4 17 3 18 2 19 1 20
REMARK H PARENT
REMARK Flexibility Score: inf
ROOT
ATOM      1  C   UNL     1      43.073  12.253 -36.509  1.00  0.00     0.000 C 
ENDROOT
BRANCH   1   2
ATOM      2  C   UNL     1      42.026  13.321 -36.151  1.00  0.00     0.000 C 
BRANCH   2   3
ATOM      3  C   UNL     1      40.843  12.750 -35.350  1.00  0.00     0.000 C 
BRANCH   3   4
ATOM      4  C   UNL     1      39.556  12.514 -36.168  1.00  0.00     0.000 C 
BRANCH   4   5
ATOM      5  C   UNL     1      38.502  13.631 -36.064  1.00  0.00     0.000 C 
BRANCH   5   6
ATOM      6  C   UNL     1      38.090  13.930 -34.615  1.00  0.00     0.000 C 
BRANCH   6   7
ATOM      7  C   UNL     1      37.067  12.900 -34.113  1.00  0.00     0.006 C 
BRANCH   7   8
ATOM      8  C   UNL     1      36.875  12.966 -32.592  1.00  0.00     0.053 C 
BRANCH   8   9
ATOM      9  C   UNL     1      36.984  14.369 -32.080  1.00  0.00     0.041 C 
ATOM     10  O   UNL     1      37.202  14.583 -30.859  1.00  0.00    -0.550 OA
ATOM     11  O   UNL     1      36.878  15.440 -32.958  1.00  0.00    -0.550 OA
ENDBRANCH   8   9
ENDBRANCH   7   8
ENDBRANCH   6   7
ENDBRANCH   5   6
ENDBRANCH   4   5
ENDBRANCH   3   4
ENDBRANCH   2   3
ENDBRANCH   1   2
BRANCH   1  12
ATOM     12  C   UNL     1      44.040  11.966 -35.350  1.00  0.00     0.000 C 
BRANCH  12  13
ATOM     13  C   UNL     1      43.709  12.785 -34.089  1.00  0.00    -0.000 C 
BRANCH  13  14
ATOM     14  C   UNL     1      44.378  12.211 -32.822  1.00  0.00    -0.000 C 
BRANCH  14  15
ATOM     15  C   UNL     1      45.803  12.742 -32.577  1.00  0.00    -0.000 C 
BRANCH  15  16
ATOM     16  C   UNL     1      46.491  12.204 -31.308  1.00  0.00    -0.000 C 
BRANCH  16  17
ATOM     17  C   UNL     1      45.909  12.723 -29.980  1.00  0.00    -0.000 C 
BRANCH  17  18
ATOM     18  C   UNL     1      46.471  11.987 -28.752  1.00  0.00    -0.000 C 
BRANCH  18  19
ATOM     19  C   UNL     1      45.473  11.945 -27.584  1.00  0.00    -0.003 C 
ATOM     20  C   UNL     1      46.159  11.877 -26.219  1.00  0.00     0.004 C 
ENDBRANCH  18  19
ENDBRANCH  17  18
ENDBRANCH  16  17
ENDBRANCH  15  16
ENDBRANCH  14  15
ENDBRANCH  13  14
ENDBRANCH  12  13
ENDBRANCH   1  12
TORSDOF 16
ENDMDL
MODEL 9
REMARK VINA RESULT:    -1.173      4.694      6.634
REMARK INTER + INTRA:          -3.575
REMARK INTER:                  -2.427
REMARK INTRA:                  -1.147
REMARK UNBOUND:                -1.304
REMARK SMILES CCCCCCCCCCCCCCCCCC(=O)[O-]
REMARK SMILES IDX 10 1 11 2 12 3 13 4 14 5 15 6 16 7 17 8 18 9 19 10 20 11
REMARK SMILES IDX 9 12 8 13 7 14 6 15 5 16 4 17 3 18 2 19 1 20
REMARK H PARENT
REMARK Flexibility Score: inf
ROOT
ATOM      1  C   UNL     1      57.104  27.067 -34.772  1.00  0.00     0.000 C 
ENDROOT
BRANCH   1   2
ATOM      2  C   UNL     1      56.079  25.919 -34.772  1.00  0.00     0.000 C 
BRANCH   2   3
ATOM      3  C   UNL     1      55.020  26.067 -35.877  1.00  0.00     0.000 C 
BRANCH   3   4
ATOM      4  C   UNL     1      54.710  24.775 -36.660  1.00  0.00     0.000 C 
BRANCH   4   5
ATOM      5  C   UNL     1      54.774  24.908 -38.193  1.00  0.00     0.000 C 
BRANCH   5   6
ATOM      6  C   UNL     1      54.469  23.590 -38.920  1.00  0.00     0.000 C 
BRANCH   6   7
ATOM      7  C   UNL     1      54.478  22.409 -37.938  1.00  0.00     0.006 C 
BRANCH   7   8
ATOM      8  C   UNL     1      53.567  21.263 -38.400  1.00  0.00     0.053 C 
BRANCH   8   9
ATOM      9  C   UNL     1      54.031  19.940 -37.873  1.00  0.00     0.041 C 
ATOM     10  O   UNL     1      54.526  19.856 -36.720  1.00  0.00    -0.550 OA
ATOM     11  O   UNL     1      53.883  18.795 -38.645  1.00  0.00    -0.550 OA
ENDBRANCH   8   9
ENDBRANCH   7   8
ENDBRANCH   6   7
ENDBRANCH   5   6
ENDBRANCH   4   5
ENDBRANCH   3   4
ENDBRANCH   2   3
ENDBRANCH   1   2
BRANCH   1  12
ATOM     12  C   UNL     1      56.691  28.224 -33.850  1.00  0.00     0.000 C 
BRANCH  12  13
ATOM     13  C   UNL     1      56.842  27.873 -32.359  1.00  0.00    -0.000 C 
BRANCH  13  14
ATOM     14  C   UNL     1      56.113  28.878 -31.440  1.00  0.00    -0.000 C 
BRANCH  14  15
ATOM     15  C   UNL     1      56.283  30.347 -31.868  1.00  0.00    -0.000 C 
BRANCH  15  16
ATOM     16  C   UNL     1      54.974  31.151 -31.982  1.00  0.00    -0.000 C 
BRANCH  16  17
ATOM     17  C   UNL     1      54.900  32.108 -33.186  1.00  0.00    -0.000 C 
BRANCH  17  18
ATOM     18  C   UNL     1      55.895  31.745 -34.302  1.00  0.00    -0.000 C 
BRANCH  18  19
ATOM     19  C   UNL     1      55.260  31.810 -35.700  1.00  0.00    -0.003 C 
ATOM     20  C   UNL     1      55.632  30.613 -36.577  1.00  0.00     0.004 C 
ENDBRANCH  18  19
ENDBRANCH  17  18
ENDBRANCH  16  17
ENDBRANCH  15  16
ENDBRANCH  14  15
ENDBRANCH  13  14
ENDBRANCH  12  13
ENDBRANCH   1  12
TORSDOF 16
ENDMDL
