MODEL 1
REMARK VINA RESULT:    -4.073      0.000      0.000
REMARK INTER + INTRA:         -13.963
REMARK INTER:                 -10.264
REMARK INTRA:                  -3.699
REMARK UNBOUND:                -3.699
REMARK SMILES CCCCCCCCCCCCCCCCCCCCCCCCCCCC(=O)[O-]
REMARK SMILES IDX 15 1 16 2 17 3 18 4 19 5 20 6 21 7 22 8 23 9 24 10 25 11
REMARK SMILES IDX 26 12 27 13 28 14 29 15 30 16 14 17 13 18 12 19 11 20 10 21
REMARK SMILES IDX 9 22 8 23 7 24 6 25 5 26 4 27 3 28 2 29 1 30
REMARK H PARENT
REMARK Flexibility Score: inf
ROOT
ATOM      1  C   UNL     1     -15.799  -2.949 -17.390  1.00  0.00     0.000 C 
ENDROOT
BRANCH   1   2
ATOM      2  C   UNL     1     -15.965  -2.404 -18.820  1.00  0.00     0.000 C 
BRANCH   2   3
ATOM      3  C   UNL     1     -17.438  -2.202 -19.215  1.00  0.00     0.000 C 
BRANCH   3   4
ATOM      4  C   UNL     1     -17.826  -0.717 -19.289  1.00  0.00     0.000 C 
BRANCH   4   5
ATOM      5  C   UNL     1     -18.987  -0.463 -20.267  1.00  0.00     0.000 C 
BRANCH   5   6
ATOM      6  C   UNL     1     -19.346  -1.705 -21.103  1.00  0.00     0.000 C 
BRANCH   6   7
ATOM      7  C   UNL     1     -18.989  -1.600 -22.596  1.00  0.00     0.000 C 
BRANCH   7   8
ATOM      8  C   UNL     1     -17.592  -1.006 -22.834  1.00  0.00     0.000 C 
BRANCH   8   9
ATOM      9  C   UNL     1     -17.639   0.406 -23.444  1.00  0.00     0.000 C 
BRANCH   9  10
ATOM     10  C   UNL     1     -19.050   0.820 -23.915  1.00  0.00     0.000 C 
BRANCH  10  11
ATOM     11  C   UNL     1     -19.467   2.193 -23.369  1.00  0.00     0.000 C 
BRANCH  11  12
ATOM     12  C   UNL     1     -19.306   3.281 -24.441  1.00  0.00     0.006 C 
BRANCH  12  13
ATOM     13  C   UNL     1     -19.106   4.675 -23.832  1.00  0.00     0.053 C 
BRANCH  13  14
ATOM     14  C   UNL     1     -18.191   5.521 -24.662  1.00  0.00     0.041 C 
ATOM     15  O   UNL     1     -17.048   5.095 -24.980  1.00  0.00    -0.550 OA
ATOM     16  O   UNL     1     -18.603   6.775 -25.097  1.00  0.00    -0.550 OA
ENDBRANCH  13  14
ENDBRANCH  12  13
ENDBRANCH  11  12
ENDBRANCH  10  11
ENDBRANCH   9  10
ENDBRANCH   8   9
ENDBRANCH   7   8
ENDBRANCH   6   7
ENDBRANCH   5   6
ENDBRANCH   4   5
ENDBRANCH   3   4
ENDBRANCH   2   3
ENDBRANCH   1   2
BRANCH   1  17
ATOM     17  C   UNL     1     -15.280  -1.925 -16.363  1.00  0.00     0.000 C 
BRANCH  17  18
ATOM     18  C   UNL     1     -16.247  -1.712 -15.189  1.00  0.00     0.000 C 
BRANCH  18  19
ATOM     19  C   UNL     1     -17.427  -0.817 -15.600  1.00  0.00     0.000 C 
BRANCH  19  20
ATOM     20  C   UNL     1     -18.494  -0.707 -14.499  1.00  0.00     0.000 C 
BRANCH  20  21
ATOM     21  C   UNL     1     -19.834  -1.336 -14.911  1.00  0.00     0.000 C 
BRANCH  21  22
ATOM     22  C   UNL     1     -19.809  -1.778 -16.380  1.00  0.00    -0.000 C 
BRANCH  22  23
ATOM     23  C   UNL     1     -19.997  -3.296 -16.551  1.00  0.00    -0.000 C 
BRANCH  23  24
ATOM     24  C   UNL     1     -19.629  -4.111 -15.292  1.00  0.00    -0.000 C 
BRANCH  24  25
ATOM     25  C   UNL     1     -18.296  -4.862 -15.454  1.00  0.00    -0.000 C 
BRANCH  25  26
ATOM     26  C   UNL     1     -18.219  -5.655 -16.769  1.00  0.00    -0.000 C 
BRANCH  26  27
ATOM     27  C   UNL     1     -19.092  -6.921 -16.747  1.00  0.00    -0.000 C 
BRANCH  27  28
ATOM     28  C   UNL     1     -18.271  -8.214 -16.886  1.00  0.00    -0.000 C 
BRANCH  28  29
ATOM     29  C   UNL     1     -18.242  -9.070 -15.603  1.00  0.00    -0.003 C 
ATOM     30  C   UNL     1     -17.377  -8.443 -14.509  1.00  0.00     0.004 C 
ENDBRANCH  28  29
ENDBRANCH  27  28
ENDBRANCH  26  27
ENDBRANCH  25  26
ENDBRANCH  24  25
ENDBRANCH  23  24
ENDBRANCH  22  23
ENDBRANCH  21  22
ENDBRANCH  20  21
ENDBRANCH  19  20
ENDBRANCH  18  19
ENDBRANCH  17  18
ENDBRANCH   1  17
TORSDOF 26
ENDMDL
MODEL 2
REMARK VINA RESULT:    -3.670      4.868      9.710
REMARK INTER + INTRA:         -12.946
REMARK INTER:                  -8.835
REMARK INTRA:                  -4.112
REMARK UNBOUND:                -3.699
REMARK SMILES CCCCCCCCCCCCCCCCCCCCCCCCCCCC(=O)[O-]
REMARK SMILES IDX 15 1 16 2 17 3 18 4 19 5 20 6 21 7 22 8 23 9 24 10 25 11
REMARK SMILES IDX 26 12 27 13 28 14 29 15 30 16 14 17 13 18 12 19 11 20 10 21
REMARK SMILES IDX 9 22 8 23 7 24 6 25 5 26 4 27 3 28 2 29 1 30
REMARK H PARENT
REMARK Flexibility Score: inf
ROOT
ATOM      1  C   UNL     1     -15.330  -2.247 -19.221  1.00  0.00     0.000 C 
ENDROOT
BRANCH   1   2
ATOM      2  C   UNL     1     -16.029  -2.758 -17.949  1.00  0.00     0.000 C 
BRANCH   2   3
ATOM      3  C   UNL     1     -15.411  -2.191 -16.659  1.00  0.00     0.000 C 
BRANCH   3   4
ATOM      4  C   UNL     1     -16.344  -2.341 -15.447  1.00  0.00     0.000 C 
BRANCH   4   5
ATOM      5  C   UNL     1     -17.223  -1.097 -15.227  1.00  0.00     0.000 C 
BRANCH   5   6
ATOM      6  C   UNL     1     -18.483  -1.092 -16.113  1.00  0.00     0.000 C 
BRANCH   6   7
ATOM      7  C   UNL     1     -19.413  -2.302 -15.914  1.00  0.00     0.000 C 
BRANCH   7   8
ATOM      8  C   UNL     1     -20.124  -2.727 -17.208  1.00  0.00     0.000 C 
BRANCH   8   9
ATOM      9  C   UNL     1     -19.513  -3.992 -17.836  1.00  0.00     0.000 C 
BRANCH   9  10
ATOM     10  C   UNL     1     -19.583  -5.227 -16.912  1.00  0.00     0.000 C 
BRANCH  10  11
ATOM     11  C   UNL     1     -18.191  -5.760 -16.545  1.00  0.00     0.000 C 
BRANCH  11  12
ATOM     12  C   UNL     1     -17.966  -5.705 -15.027  1.00  0.00     0.006 C 
BRANCH  12  13
ATOM     13  C   UNL     1     -16.576  -6.215 -14.624  1.00  0.00     0.053 C 
BRANCH  13  14
ATOM     14  C   UNL     1     -16.624  -7.623 -14.114  1.00  0.00     0.041 C 
ATOM     15  O   UNL     1     -15.564  -8.296 -14.009  1.00  0.00    -0.550 OA
ATOM     16  O   UNL     1     -17.838  -8.187 -13.740  1.00  0.00    -0.550 OA
ENDBRANCH  13  14
ENDBRANCH  12  13
ENDBRANCH  11  12
ENDBRANCH  10  11
ENDBRANCH   9  10
ENDBRANCH   8   9
ENDBRANCH   7   8
ENDBRANCH   6   7
ENDBRANCH   5   6
ENDBRANCH   4   5
ENDBRANCH   3   4
ENDBRANCH   2   3
ENDBRANCH   1   2
BRANCH   1  17
ATOM     17  C   UNL     1     -16.275  -1.945 -20.401  1.00  0.00     0.000 C 
BRANCH  17  18
ATOM     18  C   UNL     1     -17.231  -0.776 -20.118  1.00  0.00     0.000 C 
BRANCH  18  19
ATOM     19  C   UNL     1     -18.677  -1.270 -19.964  1.00  0.00     0.000 C 
BRANCH  19  20
ATOM     20  C   UNL     1     -19.685  -0.115 -19.852  1.00  0.00     0.000 C 
BRANCH  20  21
ATOM     21  C   UNL     1     -19.018   1.220 -19.490  1.00  0.00     0.000 C 
BRANCH  21  22
ATOM     22  C   UNL     1     -20.055   2.345 -19.380  1.00  0.00    -0.000 C 
BRANCH  22  23
ATOM     23  C   UNL     1     -19.418   3.746 -19.359  1.00  0.00    -0.000 C 
BRANCH  23  24
ATOM     24  C   UNL     1     -19.018   4.265 -20.757  1.00  0.00    -0.000 C 
BRANCH  24  25
ATOM     25  C   UNL     1     -20.123   4.030 -21.803  1.00  0.00    -0.000 C 
BRANCH  25  26
ATOM     26  C   UNL     1     -19.606   3.308 -23.058  1.00  0.00    -0.000 C 
BRANCH  26  27
ATOM     27  C   UNL     1     -20.033   1.832 -23.108  1.00  0.00    -0.000 C 
BRANCH  27  28
ATOM     28  C   UNL     1     -18.946   0.916 -23.696  1.00  0.00    -0.000 C 
BRANCH  28  29
ATOM     29  C   UNL     1     -19.484  -0.440 -24.198  1.00  0.00    -0.003 C 
ATOM     30  C   UNL     1     -18.919  -1.617 -23.402  1.00  0.00     0.004 C 
ENDBRANCH  28  29
ENDBRANCH  27  28
ENDBRANCH  26  27
ENDBRANCH  25  26
ENDBRANCH  24  25
ENDBRANCH  23  24
ENDBRANCH  22  23
ENDBRANCH  21  22
ENDBRANCH  20  21
ENDBRANCH  19  20
ENDBRANCH  18  19
ENDBRANCH  17  18
ENDBRANCH   1  17
TORSDOF 26
ENDMDL
MODEL 3
REMARK VINA RESULT:    -3.612     16.353     19.999
REMARK INTER + INTRA:         -12.800
REMARK INTER:                  -9.938
REMARK INTRA:                  -2.862
REMARK UNBOUND:                -3.699
REMARK SMILES CCCCCCCCCCCCCCCCCCCCCCCCCCCC(=O)[O-]
REMARK SMILES IDX 15 1 16 2 17 3 18 4 19 5 20 6 21 7 22 8 23 9 24 10 25 11
REMARK SMILES IDX 26 12 27 13 28 14 29 15 30 16 14 17 13 18 12 19 11 20 10 21
REMARK SMILES IDX 9 22 8 23 7 24 6 25 5 26 4 27 3 28 2 29 1 30
REMARK H PARENT
REMARK Flexibility Score: inf
ROOT
ATOM      1  C   UNL     1      -4.760  -7.408 -17.117  1.00  0.00     0.000 C 
ENDROOT
BRANCH   1   2
ATOM      2  C   UNL     1      -5.258  -7.687 -15.687  1.00  0.00     0.000 C 
BRANCH   2   3
ATOM      3  C   UNL     1      -4.474  -8.812 -14.990  1.00  0.00     0.000 C 
BRANCH   3   4
ATOM      4  C   UNL     1      -5.386  -9.957 -14.522  1.00  0.00     0.000 C 
BRANCH   4   5
ATOM      5  C   UNL     1      -6.261 -10.513 -15.659  1.00  0.00     0.000 C 
BRANCH   5   6
ATOM      6  C   UNL     1      -5.512 -11.522 -16.551  1.00  0.00     0.000 C 
BRANCH   6   7
ATOM      7  C   UNL     1      -4.689 -10.888 -17.686  1.00  0.00     0.000 C 
BRANCH   7   8
ATOM      8  C   UNL     1      -3.608 -11.832 -18.237  1.00  0.00     0.000 C 
BRANCH   8   9
ATOM      9  C   UNL     1      -2.226 -11.588 -17.607  1.00  0.00     0.000 C 
BRANCH   9  10
ATOM     10  C   UNL     1      -2.277 -11.398 -16.076  1.00  0.00     0.000 C 
BRANCH  10  11
ATOM     11  C   UNL     1      -0.897 -11.559 -15.421  1.00  0.00     0.000 C 
BRANCH  11  12
ATOM     12  C   UNL     1       0.087 -10.508 -15.953  1.00  0.00     0.006 C 
BRANCH  12  13
ATOM     13  C   UNL     1      -0.422  -9.075 -15.746  1.00  0.00     0.053 C 
BRANCH  13  14
ATOM     14  C   UNL     1      -0.551  -8.733 -14.293  1.00  0.00     0.041 C 
ATOM     15  O   UNL     1       0.124  -9.358 -13.432  1.00  0.00    -0.550 OA
ATOM     16  O   UNL     1      -1.406  -7.714 -13.890  1.00  0.00    -0.550 OA
ENDBRANCH  13  14
ENDBRANCH  12  13
ENDBRANCH  11  12
ENDBRANCH  10  11
ENDBRANCH   9  10
ENDBRANCH   8   9
ENDBRANCH   7   8
ENDBRANCH   6   7
ENDBRANCH   5   6
ENDBRANCH   4   5
ENDBRANCH   3   4
ENDBRANCH   2   3
ENDBRANCH   1   2
BRANCH   1  17
ATOM     17  C   UNL     1      -3.308  -6.902 -17.208  1.00  0.00     0.000 C 
BRANCH  17  18
ATOM     18  C   UNL     1      -2.429  -7.768 -18.122  1.00  0.00     0.000 C 
BRANCH  18  19
ATOM     19  C   UNL     1      -2.737  -7.499 -19.603  1.00  0.00     0.000 C 
BRANCH  19  20
ATOM     20  C   UNL     1      -1.486  -7.591 -20.491  1.00  0.00     0.000 C 
BRANCH  20  21
ATOM     21  C   UNL     1      -1.122  -9.039 -20.853  1.00  0.00     0.000 C 
BRANCH  21  22
ATOM     22  C   UNL     1      -0.149  -9.086 -22.038  1.00  0.00    -0.000 C 
BRANCH  22  23
ATOM     23  C   UNL     1      -0.853  -8.921 -23.397  1.00  0.00    -0.000 C 
BRANCH  23  24
ATOM     24  C   UNL     1      -2.157  -9.737 -23.521  1.00  0.00    -0.000 C 
BRANCH  24  25
ATOM     25  C   UNL     1      -1.889 -11.211 -23.875  1.00  0.00    -0.000 C 
BRANCH  25  26
ATOM     26  C   UNL     1      -1.156 -11.375 -25.216  1.00  0.00    -0.000 C 
BRANCH  26  27
ATOM     27  C   UNL     1      -1.969 -10.835 -26.404  1.00  0.00    -0.000 C 
BRANCH  27  28
ATOM     28  C   UNL     1      -1.095 -10.120 -27.449  1.00  0.00    -0.000 C 
BRANCH  28  29
ATOM     29  C   UNL     1      -0.124  -9.088 -26.841  1.00  0.00    -0.003 C 
ATOM     30  C   UNL     1      -0.092  -7.784 -27.637  1.00  0.00     0.004 C 
ENDBRANCH  28  29
ENDBRANCH  27  28
ENDBRANCH  26  27
ENDBRANCH  25  26
ENDBRANCH  24  25
ENDBRANCH  23  24
ENDBRANCH  22  23
ENDBRANCH  21  22
ENDBRANCH  20  21
ENDBRANCH  19  20
ENDBRANCH  18  19
ENDBRANCH  17  18
ENDBRANCH   1  17
TORSDOF 26
ENDMDL
MODEL 4
REMARK VINA RESULT:    -3.571     16.137     19.881
REMARK INTER + INTRA:         -12.699
REMARK INTER:                  -9.730
REMARK INTRA:                  -2.968
REMARK UNBOUND:                -3.699
REMARK SMILES CCCCCCCCCCCCCCCCCCCCCCCCCCCC(=O)[O-]
REMARK SMILES IDX 15 1 16 2 17 3 18 4 19 5 20 6 21 7 22 8 23 9 24 10 25 11
REMARK SMILES IDX 26 12 27 13 28 14 29 15 30 16 14 17 13 18 12 19 11 20 10 21
REMARK SMILES IDX 9 22 8 23 7 24 6 25 5 26 4 27 3 28 2 29 1 30
REMARK H PARENT
REMARK Flexibility Score: inf
ROOT
ATOM      1  C   UNL     1      -4.555  -7.738 -18.925  1.00  0.00     0.000 C 
ENDROOT
BRANCH   1   2
ATOM      2  C   UNL     1      -4.754  -7.223 -17.488  1.00  0.00     0.000 C 
BRANCH   2   3
ATOM      3  C   UNL     1      -3.795  -7.880 -16.480  1.00  0.00     0.000 C 
BRANCH   3   4
ATOM      4  C   UNL     1      -4.421  -8.023 -15.084  1.00  0.00     0.000 C 
BRANCH   4   5
ATOM      5  C   UNL     1      -5.851  -8.588 -15.138  1.00  0.00     0.000 C 
BRANCH   5   6
ATOM      6  C   UNL     1      -5.985  -9.944 -14.420  1.00  0.00     0.000 C 
BRANCH   6   7
ATOM      7  C   UNL     1      -5.893 -11.172 -15.344  1.00  0.00     0.000 C 
BRANCH   7   8
ATOM      8  C   UNL     1      -4.717 -12.096 -14.991  1.00  0.00     0.000 C 
BRANCH   8   9
ATOM      9  C   UNL     1      -3.356 -11.520 -15.419  1.00  0.00     0.000 C 
BRANCH   9  10
ATOM     10  C   UNL     1      -2.193 -11.953 -14.500  1.00  0.00     0.000 C 
BRANCH  10  11
ATOM     11  C   UNL     1      -1.744 -10.826 -13.558  1.00  0.00     0.000 C 
BRANCH  11  12
ATOM     12  C   UNL     1      -0.731  -9.904 -14.251  1.00  0.00     0.006 C 
BRANCH  12  13
ATOM     13  C   UNL     1      -1.159  -8.431 -14.208  1.00  0.00     0.053 C 
BRANCH  13  14
ATOM     14  C   UNL     1      -0.509  -7.629 -15.294  1.00  0.00     0.041 C 
ATOM     15  O   UNL     1       0.114  -8.208 -16.224  1.00  0.00    -0.550 OA
ATOM     16  O   UNL     1      -0.603  -6.242 -15.287  1.00  0.00    -0.550 OA
ENDBRANCH  13  14
ENDBRANCH  12  13
ENDBRANCH  11  12
ENDBRANCH  10  11
ENDBRANCH   9  10
ENDBRANCH   8   9
ENDBRANCH   7   8
ENDBRANCH   6   7
ENDBRANCH   5   6
ENDBRANCH   4   5
ENDBRANCH   3   4
ENDBRANCH   2   3
ENDBRANCH   1   2
BRANCH   1  17
ATOM     17  C   UNL     1      -3.139  -7.530 -19.496  1.00  0.00     0.000 C 
BRANCH  17  18
ATOM     18  C   UNL     1      -2.537  -8.815 -20.085  1.00  0.00     0.000 C 
BRANCH  18  19
ATOM     19  C   UNL     1      -1.245  -9.206 -19.352  1.00  0.00     0.000 C 
BRANCH  19  20
ATOM     20  C   UNL     1      -1.338 -10.592 -18.693  1.00  0.00     0.000 C 
BRANCH  20  21
ATOM     21  C   UNL     1      -1.375 -11.733 -19.720  1.00  0.00     0.000 C 
BRANCH  21  22
ATOM     22  C   UNL     1      -0.327 -11.522 -20.821  1.00  0.00    -0.000 C 
BRANCH  22  23
ATOM     23  C   UNL     1      -0.805 -12.000 -22.203  1.00  0.00    -0.000 C 
BRANCH  23  24
ATOM     24  C   UNL     1      -1.659 -10.959 -22.956  1.00  0.00    -0.000 C 
BRANCH  24  25
ATOM     25  C   UNL     1      -0.857  -9.694 -23.311  1.00  0.00    -0.000 C 
BRANCH  25  26
ATOM     26  C   UNL     1      -0.776  -9.449 -24.827  1.00  0.00    -0.000 C 
BRANCH  26  27
ATOM     27  C   UNL     1      -2.149  -9.141 -25.449  1.00  0.00    -0.000 C 
BRANCH  27  28
ATOM     28  C   UNL     1      -2.562 -10.166 -26.519  1.00  0.00    -0.000 C 
BRANCH  28  29
ATOM     29  C   UNL     1      -1.368 -10.880 -27.186  1.00  0.00    -0.003 C 
ATOM     30  C   UNL     1      -0.923 -12.117 -26.405  1.00  0.00     0.004 C 
ENDBRANCH  28  29
ENDBRANCH  27  28
ENDBRANCH  26  27
ENDBRANCH  25  26
ENDBRANCH  24  25
ENDBRANCH  23  24
ENDBRANCH  22  23
ENDBRANCH  21  22
ENDBRANCH  20  21
ENDBRANCH  19  20
ENDBRANCH  18  19
ENDBRANCH  17  18
ENDBRANCH   1  17
TORSDOF 26
ENDMDL
MODEL 5
REMARK VINA RESULT:    -3.562      1.427      2.796
REMARK INTER + INTRA:         -12.676
REMARK INTER:                  -9.710
REMARK INTRA:                  -2.965
REMARK UNBOUND:                -3.699
REMARK SMILES CCCCCCCCCCCCCCCCCCCCCCCCCCCC(=O)[O-]
REMARK SMILES IDX 15 1 16 2 17 3 18 4 19 5 20 6 21 7 22 8 23 9 24 10 25 11
REMARK SMILES IDX 26 12 27 13 28 14 29 15 30 16 14 17 13 18 12 19 11 20 10 21
REMARK SMILES IDX 9 22 8 23 7 24 6 25 5 26 4 27 3 28 2 29 1 30
REMARK H PARENT
REMARK Flexibility Score: inf
ROOT
ATOM      1  C   UNL     1     -16.316  -1.531 -17.557  1.00  0.00     0.000 C 
ENDROOT
BRANCH   1   2
ATOM      2  C   UNL     1     -17.795  -1.270 -17.219  1.00  0.00     0.000 C 
BRANCH   2   3
ATOM      3  C   UNL     1     -18.251   0.151 -17.593  1.00  0.00     0.000 C 
BRANCH   3   4
ATOM      4  C   UNL     1     -18.286   0.374 -19.113  1.00  0.00     0.000 C 
BRANCH   4   5
ATOM      5  C   UNL     1     -19.617  -0.075 -19.741  1.00  0.00     0.000 C 
BRANCH   5   6
ATOM      6  C   UNL     1     -19.571  -1.521 -20.270  1.00  0.00     0.000 C 
BRANCH   6   7
ATOM      7  C   UNL     1     -19.385  -1.641 -21.793  1.00  0.00     0.000 C 
BRANCH   7   8
ATOM      8  C   UNL     1     -17.946  -1.345 -22.243  1.00  0.00     0.000 C 
BRANCH   8   9
ATOM      9  C   UNL     1     -17.884  -0.461 -23.500  1.00  0.00     0.000 C 
BRANCH   9  10
ATOM     10  C   UNL     1     -18.237   1.017 -23.225  1.00  0.00     0.000 C 
BRANCH  10  11
ATOM     11  C   UNL     1     -19.572   1.427 -23.863  1.00  0.00     0.000 C 
BRANCH  11  12
ATOM     12  C   UNL     1     -19.569   2.918 -24.230  1.00  0.00     0.006 C 
BRANCH  12  13
ATOM     13  C   UNL     1     -18.154   3.511 -24.249  1.00  0.00     0.053 C 
BRANCH  13  14
ATOM     14  C   UNL     1     -18.160   4.959 -24.630  1.00  0.00     0.041 C 
ATOM     15  O   UNL     1     -17.141   5.481 -25.157  1.00  0.00    -0.550 OA
ATOM     16  O   UNL     1     -19.296   5.731 -24.416  1.00  0.00    -0.550 OA
ENDBRANCH  13  14
ENDBRANCH  12  13
ENDBRANCH  11  12
ENDBRANCH  10  11
ENDBRANCH   9  10
ENDBRANCH   8   9
ENDBRANCH   7   8
ENDBRANCH   6   7
ENDBRANCH   5   6
ENDBRANCH   4   5
ENDBRANCH   3   4
ENDBRANCH   2   3
ENDBRANCH   1   2
BRANCH   1  17
ATOM     17  C   UNL     1     -15.557  -2.382 -16.522  1.00  0.00     0.000 C 
BRANCH  17  18
ATOM     18  C   UNL     1     -16.440  -2.821 -15.344  1.00  0.00     0.000 C 
BRANCH  18  19
ATOM     19  C   UNL     1     -16.265  -4.318 -15.049  1.00  0.00     0.000 C 
BRANCH  19  20
ATOM     20  C   UNL     1     -17.569  -5.112 -15.231  1.00  0.00     0.000 C 
BRANCH  20  21
ATOM     21  C   UNL     1     -17.874  -5.416 -16.705  1.00  0.00     0.000 C 
BRANCH  21  22
ATOM     22  C   UNL     1     -19.355  -5.768 -16.902  1.00  0.00    -0.000 C 
BRANCH  22  23
ATOM     23  C   UNL     1     -19.640  -7.271 -16.737  1.00  0.00    -0.000 C 
BRANCH  23  24
ATOM     24  C   UNL     1     -18.408  -8.166 -16.991  1.00  0.00    -0.000 C 
BRANCH  24  25
ATOM     25  C   UNL     1     -18.664  -9.632 -16.599  1.00  0.00    -0.000 C 
BRANCH  25  26
ATOM     26  C   UNL     1     -18.577  -9.863 -15.081  1.00  0.00    -0.000 C 
BRANCH  26  27
ATOM     27  C   UNL     1     -17.282  -9.302 -14.471  1.00  0.00    -0.000 C 
BRANCH  27  28
ATOM     28  C   UNL     1     -17.542  -8.191 -13.439  1.00  0.00    -0.000 C 
BRANCH  28  29
ATOM     29  C   UNL     1     -18.917  -8.297 -12.749  1.00  0.00    -0.003 C 
ATOM     30  C   UNL     1     -19.811  -7.095 -13.053  1.00  0.00     0.004 C 
ENDBRANCH  28  29
ENDBRANCH  27  28
ENDBRANCH  26  27
ENDBRANCH  25  26
ENDBRANCH  24  25
ENDBRANCH  23  24
ENDBRANCH  22  23
ENDBRANCH  21  22
ENDBRANCH  20  21
ENDBRANCH  19  20
ENDBRANCH  18  19
ENDBRANCH  17  18
ENDBRANCH   1  17
TORSDOF 26
ENDMDL
MODEL 6
REMARK VINA RESULT:    -3.496      5.745     11.376
REMARK INTER + INTRA:         -12.508
REMARK INTER:                  -9.499
REMARK INTRA:                  -3.008
REMARK UNBOUND:                -3.699
REMARK SMILES CCCCCCCCCCCCCCCCCCCCCCCCCCCC(=O)[O-]
REMARK SMILES IDX 15 1 16 2 17 3 18 4 19 5 20 6 21 7 22 8 23 9 24 10 25 11
REMARK SMILES IDX 26 12 27 13 28 14 29 15 30 16 14 17 13 18 12 19 11 20 10 21
REMARK SMILES IDX 9 22 8 23 7 24 6 25 5 26 4 27 3 28 2 29 1 30
REMARK H PARENT
REMARK Flexibility Score: inf
ROOT
ATOM      1  C   UNL     1     -19.340  -3.103 -18.402  1.00  0.00     0.000 C 
ENDROOT
BRANCH   1   2
ATOM      2  C   UNL     1     -19.713  -4.369 -17.609  1.00  0.00     0.000 C 
BRANCH   2   3
ATOM      3  C   UNL     1     -18.484  -5.127 -17.081  1.00  0.00     0.000 C 
BRANCH   3   4
ATOM      4  C   UNL     1     -18.239  -4.876 -15.584  1.00  0.00     0.000 C 
BRANCH   4   5
ATOM      5  C   UNL     1     -18.556  -6.112 -14.723  1.00  0.00     0.000 C 
BRANCH   5   6
ATOM      6  C   UNL     1     -18.747  -7.390 -15.562  1.00  0.00     0.000 C 
BRANCH   6   7
ATOM      7  C   UNL     1     -18.565  -8.704 -14.781  1.00  0.00     0.000 C 
BRANCH   7   8
ATOM      8  C   UNL     1     -18.972  -9.942 -15.594  1.00  0.00     0.000 C 
BRANCH   8   9
ATOM      9  C   UNL     1     -17.937 -11.078 -15.510  1.00  0.00     0.000 C 
BRANCH   9  10
ATOM     10  C   UNL     1     -16.723 -10.733 -14.620  1.00  0.00     0.000 C 
BRANCH  10  11
ATOM     11  C   UNL     1     -16.241 -11.937 -13.798  1.00  0.00     0.000 C 
BRANCH  11  12
ATOM     12  C   UNL     1     -14.707 -11.996 -13.762  1.00  0.00     0.006 C 
BRANCH  12  13
ATOM     13  C   UNL     1     -14.136 -11.513 -12.422  1.00  0.00     0.053 C 
BRANCH  13  14
ATOM     14  C   UNL     1     -13.226 -10.336 -12.595  1.00  0.00     0.041 C 
ATOM     15  O   UNL     1     -13.702  -9.170 -12.651  1.00  0.00    -0.550 OA
ATOM     16  O   UNL     1     -11.852 -10.524 -12.680  1.00  0.00    -0.550 OA
ENDBRANCH  13  14
ENDBRANCH  12  13
ENDBRANCH  11  12
ENDBRANCH  10  11
ENDBRANCH   9  10
ENDBRANCH   8   9
ENDBRANCH   7   8
ENDBRANCH   6   7
ENDBRANCH   5   6
ENDBRANCH   4   5
ENDBRANCH   3   4
ENDBRANCH   2   3
ENDBRANCH   1   2
BRANCH   1  17
ATOM     17  C   UNL     1     -20.062  -2.951 -19.754  1.00  0.00     0.000 C 
BRANCH  17  18
ATOM     18  C   UNL     1     -19.844  -1.573 -20.397  1.00  0.00     0.000 C 
BRANCH  18  19
ATOM     19  C   UNL     1     -19.336  -1.711 -21.840  1.00  0.00     0.000 C 
BRANCH  19  20
ATOM     20  C   UNL     1     -17.869  -1.276 -21.992  1.00  0.00     0.000 C 
BRANCH  20  21
ATOM     21  C   UNL     1     -16.961  -1.869 -20.905  1.00  0.00     0.000 C 
BRANCH  21  22
ATOM     22  C   UNL     1     -16.279  -0.762 -20.090  1.00  0.00    -0.000 C 
BRANCH  22  23
ATOM     23  C   UNL     1     -15.381  -1.312 -18.968  1.00  0.00    -0.000 C 
BRANCH  23  24
ATOM     24  C   UNL     1     -16.095  -2.320 -18.042  1.00  0.00    -0.000 C 
BRANCH  24  25
ATOM     25  C   UNL     1     -15.396  -2.453 -16.678  1.00  0.00    -0.000 C 
BRANCH  25  26
ATOM     26  C   UNL     1     -16.080  -1.625 -15.578  1.00  0.00    -0.000 C 
BRANCH  26  27
ATOM     27  C   UNL     1     -17.550  -1.312 -15.902  1.00  0.00    -0.000 C 
BRANCH  27  28
ATOM     28  C   UNL     1     -18.054  -0.032 -15.212  1.00  0.00    -0.000 C 
BRANCH  28  29
ATOM     29  C   UNL     1     -18.737   0.961 -16.174  1.00  0.00    -0.003 C 
ATOM     30  C   UNL     1     -18.590   0.544 -17.637  1.00  0.00     0.004 C 
ENDBRANCH  28  29
ENDBRANCH  27  28
ENDBRANCH  26  27
ENDBRANCH  25  26
ENDBRANCH  24  25
ENDBRANCH  23  24
ENDBRANCH  22  23
ENDBRANCH  21  22
ENDBRANCH  20  21
ENDBRANCH  19  20
ENDBRANCH  18  19
ENDBRANCH  17  18
ENDBRANCH   1  17
TORSDOF 26
ENDMDL
MODEL 7
REMARK VINA RESULT:    -3.491      5.370      9.850
REMARK INTER + INTRA:         -12.497
REMARK INTER:                  -9.008
REMARK INTRA:                  -3.488
REMARK UNBOUND:                -3.699
REMARK SMILES CCCCCCCCCCCCCCCCCCCCCCCCCCCC(=O)[O-]
REMARK SMILES IDX 15 1 16 2 17 3 18 4 19 5 20 6 21 7 22 8 23 9 24 10 25 11
REMARK SMILES IDX 26 12 27 13 28 14 29 15 30 16 14 17 13 18 12 19 11 20 10 21
REMARK SMILES IDX 9 22 8 23 7 24 6 25 5 26 4 27 3 28 2 29 1 30
REMARK H PARENT
REMARK Flexibility Score: inf
ROOT
ATOM      1  C   UNL     1     -17.298  -1.144 -22.465  1.00  0.00     0.000 C 
ENDROOT
BRANCH   1   2
ATOM      2  C   UNL     1     -17.586  -1.269 -20.958  1.00  0.00     0.000 C 
BRANCH   2   3
ATOM      3  C   UNL     1     -18.933  -1.949 -20.661  1.00  0.00     0.000 C 
BRANCH   3   4
ATOM      4  C   UNL     1     -19.008  -2.502 -19.229  1.00  0.00     0.000 C 
BRANCH   4   5
ATOM      5  C   UNL     1     -20.125  -3.547 -19.062  1.00  0.00     0.000 C 
BRANCH   5   6
ATOM      6  C   UNL     1     -19.875  -4.504 -17.881  1.00  0.00     0.000 C 
BRANCH   6   7
ATOM      7  C   UNL     1     -19.594  -3.807 -16.538  1.00  0.00     0.000 C 
BRANCH   7   8
ATOM      8  C   UNL     1     -19.904  -4.699 -15.326  1.00  0.00     0.000 C 
BRANCH   8   9
ATOM      9  C   UNL     1     -18.651  -5.380 -14.750  1.00  0.00     0.000 C 
BRANCH   9  10
ATOM     10  C   UNL     1     -17.427  -5.299 -15.687  1.00  0.00     0.000 C 
BRANCH  10  11
ATOM     11  C   UNL     1     -16.245  -6.136 -15.177  1.00  0.00     0.000 C 
BRANCH  11  12
ATOM     12  C   UNL     1     -16.716  -7.520 -14.708  1.00  0.00     0.006 C 
BRANCH  12  13
ATOM     13  C   UNL     1     -15.956  -8.004 -13.465  1.00  0.00     0.053 C 
BRANCH  13  14
ATOM     14  C   UNL     1     -15.991  -9.496 -13.336  1.00  0.00     0.041 C 
ATOM     15  O   UNL     1     -16.973 -10.149 -13.782  1.00  0.00    -0.550 OA
ATOM     16  O   UNL     1     -14.933 -10.168 -12.736  1.00  0.00    -0.550 OA
ENDBRANCH  13  14
ENDBRANCH  12  13
ENDBRANCH  11  12
ENDBRANCH  10  11
ENDBRANCH   9  10
ENDBRANCH   8   9
ENDBRANCH   7   8
ENDBRANCH   6   7
ENDBRANCH   5   6
ENDBRANCH   4   5
ENDBRANCH   3   4
ENDBRANCH   2   3
ENDBRANCH   1   2
BRANCH   1  17
ATOM     17  C   UNL     1     -17.550   0.255 -23.058  1.00  0.00     0.000 C 
BRANCH  17  18
ATOM     18  C   UNL     1     -18.815   0.317 -23.927  1.00  0.00     0.000 C 
BRANCH  18  19
ATOM     19  C   UNL     1     -19.892   1.198 -23.274  1.00  0.00     0.000 C 
BRANCH  19  20
ATOM     20  C   UNL     1     -19.375   1.934 -22.028  1.00  0.00     0.000 C 
BRANCH  20  21
ATOM     21  C   UNL     1     -19.984   1.393 -20.726  1.00  0.00     0.000 C 
BRANCH  21  22
ATOM     22  C   UNL     1     -19.233   1.928 -19.500  1.00  0.00    -0.000 C 
BRANCH  22  23
ATOM     23  C   UNL     1     -19.804   1.401 -18.172  1.00  0.00    -0.000 C 
BRANCH  23  24
ATOM     24  C   UNL     1     -19.451   2.283 -16.954  1.00  0.00    -0.000 C 
BRANCH  24  25
ATOM     25  C   UNL     1     -18.658   1.509 -15.886  1.00  0.00    -0.000 C 
BRANCH  25  26
ATOM     26  C   UNL     1     -18.560   0.006 -16.195  1.00  0.00    -0.000 C 
BRANCH  26  27
ATOM     27  C   UNL     1     -17.973  -0.800 -15.024  1.00  0.00    -0.000 C 
BRANCH  27  28
ATOM     28  C   UNL     1     -16.715  -1.594 -15.417  1.00  0.00    -0.000 C 
BRANCH  28  29
ATOM     29  C   UNL     1     -16.390  -1.530 -16.924  1.00  0.00    -0.003 C 
ATOM     30  C   UNL     1     -15.212  -2.429 -17.300  1.00  0.00     0.004 C 
ENDBRANCH  28  29
ENDBRANCH  27  28
ENDBRANCH  26  27
ENDBRANCH  25  26
ENDBRANCH  24  25
ENDBRANCH  23  24
ENDBRANCH  22  23
ENDBRANCH  21  22
ENDBRANCH  20  21
ENDBRANCH  19  20
ENDBRANCH  18  19
ENDBRANCH  17  18
ENDBRANCH   1  17
TORSDOF 26
ENDMDL
MODEL 8
REMARK VINA RESULT:    -3.471     15.978     18.555
REMARK INTER + INTRA:         -12.445
REMARK INTER:                  -8.407
REMARK INTRA:                  -4.038
REMARK UNBOUND:                -3.699
REMARK SMILES CCCCCCCCCCCCCCCCCCCCCCCCCCCC(=O)[O-]
REMARK SMILES IDX 15 1 16 2 17 3 18 4 19 5 20 6 21 7 22 8 23 9 24 10 25 11
REMARK SMILES IDX 26 12 27 13 28 14 29 15 30 16 14 17 13 18 12 19 11 20 10 21
REMARK SMILES IDX 9 22 8 23 7 24 6 25 5 26 4 27 3 28 2 29 1 30
REMARK H PARENT
REMARK Flexibility Score: inf
ROOT
ATOM      1  C   UNL     1      -3.337  -7.104 -18.609  1.00  0.00     0.000 C 
ENDROOT
BRANCH   1   2
ATOM      2  C   UNL     1      -3.682  -8.508 -19.136  1.00  0.00     0.000 C 
BRANCH   2   3
ATOM      3  C   UNL     1      -2.838  -8.912 -20.357  1.00  0.00     0.000 C 
BRANCH   3   4
ATOM      4  C   UNL     1      -1.346  -8.596 -20.167  1.00  0.00     0.000 C 
BRANCH   4   5
ATOM      5  C   UNL     1      -0.662  -9.565 -19.185  1.00  0.00     0.000 C 
BRANCH   5   6
ATOM      6  C   UNL     1      -0.095 -10.818 -19.880  1.00  0.00     0.000 C 
BRANCH   6   7
ATOM      7  C   UNL     1      -1.109 -11.585 -20.747  1.00  0.00     0.000 C 
BRANCH   7   8
ATOM      8  C   UNL     1      -0.492 -12.124 -22.048  1.00  0.00     0.000 C 
BRANCH   8   9
ATOM      9  C   UNL     1      -1.364 -11.841 -23.283  1.00  0.00     0.000 C 
BRANCH   9  10
ATOM     10  C   UNL     1      -0.849 -10.662 -24.137  1.00  0.00     0.000 C 
BRANCH  10  11
ATOM     11  C   UNL     1      -1.974  -9.979 -24.928  1.00  0.00     0.000 C 
BRANCH  11  12
ATOM     12  C   UNL     1      -1.419  -8.842 -25.798  1.00  0.00     0.006 C 
BRANCH  12  13
ATOM     13  C   UNL     1      -0.114  -8.262 -25.237  1.00  0.00     0.053 C 
BRANCH  13  14
ATOM     14  C   UNL     1      -0.339  -6.962 -24.528  1.00  0.00     0.041 C 
ATOM     15  O   UNL     1      -0.166  -5.871 -25.134  1.00  0.00    -0.550 OA
ATOM     16  O   UNL     1      -0.754  -6.954 -23.201  1.00  0.00    -0.550 OA
ENDBRANCH  13  14
ENDBRANCH  12  13
ENDBRANCH  11  12
ENDBRANCH  10  11
ENDBRANCH   9  10
ENDBRANCH   8   9
ENDBRANCH   7   8
ENDBRANCH   6   7
ENDBRANCH   5   6
ENDBRANCH   4   5
ENDBRANCH   3   4
ENDBRANCH   2   3
ENDBRANCH   1   2
BRANCH   1  17
ATOM     17  C   UNL     1      -2.912  -7.055 -17.129  1.00  0.00     0.000 C 
BRANCH  17  18
ATOM     18  C   UNL     1      -1.618  -6.259 -16.904  1.00  0.00     0.000 C 
BRANCH  18  19
ATOM     19  C   UNL     1      -0.996  -6.589 -15.539  1.00  0.00     0.000 C 
BRANCH  19  20
ATOM     20  C   UNL     1      -1.132  -8.076 -15.173  1.00  0.00     0.000 C 
BRANCH  20  21
ATOM     21  C   UNL     1       0.068  -8.912 -15.642  1.00  0.00     0.000 C 
BRANCH  21  22
ATOM     22  C   UNL     1      -0.193 -10.412 -15.447  1.00  0.00    -0.000 C 
BRANCH  22  23
ATOM     23  C   UNL     1      -1.670 -10.794 -15.646  1.00  0.00    -0.000 C 
BRANCH  23  24
ATOM     24  C   UNL     1      -1.886 -11.890 -16.711  1.00  0.00    -0.000 C 
BRANCH  24  25
ATOM     25  C   UNL     1      -3.145 -11.636 -17.559  1.00  0.00    -0.000 C 
BRANCH  25  26
ATOM     26  C   UNL     1      -4.444 -11.969 -16.806  1.00  0.00    -0.000 C 
BRANCH  26  27
ATOM     27  C   UNL     1      -5.568 -10.959 -17.092  1.00  0.00    -0.000 C 
BRANCH  27  28
ATOM     28  C   UNL     1      -6.197 -10.388 -15.810  1.00  0.00    -0.000 C 
BRANCH  28  29
ATOM     29  C   UNL     1      -5.921  -8.885 -15.601  1.00  0.00    -0.003 C 
ATOM     30  C   UNL     1      -4.741  -8.639 -14.660  1.00  0.00     0.004 C 
ENDBRANCH  28  29
ENDBRANCH  27  28
ENDBRANCH  26  27
ENDBRANCH  25  26
ENDBRANCH  24  25
ENDBRANCH  23  24
ENDBRANCH  22  23
ENDBRANCH  21  22
ENDBRANCH  20  21
ENDBRANCH  19  20
ENDBRANCH  18  19
ENDBRANCH  17  18
ENDBRANCH   1  17
TORSDOF 26
ENDMDL
MODEL 9
REMARK VINA RESULT:    -3.435      2.592      8.673
REMARK INTER + INTRA:         -12.356
REMARK INTER:                  -9.133
REMARK INTRA:                  -3.223
REMARK UNBOUND:                -3.699
REMARK SMILES CCCCCCCCCCCCCCCCCCCCCCCCCCCC(=O)[O-]
REMARK SMILES IDX 15 1 16 2 17 3 18 4 19 5 20 6 21 7 22 8 23 9 24 10 25 11
REMARK SMILES IDX 26 12 27 13 28 14 29 15 30 16 14 17 13 18 12 19 11 20 10 21
REMARK SMILES IDX 9 22 8 23 7 24 6 25 5 26 4 27 3 28 2 29 1 30
REMARK H PARENT
REMARK Flexibility Score: inf
ROOT
ATOM      1  C   UNL     1     -15.003  -1.934 -16.685  1.00  0.00     0.000 C 
ENDROOT
BRANCH   1   2
ATOM      2  C   UNL     1     -16.429  -2.284 -16.223  1.00  0.00     0.000 C 
BRANCH   2   3
ATOM      3  C   UNL     1     -16.455  -3.033 -14.879  1.00  0.00     0.000 C 
BRANCH   3   4
ATOM      4  C   UNL     1     -16.003  -4.495 -15.015  1.00  0.00     0.000 C 
BRANCH   4   5
ATOM      5  C   UNL     1     -17.080  -5.383 -15.665  1.00  0.00     0.000 C 
BRANCH   5   6
ATOM      6  C   UNL     1     -18.482  -5.152 -15.070  1.00  0.00     0.000 C 
BRANCH   6   7
ATOM      7  C   UNL     1     -19.572  -4.820 -16.104  1.00  0.00     0.000 C 
BRANCH   7   8
ATOM      8  C   UNL     1     -18.998  -4.492 -17.491  1.00  0.00     0.000 C 
BRANCH   8   9
ATOM      9  C   UNL     1     -19.286  -3.046 -17.930  1.00  0.00     0.000 C 
BRANCH   9  10
ATOM     10  C   UNL     1     -20.125  -2.253 -16.904  1.00  0.00     0.000 C 
BRANCH  10  11
ATOM     11  C   UNL     1     -19.348  -1.072 -16.303  1.00  0.00     0.000 C 
BRANCH  11  12
ATOM     12  C   UNL     1     -19.728   0.244 -16.998  1.00  0.00     0.006 C 
BRANCH  12  13
ATOM     13  C   UNL     1     -18.988   1.450 -16.405  1.00  0.00     0.053 C 
BRANCH  13  14
ATOM     14  C   UNL     1     -19.388   2.732 -17.069  1.00  0.00     0.041 C 
ATOM     15  O   UNL     1     -19.717   2.740 -18.285  1.00  0.00    -0.550 OA
ATOM     16  O   UNL     1     -19.411   3.916 -16.341  1.00  0.00    -0.550 OA
ENDBRANCH  13  14
ENDBRANCH  12  13
ENDBRANCH  11  12
ENDBRANCH  10  11
ENDBRANCH   9  10
ENDBRANCH   8   9
ENDBRANCH   7   8
ENDBRANCH   6   7
ENDBRANCH   5   6
ENDBRANCH   4   5
ENDBRANCH   3   4
ENDBRANCH   2   3
ENDBRANCH   1   2
BRANCH   1  17
ATOM     17  C   UNL     1     -14.834  -1.795 -18.210  1.00  0.00     0.000 C 
BRANCH  17  18
ATOM     18  C   UNL     1     -16.165  -1.884 -18.971  1.00  0.00     0.000 C 
BRANCH  18  19
ATOM     19  C   UNL     1     -16.825  -0.502 -19.093  1.00  0.00     0.000 C 
BRANCH  19  20
ATOM     20  C   UNL     1     -17.786  -0.411 -20.289  1.00  0.00     0.000 C 
BRANCH  20  21
ATOM     21  C   UNL     1     -17.706  -1.641 -21.206  1.00  0.00     0.000 C 
BRANCH  21  22
ATOM     22  C   UNL     1     -17.428  -1.231 -22.658  1.00  0.00    -0.000 C 
BRANCH  22  23
ATOM     23  C   UNL     1     -18.633  -1.462 -23.587  1.00  0.00    -0.000 C 
BRANCH  23  24
ATOM     24  C   UNL     1     -19.257  -0.158 -24.127  1.00  0.00    -0.000 C 
BRANCH  24  25
ATOM     25  C   UNL     1     -18.666   1.093 -23.452  1.00  0.00    -0.000 C 
BRANCH  25  26
ATOM     26  C   UNL     1     -19.730   2.159 -23.145  1.00  0.00    -0.000 C 
BRANCH  26  27
ATOM     27  C   UNL     1     -19.640   3.373 -24.085  1.00  0.00    -0.000 C 
BRANCH  27  28
ATOM     28  C   UNL     1     -18.397   4.240 -23.820  1.00  0.00    -0.000 C 
BRANCH  28  29
ATOM     29  C   UNL     1     -17.966   5.090 -25.034  1.00  0.00    -0.003 C 
ATOM     30  C   UNL     1     -18.205   6.583 -24.808  1.00  0.00     0.004 C 
ENDBRANCH  28  29
ENDBRANCH  27  28
ENDBRANCH  26  27
ENDBRANCH  25  26
ENDBRANCH  24  25
ENDBRANCH  23  24
ENDBRANCH  22  23
ENDBRANCH  21  22
ENDBRANCH  20  21
ENDBRANCH  19  20
ENDBRANCH  18  19
ENDBRANCH  17  18
ENDBRANCH   1  17
TORSDOF 26
ENDMDL
