MODEL 1
REMARK VINA RESULT:    -7.341      0.000      0.000
REMARK INTER + INTRA:         -12.020
REMARK INTER:                 -10.774
REMARK INTRA:                  -1.246
REMARK UNBOUND:                -1.246
REMARK SMILES O=c1c(OC[C@@H]2O[C@@H](O)[C@@H](O)[C@H](O)[C@H]2O)c(-c2ccc(O)c(O)c2)oc2cc(O)cc(O)c12
REMARK SMILES IDX 4 1 3 2 16 3 25 4 2 5 26 6 1 7 33 8 27 9 31 10 28 11 30 12
REMARK SMILES IDX 17 13 18 14 19 15 20 16 24 17 22 18 21 19 23 21 32 23 29 25
REMARK SMILES IDX 5 27 6 28 14 29 7 30 12 31 8 32 10 33 15 34 13 36 9 38 11 40
REMARK H PARENT 21 20 23 22 32 24 29 26 15 35 13 37 9 39 11 41
REMARK Flexibility Score: inf
ROOT
ATOM      1  O   UNL     1      -0.765 -19.074  28.552  1.00  0.00    -0.483 OA
ENDROOT
BRANCH   1   2
ATOM      2  C   UNL     1      -0.755 -20.471  28.685  1.00  0.00     0.211 A 
ATOM      3  C   UNL     1      -0.144 -21.311  27.728  1.00  0.00     0.180 A 
ATOM      4  O   UNL     1      -0.072 -22.620  27.953  1.00  0.00    -0.452 OA
ATOM      5  C   UNL     1      -1.354 -21.052  29.809  1.00  0.00     0.239 A 
ATOM      6  C   UNL     1      -0.587 -23.206  29.026  1.00  0.00     0.146 A 
ATOM      7  O   UNL     1      -1.947 -20.314  30.641  1.00  0.00    -0.285 OA
ATOM      8  C   UNL     1      -1.269 -22.445  30.004  1.00  0.00     0.111 A 
ATOM      9  C   UNL     1      -0.456 -24.590  29.176  1.00  0.00     0.094 A 
ATOM     10  C   UNL     1      -1.819 -23.103  31.131  1.00  0.00     0.134 A 
ATOM     11  C   UNL     1      -1.000 -25.235  30.289  1.00  0.00     0.123 A 
ATOM     12  C   UNL     1      -1.679 -24.492  31.261  1.00  0.00     0.093 A 
BRANCH   3  13
ATOM     13  C   UNL     1       0.411 -20.797  26.457  1.00  0.00     0.025 A 
ATOM     14  C   UNL     1       1.789 -20.574  26.342  1.00  0.00     0.016 A 
ATOM     15  C   UNL     1       2.332 -20.099  25.147  1.00  0.00     0.051 A 
ATOM     16  C   UNL     1       1.513 -19.852  24.040  1.00  0.00     0.157 A 
ATOM     17  C   UNL     1      -0.412 -20.572  25.341  1.00  0.00     0.062 A 
ATOM     18  C   UNL     1       0.122 -20.097  24.136  1.00  0.00     0.158 A 
BRANCH  16  19
ATOM     19  O   UNL     1       2.116 -19.370  22.877  1.00  0.00    -0.504 OA
ATOM     20  H   UNL     1       2.843 -18.669  22.867  1.00  0.00     0.293 HD
ENDBRANCH  16  19
BRANCH  18  21
ATOM     21  O   UNL     1      -0.756 -19.887  23.071  1.00  0.00    -0.504 OA
ATOM     22  H   UNL     1      -0.639 -20.295  22.155  1.00  0.00     0.293 HD
ENDBRANCH  18  21
ENDBRANCH   3  13
BRANCH  10  23
ATOM     23  O   UNL     1      -2.498 -22.389  32.119  1.00  0.00    -0.507 OA
ATOM     24  H   UNL     1      -2.756 -22.814  33.002  1.00  0.00     0.293 HD
ENDBRANCH  10  23
BRANCH  11  25
ATOM     25  O   UNL     1      -0.859 -26.615  30.418  1.00  0.00    -0.508 OA
ATOM     26  H   UNL     1      -1.340 -27.256  29.798  1.00  0.00     0.293 HD
ENDBRANCH  11  25
ENDBRANCH   1   2
BRANCH   1  27
ATOM     27  C   UNL     1      -1.951 -18.326  28.268  1.00  0.00     0.265 C 
BRANCH  27  28
ATOM     28  C   UNL     1      -1.723 -17.325  27.124  1.00  0.00     0.190 C 
ATOM     29  C   UNL     1      -2.232 -15.915  27.506  1.00  0.00     0.178 C 
ATOM     30  O   UNL     1      -0.338 -17.308  26.815  1.00  0.00    -0.340 OA
ATOM     31  C   UNL     1      -1.957 -14.932  26.353  1.00  0.00     0.179 C 
ATOM     32  C   UNL     1      -0.041 -16.486  25.698  1.00  0.00     0.279 C 
ATOM     33  C   UNL     1      -0.482 -15.018  25.910  1.00  0.00     0.201 C 
BRANCH  29  34
ATOM     34  O   UNL     1      -3.613 -15.965  27.760  1.00  0.00    -0.387 OA
ATOM     35  H   UNL     1      -4.011 -16.568  27.078  1.00  0.00     0.211 HD
ENDBRANCH  29  34
BRANCH  31  36
ATOM     36  O   UNL     1      -2.289 -13.617  26.728  1.00  0.00    -0.387 OA
ATOM     37  H   UNL     1      -2.364 -13.075  25.900  1.00  0.00     0.211 HD
ENDBRANCH  31  36
BRANCH  32  38
ATOM     38  O   UNL     1      -0.513 -17.059  24.499  1.00  0.00    -0.366 OA
ATOM     39  H   UNL     1       0.154 -16.908  23.784  1.00  0.00     0.213 HD
ENDBRANCH  32  38
BRANCH  33  40
ATOM     40  O   UNL     1      -0.287 -14.292  24.723  1.00  0.00    -0.385 OA
ATOM     41  H   UNL     1      -1.079 -14.460  24.149  1.00  0.00     0.211 HD
ENDBRANCH  33  40
ENDBRANCH  27  28
ENDBRANCH   1  27
TORSDOF 12
ENDMDL
MODEL 2
REMARK VINA RESULT:    -7.160      2.120      4.783
REMARK INTER + INTRA:         -11.754
REMARK INTER:                 -10.465
REMARK INTRA:                  -1.289
REMARK UNBOUND:                -1.246
REMARK SMILES O=c1c(OC[C@@H]2O[C@@H](O)[C@@H](O)[C@H](O)[C@H]2O)c(-c2ccc(O)c(O)c2)oc2cc(O)cc(O)c12
REMARK SMILES IDX 4 1 3 2 16 3 25 4 2 5 26 6 1 7 33 8 27 9 31 10 28 11 30 12
REMARK SMILES IDX 17 13 18 14 19 15 20 16 24 17 22 18 21 19 23 21 32 23 29 25
REMARK SMILES IDX 5 27 6 28 14 29 7 30 12 31 8 32 10 33 15 34 13 36 9 38 11 40
REMARK H PARENT 21 20 23 22 32 24 29 26 15 35 13 37 9 39 11 41
REMARK Flexibility Score: inf
ROOT
ATOM      1  O   UNL     1       1.717 -22.334  27.275  1.00  0.00    -0.483 OA
ENDROOT
BRANCH   1   2
ATOM      2  C   UNL     1       0.904 -23.125  28.101  1.00  0.00     0.211 A 
ATOM      3  C   UNL     1      -0.374 -22.699  28.526  1.00  0.00     0.180 A 
ATOM      4  O   UNL     1      -1.146 -23.529  29.222  1.00  0.00    -0.452 OA
ATOM      5  C   UNL     1       1.364 -24.384  28.504  1.00  0.00     0.239 A 
ATOM      6  C   UNL     1      -0.765 -24.746  29.587  1.00  0.00     0.146 A 
ATOM      7  O   UNL     1       2.524 -24.750  28.174  1.00  0.00    -0.285 OA
ATOM      8  C   UNL     1       0.522 -25.228  29.255  1.00  0.00     0.111 A 
ATOM      9  C   UNL     1      -1.651 -25.547  30.315  1.00  0.00     0.094 A 
ATOM     10  C   UNL     1       0.902 -26.527  29.671  1.00  0.00     0.134 A 
ATOM     11  C   UNL     1      -1.273 -26.827  30.724  1.00  0.00     0.123 A 
ATOM     12  C   UNL     1      -0.000 -27.314  30.403  1.00  0.00     0.093 A 
BRANCH   3  13
ATOM     13  C   UNL     1      -0.894 -21.342  28.245  1.00  0.00     0.025 A 
ATOM     14  C   UNL     1      -1.537 -21.086  27.027  1.00  0.00     0.016 A 
ATOM     15  C   UNL     1      -2.044 -19.815  26.749  1.00  0.00     0.051 A 
ATOM     16  C   UNL     1      -1.932 -18.782  27.686  1.00  0.00     0.157 A 
ATOM     17  C   UNL     1      -0.800 -20.314  29.197  1.00  0.00     0.062 A 
ATOM     18  C   UNL     1      -1.306 -19.036  28.930  1.00  0.00     0.158 A 
BRANCH  16  19
ATOM     19  O   UNL     1      -2.452 -17.532  27.344  1.00  0.00    -0.504 OA
ATOM     20  H   UNL     1      -3.420 -17.370  27.104  1.00  0.00     0.293 HD
ENDBRANCH  16  19
BRANCH  18  21
ATOM     21  O   UNL     1      -1.169 -18.060  29.919  1.00  0.00    -0.504 OA
ATOM     22  H   UNL     1      -1.822 -17.303  30.058  1.00  0.00     0.293 HD
ENDBRANCH  18  21
ENDBRANCH   3  13
BRANCH  10  23
ATOM     23  O   UNL     1       2.162 -27.041  29.363  1.00  0.00    -0.507 OA
ATOM     24  H   UNL     1       2.986 -26.450  29.331  1.00  0.00     0.293 HD
ENDBRANCH  10  23
BRANCH  11  25
ATOM     25  O   UNL     1      -2.170 -27.608  31.449  1.00  0.00    -0.508 OA
ATOM     26  H   UNL     1      -2.133 -27.655  32.461  1.00  0.00     0.293 HD
ENDBRANCH  11  25
ENDBRANCH   1   2
BRANCH   1  27
ATOM     27  C   UNL     1       1.834 -22.542  25.864  1.00  0.00     0.265 C 
BRANCH  27  28
ATOM     28  C   UNL     1       1.684 -21.224  25.087  1.00  0.00     0.190 C 
ATOM     29  C   UNL     1       0.377 -21.209  24.262  1.00  0.00     0.178 C 
ATOM     30  O   UNL     1       1.723 -20.152  26.015  1.00  0.00    -0.340 OA
ATOM     31  C   UNL     1       0.242 -19.863  23.525  1.00  0.00     0.179 C 
ATOM     32  C   UNL     1       1.694 -18.884  25.382  1.00  0.00     0.279 C 
ATOM     33  C   UNL     1       0.433 -18.688  24.506  1.00  0.00     0.201 C 
BRANCH  29  34
ATOM     34  O   UNL     1       0.397 -22.256  23.325  1.00  0.00    -0.387 OA
ATOM     35  H   UNL     1       0.635 -21.855  22.449  1.00  0.00     0.211 HD
ENDBRANCH  29  34
BRANCH  31  36
ATOM     36  O   UNL     1      -1.002 -19.772  22.875  1.00  0.00    -0.387 OA
ATOM     37  H   UNL     1      -1.157 -20.626  22.394  1.00  0.00     0.211 HD
ENDBRANCH  31  36
BRANCH  32  38
ATOM     38  O   UNL     1       2.905 -18.618  24.710  1.00  0.00    -0.366 OA
ATOM     39  H   UNL     1       2.857 -17.719  24.300  1.00  0.00     0.213 HD
ENDBRANCH  32  38
BRANCH  33  40
ATOM     40  O   UNL     1       0.533 -17.477  23.802  1.00  0.00    -0.385 OA
ATOM     41  H   UNL     1       0.230 -16.759  24.418  1.00  0.00     0.211 HD
ENDBRANCH  33  40
ENDBRANCH  27  28
ENDBRANCH   1  27
TORSDOF 12
ENDMDL
MODEL 3
REMARK VINA RESULT:    -7.148      1.597      7.172
REMARK INTER + INTRA:         -11.737
REMARK INTER:                 -10.244
REMARK INTRA:                  -1.493
REMARK UNBOUND:                -1.246
REMARK SMILES O=c1c(OC[C@@H]2O[C@@H](O)[C@@H](O)[C@H](O)[C@H]2O)c(-c2ccc(O)c(O)c2)oc2cc(O)cc(O)c12
REMARK SMILES IDX 4 1 3 2 16 3 25 4 2 5 26 6 1 7 33 8 27 9 31 10 28 11 30 12
REMARK SMILES IDX 17 13 18 14 19 15 20 16 24 17 22 18 21 19 23 21 32 23 29 25
REMARK SMILES IDX 5 27 6 28 14 29 7 30 12 31 8 32 10 33 15 34 13 36 9 38 11 40
REMARK H PARENT 21 20 23 22 32 24 29 26 15 35 13 37 9 39 11 41
REMARK Flexibility Score: inf
ROOT
ATOM      1  O   UNL     1      -0.505 -20.491  28.395  1.00  0.00    -0.483 OA
ENDROOT
BRANCH   1   2
ATOM      2  C   UNL     1      -0.652 -19.255  27.748  1.00  0.00     0.211 A 
ATOM      3  C   UNL     1      -0.144 -19.021  26.451  1.00  0.00     0.180 A 
ATOM      4  O   UNL     1      -0.400 -17.866  25.843  1.00  0.00    -0.452 OA
ATOM      5  C   UNL     1      -1.338 -18.223  28.400  1.00  0.00     0.239 A 
ATOM      6  C   UNL     1      -1.084 -16.879  26.408  1.00  0.00     0.146 A 
ATOM      7  O   UNL     1      -1.749 -18.405  29.578  1.00  0.00    -0.285 OA
ATOM      8  C   UNL     1      -1.576 -17.008  27.728  1.00  0.00     0.111 A 
ATOM      9  C   UNL     1      -1.306 -15.703  25.686  1.00  0.00     0.094 A 
ATOM     10  C   UNL     1      -2.291 -15.932  28.306  1.00  0.00     0.134 A 
ATOM     11  C   UNL     1      -2.011 -14.643  26.259  1.00  0.00     0.123 A 
ATOM     12  C   UNL     1      -2.500 -14.759  27.566  1.00  0.00     0.093 A 
BRANCH   3  13
ATOM     13  C   UNL     1       0.691 -20.010  25.734  1.00  0.00     0.025 A 
ATOM     14  C   UNL     1       2.087 -19.916  25.801  1.00  0.00     0.016 A 
ATOM     15  C   UNL     1       2.890 -20.846  25.139  1.00  0.00     0.051 A 
ATOM     16  C   UNL     1       2.317 -21.895  24.412  1.00  0.00     0.157 A 
ATOM     17  C   UNL     1       0.111 -21.074  25.024  1.00  0.00     0.062 A 
ATOM     18  C   UNL     1       0.908 -22.014  24.358  1.00  0.00     0.158 A 
BRANCH  16  19
ATOM     19  O   UNL     1       3.176 -22.787  23.766  1.00  0.00    -0.504 OA
ATOM     20  H   UNL     1       3.534 -22.649  22.832  1.00  0.00     0.293 HD
ENDBRANCH  16  19
BRANCH  18  21
ATOM     21  O   UNL     1       0.264 -23.041  23.665  1.00  0.00    -0.504 OA
ATOM     22  H   UNL     1      -0.008 -23.919  24.081  1.00  0.00     0.293 HD
ENDBRANCH  18  21
ENDBRANCH   3  13
BRANCH  10  23
ATOM     23  O   UNL     1      -2.794 -16.018  29.605  1.00  0.00    -0.507 OA
ATOM     24  H   UNL     1      -2.437 -16.694  30.271  1.00  0.00     0.293 HD
ENDBRANCH  10  23
BRANCH  11  25
ATOM     25  O   UNL     1      -2.220 -13.480  25.522  1.00  0.00    -0.508 OA
ATOM     26  H   UNL     1      -2.029 -12.564  25.913  1.00  0.00     0.293 HD
ENDBRANCH  11  25
ENDBRANCH   1   2
BRANCH   1  27
ATOM     27  C   UNL     1      -1.524 -21.496  28.400  1.00  0.00     0.265 C 
BRANCH  27  28
ATOM     28  C   UNL     1      -1.344 -22.472  29.574  1.00  0.00     0.190 C 
ATOM     29  C   UNL     1      -1.841 -21.850  30.899  1.00  0.00     0.178 C 
ATOM     30  O   UNL     1      -2.043 -23.669  29.270  1.00  0.00    -0.340 OA
ATOM     31  C   UNL     1      -1.679 -22.866  32.045  1.00  0.00     0.179 C 
ATOM     32  C   UNL     1      -1.851 -24.675  30.251  1.00  0.00     0.279 C 
ATOM     33  C   UNL     1      -2.307 -24.222  31.659  1.00  0.00     0.201 C 
BRANCH  29  34
ATOM     34  O   UNL     1      -1.096 -20.695  31.187  1.00  0.00    -0.387 OA
ATOM     35  H   UNL     1      -1.720 -20.046  31.608  1.00  0.00     0.211 HD
ENDBRANCH  29  34
BRANCH  31  36
ATOM     36  O   UNL     1      -2.247 -22.374  33.234  1.00  0.00    -0.387 OA
ATOM     37  H   UNL     1      -1.677 -21.628  33.557  1.00  0.00     0.211 HD
ENDBRANCH  31  36
BRANCH  32  38
ATOM     38  O   UNL     1      -0.538 -25.187  30.212  1.00  0.00    -0.366 OA
ATOM     39  H   UNL     1      -0.383 -25.742  31.016  1.00  0.00     0.213 HD
ENDBRANCH  32  38
BRANCH  33  40
ATOM     40  O   UNL     1      -1.965 -25.204  32.603  1.00  0.00    -0.385 OA
ATOM     41  H   UNL     1      -1.821 -26.048  32.102  1.00  0.00     0.211 HD
ENDBRANCH  33  40
ENDBRANCH  27  28
ENDBRANCH   1  27
TORSDOF 12
ENDMDL
MODEL 4
REMARK VINA RESULT:    -7.131      1.137      1.876
REMARK INTER + INTRA:         -11.712
REMARK INTER:                 -10.027
REMARK INTRA:                  -1.685
REMARK UNBOUND:                -1.246
REMARK SMILES O=c1c(OC[C@@H]2O[C@@H](O)[C@@H](O)[C@H](O)[C@H]2O)c(-c2ccc(O)c(O)c2)oc2cc(O)cc(O)c12
REMARK SMILES IDX 4 1 3 2 16 3 25 4 2 5 26 6 1 7 33 8 27 9 31 10 28 11 30 12
REMARK SMILES IDX 17 13 18 14 19 15 20 16 24 17 22 18 21 19 23 21 32 23 29 25
REMARK SMILES IDX 5 27 6 28 14 29 7 30 12 31 8 32 10 33 15 34 13 36 9 38 11 40
REMARK H PARENT 21 20 23 22 32 24 29 26 15 35 13 37 9 39 11 41
REMARK Flexibility Score: inf
ROOT
ATOM      1  O   UNL     1      -0.186 -18.713  28.856  1.00  0.00    -0.483 OA
ENDROOT
BRANCH   1   2
ATOM      2  C   UNL     1      -0.496 -20.076  28.963  1.00  0.00     0.211 A 
ATOM      3  C   UNL     1      -0.219 -20.993  27.925  1.00  0.00     0.180 A 
ATOM      4  O   UNL     1      -0.439 -22.291  28.118  1.00  0.00    -0.452 OA
ATOM      5  C   UNL     1      -1.084 -20.550  30.142  1.00  0.00     0.239 A 
ATOM      6  C   UNL     1      -0.953 -22.786  29.237  1.00  0.00     0.146 A 
ATOM      7  O   UNL     1      -1.384 -19.730  31.053  1.00  0.00    -0.285 OA
ATOM      8  C   UNL     1      -1.315 -21.930  30.303  1.00  0.00     0.111 A 
ATOM      9  C   UNL     1      -1.143 -24.167  29.347  1.00  0.00     0.094 A 
ATOM     10  C   UNL     1      -1.874 -22.489  31.478  1.00  0.00     0.134 A 
ATOM     11  C   UNL     1      -1.694 -24.715  30.507  1.00  0.00     0.123 A 
ATOM     12  C   UNL     1      -2.059 -23.877  31.567  1.00  0.00     0.093 A 
BRANCH   3  13
ATOM     13  C   UNL     1       0.293 -20.568  26.604  1.00  0.00     0.025 A 
ATOM     14  C   UNL     1       1.676 -20.499  26.387  1.00  0.00     0.016 A 
ATOM     15  C   UNL     1       2.177 -20.110  25.144  1.00  0.00     0.051 A 
ATOM     16  C   UNL     1       1.311 -19.797  24.091  1.00  0.00     0.157 A 
ATOM     17  C   UNL     1      -0.580 -20.277  25.543  1.00  0.00     0.062 A 
ATOM     18  C   UNL     1      -0.088 -19.887  24.291  1.00  0.00     0.158 A 
BRANCH  16  19
ATOM     19  O   UNL     1       1.875 -19.408  22.875  1.00  0.00    -0.504 OA
ATOM     20  H   UNL     1       1.427 -18.785  22.218  1.00  0.00     0.293 HD
ENDBRANCH  16  19
BRANCH  18  21
ATOM     21  O   UNL     1      -1.014 -19.605  23.285  1.00  0.00    -0.504 OA
ATOM     22  H   UNL     1      -0.843 -18.963  22.525  1.00  0.00     0.293 HD
ENDBRANCH  18  21
ENDBRANCH   3  13
BRANCH  10  23
ATOM     23  O   UNL     1      -2.244 -21.680  32.553  1.00  0.00    -0.507 OA
ATOM     24  H   UNL     1      -2.431 -22.066  33.471  1.00  0.00     0.293 HD
ENDBRANCH  10  23
BRANCH  11  25
ATOM     25  O   UNL     1      -1.875 -26.093  30.595  1.00  0.00    -0.508 OA
ATOM     26  H   UNL     1      -1.092 -26.722  30.731  1.00  0.00     0.293 HD
ENDBRANCH  11  25
ENDBRANCH   1   2
BRANCH   1  27
ATOM     27  C   UNL     1      -1.148 -17.719  28.488  1.00  0.00     0.265 C 
BRANCH  27  28
ATOM     28  C   UNL     1      -0.605 -16.791  27.390  1.00  0.00     0.190 C 
ATOM     29  C   UNL     1       0.864 -17.130  27.048  1.00  0.00     0.178 C 
ATOM     30  O   UNL     1      -1.442 -16.911  26.250  1.00  0.00    -0.340 OA
ATOM     31  C   UNL     1       1.364 -16.206  25.922  1.00  0.00     0.179 C 
ATOM     32  C   UNL     1      -1.081 -16.013  25.214  1.00  0.00     0.279 C 
ATOM     33  C   UNL     1       0.377 -16.216  24.736  1.00  0.00     0.201 C 
BRANCH  29  34
ATOM     34  O   UNL     1       1.666 -16.955  28.189  1.00  0.00    -0.387 OA
ATOM     35  H   UNL     1       2.389 -16.321  27.939  1.00  0.00     0.211 HD
ENDBRANCH  29  34
BRANCH  31  36
ATOM     36  O   UNL     1       2.652 -16.582  25.501  1.00  0.00    -0.387 OA
ATOM     37  H   UNL     1       2.552 -17.233  24.758  1.00  0.00     0.211 HD
ENDBRANCH  31  36
BRANCH  32  38
ATOM     38  O   UNL     1      -1.391 -14.681  25.557  1.00  0.00    -0.366 OA
ATOM     39  H   UNL     1      -2.031 -14.317  24.896  1.00  0.00     0.213 HD
ENDBRANCH  32  38
BRANCH  33  40
ATOM     40  O   UNL     1       0.714 -15.213  23.813  1.00  0.00    -0.385 OA
ATOM     41  H   UNL     1       1.195 -15.657  23.067  1.00  0.00     0.211 HD
ENDBRANCH  33  40
ENDBRANCH  27  28
ENDBRANCH   1  27
TORSDOF 12
ENDMDL
MODEL 5
REMARK VINA RESULT:    -7.021      2.061      4.920
REMARK INTER + INTRA:         -11.550
REMARK INTER:                 -10.995
REMARK INTRA:                  -0.555
REMARK UNBOUND:                -1.246
REMARK SMILES O=c1c(OC[C@@H]2O[C@@H](O)[C@@H](O)[C@H](O)[C@H]2O)c(-c2ccc(O)c(O)c2)oc2cc(O)cc(O)c12
REMARK SMILES IDX 4 1 3 2 16 3 25 4 2 5 26 6 1 7 33 8 27 9 31 10 28 11 30 12
REMARK SMILES IDX 17 13 18 14 19 15 20 16 24 17 22 18 21 19 23 21 32 23 29 25
REMARK SMILES IDX 5 27 6 28 14 29 7 30 12 31 8 32 10 33 15 34 13 36 9 38 11 40
REMARK H PARENT 21 20 23 22 32 24 29 26 15 35 13 37 9 39 11 41
REMARK Flexibility Score: inf
ROOT
ATOM      1  O   UNL     1      -0.355 -21.235  27.446  1.00  0.00    -0.483 OA
ENDROOT
BRANCH   1   2
ATOM      2  C   UNL     1      -0.008 -22.415  28.121  1.00  0.00     0.211 A 
ATOM      3  C   UNL     1      -0.464 -22.694  29.428  1.00  0.00     0.180 A 
ATOM      4  O   UNL     1      -0.190 -23.872  29.983  1.00  0.00    -0.452 OA
ATOM      5  C   UNL     1       0.803 -23.355  27.474  1.00  0.00     0.239 A 
ATOM      6  C   UNL     1       0.538 -24.808  29.387  1.00  0.00     0.146 A 
ATOM      7  O   UNL     1       1.258 -23.091  26.328  1.00  0.00    -0.285 OA
ATOM      8  C   UNL     1       1.083 -24.585  28.101  1.00  0.00     0.111 A 
ATOM      9  C   UNL     1       0.768 -26.017  30.050  1.00  0.00     0.094 A 
ATOM     10  C   UNL     1       1.866 -25.600  27.498  1.00  0.00     0.134 A 
ATOM     11  C   UNL     1       1.540 -27.015  29.453  1.00  0.00     0.123 A 
ATOM     12  C   UNL     1       2.087 -26.805  28.181  1.00  0.00     0.093 A 
BRANCH   3  13
ATOM     13  C   UNL     1      -1.227 -21.713  30.231  1.00  0.00     0.025 A 
ATOM     14  C   UNL     1      -1.749 -22.092  31.474  1.00  0.00     0.016 A 
ATOM     15  C   UNL     1      -2.463 -21.177  32.250  1.00  0.00     0.051 A 
ATOM     16  C   UNL     1      -2.656 -19.863  31.807  1.00  0.00     0.157 A 
ATOM     17  C   UNL     1      -1.399 -20.389  29.793  1.00  0.00     0.062 A 
ATOM     18  C   UNL     1      -2.111 -19.462  30.563  1.00  0.00     0.158 A 
BRANCH  16  19
ATOM     19  O   UNL     1      -3.385 -18.999  32.626  1.00  0.00    -0.504 OA
ATOM     20  H   UNL     1      -4.386 -19.048  32.747  1.00  0.00     0.293 HD
ENDBRANCH  16  19
BRANCH  18  21
ATOM     21  O   UNL     1      -2.250 -18.167  30.062  1.00  0.00    -0.504 OA
ATOM     22  H   UNL     1      -1.547 -17.697  29.511  1.00  0.00     0.293 HD
ENDBRANCH  18  21
ENDBRANCH   3  13
BRANCH  10  23
ATOM     23  O   UNL     1       2.422 -25.421  26.231  1.00  0.00    -0.507 OA
ATOM     24  H   UNL     1       1.850 -25.413  25.394  1.00  0.00     0.293 HD
ENDBRANCH  10  23
BRANCH  11  25
ATOM     25  O   UNL     1       1.757 -28.212  30.131  1.00  0.00    -0.508 OA
ATOM     26  H   UNL     1       2.506 -28.842  29.866  1.00  0.00     0.293 HD
ENDBRANCH  11  25
ENDBRANCH   1   2
BRANCH   1  27
ATOM     27  C   UNL     1      -1.305 -21.198  26.376  1.00  0.00     0.265 C 
BRANCH  27  28
ATOM     28  C   UNL     1      -1.185 -19.899  25.563  1.00  0.00     0.190 C 
ATOM     29  C   UNL     1      -1.217 -18.658  26.485  1.00  0.00     0.178 C 
ATOM     30  O   UNL     1       0.017 -19.953  24.810  1.00  0.00    -0.340 OA
ATOM     31  C   UNL     1      -1.060 -17.379  25.643  1.00  0.00     0.179 C 
ATOM     32  C   UNL     1       0.166 -18.839  23.946  1.00  0.00     0.279 C 
ATOM     33  C   UNL     1       0.163 -17.493  24.709  1.00  0.00     0.201 C 
BRANCH  29  34
ATOM     34  O   UNL     1      -2.439 -18.617  27.178  1.00  0.00    -0.387 OA
ATOM     35  H   UNL     1      -2.657 -17.659  27.322  1.00  0.00     0.211 HD
ENDBRANCH  29  34
BRANCH  31  36
ATOM     36  O   UNL     1      -0.952 -16.246  26.470  1.00  0.00    -0.387 OA
ATOM     37  H   UNL     1       0.008 -16.120  26.689  1.00  0.00     0.211 HD
ENDBRANCH  31  36
BRANCH  32  38
ATOM     38  O   UNL     1      -0.750 -18.893  22.875  1.00  0.00    -0.366 OA
ATOM     39  H   UNL     1      -1.448 -18.205  23.012  1.00  0.00     0.213 HD
ENDBRANCH  32  38
BRANCH  33  40
ATOM     40  O   UNL     1       0.175 -16.431  23.790  1.00  0.00    -0.385 OA
ATOM     41  H   UNL     1      -0.226 -15.647  24.249  1.00  0.00     0.211 HD
ENDBRANCH  33  40
ENDBRANCH  27  28
ENDBRANCH   1  27
TORSDOF 12
ENDMDL
MODEL 6
REMARK VINA RESULT:    -6.979      2.570      7.505
REMARK INTER + INTRA:         -11.489
REMARK INTER:                 -10.041
REMARK INTRA:                  -1.449
REMARK UNBOUND:                -1.246
REMARK SMILES O=c1c(OC[C@@H]2O[C@@H](O)[C@@H](O)[C@H](O)[C@H]2O)c(-c2ccc(O)c(O)c2)oc2cc(O)cc(O)c12
REMARK SMILES IDX 4 1 3 2 16 3 25 4 2 5 26 6 1 7 33 8 27 9 31 10 28 11 30 12
REMARK SMILES IDX 17 13 18 14 19 15 20 16 24 17 22 18 21 19 23 21 32 23 29 25
REMARK SMILES IDX 5 27 6 28 14 29 7 30 12 31 8 32 10 33 15 34 13 36 9 38 11 40
REMARK H PARENT 21 20 23 22 32 24 29 26 15 35 13 37 9 39 11 41
REMARK Flexibility Score: inf
ROOT
ATOM      1  O   UNL     1       0.664 -16.932  29.115  1.00  0.00    -0.483 OA
ENDROOT
BRANCH   1   2
ATOM      2  C   UNL     1      -0.408 -16.056  28.889  1.00  0.00     0.211 A 
ATOM      3  C   UNL     1      -1.367 -16.288  27.878  1.00  0.00     0.180 A 
ATOM      4  O   UNL     1      -2.420 -15.482  27.773  1.00  0.00    -0.452 OA
ATOM      5  C   UNL     1      -0.543 -14.922  29.699  1.00  0.00     0.239 A 
ATOM      6  C   UNL     1      -2.609 -14.422  28.550  1.00  0.00     0.146 A 
ATOM      7  O   UNL     1       0.338 -14.678  30.568  1.00  0.00    -0.285 OA
ATOM      8  C   UNL     1      -1.665 -14.083  29.547  1.00  0.00     0.111 A 
ATOM      9  C   UNL     1      -3.750 -13.637  28.365  1.00  0.00     0.094 A 
ATOM     10  C   UNL     1      -1.889 -12.939  30.350  1.00  0.00     0.134 A 
ATOM     11  C   UNL     1      -3.969 -12.509  29.158  1.00  0.00     0.123 A 
ATOM     12  C   UNL     1      -3.039 -12.163  30.146  1.00  0.00     0.093 A 
BRANCH   3  13
ATOM     13  C   UNL     1      -1.243 -17.393  26.903  1.00  0.00     0.025 A 
ATOM     14  C   UNL     1      -0.426 -17.234  25.776  1.00  0.00     0.016 A 
ATOM     15  C   UNL     1      -0.288 -18.269  24.850  1.00  0.00     0.051 A 
ATOM     16  C   UNL     1      -0.950 -19.488  25.039  1.00  0.00     0.157 A 
ATOM     17  C   UNL     1      -1.891 -18.623  27.108  1.00  0.00     0.062 A 
ATOM     18  C   UNL     1      -1.759 -19.669  26.186  1.00  0.00     0.158 A 
BRANCH  16  19
ATOM     19  O   UNL     1      -0.777 -20.480  24.073  1.00  0.00    -0.504 OA
ATOM     20  H   UNL     1      -1.499 -20.776  23.431  1.00  0.00     0.293 HD
ENDBRANCH  16  19
BRANCH  18  21
ATOM     21  O   UNL     1      -2.439 -20.860  26.450  1.00  0.00    -0.504 OA
ATOM     22  H   UNL     1      -2.365 -21.372  27.316  1.00  0.00     0.293 HD
ENDBRANCH  18  21
ENDBRANCH   3  13
BRANCH  10  23
ATOM     23  O   UNL     1      -0.983 -12.570  31.345  1.00  0.00    -0.507 OA
ATOM     24  H   UNL     1       0.013 -12.729  31.244  1.00  0.00     0.293 HD
ENDBRANCH  10  23
BRANCH  11  25
ATOM     25  O   UNL     1      -5.112 -11.740  28.957  1.00  0.00    -0.508 OA
ATOM     26  H   UNL     1      -5.393 -11.025  29.618  1.00  0.00     0.293 HD
ENDBRANCH  11  25
ENDBRANCH   1   2
BRANCH   1  27
ATOM     27  C   UNL     1       0.698 -17.860  30.204  1.00  0.00     0.265 C 
BRANCH  27  28
ATOM     28  C   UNL     1      -0.236 -19.055  29.953  1.00  0.00     0.190 C 
ATOM     29  C   UNL     1       0.550 -20.272  29.411  1.00  0.00     0.178 C 
ATOM     30  O   UNL     1      -0.898 -19.368  31.168  1.00  0.00    -0.340 OA
ATOM     31  C   UNL     1      -0.408 -21.460  29.204  1.00  0.00     0.179 C 
ATOM     32  C   UNL     1      -1.861 -20.397  31.013  1.00  0.00     0.279 C 
ATOM     33  C   UNL     1      -1.242 -21.710  30.478  1.00  0.00     0.201 C 
BRANCH  29  34
ATOM     34  O   UNL     1       1.153 -19.937  28.187  1.00  0.00    -0.387 OA
ATOM     35  H   UNL     1       0.554 -20.272  27.469  1.00  0.00     0.211 HD
ENDBRANCH  29  34
BRANCH  31  36
ATOM     36  O   UNL     1       0.304 -22.618  28.840  1.00  0.00    -0.387 OA
ATOM     37  H   UNL     1      -0.357 -23.311  28.577  1.00  0.00     0.211 HD
ENDBRANCH  31  36
BRANCH  32  38
ATOM     38  O   UNL     1      -2.978 -19.949  30.279  1.00  0.00    -0.366 OA
ATOM     39  H   UNL     1      -3.646 -19.571  30.904  1.00  0.00     0.213 HD
ENDBRANCH  32  38
BRANCH  33  40
ATOM     40  O   UNL     1      -2.263 -22.639  30.217  1.00  0.00    -0.385 OA
ATOM     41  H   UNL     1      -3.117 -22.212  30.485  1.00  0.00     0.211 HD
ENDBRANCH  33  40
ENDBRANCH  27  28
ENDBRANCH   1  27
TORSDOF 12
ENDMDL
MODEL 7
REMARK VINA RESULT:    -6.944      2.664      9.025
REMARK INTER + INTRA:         -11.437
REMARK INTER:                 -10.070
REMARK INTRA:                  -1.368
REMARK UNBOUND:                -1.246
REMARK SMILES O=c1c(OC[C@@H]2O[C@@H](O)[C@@H](O)[C@H](O)[C@H]2O)c(-c2ccc(O)c(O)c2)oc2cc(O)cc(O)c12
REMARK SMILES IDX 4 1 3 2 16 3 25 4 2 5 26 6 1 7 33 8 27 9 31 10 28 11 30 12
REMARK SMILES IDX 17 13 18 14 19 15 20 16 24 17 22 18 21 19 23 21 32 23 29 25
REMARK SMILES IDX 5 27 6 28 14 29 7 30 12 31 8 32 10 33 15 34 13 36 9 38 11 40
REMARK H PARENT 21 20 23 22 32 24 29 26 15 35 13 37 9 39 11 41
REMARK Flexibility Score: inf
ROOT
ATOM      1  O   UNL     1       1.008 -23.466  27.398  1.00  0.00    -0.483 OA
ENDROOT
BRANCH   1   2
ATOM      2  C   UNL     1       0.379 -22.215  27.310  1.00  0.00     0.211 A 
ATOM      3  C   UNL     1      -0.433 -21.709  28.350  1.00  0.00     0.180 A 
ATOM      4  O   UNL     1      -0.922 -20.475  28.261  1.00  0.00    -0.452 OA
ATOM      5  C   UNL     1       0.572 -21.434  26.165  1.00  0.00     0.239 A 
ATOM      6  C   UNL     1      -0.726 -19.686  27.213  1.00  0.00     0.146 A 
ATOM      7  O   UNL     1       1.251 -21.900  25.210  1.00  0.00    -0.285 OA
ATOM      8  C   UNL     1       0.024 -20.138  26.102  1.00  0.00     0.111 A 
ATOM      9  C   UNL     1      -1.278 -18.402  27.214  1.00  0.00     0.094 A 
ATOM     10  C   UNL     1       0.204 -19.275  24.994  1.00  0.00     0.134 A 
ATOM     11  C   UNL     1      -1.099 -17.554  26.119  1.00  0.00     0.123 A 
ATOM     12  C   UNL     1      -0.360 -17.992  25.013  1.00  0.00     0.093 A 
BRANCH   3  13
ATOM     13  C   UNL     1      -0.786 -22.508  29.544  1.00  0.00     0.025 A 
ATOM     14  C   UNL     1      -1.847 -23.420  29.477  1.00  0.00     0.016 A 
ATOM     15  C   UNL     1      -2.188 -24.190  30.591  1.00  0.00     0.051 A 
ATOM     16  C   UNL     1      -1.468 -24.076  31.785  1.00  0.00     0.157 A 
ATOM     17  C   UNL     1      -0.046 -22.407  30.734  1.00  0.00     0.062 A 
ATOM     18  C   UNL     1      -0.378 -23.176  31.856  1.00  0.00     0.158 A 
BRANCH  16  19
ATOM     19  O   UNL     1      -1.864 -24.869  32.864  1.00  0.00    -0.504 OA
ATOM     20  H   UNL     1      -2.823 -24.976  33.163  1.00  0.00     0.293 HD
ENDBRANCH  16  19
BRANCH  18  21
ATOM     21  O   UNL     1       0.395 -23.017  33.008  1.00  0.00    -0.504 OA
ATOM     22  H   UNL     1       1.055 -22.266  33.145  1.00  0.00     0.293 HD
ENDBRANCH  18  21
ENDBRANCH   3  13
BRANCH  10  23
ATOM     23  O   UNL     1       0.938 -19.682  23.878  1.00  0.00    -0.507 OA
ATOM     24  H   UNL     1       1.908 -19.416  23.752  1.00  0.00     0.293 HD
ENDBRANCH  10  23
BRANCH  11  25
ATOM     25  O   UNL     1      -1.659 -16.279  26.141  1.00  0.00    -0.508 OA
ATOM     26  H   UNL     1      -1.796 -15.746  25.289  1.00  0.00     0.293 HD
ENDBRANCH  11  25
ENDBRANCH   1   2
BRANCH   1  27
ATOM     27  C   UNL     1       2.370 -23.628  27.807  1.00  0.00     0.265 C 
BRANCH  27  28
ATOM     28  C   UNL     1       2.492 -24.629  28.967  1.00  0.00     0.190 C 
ATOM     29  C   UNL     1       2.106 -26.057  28.515  1.00  0.00     0.178 C 
ATOM     30  O   UNL     1       3.822 -24.584  29.459  1.00  0.00    -0.340 OA
ATOM     31  C   UNL     1       2.273 -27.039  29.690  1.00  0.00     0.179 C 
ATOM     32  C   UNL     1       4.008 -25.403  30.601  1.00  0.00     0.279 C 
ATOM     33  C   UNL     1       3.671 -26.888  30.326  1.00  0.00     0.201 C 
BRANCH  29  34
ATOM     34  O   UNL     1       0.771 -26.070  28.079  1.00  0.00    -0.387 OA
ATOM     35  H   UNL     1       0.791 -26.039  27.086  1.00  0.00     0.211 HD
ENDBRANCH  29  34
BRANCH  31  36
ATOM     36  O   UNL     1       2.058 -28.364  29.268  1.00  0.00    -0.387 OA
ATOM     37  H   UNL     1       1.427 -28.340  28.502  1.00  0.00     0.211 HD
ENDBRANCH  31  36
BRANCH  32  38
ATOM     38  O   UNL     1       3.353 -24.866  31.729  1.00  0.00    -0.366 OA
ATOM     39  H   UNL     1       3.974 -24.259  32.204  1.00  0.00     0.213 HD
ENDBRANCH  32  38
BRANCH  33  40
ATOM     40  O   UNL     1       3.741 -27.616  31.525  1.00  0.00    -0.385 OA
ATOM     41  H   UNL     1       2.868 -27.504  31.983  1.00  0.00     0.211 HD
ENDBRANCH  33  40
ENDBRANCH  27  28
ENDBRANCH   1  27
TORSDOF 12
ENDMDL
MODEL 8
REMARK VINA RESULT:    -6.936      1.653      4.011
REMARK INTER + INTRA:         -11.426
REMARK INTER:                 -10.065
REMARK INTRA:                  -1.360
REMARK UNBOUND:                -1.246
REMARK SMILES O=c1c(OC[C@@H]2O[C@@H](O)[C@@H](O)[C@H](O)[C@H]2O)c(-c2ccc(O)c(O)c2)oc2cc(O)cc(O)c12
REMARK SMILES IDX 4 1 3 2 16 3 25 4 2 5 26 6 1 7 33 8 27 9 31 10 28 11 30 12
REMARK SMILES IDX 17 13 18 14 19 15 20 16 24 17 22 18 21 19 23 21 32 23 29 25
REMARK SMILES IDX 5 27 6 28 14 29 7 30 12 31 8 32 10 33 15 34 13 36 9 38 11 40
REMARK H PARENT 21 20 23 22 32 24 29 26 15 35 13 37 9 39 11 41
REMARK Flexibility Score: inf
ROOT
ATOM      1  O   UNL     1       0.826 -20.820  26.939  1.00  0.00    -0.483 OA
ENDROOT
BRANCH   1   2
ATOM      2  C   UNL     1       0.203 -21.484  28.006  1.00  0.00     0.211 A 
ATOM      3  C   UNL     1      -0.582 -20.799  28.960  1.00  0.00     0.180 A 
ATOM      4  O   UNL     1      -1.235 -21.489  29.891  1.00  0.00    -0.452 OA
ATOM      5  C   UNL     1       0.348 -22.871  28.122  1.00  0.00     0.239 A 
ATOM      6  C   UNL     1      -1.160 -22.809  30.009  1.00  0.00     0.146 A 
ATOM      7  O   UNL     1       1.089 -23.483  27.306  1.00  0.00    -0.285 OA
ATOM      8  C   UNL     1      -0.348 -23.565  29.132  1.00  0.00     0.111 A 
ATOM      9  C   UNL     1      -1.887 -23.445  31.019  1.00  0.00     0.094 A 
ATOM     10  C   UNL     1      -0.280 -24.970  29.293  1.00  0.00     0.134 A 
ATOM     11  C   UNL     1      -1.818 -24.831  31.176  1.00  0.00     0.123 A 
ATOM     12  C   UNL     1      -1.015 -25.589  30.314  1.00  0.00     0.093 A 
BRANCH   3  13
ATOM     13  C   UNL     1      -0.698 -19.324  28.984  1.00  0.00     0.025 A 
ATOM     14  C   UNL     1       0.296 -18.562  29.612  1.00  0.00     0.016 A 
ATOM     15  C   UNL     1       0.209 -17.169  29.635  1.00  0.00     0.051 A 
ATOM     16  C   UNL     1      -0.862 -16.510  29.021  1.00  0.00     0.157 A 
ATOM     17  C   UNL     1      -1.763 -18.666  28.347  1.00  0.00     0.062 A 
ATOM     18  C   UNL     1      -1.859 -17.270  28.363  1.00  0.00     0.158 A 
BRANCH  16  19
ATOM     19  O   UNL     1      -0.895 -15.116  29.087  1.00  0.00    -0.504 OA
ATOM     20  H   UNL     1      -0.463 -14.576  29.823  1.00  0.00     0.293 HD
ENDBRANCH  16  19
BRANCH  18  21
ATOM     21  O   UNL     1      -2.949 -16.683  27.716  1.00  0.00    -0.504 OA
ATOM     22  H   UNL     1      -3.540 -17.166  27.055  1.00  0.00     0.293 HD
ENDBRANCH  18  21
ENDBRANCH   3  13
BRANCH  10  23
ATOM     23  O   UNL     1       0.509 -25.752  28.448  1.00  0.00    -0.507 OA
ATOM     24  H   UNL     1       0.401 -25.725  27.441  1.00  0.00     0.293 HD
ENDBRANCH  10  23
BRANCH  11  25
ATOM     25  O   UNL     1      -2.550 -25.444  32.189  1.00  0.00    -0.508 OA
ATOM     26  H   UNL     1      -2.100 -26.012  32.897  1.00  0.00     0.293 HD
ENDBRANCH  11  25
ENDBRANCH   1   2
BRANCH   1  27
ATOM     27  C   UNL     1       0.194 -20.613  25.672  1.00  0.00     0.265 C 
BRANCH  27  28
ATOM     28  C   UNL     1       0.569 -19.248  25.073  1.00  0.00     0.190 C 
ATOM     29  C   UNL     1      -0.557 -18.712  24.157  1.00  0.00     0.178 C 
ATOM     30  O   UNL     1       0.839 -18.351  26.139  1.00  0.00    -0.340 OA
ATOM     31  C   UNL     1      -0.164 -17.330  23.603  1.00  0.00     0.179 C 
ATOM     32  C   UNL     1       1.294 -17.088  25.685  1.00  0.00     0.279 C 
ATOM     33  C   UNL     1       0.276 -16.394  24.748  1.00  0.00     0.201 C 
BRANCH  29  34
ATOM     34  O   UNL     1      -0.762 -19.604  23.091  1.00  0.00    -0.387 OA
ATOM     35  H   UNL     1      -0.957 -19.053  22.288  1.00  0.00     0.211 HD
ENDBRANCH  29  34
BRANCH  31  36
ATOM     36  O   UNL     1      -1.226 -16.763  22.876  1.00  0.00    -0.387 OA
ATOM     37  H   UNL     1      -1.963 -16.571  23.514  1.00  0.00     0.211 HD
ENDBRANCH  31  36
BRANCH  32  38
ATOM     38  O   UNL     1       2.597 -17.173  25.152  1.00  0.00    -0.366 OA
ATOM     39  H   UNL     1       3.165 -17.698  25.770  1.00  0.00     0.213 HD
ENDBRANCH  32  38
BRANCH  33  40
ATOM     40  O   UNL     1       0.842 -15.219  24.226  1.00  0.00    -0.385 OA
ATOM     41  H   UNL     1       0.090 -14.647  23.922  1.00  0.00     0.211 HD
ENDBRANCH  33  40
ENDBRANCH  27  28
ENDBRANCH   1  27
TORSDOF 12
ENDMDL
MODEL 9
REMARK VINA RESULT:    -6.781      1.862      2.353
REMARK INTER + INTRA:         -11.198
REMARK INTER:                  -9.760
REMARK INTRA:                  -1.438
REMARK UNBOUND:                -1.246
REMARK SMILES O=c1c(OC[C@@H]2O[C@@H](O)[C@@H](O)[C@H](O)[C@H]2O)c(-c2ccc(O)c(O)c2)oc2cc(O)cc(O)c12
REMARK SMILES IDX 4 1 3 2 16 3 25 4 2 5 26 6 1 7 33 8 27 9 31 10 28 11 30 12
REMARK SMILES IDX 17 13 18 14 19 15 20 16 24 17 22 18 21 19 23 21 32 23 29 25
REMARK SMILES IDX 5 27 6 28 14 29 7 30 12 31 8 32 10 33 15 34 13 36 9 38 11 40
REMARK H PARENT 21 20 23 22 32 24 29 26 15 35 13 37 9 39 11 41
REMARK Flexibility Score: inf
ROOT
ATOM      1  O   UNL     1      -0.357 -18.740  26.685  1.00  0.00    -0.483 OA
ENDROOT
BRANCH   1   2
ATOM      2  C   UNL     1      -0.581 -19.743  27.640  1.00  0.00     0.211 A 
ATOM      3  C   UNL     1      -0.019 -21.033  27.521  1.00  0.00     0.180 A 
ATOM      4  O   UNL     1      -0.178 -21.913  28.505  1.00  0.00    -0.452 OA
ATOM      5  C   UNL     1      -1.374 -19.453  28.757  1.00  0.00     0.239 A 
ATOM      6  C   UNL     1      -0.885 -21.664  29.601  1.00  0.00     0.146 A 
ATOM      7  O   UNL     1      -1.923 -18.322  28.846  1.00  0.00    -0.285 OA
ATOM      8  C   UNL     1      -1.531 -20.418  29.772  1.00  0.00     0.111 A 
ATOM      9  C   UNL     1      -0.991 -22.653  30.583  1.00  0.00     0.094 A 
ATOM     10  C   UNL     1      -2.288 -20.189  30.947  1.00  0.00     0.134 A 
ATOM     11  C   UNL     1      -1.738 -22.424  31.740  1.00  0.00     0.123 A 
ATOM     12  C   UNL     1      -2.384 -21.195  31.919  1.00  0.00     0.093 A 
BRANCH   3  13
ATOM     13  C   UNL     1       0.734 -21.465  26.323  1.00  0.00     0.025 A 
ATOM     14  C   UNL     1       2.117 -21.248  26.259  1.00  0.00     0.016 A 
ATOM     15  C   UNL     1       2.846 -21.658  25.141  1.00  0.00     0.051 A 
ATOM     16  C   UNL     1       2.212 -22.304  24.074  1.00  0.00     0.157 A 
ATOM     17  C   UNL     1       0.098 -22.133  25.264  1.00  0.00     0.062 A 
ATOM     18  C   UNL     1       0.820 -22.550  24.139  1.00  0.00     0.158 A 
BRANCH  16  19
ATOM     19  O   UNL     1       2.996 -22.682  22.982  1.00  0.00    -0.504 OA
ATOM     20  H   UNL     1       2.694 -22.615  22.021  1.00  0.00     0.293 HD
ENDBRANCH  16  19
BRANCH  18  21
ATOM     21  O   UNL     1       0.121 -23.202  23.120  1.00  0.00    -0.504 OA
ATOM     22  H   UNL     1      -0.713 -23.750  23.269  1.00  0.00     0.293 HD
ENDBRANCH  18  21
ENDBRANCH   3  13
BRANCH  10  23
ATOM     23  O   UNL     1      -2.941 -18.973  31.155  1.00  0.00    -0.507 OA
ATOM     24  H   UNL     1      -3.946 -18.922  31.277  1.00  0.00     0.293 HD
ENDBRANCH  10  23
BRANCH  11  25
ATOM     25  O   UNL     1      -1.831 -23.423  32.705  1.00  0.00    -0.508 OA
ATOM     26  H   UNL     1      -1.992 -23.203  33.681  1.00  0.00     0.293 HD
ENDBRANCH  11  25
ENDBRANCH   1   2
BRANCH   1  27
ATOM     27  C   UNL     1       0.666 -17.749  26.818  1.00  0.00     0.265 C 
BRANCH  27  28
ATOM     28  C   UNL     1       0.286 -16.448  26.095  1.00  0.00     0.190 C 
ATOM     29  C   UNL     1      -0.932 -15.771  26.766  1.00  0.00     0.178 C 
ATOM     30  O   UNL     1       1.417 -15.591  26.091  1.00  0.00    -0.340 OA
ATOM     31  C   UNL     1      -1.263 -14.455  26.038  1.00  0.00     0.179 C 
ATOM     32  C   UNL     1       1.195 -14.401  25.354  1.00  0.00     0.279 C 
ATOM     33  C   UNL     1       0.001 -13.581  25.898  1.00  0.00     0.201 C 
BRANCH  29  34
ATOM     34  O   UNL     1      -2.041 -16.631  26.709  1.00  0.00    -0.387 OA
ATOM     35  H   UNL     1      -2.801 -16.099  26.353  1.00  0.00     0.211 HD
ENDBRANCH  29  34
BRANCH  31  36
ATOM     36  O   UNL     1      -2.281 -13.754  26.711  1.00  0.00    -0.387 OA
ATOM     37  H   UNL     1      -2.259 -12.812  26.400  1.00  0.00     0.211 HD
ENDBRANCH  31  36
BRANCH  32  38
ATOM     38  O   UNL     1       1.129 -14.659  23.969  1.00  0.00    -0.366 OA
ATOM     39  H   UNL     1       0.240 -14.386  23.631  1.00  0.00     0.213 HD
ENDBRANCH  32  38
BRANCH  33  40
ATOM     40  O   UNL     1      -0.251 -12.494  25.046  1.00  0.00    -0.385 OA
ATOM     41  H   UNL     1       0.046 -11.677  25.525  1.00  0.00     0.211 HD
ENDBRANCH  33  40
ENDBRANCH  27  28
ENDBRANCH   1  27
TORSDOF 12
ENDMDL
