MODEL 1
REMARK VINA RESULT:    -5.356      0.000      0.000
REMARK INTER + INTRA:         -16.727
REMARK INTER:                 -12.244
REMARK INTRA:                  -4.482
REMARK UNBOUND:                -4.482
REMARK SMILES CCCCCCCCCCCCCCCCCCCCCCCC(=O)[O-]
REMARK SMILES IDX 13 1 14 2 15 3 16 4 17 5 18 6 19 7 20 8 21 9 22 10 23 11
REMARK SMILES IDX 24 12 25 13 26 14 12 15 11 16 10 17 9 18 8 19 7 20 6 21 5 22
REMARK SMILES IDX 4 23 3 24 2 25 1 26
REMARK H PARENT
REMARK Flexibility Score: inf
ROOT
ATOM      1  C   UNL     1      17.723  -1.662  21.053  1.00  0.00     0.000 C 
ENDROOT
BRANCH   1   2
ATOM      2  C   UNL     1      16.249  -2.051  20.840  1.00  0.00     0.000 C 
BRANCH   2   3
ATOM      3  C   UNL     1      15.399  -0.885  20.312  1.00  0.00     0.000 C 
BRANCH   3   4
ATOM      4  C   UNL     1      14.899  -1.124  18.878  1.00  0.00     0.000 C 
BRANCH   4   5
ATOM      5  C   UNL     1      15.344   0.010  17.941  1.00  0.00     0.000 C 
BRANCH   5   6
ATOM      6  C   UNL     1      16.842   0.344  18.069  1.00  0.00     0.000 C 
BRANCH   6   7
ATOM      7  C   UNL     1      17.763  -0.411  17.093  1.00  0.00     0.000 C 
BRANCH   7   8
ATOM      8  C   UNL     1      18.518  -1.573  17.761  1.00  0.00     0.000 C 
BRANCH   8   9
ATOM      9  C   UNL     1      18.373  -2.893  16.986  1.00  0.00     0.000 C 
BRANCH   9  10
ATOM     10  C   UNL     1      17.502  -3.921  17.728  1.00  0.00     0.006 C 
BRANCH  10  11
ATOM     11  C   UNL     1      16.040  -3.887  17.266  1.00  0.00     0.053 C 
BRANCH  11  12
ATOM     12  C   UNL     1      15.558  -5.241  16.842  1.00  0.00     0.041 C 
ATOM     13  O   UNL     1      14.526  -5.739  17.366  1.00  0.00    -0.550 OA
ATOM     14  O   UNL     1      16.229  -5.938  15.846  1.00  0.00    -0.550 OA
ENDBRANCH  11  12
ENDBRANCH  10  11
ENDBRANCH   9  10
ENDBRANCH   8   9
ENDBRANCH   7   8
ENDBRANCH   6   7
ENDBRANCH   5   6
ENDBRANCH   4   5
ENDBRANCH   3   4
ENDBRANCH   2   3
ENDBRANCH   1   2
BRANCH   1  15
ATOM     15  C   UNL     1      17.887  -0.398  21.912  1.00  0.00     0.000 C 
BRANCH  15  16
ATOM     16  C   UNL     1      18.663   0.713  21.184  1.00  0.00     0.000 C 
BRANCH  16  17
ATOM     17  C   UNL     1      19.997   0.224  20.593  1.00  0.00     0.000 C 
BRANCH  17  18
ATOM     18  C   UNL     1      21.261   0.846  21.220  1.00  0.00    -0.000 C 
BRANCH  18  19
ATOM     19  C   UNL     1      21.496   0.496  22.703  1.00  0.00    -0.000 C 
BRANCH  19  20
ATOM     20  C   UNL     1      22.055  -0.919  22.954  1.00  0.00    -0.000 C 
BRANCH  20  21
ATOM     21  C   UNL     1      21.045  -1.928  23.537  1.00  0.00    -0.000 C 
BRANCH  21  22
ATOM     22  C   UNL     1      20.658  -3.086  22.600  1.00  0.00    -0.000 C 
BRANCH  22  23
ATOM     23  C   UNL     1      21.380  -3.026  21.243  1.00  0.00    -0.000 C 
BRANCH  23  24
ATOM     24  C   UNL     1      20.723  -3.919  20.174  1.00  0.00    -0.000 C 
BRANCH  24  25
ATOM     25  C   UNL     1      21.554  -4.124  18.894  1.00  0.00    -0.003 C 
ATOM     26  C   UNL     1      20.993  -5.215  17.983  1.00  0.00     0.004 C 
ENDBRANCH  24  25
ENDBRANCH  23  24
ENDBRANCH  22  23
ENDBRANCH  21  22
ENDBRANCH  20  21
ENDBRANCH  19  20
ENDBRANCH  18  19
ENDBRANCH  17  18
ENDBRANCH  16  17
ENDBRANCH  15  16
ENDBRANCH   1  15
TORSDOF 22
ENDMDL
MODEL 2
REMARK VINA RESULT:    -5.093      2.083      4.922
REMARK INTER + INTRA:         -16.127
REMARK INTER:                 -12.084
REMARK INTRA:                  -4.043
REMARK UNBOUND:                -4.482
REMARK SMILES CCCCCCCCCCCCCCCCCCCCCCCC(=O)[O-]
REMARK SMILES IDX 13 1 14 2 15 3 16 4 17 5 18 6 19 7 20 8 21 9 22 10 23 11
REMARK SMILES IDX 24 12 25 13 26 14 12 15 11 16 10 17 9 18 8 19 7 20 6 21 5 22
REMARK SMILES IDX 4 23 3 24 2 25 1 26
REMARK H PARENT
REMARK Flexibility Score: inf
ROOT
ATOM      1  C   UNL     1      18.397  -1.076  17.116  1.00  0.00     0.000 C 
ENDROOT
BRANCH   1   2
ATOM      2  C   UNL     1      18.581  -2.574  16.817  1.00  0.00     0.000 C 
BRANCH   2   3
ATOM      3  C   UNL     1      17.296  -3.385  17.037  1.00  0.00     0.000 C 
BRANCH   3   4
ATOM      4  C   UNL     1      17.498  -4.554  18.013  1.00  0.00     0.000 C 
BRANCH   4   5
ATOM      5  C   UNL     1      16.613  -4.394  19.258  1.00  0.00     0.000 C 
BRANCH   5   6
ATOM      6  C   UNL     1      17.368  -3.803  20.464  1.00  0.00     0.000 C 
BRANCH   6   7
ATOM      7  C   UNL     1      18.796  -4.342  20.664  1.00  0.00     0.000 C 
BRANCH   7   8
ATOM      8  C   UNL     1      19.829  -3.227  20.903  1.00  0.00     0.000 C 
BRANCH   8   9
ATOM      9  C   UNL     1      21.180  -3.521  20.231  1.00  0.00     0.000 C 
BRANCH   9  10
ATOM     10  C   UNL     1      21.065  -4.563  19.104  1.00  0.00     0.006 C 
BRANCH  10  11
ATOM     11  C   UNL     1      21.677  -4.066  17.788  1.00  0.00     0.053 C 
BRANCH  11  12
ATOM     12  C   UNL     1      22.106  -5.201  16.910  1.00  0.00     0.041 C 
ATOM     13  O   UNL     1      23.224  -5.167  16.331  1.00  0.00    -0.550 OA
ATOM     14  O   UNL     1      21.285  -6.311  16.757  1.00  0.00    -0.550 OA
ENDBRANCH  11  12
ENDBRANCH  10  11
ENDBRANCH   9  10
ENDBRANCH   8   9
ENDBRANCH   7   8
ENDBRANCH   6   7
ENDBRANCH   5   6
ENDBRANCH   4   5
ENDBRANCH   3   4
ENDBRANCH   2   3
ENDBRANCH   1   2
BRANCH   1  15
ATOM     15  C   UNL     1      18.016  -0.804  18.581  1.00  0.00     0.000 C 
BRANCH  15  16
ATOM     16  C   UNL     1      16.753   0.064  18.710  1.00  0.00     0.000 C 
BRANCH  16  17
ATOM     17  C   UNL     1      15.539  -0.719  19.240  1.00  0.00     0.000 C 
BRANCH  17  18
ATOM     18  C   UNL     1      15.589  -1.073  20.740  1.00  0.00    -0.000 C 
BRANCH  18  19
ATOM     19  C   UNL     1      16.252  -0.011  21.641  1.00  0.00    -0.000 C 
BRANCH  19  20
ATOM     20  C   UNL     1      17.644  -0.395  22.179  1.00  0.00    -0.000 C 
BRANCH  20  21
ATOM     21  C   UNL     1      18.754   0.644  21.922  1.00  0.00    -0.000 C 
BRANCH  21  22
ATOM     22  C   UNL     1      19.949   0.582  22.889  1.00  0.00    -0.000 C 
BRANCH  22  23
ATOM     23  C   UNL     1      20.150  -0.813  23.506  1.00  0.00    -0.000 C 
BRANCH  23  24
ATOM     24  C   UNL     1      21.624  -1.259  23.513  1.00  0.00    -0.000 C 
BRANCH  24  25
ATOM     25  C   UNL     1      22.478  -0.704  22.359  1.00  0.00    -0.003 C 
ATOM     26  C   UNL     1      23.693  -1.575  22.040  1.00  0.00     0.004 C 
ENDBRANCH  24  25
ENDBRANCH  23  24
ENDBRANCH  22  23
ENDBRANCH  21  22
ENDBRANCH  20  21
ENDBRANCH  19  20
ENDBRANCH  18  19
ENDBRANCH  17  18
ENDBRANCH  16  17
ENDBRANCH  15  16
ENDBRANCH   1  15
TORSDOF 22
ENDMDL
MODEL 3
REMARK VINA RESULT:    -5.071      1.074      3.535
REMARK INTER + INTRA:         -16.074
REMARK INTER:                 -11.812
REMARK INTRA:                  -4.262
REMARK UNBOUND:                -4.482
REMARK SMILES CCCCCCCCCCCCCCCCCCCCCCCC(=O)[O-]
REMARK SMILES IDX 13 1 14 2 15 3 16 4 17 5 18 6 19 7 20 8 21 9 22 10 23 11
REMARK SMILES IDX 24 12 25 13 26 14 12 15 11 16 10 17 9 18 8 19 7 20 6 21 5 22
REMARK SMILES IDX 4 23 3 24 2 25 1 26
REMARK H PARENT
REMARK Flexibility Score: inf
ROOT
ATOM      1  C   UNL     1      20.050  -4.128  19.718  1.00  0.00     0.000 C 
ENDROOT
BRANCH   1   2
ATOM      2  C   UNL     1      20.090  -4.277  18.187  1.00  0.00     0.000 C 
BRANCH   2   3
ATOM      3  C   UNL     1      20.259  -2.932  17.464  1.00  0.00     0.000 C 
BRANCH   3   4
ATOM      4  C   UNL     1      18.919  -2.342  16.999  1.00  0.00     0.000 C 
BRANCH   4   5
ATOM      5  C   UNL     1      18.683  -0.954  17.614  1.00  0.00     0.000 C 
BRANCH   5   6
ATOM      6  C   UNL     1      17.255  -0.426  17.382  1.00  0.00     0.000 C 
BRANCH   6   7
ATOM      7  C   UNL     1      16.457  -0.123  18.663  1.00  0.00     0.000 C 
BRANCH   7   8
ATOM      8  C   UNL     1      15.396  -1.193  18.976  1.00  0.00     0.000 C 
BRANCH   8   9
ATOM      9  C   UNL     1      15.354  -2.306  17.917  1.00  0.00     0.000 C 
BRANCH   9  10
ATOM     10  C   UNL     1      15.654  -3.695  18.507  1.00  0.00     0.006 C 
BRANCH  10  11
ATOM     11  C   UNL     1      16.347  -4.618  17.497  1.00  0.00     0.053 C 
BRANCH  11  12
ATOM     12  C   UNL     1      15.389  -5.593  16.884  1.00  0.00     0.041 C 
ATOM     13  O   UNL     1      15.718  -6.247  15.859  1.00  0.00    -0.550 OA
ATOM     14  O   UNL     1      14.144  -5.803  17.464  1.00  0.00    -0.550 OA
ENDBRANCH  11  12
ENDBRANCH  10  11
ENDBRANCH   9  10
ENDBRANCH   8   9
ENDBRANCH   7   8
ENDBRANCH   6   7
ENDBRANCH   5   6
ENDBRANCH   4   5
ENDBRANCH   3   4
ENDBRANCH   2   3
ENDBRANCH   1   2
BRANCH   1  15
ATOM     15  C   UNL     1      18.734  -4.634  20.332  1.00  0.00     0.000 C 
BRANCH  15  16
ATOM     16  C   UNL     1      18.003  -3.548  21.138  1.00  0.00     0.000 C 
BRANCH  16  17
ATOM     17  C   UNL     1      18.542  -2.132  20.863  1.00  0.00     0.000 C 
BRANCH  17  18
ATOM     18  C   UNL     1      18.011  -1.033  21.804  1.00  0.00    -0.000 C 
BRANCH  18  19
ATOM     19  C   UNL     1      18.719   0.332  21.680  1.00  0.00    -0.000 C 
BRANCH  19  20
ATOM     20  C   UNL     1      19.832   0.390  20.615  1.00  0.00    -0.000 C 
BRANCH  20  21
ATOM     21  C   UNL     1      21.248   0.659  21.163  1.00  0.00    -0.000 C 
BRANCH  21  22
ATOM     22  C   UNL     1      22.125  -0.590  21.361  1.00  0.00    -0.000 C 
BRANCH  22  23
ATOM     23  C   UNL     1      22.375  -0.919  22.843  1.00  0.00    -0.000 C 
BRANCH  23  24
ATOM     24  C   UNL     1      21.187  -1.640  23.506  1.00  0.00    -0.000 C 
BRANCH  24  25
ATOM     25  C   UNL     1      21.128  -3.159  23.265  1.00  0.00    -0.003 C 
ATOM     26  C   UNL     1      22.226  -3.659  22.327  1.00  0.00     0.004 C 
ENDBRANCH  24  25
ENDBRANCH  23  24
ENDBRANCH  22  23
ENDBRANCH  21  22
ENDBRANCH  20  21
ENDBRANCH  19  20
ENDBRANCH  18  19
ENDBRANCH  17  18
ENDBRANCH  16  17
ENDBRANCH  15  16
ENDBRANCH   1  15
TORSDOF 22
ENDMDL
MODEL 4
REMARK VINA RESULT:    -5.017      1.063      2.513
REMARK INTER + INTRA:         -15.952
REMARK INTER:                 -11.814
REMARK INTRA:                  -4.138
REMARK UNBOUND:                -4.482
REMARK SMILES CCCCCCCCCCCCCCCCCCCCCCCC(=O)[O-]
REMARK SMILES IDX 13 1 14 2 15 3 16 4 17 5 18 6 19 7 20 8 21 9 22 10 23 11
REMARK SMILES IDX 24 12 25 13 26 14 12 15 11 16 10 17 9 18 8 19 7 20 6 21 5 22
REMARK SMILES IDX 4 23 3 24 2 25 1 26
REMARK H PARENT
REMARK Flexibility Score: inf
ROOT
ATOM      1  C   UNL     1      19.538  -0.404  19.787  1.00  0.00     0.000 C 
ENDROOT
BRANCH   1   2
ATOM      2  C   UNL     1      19.265  -1.027  18.407  1.00  0.00     0.000 C 
BRANCH   2   3
ATOM      3  C   UNL     1      17.907  -0.608  17.825  1.00  0.00     0.000 C 
BRANCH   3   4
ATOM      4  C   UNL     1      17.006   0.075  18.866  1.00  0.00     0.000 C 
BRANCH   4   5
ATOM      5  C   UNL     1      15.837  -0.836  19.268  1.00  0.00     0.000 C 
BRANCH   5   6
ATOM      6  C   UNL     1      15.974  -1.398  20.696  1.00  0.00     0.000 C 
BRANCH   6   7
ATOM      7  C   UNL     1      16.914  -2.609  20.831  1.00  0.00     0.000 C 
BRANCH   7   8
ATOM      8  C   UNL     1      16.520  -3.779  19.913  1.00  0.00     0.000 C 
BRANCH   8   9
ATOM      9  C   UNL     1      17.730  -4.391  19.188  1.00  0.00     0.000 C 
BRANCH   9  10
ATOM     10  C   UNL     1      17.583  -4.353  17.657  1.00  0.00     0.006 C 
BRANCH  10  11
ATOM     11  C   UNL     1      16.137  -4.088  17.218  1.00  0.00     0.053 C 
BRANCH  11  12
ATOM     12  C   UNL     1      15.417  -5.356  16.877  1.00  0.00     0.041 C 
ATOM     13  O   UNL     1      14.407  -5.710  17.541  1.00  0.00    -0.550 OA
ATOM     14  O   UNL     1      15.842  -6.132  15.806  1.00  0.00    -0.550 OA
ENDBRANCH  11  12
ENDBRANCH  10  11
ENDBRANCH   9  10
ENDBRANCH   8   9
ENDBRANCH   7   8
ENDBRANCH   6   7
ENDBRANCH   5   6
ENDBRANCH   4   5
ENDBRANCH   3   4
ENDBRANCH   2   3
ENDBRANCH   1   2
BRANCH   1  15
ATOM     15  C   UNL     1      21.029  -0.117  20.027  1.00  0.00     0.000 C 
BRANCH  15  16
ATOM     16  C   UNL     1      21.265   0.811  21.231  1.00  0.00     0.000 C 
BRANCH  16  17
ATOM     17  C   UNL     1      22.556   0.480  21.999  1.00  0.00     0.000 C 
BRANCH  17  18
ATOM     18  C   UNL     1      22.524  -0.836  22.802  1.00  0.00    -0.000 C 
BRANCH  18  19
ATOM     19  C   UNL     1      21.157  -1.192  23.421  1.00  0.00    -0.000 C 
BRANCH  19  20
ATOM     20  C   UNL     1      20.539  -2.509  22.912  1.00  0.00    -0.000 C 
BRANCH  20  21
ATOM     21  C   UNL     1      21.462  -3.362  22.017  1.00  0.00    -0.000 C 
BRANCH  21  22
ATOM     22  C   UNL     1      20.853  -3.800  20.674  1.00  0.00    -0.000 C 
BRANCH  22  23
ATOM     23  C   UNL     1      21.811  -3.604  19.487  1.00  0.00    -0.000 C 
BRANCH  23  24
ATOM     24  C   UNL     1      21.141  -3.866  18.126  1.00  0.00    -0.000 C 
BRANCH  24  25
ATOM     25  C   UNL     1      21.438  -5.245  17.508  1.00  0.00    -0.003 C 
ATOM     26  C   UNL     1      22.711  -5.262  16.664  1.00  0.00     0.004 C 
ENDBRANCH  24  25
ENDBRANCH  23  24
ENDBRANCH  22  23
ENDBRANCH  21  22
ENDBRANCH  20  21
ENDBRANCH  19  20
ENDBRANCH  18  19
ENDBRANCH  17  18
ENDBRANCH  16  17
ENDBRANCH  15  16
ENDBRANCH   1  15
TORSDOF 22
ENDMDL
MODEL 5
REMARK VINA RESULT:    -5.013      2.033      3.264
REMARK INTER + INTRA:         -15.944
REMARK INTER:                 -12.224
REMARK INTRA:                  -3.719
REMARK UNBOUND:                -4.482
REMARK SMILES CCCCCCCCCCCCCCCCCCCCCCCC(=O)[O-]
REMARK SMILES IDX 13 1 14 2 15 3 16 4 17 5 18 6 19 7 20 8 21 9 22 10 23 11
REMARK SMILES IDX 24 12 25 13 26 14 12 15 11 16 10 17 9 18 8 19 7 20 6 21 5 22
REMARK SMILES IDX 4 23 3 24 2 25 1 26
REMARK H PARENT
REMARK Flexibility Score: inf
ROOT
ATOM      1  C   UNL     1      17.123  -0.347  21.874  1.00  0.00     0.000 C 
ENDROOT
BRANCH   1   2
ATOM      2  C   UNL     1      15.686   0.073  22.226  1.00  0.00     0.000 C 
BRANCH   2   3
ATOM      3  C   UNL     1      14.642  -0.528  21.273  1.00  0.00     0.000 C 
BRANCH   3   4
ATOM      4  C   UNL     1      15.278  -1.142  20.016  1.00  0.00     0.000 C 
BRANCH   4   5
ATOM      5  C   UNL     1      15.017  -0.266  18.781  1.00  0.00     0.000 C 
BRANCH   5   6
ATOM      6  C   UNL     1      16.265  -0.085  17.896  1.00  0.00     0.000 C 
BRANCH   6   7
ATOM      7  C   UNL     1      17.554  -0.719  18.450  1.00  0.00     0.000 C 
BRANCH   7   8
ATOM      8  C   UNL     1      18.527  -1.161  17.344  1.00  0.00     0.000 C 
BRANCH   8   9
ATOM      9  C   UNL     1      19.820  -1.772  17.908  1.00  0.00     0.000 C 
BRANCH   9  10
ATOM     10  C   UNL     1      20.078  -3.197  17.387  1.00  0.00     0.006 C 
BRANCH  10  11
ATOM     11  C   UNL     1      21.445  -3.737  17.823  1.00  0.00     0.053 C 
BRANCH  11  12
ATOM     12  C   UNL     1      21.786  -5.019  17.127  1.00  0.00     0.041 C 
ATOM     13  O   UNL     1      22.922  -5.176  16.607  1.00  0.00    -0.550 OA
ATOM     14  O   UNL     1      20.858  -6.053  17.079  1.00  0.00    -0.550 OA
ENDBRANCH  11  12
ENDBRANCH  10  11
ENDBRANCH   9  10
ENDBRANCH   8   9
ENDBRANCH   7   8
ENDBRANCH   6   7
ENDBRANCH   5   6
ENDBRANCH   4   5
ENDBRANCH   3   4
ENDBRANCH   2   3
ENDBRANCH   1   2
BRANCH   1  15
ATOM     15  C   UNL     1      18.061   0.854  21.665  1.00  0.00     0.000 C 
BRANCH  15  16
ATOM     16  C   UNL     1      19.456   0.434  21.173  1.00  0.00     0.000 C 
BRANCH  16  17
ATOM     17  C   UNL     1      20.593   1.003  22.040  1.00  0.00     0.000 C 
BRANCH  17  18
ATOM     18  C   UNL     1      21.450  -0.048  22.772  1.00  0.00    -0.000 C 
BRANCH  18  19
ATOM     19  C   UNL     1      20.661  -1.217  23.396  1.00  0.00    -0.000 C 
BRANCH  19  20
ATOM     20  C   UNL     1      21.402  -2.569  23.402  1.00  0.00    -0.000 C 
BRANCH  20  21
ATOM     21  C   UNL     1      20.683  -3.712  22.655  1.00  0.00    -0.000 C 
BRANCH  21  22
ATOM     22  C   UNL     1      19.791  -3.271  21.482  1.00  0.00    -0.000 C 
BRANCH  22  23
ATOM     23  C   UNL     1      18.687  -4.290  21.151  1.00  0.00    -0.000 C 
BRANCH  23  24
ATOM     24  C   UNL     1      17.587  -3.710  20.243  1.00  0.00    -0.000 C 
BRANCH  24  25
ATOM     25  C   UNL     1      17.319  -4.506  18.953  1.00  0.00    -0.003 C 
ATOM     26  C   UNL     1      15.845  -4.512  18.548  1.00  0.00     0.004 C 
ENDBRANCH  24  25
ENDBRANCH  23  24
ENDBRANCH  22  23
ENDBRANCH  21  22
ENDBRANCH  20  21
ENDBRANCH  19  20
ENDBRANCH  18  19
ENDBRANCH  17  18
ENDBRANCH  16  17
ENDBRANCH  15  16
ENDBRANCH   1  15
TORSDOF 22
ENDMDL
MODEL 6
REMARK VINA RESULT:    -4.858      3.386      6.051
REMARK INTER + INTRA:         -15.587
REMARK INTER:                 -12.512
REMARK INTRA:                  -3.076
REMARK UNBOUND:                -4.482
REMARK SMILES CCCCCCCCCCCCCCCCCCCCCCCC(=O)[O-]
REMARK SMILES IDX 13 1 14 2 15 3 16 4 17 5 18 6 19 7 20 8 21 9 22 10 23 11
REMARK SMILES IDX 24 12 25 13 26 14 12 15 11 16 10 17 9 18 8 19 7 20 6 21 5 22
REMARK SMILES IDX 4 23 3 24 2 25 1 26
REMARK H PARENT
REMARK Flexibility Score: inf
ROOT
ATOM      1  C   UNL     1      18.591  -4.990  19.697  1.00  0.00     0.000 C 
ENDROOT
BRANCH   1   2
ATOM      2  C   UNL     1      19.465  -3.987  20.472  1.00  0.00     0.000 C 
BRANCH   2   3
ATOM      3  C   UNL     1      20.758  -3.628  19.725  1.00  0.00     0.000 C 
BRANCH   3   4
ATOM      4  C   UNL     1      21.366  -4.833  18.989  1.00  0.00     0.000 C 
BRANCH   4   5
ATOM      5  C   UNL     1      21.617  -4.507  17.509  1.00  0.00     0.000 C 
BRANCH   5   6
ATOM      6  C   UNL     1      21.811  -5.763  16.639  1.00  0.00     0.000 C 
BRANCH   6   7
ATOM      7  C   UNL     1      20.620  -6.739  16.631  1.00  0.00     0.000 C 
BRANCH   7   8
ATOM      8  C   UNL     1      20.743  -7.825  15.548  1.00  0.00     0.000 C 
BRANCH   8   9
ATOM      9  C   UNL     1      19.379  -8.241  14.974  1.00  0.00     0.000 C 
BRANCH   9  10
ATOM     10  C   UNL     1      19.510  -9.178  13.760  1.00  0.00     0.006 C 
BRANCH  10  11
ATOM     11  C   UNL     1      18.146  -9.660  13.249  1.00  0.00     0.053 C 
BRANCH  11  12
ATOM     12  C   UNL     1      18.279 -10.848  12.345  1.00  0.00     0.041 C 
ATOM     13  O   UNL     1      19.013 -11.816  12.675  1.00  0.00    -0.550 OA
ATOM     14  O   UNL     1      17.566 -10.899  11.154  1.00  0.00    -0.550 OA
ENDBRANCH  11  12
ENDBRANCH  10  11
ENDBRANCH   9  10
ENDBRANCH   8   9
ENDBRANCH   7   8
ENDBRANCH   6   7
ENDBRANCH   5   6
ENDBRANCH   4   5
ENDBRANCH   3   4
ENDBRANCH   2   3
ENDBRANCH   1   2
BRANCH   1  15
ATOM     15  C   UNL     1      17.489  -4.306  18.871  1.00  0.00     0.000 C 
BRANCH  15  16
ATOM     16  C   UNL     1      17.852  -4.196  17.381  1.00  0.00     0.000 C 
BRANCH  16  17
ATOM     17  C   UNL     1      18.367  -2.799  16.991  1.00  0.00     0.000 C 
BRANCH  17  18
ATOM     18  C   UNL     1      17.872  -1.644  17.885  1.00  0.00    -0.000 C 
BRANCH  18  19
ATOM     19  C   UNL     1      18.985  -0.812  18.553  1.00  0.00    -0.000 C 
BRANCH  19  20
ATOM     20  C   UNL     1      18.536   0.001  19.783  1.00  0.00    -0.000 C 
BRANCH  20  21
ATOM     21  C   UNL     1      18.216  -0.836  21.039  1.00  0.00    -0.000 C 
BRANCH  21  22
ATOM     22  C   UNL     1      18.346  -0.087  22.378  1.00  0.00    -0.000 C 
BRANCH  22  23
ATOM     23  C   UNL     1      19.802   0.040  22.855  1.00  0.00    -0.000 C 
BRANCH  23  24
ATOM     24  C   UNL     1      20.225  -1.098  23.803  1.00  0.00    -0.000 C 
BRANCH  24  25
ATOM     25  C   UNL     1      21.177  -2.139  23.187  1.00  0.00    -0.003 C 
ATOM     26  C   UNL     1      22.321  -1.510  22.394  1.00  0.00     0.004 C 
ENDBRANCH  24  25
ENDBRANCH  23  24
ENDBRANCH  22  23
ENDBRANCH  21  22
ENDBRANCH  20  21
ENDBRANCH  19  20
ENDBRANCH  18  19
ENDBRANCH  17  18
ENDBRANCH  16  17
ENDBRANCH  15  16
ENDBRANCH   1  15
TORSDOF 22
ENDMDL
MODEL 7
REMARK VINA RESULT:    -4.763      1.262      1.804
REMARK INTER + INTRA:         -15.372
REMARK INTER:                 -11.103
REMARK INTRA:                  -4.269
REMARK UNBOUND:                -4.482
REMARK SMILES CCCCCCCCCCCCCCCCCCCCCCCC(=O)[O-]
REMARK SMILES IDX 13 1 14 2 15 3 16 4 17 5 18 6 19 7 20 8 21 9 22 10 23 11
REMARK SMILES IDX 24 12 25 13 26 14 12 15 11 16 10 17 9 18 8 19 7 20 6 21 5 22
REMARK SMILES IDX 4 23 3 24 2 25 1 26
REMARK H PARENT
REMARK Flexibility Score: inf
ROOT
ATOM      1  C   UNL     1      16.807   0.607  21.931  1.00  0.00     0.000 C 
ENDROOT
BRANCH   1   2
ATOM      2  C   UNL     1      15.652  -0.391  22.130  1.00  0.00     0.000 C 
BRANCH   2   3
ATOM      3  C   UNL     1      14.761  -0.522  20.885  1.00  0.00     0.000 C 
BRANCH   3   4
ATOM      4  C   UNL     1      15.378  -1.434  19.813  1.00  0.00     0.000 C 
BRANCH   4   5
ATOM      5  C   UNL     1      14.884  -1.049  18.410  1.00  0.00     0.000 C 
BRANCH   5   6
ATOM      6  C   UNL     1      15.642   0.151  17.812  1.00  0.00     0.000 C 
BRANCH   6   7
ATOM      7  C   UNL     1      17.115   0.271  18.242  1.00  0.00     0.000 C 
BRANCH   7   8
ATOM      8  C   UNL     1      18.055  -0.619  17.411  1.00  0.00     0.000 C 
BRANCH   8   9
ATOM      9  C   UNL     1      18.585  -1.822  18.208  1.00  0.00     0.000 C 
BRANCH   9  10
ATOM     10  C   UNL     1      18.580  -3.123  17.388  1.00  0.00     0.006 C 
BRANCH  10  11
ATOM     11  C   UNL     1      17.166  -3.690  17.206  1.00  0.00     0.053 C 
BRANCH  11  12
ATOM     12  C   UNL     1      16.748  -4.530  18.374  1.00  0.00     0.041 C 
ATOM     13  O   UNL     1      17.604  -4.927  19.208  1.00  0.00    -0.550 OA
ATOM     14  O   UNL     1      15.408  -4.846  18.559  1.00  0.00    -0.550 OA
ENDBRANCH  11  12
ENDBRANCH  10  11
ENDBRANCH   9  10
ENDBRANCH   8   9
ENDBRANCH   7   8
ENDBRANCH   6   7
ENDBRANCH   5   6
ENDBRANCH   4   5
ENDBRANCH   3   4
ENDBRANCH   2   3
ENDBRANCH   1   2
BRANCH   1  15
ATOM     15  C   UNL     1      18.175  -0.084  21.807  1.00  0.00     0.000 C 
BRANCH  15  16
ATOM     16  C   UNL     1      19.260   0.853  21.248  1.00  0.00     0.000 C 
BRANCH  16  17
ATOM     17  C   UNL     1      20.426   0.094  20.590  1.00  0.00     0.000 C 
BRANCH  17  18
ATOM     18  C   UNL     1      21.757   0.868  20.519  1.00  0.00    -0.000 C 
BRANCH  18  19
ATOM     19  C   UNL     1      22.869   0.344  21.450  1.00  0.00    -0.000 C 
BRANCH  19  20
ATOM     20  C   UNL     1      22.454   0.178  22.925  1.00  0.00    -0.000 C 
BRANCH  20  21
ATOM     21  C   UNL     1      22.437  -1.276  23.440  1.00  0.00    -0.000 C 
BRANCH  21  22
ATOM     22  C   UNL     1      21.039  -1.892  23.621  1.00  0.00    -0.000 C 
BRANCH  22  23
ATOM     23  C   UNL     1      20.918  -3.298  23.008  1.00  0.00    -0.000 C 
BRANCH  23  24
ATOM     24  C   UNL     1      19.969  -3.344  21.796  1.00  0.00    -0.000 C 
BRANCH  24  25
ATOM     25  C   UNL     1      20.604  -3.858  20.491  1.00  0.00    -0.003 C 
ATOM     26  C   UNL     1      21.866  -3.092  20.096  1.00  0.00     0.004 C 
ENDBRANCH  24  25
ENDBRANCH  23  24
ENDBRANCH  22  23
ENDBRANCH  21  22
ENDBRANCH  20  21
ENDBRANCH  19  20
ENDBRANCH  18  19
ENDBRANCH  17  18
ENDBRANCH  16  17
ENDBRANCH  15  16
ENDBRANCH   1  15
TORSDOF 22
ENDMDL
MODEL 8
REMARK VINA RESULT:    -4.700      1.203      3.081
REMARK INTER + INTRA:         -15.227
REMARK INTER:                 -11.320
REMARK INTRA:                  -3.907
REMARK UNBOUND:                -4.482
REMARK SMILES CCCCCCCCCCCCCCCCCCCCCCCC(=O)[O-]
REMARK SMILES IDX 13 1 14 2 15 3 16 4 17 5 18 6 19 7 20 8 21 9 22 10 23 11
REMARK SMILES IDX 24 12 25 13 26 14 12 15 11 16 10 17 9 18 8 19 7 20 6 21 5 22
REMARK SMILES IDX 4 23 3 24 2 25 1 26
REMARK H PARENT
REMARK Flexibility Score: inf
ROOT
ATOM      1  C   UNL     1      20.671  -3.650  21.854  1.00  0.00     0.000 C 
ENDROOT
BRANCH   1   2
ATOM      2  C   UNL     1      19.375  -2.822  21.919  1.00  0.00     0.000 C 
BRANCH   2   3
ATOM      3  C   UNL     1      18.253  -3.408  21.048  1.00  0.00     0.000 C 
BRANCH   3   4
ATOM      4  C   UNL     1      16.976  -2.554  21.082  1.00  0.00     0.000 C 
BRANCH   4   5
ATOM      5  C   UNL     1      17.303  -1.081  21.372  1.00  0.00     0.000 C 
BRANCH   5   6
ATOM      6  C   UNL     1      16.587  -0.105  20.419  1.00  0.00     0.000 C 
BRANCH   6   7
ATOM      7  C   UNL     1      16.925  -0.286  18.928  1.00  0.00     0.000 C 
BRANCH   7   8
ATOM      8  C   UNL     1      15.683  -0.547  18.060  1.00  0.00     0.000 C 
BRANCH   8   9
ATOM      9  C   UNL     1      15.184  -1.998  18.167  1.00  0.00     0.000 C 
BRANCH   9  10
ATOM     10  C   UNL     1      16.156  -3.005  17.529  1.00  0.00     0.006 C 
BRANCH  10  11
ATOM     11  C   UNL     1      16.039  -4.401  18.154  1.00  0.00     0.053 C 
BRANCH  11  12
ATOM     12  C   UNL     1      15.300  -5.351  17.261  1.00  0.00     0.041 C 
ATOM     13  O   UNL     1      14.135  -5.724  17.560  1.00  0.00    -0.550 OA
ATOM     14  O   UNL     1      15.886  -5.798  16.084  1.00  0.00    -0.550 OA
ENDBRANCH  11  12
ENDBRANCH  10  11
ENDBRANCH   9  10
ENDBRANCH   8   9
ENDBRANCH   7   8
ENDBRANCH   6   7
ENDBRANCH   5   6
ENDBRANCH   4   5
ENDBRANCH   3   4
ENDBRANCH   2   3
ENDBRANCH   1   2
BRANCH   1  15
ATOM     15  C   UNL     1      21.773  -3.103  22.776  1.00  0.00     0.000 C 
BRANCH  15  16
ATOM     16  C   UNL     1      21.392  -1.758  23.418  1.00  0.00     0.000 C 
BRANCH  16  17
ATOM     17  C   UNL     1      22.346  -0.616  23.026  1.00  0.00     0.000 C 
BRANCH  17  18
ATOM     18  C   UNL     1      22.675  -0.521  21.523  1.00  0.00    -0.000 C 
BRANCH  18  19
ATOM     19  C   UNL     1      21.794   0.458  20.721  1.00  0.00    -0.000 C 
BRANCH  19  20
ATOM     20  C   UNL     1      20.561  -0.181  20.051  1.00  0.00    -0.000 C 
BRANCH  20  21
ATOM     21  C   UNL     1      20.876  -1.173  18.912  1.00  0.00    -0.000 C 
BRANCH  21  22
ATOM     22  C   UNL     1      19.661  -1.928  18.344  1.00  0.00    -0.000 C 
BRANCH  22  23
ATOM     23  C   UNL     1      20.057  -3.080  17.404  1.00  0.00    -0.000 C 
BRANCH  23  24
ATOM     24  C   UNL     1      19.786  -4.469  18.010  1.00  0.00    -0.000 C 
BRANCH  24  25
ATOM     25  C   UNL     1      20.962  -5.458  17.927  1.00  0.00    -0.003 C 
ATOM     26  C   UNL     1      22.136  -4.925  17.106  1.00  0.00     0.004 C 
ENDBRANCH  24  25
ENDBRANCH  23  24
ENDBRANCH  22  23
ENDBRANCH  21  22
ENDBRANCH  20  21
ENDBRANCH  19  20
ENDBRANCH  18  19
ENDBRANCH  17  18
ENDBRANCH  16  17
ENDBRANCH  15  16
ENDBRANCH   1  15
TORSDOF 22
ENDMDL
MODEL 9
REMARK VINA RESULT:    -4.685      1.187      3.908
REMARK INTER + INTRA:         -15.193
REMARK INTER:                 -11.616
REMARK INTRA:                  -3.577
REMARK UNBOUND:                -4.482
REMARK SMILES CCCCCCCCCCCCCCCCCCCCCCCC(=O)[O-]
REMARK SMILES IDX 13 1 14 2 15 3 16 4 17 5 18 6 19 7 20 8 21 9 22 10 23 11
REMARK SMILES IDX 24 12 25 13 26 14 12 15 11 16 10 17 9 18 8 19 7 20 6 21 5 22
REMARK SMILES IDX 4 23 3 24 2 25 1 26
REMARK H PARENT
REMARK Flexibility Score: inf
ROOT
ATOM      1  C   UNL     1      20.279  -2.639  20.021  1.00  0.00     0.000 C 
ENDROOT
BRANCH   1   2
ATOM      2  C   UNL     1      20.272  -1.845  18.702  1.00  0.00     0.000 C 
BRANCH   2   3
ATOM      3  C   UNL     1      18.968  -2.023  17.911  1.00  0.00     0.000 C 
BRANCH   3   4
ATOM      4  C   UNL     1      18.481  -0.710  17.277  1.00  0.00     0.000 C 
BRANCH   4   5
ATOM      5  C   UNL     1      17.535   0.044  18.224  1.00  0.00     0.000 C 
BRANCH   5   6
ATOM      6  C   UNL     1      16.061  -0.020  17.780  1.00  0.00     0.000 C 
BRANCH   6   7
ATOM      7  C   UNL     1      15.213  -1.089  18.492  1.00  0.00     0.000 C 
BRANCH   7   8
ATOM      8  C   UNL     1      15.426  -2.501  17.919  1.00  0.00     0.000 C 
BRANCH   8   9
ATOM      9  C   UNL     1      15.809  -3.524  19.001  1.00  0.00     0.000 C 
BRANCH   9  10
ATOM     10  C   UNL     1      16.623  -4.702  18.440  1.00  0.00     0.006 C 
BRANCH  10  11
ATOM     11  C   UNL     1      16.555  -4.779  16.909  1.00  0.00     0.053 C 
BRANCH  11  12
ATOM     12  C   UNL     1      15.597  -5.833  16.446  1.00  0.00     0.041 C 
ATOM     13  O   UNL     1      14.463  -5.939  16.983  1.00  0.00    -0.550 OA
ATOM     14  O   UNL     1      15.945  -6.678  15.400  1.00  0.00    -0.550 OA
ENDBRANCH  11  12
ENDBRANCH  10  11
ENDBRANCH   9  10
ENDBRANCH   8   9
ENDBRANCH   7   8
ENDBRANCH   6   7
ENDBRANCH   5   6
ENDBRANCH   4   5
ENDBRANCH   3   4
ENDBRANCH   2   3
ENDBRANCH   1   2
BRANCH   1  15
ATOM     15  C   UNL     1      21.675  -3.168  20.390  1.00  0.00     0.000 C 
BRANCH  15  16
ATOM     16  C   UNL     1      21.839  -3.393  21.902  1.00  0.00     0.000 C 
BRANCH  16  17
ATOM     17  C   UNL     1      20.727  -2.727  22.732  1.00  0.00     0.000 C 
BRANCH  17  18
ATOM     18  C   UNL     1      21.189  -1.569  23.639  1.00  0.00    -0.000 C 
BRANCH  18  19
ATOM     19  C   UNL     1      22.368  -0.739  23.092  1.00  0.00    -0.000 C 
BRANCH  19  20
ATOM     20  C   UNL     1      21.998   0.685  22.630  1.00  0.00    -0.000 C 
BRANCH  20  21
ATOM     21  C   UNL     1      20.496   1.029  22.711  1.00  0.00    -0.000 C 
BRANCH  21  22
ATOM     22  C   UNL     1      19.685   0.735  21.436  1.00  0.00    -0.000 C 
BRANCH  22  23
ATOM     23  C   UNL     1      18.166   0.750  21.674  1.00  0.00    -0.000 C 
BRANCH  23  24
ATOM     24  C   UNL     1      17.540  -0.657  21.645  1.00  0.00    -0.000 C 
BRANCH  24  25
ATOM     25  C   UNL     1      16.004  -0.689  21.746  1.00  0.00    -0.003 C 
ATOM     26  C   UNL     1      15.433   0.465  22.570  1.00  0.00     0.004 C 
ENDBRANCH  24  25
ENDBRANCH  23  24
ENDBRANCH  22  23
ENDBRANCH  21  22
ENDBRANCH  20  21
ENDBRANCH  19  20
ENDBRANCH  18  19
ENDBRANCH  17  18
ENDBRANCH  16  17
ENDBRANCH  15  16
ENDBRANCH   1  15
TORSDOF 22
ENDMDL
