MODEL 1
REMARK VINA RESULT:    -7.065      0.000      0.000
REMARK INTER + INTRA:          -8.713
REMARK INTER:                  -8.511
REMARK INTRA:                  -0.202
REMARK UNBOUND:                -0.202
REMARK SMILES O=c1c(O)c(-c2ccc(O)c(O)c2)oc2cc(O)cc(O)c12
REMARK SMILES IDX 5 1 3 2 2 3 1 4 22 5 20 6 19 7 17 8 16 9 15 10 14 11 6 12
REMARK SMILES IDX 7 13 8 14 9 15 13 16 11 17 10 18 12 20 4 22 21 24 18 26
REMARK H PARENT 10 19 12 21 4 23 21 25 18 27
REMARK Flexibility Score: inf
ROOT
ATOM      1  C   UNL     1     166.872 172.338 192.192  1.00  0.00     0.180 A 
ATOM      2  C   UNL     1     168.176 172.550 191.712  1.00  0.00     0.208 A 
ATOM      3  C   UNL     1     168.689 171.687 190.731  1.00  0.00     0.238 A 
ATOM      4  O   UNL     1     169.827 171.928 190.252  1.00  0.00    -0.285 OA
ATOM      5  C   UNL     1     167.915 170.590 190.281  1.00  0.00     0.111 A 
ATOM      6  C   UNL     1     168.352 169.625 189.323  1.00  0.00     0.134 A 
ATOM      7  C   UNL     1     167.459 168.643 188.876  1.00  0.00     0.093 A 
ATOM      8  C   UNL     1     166.169 168.550 189.397  1.00  0.00     0.123 A 
ATOM      9  C   UNL     1     165.751 169.453 190.374  1.00  0.00     0.094 A 
ATOM     10  C   UNL     1     166.604 170.468 190.813  1.00  0.00     0.146 A 
ATOM     11  O   UNL     1     166.158 171.320 191.728  1.00  0.00    -0.452 OA
ENDROOT
BRANCH   1  12
ATOM     12  C   UNL     1     166.256 173.212 193.216  1.00  0.00     0.025 A 
ATOM     13  C   UNL     1     165.165 174.044 192.908  1.00  0.00     0.016 A 
ATOM     14  C   UNL     1     164.584 174.842 193.898  1.00  0.00     0.051 A 
ATOM     15  C   UNL     1     165.075 174.811 195.208  1.00  0.00     0.157 A 
ATOM     16  C   UNL     1     166.731 173.170 194.537  1.00  0.00     0.062 A 
ATOM     17  C   UNL     1     166.148 173.971 195.530  1.00  0.00     0.158 A 
BRANCH  15  18
ATOM     18  O   UNL     1     164.500 175.608 196.197  1.00  0.00    -0.504 OA
ATOM     19  H   UNL     1     163.687 176.182 196.009  1.00  0.00     0.293 HD
ENDBRANCH  15  18
BRANCH  17  20
ATOM     20  O   UNL     1     166.631 173.937 196.837  1.00  0.00    -0.504 OA
ATOM     21  H   UNL     1     166.274 174.560 197.551  1.00  0.00     0.293 HD
ENDBRANCH  17  20
ENDBRANCH   1  12
BRANCH   2  22
ATOM     22  O   UNL     1     168.953 173.592 192.224  1.00  0.00    -0.502 OA
ATOM     23  H   UNL     1     168.564 174.329 192.801  1.00  0.00     0.293 HD
ENDBRANCH   2  22
BRANCH   6  24
ATOM     24  O   UNL     1     169.648 169.571 188.801  1.00  0.00    -0.507 OA
ATOM     25  H   UNL     1     170.368 168.935 189.108  1.00  0.00     0.293 HD
ENDBRANCH   6  24
BRANCH   8  26
ATOM     26  O   UNL     1     165.314 167.549 188.941  1.00  0.00    -0.508 OA
ATOM     27  H   UNL     1     164.579 167.743 188.273  1.00  0.00     0.293 HD
ENDBRANCH   8  26
TORSDOF 6
ENDMDL
MODEL 2
REMARK VINA RESULT:    -6.492      1.583      7.163
REMARK INTER + INTRA:          -8.022
REMARK INTER:                  -7.858
REMARK INTRA:                  -0.164
REMARK UNBOUND:                -0.202
REMARK SMILES O=c1c(O)c(-c2ccc(O)c(O)c2)oc2cc(O)cc(O)c12
REMARK SMILES IDX 5 1 3 2 2 3 1 4 22 5 20 6 19 7 17 8 16 9 15 10 14 11 6 12
REMARK SMILES IDX 7 13 8 14 9 15 13 16 11 17 10 18 12 20 4 22 21 24 18 26
REMARK H PARENT 10 19 12 21 4 23 21 25 18 27
REMARK Flexibility Score: inf
ROOT
ATOM      1  C   UNL     1     165.937 171.824 191.270  1.00  0.00     0.180 A 
ATOM      2  C   UNL     1     165.051 172.778 190.741  1.00  0.00     0.208 A 
ATOM      3  C   UNL     1     164.619 173.835 191.559  1.00  0.00     0.238 A 
ATOM      4  O   UNL     1     163.886 174.725 191.055  1.00  0.00    -0.285 OA
ATOM      5  C   UNL     1     165.035 173.896 192.911  1.00  0.00     0.111 A 
ATOM      6  C   UNL     1     164.624 174.898 193.843  1.00  0.00     0.134 A 
ATOM      7  C   UNL     1     165.184 174.917 195.126  1.00  0.00     0.093 A 
ATOM      8  C   UNL     1     166.089 173.937 195.533  1.00  0.00     0.123 A 
ATOM      9  C   UNL     1     166.454 172.922 194.649  1.00  0.00     0.094 A 
ATOM     10  C   UNL     1     165.944 172.897 193.350  1.00  0.00     0.146 A 
ATOM     11  O   UNL     1     166.335 171.926 192.533  1.00  0.00    -0.452 OA
ENDROOT
BRANCH   1  12
ATOM     12  C   UNL     1     166.446 170.690 190.468  1.00  0.00     0.025 A 
ATOM     13  C   UNL     1     167.815 170.558 190.173  1.00  0.00     0.016 A 
ATOM     14  C   UNL     1     168.276 169.464 189.434  1.00  0.00     0.051 A 
ATOM     15  C   UNL     1     167.381 168.482 188.994  1.00  0.00     0.157 A 
ATOM     16  C   UNL     1     165.557 169.690 190.041  1.00  0.00     0.062 A 
ATOM     17  C   UNL     1     166.019 168.593 189.300  1.00  0.00     0.158 A 
BRANCH  15  18
ATOM     18  O   UNL     1     167.837 167.391 188.255  1.00  0.00    -0.504 OA
ATOM     19  H   UNL     1     168.066 167.476 187.271  1.00  0.00     0.293 HD
ENDBRANCH  15  18
BRANCH  17  20
ATOM     20  O   UNL     1     165.130 167.611 188.865  1.00  0.00    -0.504 OA
ATOM     21  H   UNL     1     164.942 167.464 187.881  1.00  0.00     0.293 HD
ENDBRANCH  17  20
ENDBRANCH   1  12
BRANCH   2  22
ATOM     22  O   UNL     1     164.591 172.658 189.427  1.00  0.00    -0.502 OA
ATOM     23  H   UNL     1     164.862 173.303 188.695  1.00  0.00     0.293 HD
ENDBRANCH   2  22
BRANCH   6  24
ATOM     24  O   UNL     1     163.660 175.872 193.571  1.00  0.00    -0.507 OA
ATOM     25  H   UNL     1     162.883 176.101 194.171  1.00  0.00     0.293 HD
ENDBRANCH   6  24
BRANCH   8  26
ATOM     26  O   UNL     1     166.612 173.978 196.824  1.00  0.00    -0.508 OA
ATOM     27  H   UNL     1     166.270 173.364 197.553  1.00  0.00     0.293 HD
ENDBRANCH   8  26
TORSDOF 6
ENDMDL
MODEL 3
REMARK VINA RESULT:    -6.467      1.767      2.577
REMARK INTER + INTRA:          -7.992
REMARK INTER:                  -7.691
REMARK INTRA:                  -0.301
REMARK UNBOUND:                -0.202
REMARK SMILES O=c1c(O)c(-c2ccc(O)c(O)c2)oc2cc(O)cc(O)c12
REMARK SMILES IDX 5 1 3 2 2 3 1 4 22 5 20 6 19 7 17 8 16 9 15 10 14 11 6 12
REMARK SMILES IDX 7 13 8 14 9 15 13 16 11 17 10 18 12 20 4 22 21 24 18 26
REMARK H PARENT 10 19 12 21 4 23 21 25 18 27
REMARK Flexibility Score: inf
ROOT
ATOM      1  C   UNL     1     166.095 173.810 192.733  1.00  0.00     0.180 A 
ATOM      2  C   UNL     1     166.817 174.650 191.869  1.00  0.00     0.208 A 
ATOM      3  C   UNL     1     167.464 174.088 190.756  1.00  0.00     0.238 A 
ATOM      4  O   UNL     1     168.045 174.857 189.946  1.00  0.00    -0.285 OA
ATOM      5  C   UNL     1     167.429 172.688 190.552  1.00  0.00     0.111 A 
ATOM      6  C   UNL     1     168.088 172.006 189.484  1.00  0.00     0.134 A 
ATOM      7  C   UNL     1     167.895 170.628 189.322  1.00  0.00     0.093 A 
ATOM      8  C   UNL     1     167.122 169.898 190.223  1.00  0.00     0.123 A 
ATOM      9  C   UNL     1     166.520 170.545 191.303  1.00  0.00     0.094 A 
ATOM     10  C   UNL     1     166.661 171.924 191.470  1.00  0.00     0.146 A 
ATOM     11  O   UNL     1     166.053 172.504 192.498  1.00  0.00    -0.452 OA
ENDROOT
BRANCH   1  12
ATOM     12  C   UNL     1     165.375 174.328 193.918  1.00  0.00     0.025 A 
ATOM     13  C   UNL     1     166.052 174.621 195.115  1.00  0.00     0.016 A 
ATOM     14  C   UNL     1     165.355 175.133 196.214  1.00  0.00     0.051 A 
ATOM     15  C   UNL     1     163.978 175.372 196.127  1.00  0.00     0.157 A 
ATOM     16  C   UNL     1     163.998 174.589 193.831  1.00  0.00     0.062 A 
ATOM     17  C   UNL     1     163.298 175.103 194.933  1.00  0.00     0.158 A 
BRANCH  15  18
ATOM     18  O   UNL     1     163.279 175.880 197.221  1.00  0.00    -0.504 OA
ATOM     19  H   UNL     1     163.740 176.433 197.934  1.00  0.00     0.293 HD
ENDBRANCH  15  18
BRANCH  17  20
ATOM     20  O   UNL     1     161.928 175.348 194.847  1.00  0.00    -0.504 OA
ATOM     21  H   UNL     1     161.253 174.593 194.860  1.00  0.00     0.293 HD
ENDBRANCH  17  20
ENDBRANCH   1  12
BRANCH   2  22
ATOM     22  O   UNL     1     166.903 176.020 192.130  1.00  0.00    -0.502 OA
ATOM     23  H   UNL     1     166.660 176.722 191.441  1.00  0.00     0.293 HD
ENDBRANCH   2  22
BRANCH   6  24
ATOM     24  O   UNL     1     168.954 172.623 188.577  1.00  0.00    -0.507 OA
ATOM     25  H   UNL     1     169.610 173.353 188.809  1.00  0.00     0.293 HD
ENDBRANCH   6  24
BRANCH   8  26
ATOM     26  O   UNL     1     166.967 168.525 190.041  1.00  0.00    -0.508 OA
ATOM     27  H   UNL     1     167.208 167.864 190.769  1.00  0.00     0.293 HD
ENDBRANCH   8  26
TORSDOF 6
ENDMDL
MODEL 4
REMARK VINA RESULT:    -6.363      5.446      8.832
REMARK INTER + INTRA:          -7.867
REMARK INTER:                  -8.086
REMARK INTRA:                   0.219
REMARK UNBOUND:                -0.202
REMARK SMILES O=c1c(O)c(-c2ccc(O)c(O)c2)oc2cc(O)cc(O)c12
REMARK SMILES IDX 5 1 3 2 2 3 1 4 22 5 20 6 19 7 17 8 16 9 15 10 14 11 6 12
REMARK SMILES IDX 7 13 8 14 9 15 13 16 11 17 10 18 12 20 4 22 21 24 18 26
REMARK H PARENT 10 19 12 21 4 23 21 25 18 27
REMARK Flexibility Score: inf
ROOT
ATOM      1  C   UNL     1     168.616 166.756 185.827  1.00  0.00     0.180 A 
ATOM      2  C   UNL     1     169.765 167.303 185.231  1.00  0.00     0.208 A 
ATOM      3  C   UNL     1     170.241 166.748 184.032  1.00  0.00     0.238 A 
ATOM      4  O   UNL     1     171.225 167.291 183.465  1.00  0.00    -0.285 OA
ATOM      5  C   UNL     1     169.597 165.618 183.473  1.00  0.00     0.111 A 
ATOM      6  C   UNL     1     170.020 164.946 182.286  1.00  0.00     0.134 A 
ATOM      7  C   UNL     1     169.241 163.903 181.769  1.00  0.00     0.093 A 
ATOM      8  C   UNL     1     168.093 163.466 182.427  1.00  0.00     0.123 A 
ATOM      9  C   UNL     1     167.701 164.078 183.617  1.00  0.00     0.094 A 
ATOM     10  C   UNL     1     168.435 165.146 184.138  1.00  0.00     0.146 A 
ATOM     11  O   UNL     1     168.014 165.716 185.262  1.00  0.00    -0.452 OA
ENDROOT
BRANCH   1  12
ATOM     12  C   UNL     1     168.046 167.294 187.082  1.00  0.00     0.025 A 
ATOM     13  C   UNL     1     168.870 167.819 188.094  1.00  0.00     0.016 A 
ATOM     14  C   UNL     1     168.307 168.345 189.261  1.00  0.00     0.051 A 
ATOM     15  C   UNL     1     166.917 168.365 189.427  1.00  0.00     0.157 A 
ATOM     16  C   UNL     1     166.652 167.337 187.246  1.00  0.00     0.062 A 
ATOM     17  C   UNL     1     166.087 167.863 188.416  1.00  0.00     0.158 A 
BRANCH  15  18
ATOM     18  O   UNL     1     166.353 168.886 190.590  1.00  0.00    -0.504 OA
ATOM     19  H   UNL     1     166.335 169.883 190.771  1.00  0.00     0.293 HD
ENDBRANCH  15  18
BRANCH  17  20
ATOM     20  O   UNL     1     164.703 167.891 188.582  1.00  0.00    -0.504 OA
ATOM     21  H   UNL     1     164.074 167.655 187.824  1.00  0.00     0.293 HD
ENDBRANCH  17  20
ENDBRANCH   1  12
BRANCH   2  22
ATOM     22  O   UNL     1     170.432 168.370 185.838  1.00  0.00    -0.502 OA
ATOM     23  H   UNL     1     170.051 168.869 186.634  1.00  0.00     0.293 HD
ENDBRANCH   2  22
BRANCH   6  24
ATOM     24  O   UNL     1     171.198 165.243 181.595  1.00  0.00    -0.507 OA
ATOM     25  H   UNL     1     171.250 165.782 180.745  1.00  0.00     0.293 HD
ENDBRANCH   6  24
BRANCH   8  26
ATOM     26  O   UNL     1     167.353 162.412 181.893  1.00  0.00    -0.508 OA
ATOM     27  H   UNL     1     166.502 162.575 181.368  1.00  0.00     0.293 HD
ENDBRANCH   8  26
TORSDOF 6
ENDMDL
MODEL 5
REMARK VINA RESULT:    -6.279      5.002      8.395
REMARK INTER + INTRA:          -7.766
REMARK INTER:                  -7.435
REMARK INTRA:                  -0.331
REMARK UNBOUND:                -0.202
REMARK SMILES O=c1c(O)c(-c2ccc(O)c(O)c2)oc2cc(O)cc(O)c12
REMARK SMILES IDX 5 1 3 2 2 3 1 4 22 5 20 6 19 7 17 8 16 9 15 10 14 11 6 12
REMARK SMILES IDX 7 13 8 14 9 15 13 16 11 17 10 18 12 20 4 22 21 24 18 26
REMARK H PARENT 10 19 12 21 4 23 21 25 18 27
REMARK Flexibility Score: inf
ROOT
ATOM      1  C   UNL     1     162.157 175.264 192.264  1.00  0.00     0.180 A 
ATOM      2  C   UNL     1     161.335 175.574 193.361  1.00  0.00     0.208 A 
ATOM      3  C   UNL     1     161.914 175.685 194.636  1.00  0.00     0.238 A 
ATOM      4  O   UNL     1     161.184 176.037 195.600  1.00  0.00    -0.285 OA
ATOM      5  C   UNL     1     163.295 175.431 194.809  1.00  0.00     0.111 A 
ATOM      6  C   UNL     1     163.978 175.470 196.063  1.00  0.00     0.134 A 
ATOM      7  C   UNL     1     165.369 175.304 196.096  1.00  0.00     0.093 A 
ATOM      8  C   UNL     1     166.091 175.037 194.934  1.00  0.00     0.123 A 
ATOM      9  C   UNL     1     165.426 174.941 193.712  1.00  0.00     0.094 A 
ATOM     10  C   UNL     1     164.046 175.140 193.639  1.00  0.00     0.146 A 
ATOM     11  O   UNL     1     163.456 175.062 192.452  1.00  0.00    -0.452 OA
ENDROOT
BRANCH   1  12
ATOM     12  C   UNL     1     161.625 175.143 190.889  1.00  0.00     0.025 A 
ATOM     13  C   UNL     1     161.501 176.265 190.050  1.00  0.00     0.016 A 
ATOM     14  C   UNL     1     161.019 176.122 188.746  1.00  0.00     0.051 A 
ATOM     15  C   UNL     1     160.668 174.858 188.258  1.00  0.00     0.157 A 
ATOM     16  C   UNL     1     161.291 173.875 190.386  1.00  0.00     0.062 A 
ATOM     17  C   UNL     1     160.807 173.731 189.077  1.00  0.00     0.158 A 
BRANCH  15  18
ATOM     18  O   UNL     1     160.184 174.712 186.958  1.00  0.00    -0.504 OA
ATOM     19  H   UNL     1     159.351 175.197 186.645  1.00  0.00     0.293 HD
ENDBRANCH  15  18
BRANCH  17  20
ATOM     20  O   UNL     1     160.463 172.472 188.586  1.00  0.00    -0.504 OA
ATOM     21  H   UNL     1     160.616 171.632 189.130  1.00  0.00     0.293 HD
ENDBRANCH  17  20
ENDBRANCH   1  12
BRANCH   2  22
ATOM     22  O   UNL     1     159.960 175.747 193.183  1.00  0.00    -0.502 OA
ATOM     23  H   UNL     1     159.387 175.074 192.688  1.00  0.00     0.293 HD
ENDBRANCH   2  22
BRANCH   6  24
ATOM     24  O   UNL     1     163.343 175.642 197.296  1.00  0.00    -0.507 OA
ATOM     25  H   UNL     1     163.812 175.675 198.188  1.00  0.00     0.293 HD
ENDBRANCH   6  24
BRANCH   8  26
ATOM     26  O   UNL     1     167.472 174.860 195.008  1.00  0.00    -0.508 OA
ATOM     27  H   UNL     1     168.115 175.592 194.735  1.00  0.00     0.293 HD
ENDBRANCH   8  26
TORSDOF 6
ENDMDL
MODEL 6
REMARK VINA RESULT:    -6.236      4.832      7.540
REMARK INTER + INTRA:          -7.714
REMARK INTER:                  -7.397
REMARK INTRA:                  -0.317
REMARK UNBOUND:                -0.202
REMARK SMILES O=c1c(O)c(-c2ccc(O)c(O)c2)oc2cc(O)cc(O)c12
REMARK SMILES IDX 5 1 3 2 2 3 1 4 22 5 20 6 19 7 17 8 16 9 15 10 14 11 6 12
REMARK SMILES IDX 7 13 8 14 9 15 13 16 11 17 10 18 12 20 4 22 21 24 18 26
REMARK H PARENT 10 19 12 21 4 23 21 25 18 27
REMARK Flexibility Score: inf
ROOT
ATOM      1  C   UNL     1     164.705 177.192 191.322  1.00  0.00     0.180 A 
ATOM      2  C   UNL     1     165.844 176.473 190.921  1.00  0.00     0.208 A 
ATOM      3  C   UNL     1     166.436 175.576 191.826  1.00  0.00     0.238 A 
ATOM      4  O   UNL     1     167.410 174.881 191.434  1.00  0.00    -0.285 OA
ATOM      5  C   UNL     1     165.916 175.449 193.136  1.00  0.00     0.111 A 
ATOM      6  C   UNL     1     166.464 174.605 194.149  1.00  0.00     0.134 A 
ATOM      7  C   UNL     1     165.801 174.481 195.377  1.00  0.00     0.093 A 
ATOM      8  C   UNL     1     164.650 175.218 195.652  1.00  0.00     0.123 A 
ATOM      9  C   UNL     1     164.138 176.088 194.690  1.00  0.00     0.094 A 
ATOM     10  C   UNL     1     164.754 176.205 193.442  1.00  0.00     0.146 A 
ATOM     11  O   UNL     1     164.221 177.028 192.547  1.00  0.00    -0.452 OA
ENDROOT
BRANCH   1  12
ATOM     12  C   UNL     1     164.017 178.145 190.422  1.00  0.00     0.025 A 
ATOM     13  C   UNL     1     164.341 179.514 190.421  1.00  0.00     0.016 A 
ATOM     14  C   UNL     1     163.695 180.391 189.544  1.00  0.00     0.051 A 
ATOM     15  C   UNL     1     162.730 179.912 188.650  1.00  0.00     0.157 A 
ATOM     16  C   UNL     1     163.064 177.668 189.507  1.00  0.00     0.062 A 
ATOM     17  C   UNL     1     162.416 178.548 188.628  1.00  0.00     0.158 A 
BRANCH  15  18
ATOM     18  O   UNL     1     162.083 180.785 187.776  1.00  0.00    -0.504 OA
ATOM     19  H   UNL     1     161.905 180.534 186.811  1.00  0.00     0.293 HD
ENDBRANCH  15  18
BRANCH  17  20
ATOM     20  O   UNL     1     161.460 178.073 187.732  1.00  0.00    -0.504 OA
ATOM     21  H   UNL     1     161.125 178.641 186.964  1.00  0.00     0.293 HD
ENDBRANCH  17  20
ENDBRANCH   1  12
BRANCH   2  22
ATOM     22  O   UNL     1     166.388 176.668 189.650  1.00  0.00    -0.502 OA
ATOM     23  H   UNL     1     167.222 176.188 189.334  1.00  0.00     0.293 HD
ENDBRANCH   2  22
BRANCH   6  24
ATOM     24  O   UNL     1     167.658 173.891 194.013  1.00  0.00    -0.507 OA
ATOM     25  H   UNL     1     168.113 173.379 194.753  1.00  0.00     0.293 HD
ENDBRANCH   6  24
BRANCH   8  26
ATOM     26  O   UNL     1     164.028 175.083 196.892  1.00  0.00    -0.508 OA
ATOM     27  H   UNL     1     164.101 174.229 197.431  1.00  0.00     0.293 HD
ENDBRANCH   8  26
TORSDOF 6
ENDMDL
MODEL 7
REMARK VINA RESULT:    -6.195      1.916      6.956
REMARK INTER + INTRA:          -7.665
REMARK INTER:                  -7.452
REMARK INTRA:                  -0.213
REMARK UNBOUND:                -0.202
REMARK SMILES O=c1c(O)c(-c2ccc(O)c(O)c2)oc2cc(O)cc(O)c12
REMARK SMILES IDX 5 1 3 2 2 3 1 4 22 5 20 6 19 7 17 8 16 9 15 10 14 11 6 12
REMARK SMILES IDX 7 13 8 14 9 15 13 16 11 17 10 18 12 20 4 22 21 24 18 26
REMARK H PARENT 10 19 12 21 4 23 21 25 18 27
REMARK Flexibility Score: inf
ROOT
ATOM      1  C   UNL     1     166.296 173.371 192.969  1.00  0.00     0.180 A 
ATOM      2  C   UNL     1     166.566 173.631 194.324  1.00  0.00     0.208 A 
ATOM      3  C   UNL     1     165.587 174.268 195.103  1.00  0.00     0.238 A 
ATOM      4  O   UNL     1     165.807 174.429 196.332  1.00  0.00    -0.285 OA
ATOM      5  C   UNL     1     164.374 174.688 194.507  1.00  0.00     0.111 A 
ATOM      6  C   UNL     1     163.330 175.383 195.191  1.00  0.00     0.134 A 
ATOM      7  C   UNL     1     162.129 175.654 194.523  1.00  0.00     0.093 A 
ATOM      8  C   UNL     1     161.957 175.315 193.183  1.00  0.00     0.123 A 
ATOM      9  C   UNL     1     162.991 174.686 192.489  1.00  0.00     0.094 A 
ATOM     10  C   UNL     1     164.186 174.367 193.137  1.00  0.00     0.146 A 
ATOM     11  O   UNL     1     165.136 173.747 192.446  1.00  0.00    -0.452 OA
ENDROOT
BRANCH   1  12
ATOM     12  C   UNL     1     167.271 172.691 192.087  1.00  0.00     0.025 A 
ATOM     13  C   UNL     1     168.471 173.317 191.703  1.00  0.00     0.016 A 
ATOM     14  C   UNL     1     169.388 172.646 190.889  1.00  0.00     0.051 A 
ATOM     15  C   UNL     1     169.127 171.339 190.460  1.00  0.00     0.157 A 
ATOM     16  C   UNL     1     167.026 171.373 191.670  1.00  0.00     0.062 A 
ATOM     17  C   UNL     1     167.945 170.700 190.854  1.00  0.00     0.158 A 
BRANCH  15  18
ATOM     18  O   UNL     1     170.039 170.668 189.646  1.00  0.00    -0.504 OA
ATOM     19  H   UNL     1     169.779 169.832 189.137  1.00  0.00     0.293 HD
ENDBRANCH  15  18
BRANCH  17  20
ATOM     20  O   UNL     1     167.691 169.396 190.430  1.00  0.00    -0.504 OA
ATOM     21  H   UNL     1     168.036 169.050 189.543  1.00  0.00     0.293 HD
ENDBRANCH  17  20
ENDBRANCH   1  12
BRANCH   2  22
ATOM     22  O   UNL     1     167.800 173.277 194.875  1.00  0.00    -0.502 OA
ATOM     23  H   UNL     1     168.471 172.699 194.383  1.00  0.00     0.293 HD
ENDBRANCH   2  22
BRANCH   6  24
ATOM     24  O   UNL     1     163.429 175.848 196.506  1.00  0.00    -0.507 OA
ATOM     25  H   UNL     1     162.757 175.667 197.235  1.00  0.00     0.293 HD
ENDBRANCH   6  24
BRANCH   8  26
ATOM     26  O   UNL     1     160.755 175.617 192.546  1.00  0.00    -0.508 OA
ATOM     27  H   UNL     1     160.734 176.075 191.643  1.00  0.00     0.293 HD
ENDBRANCH   8  26
TORSDOF 6
ENDMDL
MODEL 8
REMARK VINA RESULT:    -6.133      4.765      7.179
REMARK INTER + INTRA:          -7.590
REMARK INTER:                  -7.274
REMARK INTRA:                  -0.317
REMARK UNBOUND:                -0.202
REMARK SMILES O=c1c(O)c(-c2ccc(O)c(O)c2)oc2cc(O)cc(O)c12
REMARK SMILES IDX 5 1 3 2 2 3 1 4 22 5 20 6 19 7 17 8 16 9 15 10 14 11 6 12
REMARK SMILES IDX 7 13 8 14 9 15 13 16 11 17 10 18 12 20 4 22 21 24 18 26
REMARK H PARENT 10 19 12 21 4 23 21 25 18 27
REMARK Flexibility Score: inf
ROOT
ATOM      1  C   UNL     1     163.549 175.715 191.940  1.00  0.00     0.180 A 
ATOM      2  C   UNL     1     163.201 174.672 191.065  1.00  0.00     0.208 A 
ATOM      3  C   UNL     1     162.636 174.988 189.818  1.00  0.00     0.238 A 
ATOM      4  O   UNL     1     162.397 174.053 189.011  1.00  0.00    -0.285 OA
ATOM      5  C   UNL     1     162.375 176.339 189.484  1.00  0.00     0.111 A 
ATOM      6  C   UNL     1     161.764 176.772 188.268  1.00  0.00     0.134 A 
ATOM      7  C   UNL     1     161.652 178.142 188.002  1.00  0.00     0.093 A 
ATOM      8  C   UNL     1     162.069 179.094 188.931  1.00  0.00     0.123 A 
ATOM      9  C   UNL     1     162.615 178.681 190.147  1.00  0.00     0.094 A 
ATOM     10  C   UNL     1     162.776 177.323 190.426  1.00  0.00     0.146 A 
ATOM     11  O   UNL     1     163.321 176.974 191.586  1.00  0.00    -0.452 OA
ENDROOT
BRANCH   1  12
ATOM     12  C   UNL     1     164.160 175.463 193.264  1.00  0.00     0.025 A 
ATOM     13  C   UNL     1     163.372 175.341 194.423  1.00  0.00     0.016 A 
ATOM     14  C   UNL     1     163.970 175.078 195.659  1.00  0.00     0.051 A 
ATOM     15  C   UNL     1     165.358 174.919 195.752  1.00  0.00     0.157 A 
ATOM     16  C   UNL     1     165.549 175.282 193.361  1.00  0.00     0.062 A 
ATOM     17  C   UNL     1     166.149 175.018 194.601  1.00  0.00     0.158 A 
BRANCH  15  18
ATOM     18  O   UNL     1     165.957 174.660 196.984  1.00  0.00    -0.504 OA
ATOM     19  H   UNL     1     165.406 174.463 197.811  1.00  0.00     0.293 HD
ENDBRANCH  15  18
BRANCH  17  20
ATOM     20  O   UNL     1     167.530 174.853 194.696  1.00  0.00    -0.504 OA
ATOM     21  H   UNL     1     168.120 174.841 193.873  1.00  0.00     0.293 HD
ENDBRANCH  17  20
ENDBRANCH   1  12
BRANCH   2  22
ATOM     22  O   UNL     1     163.396 173.341 191.444  1.00  0.00    -0.502 OA
ATOM     23  H   UNL     1     163.075 172.976 192.332  1.00  0.00     0.293 HD
ENDBRANCH   2  22
BRANCH   6  24
ATOM     24  O   UNL     1     161.233 175.906 187.307  1.00  0.00    -0.507 OA
ATOM     25  H   UNL     1     160.942 176.180 186.381  1.00  0.00     0.293 HD
ENDBRANCH   6  24
BRANCH   8  26
ATOM     26  O   UNL     1     161.925 180.449 188.640  1.00  0.00    -0.508 OA
ATOM     27  H   UNL     1     161.012 180.872 188.525  1.00  0.00     0.293 HD
ENDBRANCH   8  26
TORSDOF 6
ENDMDL
MODEL 9
REMARK VINA RESULT:    -6.049      1.751      3.596
REMARK INTER + INTRA:          -7.490
REMARK INTER:                  -7.182
REMARK INTRA:                  -0.308
REMARK UNBOUND:                -0.202
REMARK SMILES O=c1c(O)c(-c2ccc(O)c(O)c2)oc2cc(O)cc(O)c12
REMARK SMILES IDX 5 1 3 2 2 3 1 4 22 5 20 6 19 7 17 8 16 9 15 10 14 11 6 12
REMARK SMILES IDX 7 13 8 14 9 15 13 16 11 17 10 18 12 20 4 22 21 24 18 26
REMARK H PARENT 10 19 12 21 4 23 21 25 18 27
REMARK Flexibility Score: inf
ROOT
ATOM      1  C   UNL     1     167.729 172.834 191.994  1.00  0.00     0.180 A 
ATOM      2  C   UNL     1     167.377 171.594 191.435  1.00  0.00     0.208 A 
ATOM      3  C   UNL     1     168.192 171.042 190.434  1.00  0.00     0.238 A 
ATOM      4  O   UNL     1     167.912 169.897 189.992  1.00  0.00    -0.285 OA
ATOM      5  C   UNL     1     169.318 171.761 189.964  1.00  0.00     0.111 A 
ATOM      6  C   UNL     1     170.188 171.319 188.922  1.00  0.00     0.134 A 
ATOM      7  C   UNL     1     171.332 172.066 188.614  1.00  0.00     0.093 A 
ATOM      8  C   UNL     1     171.603 173.269 189.264  1.00  0.00     0.123 A 
ATOM      9  C   UNL     1     170.730 173.739 190.244  1.00  0.00     0.094 A 
ATOM     10  C   UNL     1     169.602 172.998 190.601  1.00  0.00     0.146 A 
ATOM     11  O   UNL     1     168.809 173.471 191.556  1.00  0.00    -0.452 OA
ENDROOT
BRANCH   1  12
ATOM     12  C   UNL     1     166.928 173.474 193.062  1.00  0.00     0.025 A 
ATOM     13  C   UNL     1     165.777 174.224 192.764  1.00  0.00     0.016 A 
ATOM     14  C   UNL     1     165.022 174.798 193.791  1.00  0.00     0.051 A 
ATOM     15  C   UNL     1     165.399 174.620 195.128  1.00  0.00     0.157 A 
ATOM     16  C   UNL     1     167.288 173.281 194.406  1.00  0.00     0.062 A 
ATOM     17  C   UNL     1     166.532 173.857 195.437  1.00  0.00     0.158 A 
BRANCH  15  18
ATOM     18  O   UNL     1     164.650 175.193 196.155  1.00  0.00    -0.504 OA
ATOM     19  H   UNL     1     164.075 174.629 196.770  1.00  0.00     0.293 HD
ENDBRANCH  15  18
BRANCH  17  20
ATOM     20  O   UNL     1     166.901 173.676 196.769  1.00  0.00    -0.504 OA
ATOM     21  H   UNL     1     166.282 173.228 197.434  1.00  0.00     0.293 HD
ENDBRANCH  17  20
ENDBRANCH   1  12
BRANCH   2  22
ATOM     22  O   UNL     1     166.220 170.935 191.858  1.00  0.00    -0.502 OA
ATOM     23  H   UNL     1     165.362 171.427 192.076  1.00  0.00     0.293 HD
ENDBRANCH   2  22
BRANCH   6  24
ATOM     24  O   UNL     1     169.965 170.177 188.147  1.00  0.00    -0.507 OA
ATOM     25  H   UNL     1     169.611 169.300 188.499  1.00  0.00     0.293 HD
ENDBRANCH   6  24
BRANCH   8  26
ATOM     26  O   UNL     1     172.741 173.996 188.918  1.00  0.00    -0.508 OA
ATOM     27  H   UNL     1     173.605 173.535 188.658  1.00  0.00     0.293 HD
ENDBRANCH   8  26
TORSDOF 6
ENDMDL
