MODEL 1
REMARK VINA RESULT:    -2.885      0.000      0.000
REMARK INTER + INTRA:          -3.655
REMARK INTER:                  -3.391
REMARK INTRA:                  -0.264
REMARK UNBOUND:                -0.264
REMARK SMILES O=c1cc(-c2ccc(O)c(O)c2)oc2cc(O)cc(O)c12
REMARK SMILES IDX 4 1 3 2 2 3 1 4 21 5 19 6 18 7 16 8 15 9 14 10 13 11 5 12
REMARK SMILES IDX 6 13 7 14 8 15 12 16 10 17 9 18 11 20 20 22 17 24
REMARK H PARENT 9 19 11 21 20 23 17 25
REMARK Flexibility Score: inf
ROOT
ATOM      1  C   UNL     1      13.503 -12.814  29.392  1.00  0.00     0.138 A 
ATOM      2  C   UNL     1      13.808 -13.234  28.090  1.00  0.00     0.100 A 
ATOM      3  C   UNL     1      14.544 -14.403  27.897  1.00  0.00     0.197 A 
ATOM      4  O   UNL     1      14.857 -14.720  26.720  1.00  0.00    -0.289 OA
ATOM      5  C   UNL     1      14.949 -15.172  29.014  1.00  0.00     0.107 A 
ATOM      6  C   UNL     1      15.669 -16.401  28.936  1.00  0.00     0.134 A 
ATOM      7  C   UNL     1      16.117 -17.015  30.113  1.00  0.00     0.093 A 
ATOM      8  C   UNL     1      15.821 -16.476  31.364  1.00  0.00     0.123 A 
ATOM      9  C   UNL     1      15.072 -15.301  31.454  1.00  0.00     0.094 A 
ATOM     10  C   UNL     1      14.640 -14.648  30.297  1.00  0.00     0.146 A 
ATOM     11  O   UNL     1      13.942 -13.525  30.425  1.00  0.00    -0.456 OA
ENDROOT
BRANCH   1  12
ATOM     12  C   UNL     1      12.721 -11.579  29.654  1.00  0.00     0.021 A 
ATOM     13  C   UNL     1      13.331 -10.404  30.127  1.00  0.00     0.016 A 
ATOM     14  C   UNL     1      12.573  -9.254  30.355  1.00  0.00     0.051 A 
ATOM     15  C   UNL     1      11.195  -9.246  30.112  1.00  0.00     0.157 A 
ATOM     16  C   UNL     1      11.339 -11.566  29.397  1.00  0.00     0.062 A 
ATOM     17  C   UNL     1      10.570 -10.417  29.624  1.00  0.00     0.158 A 
BRANCH  15  18
ATOM     18  O   UNL     1      10.495  -8.065  30.364  1.00  0.00    -0.504 OA
ATOM     19  H   UNL     1       9.624  -8.022  30.873  1.00  0.00     0.293 HD
ENDBRANCH  15  18
BRANCH  17  20
ATOM     20  O   UNL     1       9.202 -10.485  29.354  1.00  0.00    -0.504 OA
ATOM     21  H   UNL     1       8.514  -9.872  29.767  1.00  0.00     0.293 HD
ENDBRANCH  17  20
ENDBRANCH   1  12
BRANCH   6  22
ATOM     22  O   UNL     1      15.945 -17.070  27.740  1.00  0.00    -0.507 OA
ATOM     23  H   UNL     1      16.698 -17.726  27.606  1.00  0.00     0.293 HD
ENDBRANCH   6  22
BRANCH   8  24
ATOM     24  O   UNL     1      16.270 -17.121  32.514  1.00  0.00    -0.508 OA
ATOM     25  H   UNL     1      16.221 -16.678  33.424  1.00  0.00     0.293 HD
ENDBRANCH   8  24
TORSDOF 5
ENDMDL
MODEL 2
REMARK VINA RESULT:    -2.143      4.540      5.991
REMARK INTER + INTRA:          -2.782
REMARK INTER:                  -2.489
REMARK INTRA:                  -0.293
REMARK UNBOUND:                -0.264
REMARK SMILES O=c1cc(-c2ccc(O)c(O)c2)oc2cc(O)cc(O)c12
REMARK SMILES IDX 4 1 3 2 2 3 1 4 21 5 19 6 18 7 16 8 15 9 14 10 13 11 5 12
REMARK SMILES IDX 6 13 7 14 8 15 12 16 10 17 9 18 11 20 20 22 17 24
REMARK H PARENT 9 19 11 21 20 23 17 25
REMARK Flexibility Score: inf
ROOT
ATOM      1  C   UNL     1      14.111  -9.273  27.145  1.00  0.00     0.138 A 
ATOM      2  C   UNL     1      13.104  -8.908  28.049  1.00  0.00     0.100 A 
ATOM      3  C   UNL     1      12.776  -9.766  29.100  1.00  0.00     0.197 A 
ATOM      4  O   UNL     1      11.826  -9.441  29.857  1.00  0.00    -0.289 OA
ATOM      5  C   UNL     1      13.484 -10.980  29.263  1.00  0.00     0.107 A 
ATOM      6  C   UNL     1      13.263 -11.913  30.320  1.00  0.00     0.134 A 
ATOM      7  C   UNL     1      13.945 -13.137  30.314  1.00  0.00     0.093 A 
ATOM      8  C   UNL     1      14.880 -13.436  29.325  1.00  0.00     0.123 A 
ATOM      9  C   UNL     1      15.142 -12.508  28.315  1.00  0.00     0.094 A 
ATOM     10  C   UNL     1      14.454 -11.293  28.275  1.00  0.00     0.146 A 
ATOM     11  O   UNL     1      14.723 -10.444  27.289  1.00  0.00    -0.456 OA
ENDROOT
BRANCH   1  12
ATOM     12  C   UNL     1      14.501  -8.398  26.010  1.00  0.00     0.021 A 
ATOM     13  C   UNL     1      14.730  -7.022  26.183  1.00  0.00     0.016 A 
ATOM     14  C   UNL     1      15.106  -6.225  25.100  1.00  0.00     0.051 A 
ATOM     15  C   UNL     1      15.267  -6.779  23.826  1.00  0.00     0.157 A 
ATOM     16  C   UNL     1      14.677  -8.957  24.733  1.00  0.00     0.062 A 
ATOM     17  C   UNL     1      15.053  -8.165  23.641  1.00  0.00     0.158 A 
BRANCH  15  18
ATOM     18  O   UNL     1      15.641  -5.926  22.786  1.00  0.00    -0.504 OA
ATOM     19  H   UNL     1      15.041  -5.214  22.397  1.00  0.00     0.293 HD
ENDBRANCH  15  18
BRANCH  17  20
ATOM     20  O   UNL     1      15.199  -8.791  22.401  1.00  0.00    -0.504 OA
ATOM     21  H   UNL     1      15.920  -9.467  22.191  1.00  0.00     0.293 HD
ENDBRANCH  17  20
ENDBRANCH   1  12
BRANCH   6  22
ATOM     22  O   UNL     1      12.413 -11.677  31.405  1.00  0.00    -0.507 OA
ATOM     23  H   UNL     1      12.693 -11.256  32.276  1.00  0.00     0.293 HD
ENDBRANCH   6  22
BRANCH   8  24
ATOM     24  O   UNL     1      15.550 -14.657  29.358  1.00  0.00    -0.508 OA
ATOM     25  H   UNL     1      15.320 -15.370  30.041  1.00  0.00     0.293 HD
ENDBRANCH   8  24
TORSDOF 5
ENDMDL
MODEL 3
REMARK VINA RESULT:    -0.885      9.089     13.467
REMARK INTER + INTRA:          -1.303
REMARK INTER:                  -1.040
REMARK INTRA:                  -0.263
REMARK UNBOUND:                -0.264
REMARK SMILES O=c1cc(-c2ccc(O)c(O)c2)oc2cc(O)cc(O)c12
REMARK SMILES IDX 4 1 3 2 2 3 1 4 21 5 19 6 18 7 16 8 15 9 14 10 13 11 5 12
REMARK SMILES IDX 6 13 7 14 8 15 12 16 10 17 9 18 11 20 20 22 17 24
REMARK H PARENT 9 19 11 21 20 23 17 25
REMARK Flexibility Score: inf
ROOT
ATOM      1  C   UNL     1      15.456  -2.933  26.933  1.00  0.00     0.138 A 
ATOM      2  C   UNL     1      15.736  -2.595  28.264  1.00  0.00     0.100 A 
ATOM      3  C   UNL     1      15.760  -1.252  28.645  1.00  0.00     0.197 A 
ATOM      4  O   UNL     1      16.076  -0.977  29.831  1.00  0.00    -0.289 OA
ATOM      5  C   UNL     1      15.471  -0.246  27.693  1.00  0.00     0.107 A 
ATOM      6  C   UNL     1      15.427   1.151  27.976  1.00  0.00     0.134 A 
ATOM      7  C   UNL     1      15.244   2.063  26.927  1.00  0.00     0.093 A 
ATOM      8  C   UNL     1      15.044   1.625  25.619  1.00  0.00     0.123 A 
ATOM      9  C   UNL     1      15.033   0.257  25.339  1.00  0.00     0.094 A 
ATOM     10  C   UNL     1      15.246  -0.675  26.357  1.00  0.00     0.146 A 
ATOM     11  O   UNL     1      15.242  -1.966  26.047  1.00  0.00    -0.456 OA
ENDROOT
BRANCH   1  12
ATOM     12  C   UNL     1      15.416  -4.345  26.475  1.00  0.00     0.021 A 
ATOM     13  C   UNL     1      14.207  -4.981  26.144  1.00  0.00     0.016 A 
ATOM     14  C   UNL     1      14.201  -6.306  25.706  1.00  0.00     0.051 A 
ATOM     15  C   UNL     1      15.395  -7.025  25.582  1.00  0.00     0.157 A 
ATOM     16  C   UNL     1      16.617  -5.063  26.337  1.00  0.00     0.062 A 
ATOM     17  C   UNL     1      16.620  -6.393  25.899  1.00  0.00     0.158 A 
BRANCH  15  18
ATOM     18  O   UNL     1      15.318  -8.348  25.142  1.00  0.00    -0.504 OA
ATOM     19  H   UNL     1      15.350  -8.622  24.171  1.00  0.00     0.293 HD
ENDBRANCH  15  18
BRANCH  17  20
ATOM     20  O   UNL     1      17.852  -7.043  25.796  1.00  0.00    -0.504 OA
ATOM     21  H   UNL     1      18.700  -6.719  26.239  1.00  0.00     0.293 HD
ENDBRANCH  17  20
ENDBRANCH   1  12
BRANCH   6  22
ATOM     22  O   UNL     1      15.529   1.692  29.261  1.00  0.00    -0.507 OA
ATOM     23  H   UNL     1      15.947   2.582  29.481  1.00  0.00     0.293 HD
ENDBRANCH   6  22
BRANCH   8  24
ATOM     24  O   UNL     1      14.851   2.559  24.604  1.00  0.00    -0.508 OA
ATOM     25  H   UNL     1      15.582   3.204  24.330  1.00  0.00     0.293 HD
ENDBRANCH   8  24
TORSDOF 5
ENDMDL
MODEL 4
REMARK VINA RESULT:    -0.715      1.650      6.844
REMARK INTER + INTRA:          -1.104
REMARK INTER:                  -0.825
REMARK INTRA:                  -0.279
REMARK UNBOUND:                -0.264
REMARK SMILES O=c1cc(-c2ccc(O)c(O)c2)oc2cc(O)cc(O)c12
REMARK SMILES IDX 4 1 3 2 2 3 1 4 21 5 19 6 18 7 16 8 15 9 14 10 13 11 5 12
REMARK SMILES IDX 6 13 7 14 8 15 12 16 10 17 9 18 11 20 20 22 17 24
REMARK H PARENT 9 19 11 21 20 23 17 25
REMARK Flexibility Score: inf
ROOT
ATOM      1  C   UNL     1      13.624 -12.678  28.691  1.00  0.00     0.138 A 
ATOM      2  C   UNL     1      12.382 -12.271  28.184  1.00  0.00     0.100 A 
ATOM      3  C   UNL     1      11.732 -11.172  28.750  1.00  0.00     0.197 A 
ATOM      4  O   UNL     1      10.591 -10.870  28.315  1.00  0.00    -0.289 OA
ATOM      5  C   UNL     1      12.346 -10.461  29.807  1.00  0.00     0.107 A 
ATOM      6  C   UNL     1      11.795  -9.303  30.433  1.00  0.00     0.134 A 
ATOM      7  C   UNL     1      12.438  -8.749  31.549  1.00  0.00     0.093 A 
ATOM      8  C   UNL     1      13.639  -9.275  32.022  1.00  0.00     0.123 A 
ATOM      9  C   UNL     1      14.214 -10.376  31.384  1.00  0.00     0.094 A 
ATOM     10  C   UNL     1      13.580 -10.970  30.291  1.00  0.00     0.146 A 
ATOM     11  O   UNL     1      14.153 -12.025  29.721  1.00  0.00    -0.456 OA
ENDROOT
BRANCH   1  12
ATOM     12  C   UNL     1      14.359 -13.838  28.126  1.00  0.00     0.021 A 
ATOM     13  C   UNL     1      14.787 -13.861  26.787  1.00  0.00     0.016 A 
ATOM     14  C   UNL     1      15.485 -14.961  26.286  1.00  0.00     0.051 A 
ATOM     15  C   UNL     1      15.778 -16.056  27.105  1.00  0.00     0.157 A 
ATOM     16  C   UNL     1      14.666 -14.933  28.953  1.00  0.00     0.062 A 
ATOM     17  C   UNL     1      15.365 -16.041  28.458  1.00  0.00     0.158 A 
BRANCH  15  18
ATOM     18  O   UNL     1      16.477 -17.125  26.541  1.00  0.00    -0.504 OA
ATOM     19  H   UNL     1      17.484 -17.173  26.483  1.00  0.00     0.293 HD
ENDBRANCH  15  18
BRANCH  17  20
ATOM     20  O   UNL     1      15.625 -17.094  29.337  1.00  0.00    -0.504 OA
ATOM     21  H   UNL     1      14.989 -17.861  29.503  1.00  0.00     0.293 HD
ENDBRANCH  17  20
ENDBRANCH   1  12
BRANCH   6  22
ATOM     22  O   UNL     1      10.645  -8.646  29.987  1.00  0.00    -0.507 OA
ATOM     23  H   UNL     1       9.836  -9.101  29.595  1.00  0.00     0.293 HD
ENDBRANCH   6  22
BRANCH   8  24
ATOM     24  O   UNL     1      14.258  -8.691  33.125  1.00  0.00    -0.508 OA
ATOM     25  H   UNL     1      14.625  -7.747  33.089  1.00  0.00     0.293 HD
ENDBRANCH   8  24
TORSDOF 5
ENDMDL
MODEL 5
REMARK VINA RESULT:    -0.455      4.584      6.548
REMARK INTER + INTRA:          -0.798
REMARK INTER:                  -0.535
REMARK INTRA:                  -0.264
REMARK UNBOUND:                -0.264
REMARK SMILES O=c1cc(-c2ccc(O)c(O)c2)oc2cc(O)cc(O)c12
REMARK SMILES IDX 4 1 3 2 2 3 1 4 21 5 19 6 18 7 16 8 15 9 14 10 13 11 5 12
REMARK SMILES IDX 6 13 7 14 8 15 12 16 10 17 9 18 11 20 20 22 17 24
REMARK H PARENT 9 19 11 21 20 23 17 25
REMARK Flexibility Score: inf
ROOT
ATOM      1  C   UNL     1      14.149  -9.344  26.937  1.00  0.00     0.138 A 
ATOM      2  C   UNL     1      15.049 -10.280  27.464  1.00  0.00     0.100 A 
ATOM      3  C   UNL     1      14.632 -11.145  28.476  1.00  0.00     0.197 A 
ATOM      4  O   UNL     1      15.480 -11.931  28.972  1.00  0.00    -0.289 OA
ATOM      5  C   UNL     1      13.296 -11.093  28.939  1.00  0.00     0.107 A 
ATOM      6  C   UNL     1      12.748 -11.952  29.938  1.00  0.00     0.134 A 
ATOM      7  C   UNL     1      11.444 -11.731  30.400  1.00  0.00     0.093 A 
ATOM      8  C   UNL     1      10.650 -10.722  29.858  1.00  0.00     0.123 A 
ATOM      9  C   UNL     1      11.158  -9.908  28.843  1.00  0.00     0.094 A 
ATOM     10  C   UNL     1      12.466 -10.083  28.385  1.00  0.00     0.146 A 
ATOM     11  O   UNL     1      12.916  -9.279  27.428  1.00  0.00    -0.456 OA
ENDROOT
BRANCH   1  12
ATOM     12  C   UNL     1      14.540  -8.401  25.858  1.00  0.00     0.021 A 
ATOM     13  C   UNL     1      14.746  -7.034  26.111  1.00  0.00     0.016 A 
ATOM     14  C   UNL     1      15.123  -6.172  25.079  1.00  0.00     0.051 A 
ATOM     15  C   UNL     1      15.310  -6.652  23.778  1.00  0.00     0.157 A 
ATOM     16  C   UNL     1      14.742  -8.886  24.554  1.00  0.00     0.062 A 
ATOM     17  C   UNL     1      15.120  -8.028  23.513  1.00  0.00     0.158 A 
BRANCH  15  18
ATOM     18  O   UNL     1      15.685  -5.737  22.792  1.00  0.00    -0.504 OA
ATOM     19  H   UNL     1      15.446  -5.830  21.816  1.00  0.00     0.293 HD
ENDBRANCH  15  18
BRANCH  17  20
ATOM     20  O   UNL     1      15.293  -8.582  22.243  1.00  0.00    -0.504 OA
ATOM     21  H   UNL     1      14.578  -8.593  21.529  1.00  0.00     0.293 HD
ENDBRANCH  17  20
ENDBRANCH   1  12
BRANCH   6  22
ATOM     22  O   UNL     1      13.427 -13.045  30.486  1.00  0.00    -0.507 OA
ATOM     23  H   UNL     1      13.515 -13.948  30.048  1.00  0.00     0.293 HD
ENDBRANCH   6  22
BRANCH   8  24
ATOM     24  O   UNL     1       9.352 -10.539  30.331  1.00  0.00    -0.508 OA
ATOM     25  H   UNL     1       9.153 -10.475  31.322  1.00  0.00     0.293 HD
ENDBRANCH   8  24
TORSDOF 5
ENDMDL
MODEL 6
REMARK VINA RESULT:    -0.303      1.183      2.727
REMARK INTER + INTRA:          -0.620
REMARK INTER:                  -0.352
REMARK INTRA:                  -0.268
REMARK UNBOUND:                -0.264
REMARK SMILES O=c1cc(-c2ccc(O)c(O)c2)oc2cc(O)cc(O)c12
REMARK SMILES IDX 4 1 3 2 2 3 1 4 21 5 19 6 18 7 16 8 15 9 14 10 13 11 5 12
REMARK SMILES IDX 6 13 7 14 8 15 12 16 10 17 9 18 11 20 20 22 17 24
REMARK H PARENT 9 19 11 21 20 23 17 25
REMARK Flexibility Score: inf
ROOT
ATOM      1  C   UNL     1      13.574 -12.824  29.796  1.00  0.00     0.138 A 
ATOM      2  C   UNL     1      13.908 -13.639  30.886  1.00  0.00     0.100 A 
ATOM      3  C   UNL     1      14.653 -14.801  30.677  1.00  0.00     0.197 A 
ATOM      4  O   UNL     1      14.883 -15.544  31.666  1.00  0.00    -0.289 OA
ATOM      5  C   UNL     1      15.090 -15.130  29.373  1.00  0.00     0.107 A 
ATOM      6  C   UNL     1      15.888 -16.267  29.047  1.00  0.00     0.134 A 
ATOM      7  C   UNL     1      16.164 -16.555  27.704  1.00  0.00     0.093 A 
ATOM      8  C   UNL     1      15.723 -15.716  26.682  1.00  0.00     0.123 A 
ATOM      9  C   UNL     1      14.986 -14.571  26.993  1.00  0.00     0.094 A 
ATOM     10  C   UNL     1      14.666 -14.276  28.320  1.00  0.00     0.146 A 
ATOM     11  O   UNL     1      13.951 -13.185  28.573  1.00  0.00    -0.456 OA
ENDROOT
BRANCH   1  12
ATOM     12  C   UNL     1      12.786 -11.577  29.962  1.00  0.00     0.021 A 
ATOM     13  C   UNL     1      13.370 -10.392  30.442  1.00  0.00     0.016 A 
ATOM     14  C   UNL     1      12.607  -9.231  30.578  1.00  0.00     0.051 A 
ATOM     15  C   UNL     1      11.251  -9.221  30.234  1.00  0.00     0.157 A 
ATOM     16  C   UNL     1      11.427 -11.563  29.603  1.00  0.00     0.062 A 
ATOM     17  C   UNL     1      10.654 -10.403  29.737  1.00  0.00     0.158 A 
BRANCH  15  18
ATOM     18  O   UNL     1      10.545  -8.028  30.397  1.00  0.00    -0.504 OA
ATOM     19  H   UNL     1      10.968  -7.112  30.362  1.00  0.00     0.293 HD
ENDBRANCH  15  18
BRANCH  17  20
ATOM     20  O   UNL     1       9.308 -10.470  29.368  1.00  0.00    -0.504 OA
ATOM     21  H   UNL     1       8.722  -9.661  29.223  1.00  0.00     0.293 HD
ENDBRANCH  17  20
ENDBRANCH   1  12
BRANCH   6  22
ATOM     22  O   UNL     1      16.452 -17.124  29.996  1.00  0.00    -0.507 OA
ATOM     23  H   UNL     1      16.228 -17.124  30.979  1.00  0.00     0.293 HD
ENDBRANCH   6  22
BRANCH   8  24
ATOM     24  O   UNL     1      16.028 -16.025  25.358  1.00  0.00    -0.508 OA
ATOM     25  H   UNL     1      15.375 -16.524  24.766  1.00  0.00     0.293 HD
ENDBRANCH   8  24
TORSDOF 5
ENDMDL
MODEL 7
REMARK VINA RESULT:    -0.282     10.656     12.875
REMARK INTER + INTRA:          -0.594
REMARK INTER:                  -0.300
REMARK INTRA:                  -0.295
REMARK UNBOUND:                -0.264
REMARK SMILES O=c1cc(-c2ccc(O)c(O)c2)oc2cc(O)cc(O)c12
REMARK SMILES IDX 4 1 3 2 2 3 1 4 21 5 19 6 18 7 16 8 15 9 14 10 13 11 5 12
REMARK SMILES IDX 6 13 7 14 8 15 12 16 10 17 9 18 11 20 20 22 17 24
REMARK H PARENT 9 19 11 21 20 23 17 25
REMARK Flexibility Score: inf
ROOT
ATOM      1  C   UNL     1      16.286  -1.052  27.291  1.00  0.00     0.138 A 
ATOM      2  C   UNL     1      17.533  -1.656  27.086  1.00  0.00     0.100 A 
ATOM      3  C   UNL     1      18.047  -2.524  28.052  1.00  0.00     0.197 A 
ATOM      4  O   UNL     1      19.196  -3.001  27.870  1.00  0.00    -0.289 OA
ATOM      5  C   UNL     1      17.290  -2.811  29.212  1.00  0.00     0.107 A 
ATOM      6  C   UNL     1      17.695  -3.710  30.243  1.00  0.00     0.134 A 
ATOM      7  C   UNL     1      16.916  -3.828  31.402  1.00  0.00     0.093 A 
ATOM      8  C   UNL     1      15.720  -3.125  31.540  1.00  0.00     0.123 A 
ATOM      9  C   UNL     1      15.288  -2.282  30.514  1.00  0.00     0.094 A 
ATOM     10  C   UNL     1      16.059  -2.119  29.361  1.00  0.00     0.146 A 
ATOM     11  O   UNL     1      15.620  -1.296  28.415  1.00  0.00    -0.456 OA
ENDROOT
BRANCH   1  12
ATOM     12  C   UNL     1      15.692  -0.122  26.296  1.00  0.00     0.021 A 
ATOM     13  C   UNL     1      15.695  -0.412  24.920  1.00  0.00     0.016 A 
ATOM     14  C   UNL     1      15.121   0.476  24.009  1.00  0.00     0.051 A 
ATOM     15  C   UNL     1      14.526   1.665  24.446  1.00  0.00     0.157 A 
ATOM     16  C   UNL     1      15.082   1.065  26.735  1.00  0.00     0.062 A 
ATOM     17  C   UNL     1      14.504   1.962  25.828  1.00  0.00     0.158 A 
BRANCH  15  18
ATOM     18  O   UNL     1      13.973   2.510  23.482  1.00  0.00    -0.504 OA
ATOM     19  H   UNL     1      13.311   3.244  23.688  1.00  0.00     0.293 HD
ENDBRANCH  15  18
BRANCH  17  20
ATOM     20  O   UNL     1      13.925   3.125  26.340  1.00  0.00    -0.504 OA
ATOM     21  H   UNL     1      13.359   3.153  27.176  1.00  0.00     0.293 HD
ENDBRANCH  17  20
ENDBRANCH   1  12
BRANCH   6  22
ATOM     22  O   UNL     1      18.828  -4.525  30.169  1.00  0.00    -0.507 OA
ATOM     23  H   UNL     1      19.373  -4.829  30.960  1.00  0.00     0.293 HD
ENDBRANCH   6  22
BRANCH   8  24
ATOM     24  O   UNL     1      14.963  -3.277  32.700  1.00  0.00    -0.508 OA
ATOM     25  H   UNL     1      14.058  -3.732  32.687  1.00  0.00     0.293 HD
ENDBRANCH   8  24
TORSDOF 5
ENDMDL
MODEL 8
REMARK VINA RESULT:    -0.257      1.741      7.224
REMARK INTER + INTRA:          -0.566
REMARK INTER:                  -0.300
REMARK INTRA:                  -0.266
REMARK UNBOUND:                -0.264
REMARK SMILES O=c1cc(-c2ccc(O)c(O)c2)oc2cc(O)cc(O)c12
REMARK SMILES IDX 4 1 3 2 2 3 1 4 21 5 19 6 18 7 16 8 15 9 14 10 13 11 5 12
REMARK SMILES IDX 6 13 7 14 8 15 12 16 10 17 9 18 11 20 20 22 17 24
REMARK H PARENT 9 19 11 21 20 23 17 25
REMARK Flexibility Score: inf
ROOT
ATOM      1  C   UNL     1      13.993 -12.734  28.812  1.00  0.00     0.138 A 
ATOM      2  C   UNL     1      14.705 -11.916  29.699  1.00  0.00     0.100 A 
ATOM      3  C   UNL     1      14.056 -10.853  30.329  1.00  0.00     0.197 A 
ATOM      4  O   UNL     1      14.737 -10.099  31.071  1.00  0.00    -0.289 OA
ATOM      5  C   UNL     1      12.680 -10.629  30.092  1.00  0.00     0.107 A 
ATOM      6  C   UNL     1      11.906  -9.601  30.709  1.00  0.00     0.134 A 
ATOM      7  C   UNL     1      10.578  -9.402  30.309  1.00  0.00     0.093 A 
ATOM      8  C   UNL     1       9.980 -10.230  29.360  1.00  0.00     0.123 A 
ATOM      9  C   UNL     1      10.712 -11.273  28.788  1.00  0.00     0.094 A 
ATOM     10  C   UNL     1      12.048 -11.475  29.142  1.00  0.00     0.146 A 
ATOM     11  O   UNL     1      12.714 -12.469  28.564  1.00  0.00    -0.456 OA
ENDROOT
BRANCH   1  12
ATOM     12  C   UNL     1      14.633 -13.880  28.116  1.00  0.00     0.021 A 
ATOM     13  C   UNL     1      14.814 -13.890  26.722  1.00  0.00     0.016 A 
ATOM     14  C   UNL     1      15.428 -14.976  26.096  1.00  0.00     0.051 A 
ATOM     15  C   UNL     1      15.881 -16.070  26.842  1.00  0.00     0.157 A 
ATOM     16  C   UNL     1      15.100 -14.973  28.867  1.00  0.00     0.062 A 
ATOM     17  C   UNL     1      15.717 -16.067  28.246  1.00  0.00     0.158 A 
BRANCH  15  18
ATOM     18  O   UNL     1      16.483 -17.125  26.153  1.00  0.00    -0.504 OA
ATOM     19  H   UNL     1      17.473 -17.322  26.178  1.00  0.00     0.293 HD
ENDBRANCH  15  18
BRANCH  17  20
ATOM     20  O   UNL     1      16.147 -17.119  29.058  1.00  0.00    -0.504 OA
ATOM     21  H   UNL     1      17.112 -17.284  29.304  1.00  0.00     0.293 HD
ENDBRANCH  17  20
ENDBRANCH   1  12
BRANCH   6  22
ATOM     22  O   UNL     1      12.381  -8.772  31.729  1.00  0.00    -0.507 OA
ATOM     23  H   UNL     1      11.806  -8.336  32.433  1.00  0.00     0.293 HD
ENDBRANCH   6  22
BRANCH   8  24
ATOM     24  O   UNL     1       8.653 -10.013  28.997  1.00  0.00    -0.508 OA
ATOM     25  H   UNL     1       7.930  -9.864  29.691  1.00  0.00     0.293 HD
ENDBRANCH   8  24
TORSDOF 5
ENDMDL
MODEL 9
REMARK VINA RESULT:    -0.183     11.186     13.305
REMARK INTER + INTRA:          -0.479
REMARK INTER:                  -0.212
REMARK INTRA:                  -0.266
REMARK UNBOUND:                -0.264
REMARK SMILES O=c1cc(-c2ccc(O)c(O)c2)oc2cc(O)cc(O)c12
REMARK SMILES IDX 4 1 3 2 2 3 1 4 21 5 19 6 18 7 16 8 15 9 14 10 13 11 5 12
REMARK SMILES IDX 6 13 7 14 8 15 12 16 10 17 9 18 11 20 20 22 17 24
REMARK H PARENT 9 19 11 21 20 23 17 25
REMARK Flexibility Score: inf
ROOT
ATOM      1  C   UNL     1      16.145  -0.663  27.092  1.00  0.00     0.138 A 
ATOM      2  C   UNL     1      15.398  -1.249  28.123  1.00  0.00     0.100 A 
ATOM      3  C   UNL     1      16.006  -2.170  28.978  1.00  0.00     0.197 A 
ATOM      4  O   UNL     1      15.294  -2.725  29.854  1.00  0.00    -0.289 OA
ATOM      5  C   UNL     1      17.376  -2.480  28.817  1.00  0.00     0.107 A 
ATOM      6  C   UNL     1      18.110  -3.373  29.654  1.00  0.00     0.134 A 
ATOM      7  C   UNL     1      19.435  -3.693  29.328  1.00  0.00     0.093 A 
ATOM      8  C   UNL     1      20.069  -3.108  28.233  1.00  0.00     0.123 A 
ATOM      9  C   UNL     1      19.376  -2.192  27.438  1.00  0.00     0.094 A 
ATOM     10  C   UNL     1      18.044  -1.878  27.718  1.00  0.00     0.146 A 
ATOM     11  O   UNL     1      17.417  -1.013  26.929  1.00  0.00    -0.456 OA
ENDROOT
BRANCH   1  12
ATOM     12  C   UNL     1      15.549   0.323  26.155  1.00  0.00     0.021 A 
ATOM     13  C   UNL     1      15.405   1.678  26.502  1.00  0.00     0.016 A 
ATOM     14  C   UNL     1      14.851   2.585  25.597  1.00  0.00     0.051 A 
ATOM     15  C   UNL     1      14.436   2.167  24.328  1.00  0.00     0.157 A 
ATOM     16  C   UNL     1      15.145  -0.094  24.874  1.00  0.00     0.062 A 
ATOM     17  C   UNL     1      14.587   0.810  23.961  1.00  0.00     0.158 A 
BRANCH  15  18
ATOM     18  O   UNL     1      13.887   3.125  23.472  1.00  0.00    -0.504 OA
ATOM     19  H   UNL     1      14.410   3.891  23.074  1.00  0.00     0.293 HD
ENDBRANCH  15  18
BRANCH  17  20
ATOM     20  O   UNL     1      14.201   0.319  22.712  1.00  0.00    -0.504 OA
ATOM     21  H   UNL     1      13.303   0.500  22.287  1.00  0.00     0.293 HD
ENDBRANCH  17  20
ENDBRANCH   1  12
BRANCH   6  22
ATOM     22  O   UNL     1      17.599  -3.948  30.821  1.00  0.00    -0.507 OA
ATOM     23  H   UNL     1      18.080  -4.628  31.388  1.00  0.00     0.293 HD
ENDBRANCH   6  22
BRANCH   8  24
ATOM     24  O   UNL     1      21.392  -3.438  27.947  1.00  0.00    -0.508 OA
ATOM     25  H   UNL     1      21.674  -3.744  27.024  1.00  0.00     0.293 HD
ENDBRANCH   8  24
TORSDOF 5
ENDMDL
