MODEL 1
REMARK VINA RESULT:    -4.006      0.000      0.000
REMARK INTER + INTRA:          -7.097
REMARK INTER:                  -6.348
REMARK INTRA:                  -0.749
REMARK UNBOUND:                -0.749
REMARK SMILES CCCCCCCCCCCC(=O)[O-]
REMARK SMILES IDX 7 1 8 2 9 3 10 4 11 5 12 6 13 7 14 8 6 9 5 10 4 11 3 12 2 13
REMARK SMILES IDX 1 14
REMARK H PARENT
REMARK Flexibility Score: inf
ROOT
ATOM      1  C   UNL     1      23.769  -5.135  52.293  1.00  0.00     0.000 C 
ENDROOT
BRANCH   1   2
ATOM      2  C   UNL     1      23.135  -4.460  53.523  1.00  0.00     0.000 C 
BRANCH   2   3
ATOM      3  C   UNL     1      22.814  -2.960  53.359  1.00  0.00     0.000 C 
BRANCH   3   4
ATOM      4  C   UNL     1      23.611  -2.018  54.280  1.00  0.00     0.006 C 
BRANCH   4   5
ATOM      5  C   UNL     1      24.006  -2.676  55.607  1.00  0.00     0.053 C 
BRANCH   5   6
ATOM      6  C   UNL     1      23.161  -2.150  56.724  1.00  0.00     0.041 C 
ATOM      7  O   UNL     1      22.523  -1.073  56.582  1.00  0.00    -0.550 OA
ATOM      8  O   UNL     1      23.036  -2.873  57.902  1.00  0.00    -0.550 OA
ENDBRANCH   5   6
ENDBRANCH   4   5
ENDBRANCH   3   4
ENDBRANCH   2   3
ENDBRANCH   1   2
BRANCH   1   9
ATOM      9  C   UNL     1      25.261  -5.453  52.491  1.00  0.00     0.000 C 
BRANCH   9  10
ATOM     10  C   UNL     1      25.610  -5.758  53.957  1.00  0.00    -0.000 C 
BRANCH  10  11
ATOM     11  C   UNL     1      27.118  -5.964  54.177  1.00  0.00    -0.000 C 
BRANCH  11  12
ATOM     12  C   UNL     1      27.855  -6.089  52.839  1.00  0.00    -0.000 C 
BRANCH  12  13
ATOM     13  C   UNL     1      29.366  -6.230  53.055  1.00  0.00    -0.003 C 
ATOM     14  C   UNL     1      29.997  -7.106  51.976  1.00  0.00     0.004 C 
ENDBRANCH  12  13
ENDBRANCH  11  12
ENDBRANCH  10  11
ENDBRANCH   9  10
ENDBRANCH   1   9
TORSDOF 10
ENDMDL
MODEL 2
REMARK VINA RESULT:    -3.981      4.016      6.765
REMARK INTER + INTRA:          -7.057
REMARK INTER:                  -6.354
REMARK INTRA:                  -0.703
REMARK UNBOUND:                -0.749
REMARK SMILES CCCCCCCCCCCC(=O)[O-]
REMARK SMILES IDX 7 1 8 2 9 3 10 4 11 5 12 6 13 7 14 8 6 9 5 10 4 11 3 12 2 13
REMARK SMILES IDX 1 14
REMARK H PARENT
REMARK Flexibility Score: inf
ROOT
ATOM      1  C   UNL     1      24.006  -5.527  53.857  1.00  0.00     0.000 C 
ENDROOT
BRANCH   1   2
ATOM      2  C   UNL     1      25.329  -5.752  53.103  1.00  0.00     0.000 C 
BRANCH   2   3
ATOM      3  C   UNL     1      26.608  -5.520  53.935  1.00  0.00     0.000 C 
BRANCH   3   4
ATOM      4  C   UNL     1      27.749  -6.519  53.670  1.00  0.00     0.006 C 
BRANCH   4   5
ATOM      5  C   UNL     1      28.912  -5.900  52.886  1.00  0.00     0.053 C 
BRANCH   5   6
ATOM      6  C   UNL     1      29.950  -6.936  52.587  1.00  0.00     0.041 C 
ATOM      7  O   UNL     1      30.860  -7.182  53.423  1.00  0.00    -0.550 OA
ATOM      8  O   UNL     1      29.884  -7.666  51.408  1.00  0.00    -0.550 OA
ENDBRANCH   5   6
ENDBRANCH   4   5
ENDBRANCH   3   4
ENDBRANCH   2   3
ENDBRANCH   1   2
BRANCH   1   9
ATOM      9  C   UNL     1      22.969  -4.754  53.024  1.00  0.00     0.000 C 
BRANCH   9  10
ATOM     10  C   UNL     1      22.946  -3.253  53.357  1.00  0.00    -0.000 C 
BRANCH  10  11
ATOM     11  C   UNL     1      22.732  -2.981  54.855  1.00  0.00    -0.000 C 
BRANCH  11  12
ATOM     12  C   UNL     1      23.915  -2.204  55.444  1.00  0.00    -0.000 C 
BRANCH  12  13
ATOM     13  C   UNL     1      24.644  -3.034  56.507  1.00  0.00    -0.003 C 
ATOM     14  C   UNL     1      23.701  -3.428  57.641  1.00  0.00     0.004 C 
ENDBRANCH  12  13
ENDBRANCH  11  12
ENDBRANCH  10  11
ENDBRANCH   9  10
ENDBRANCH   1   9
TORSDOF 10
ENDMDL
MODEL 3
REMARK VINA RESULT:    -3.878     15.246     16.281
REMARK INTER + INTRA:          -6.893
REMARK INTER:                  -6.485
REMARK INTRA:                  -0.408
REMARK UNBOUND:                -0.749
REMARK SMILES CCCCCCCCCCCC(=O)[O-]
REMARK SMILES IDX 7 1 8 2 9 3 10 4 11 5 12 6 13 7 14 8 6 9 5 10 4 11 3 12 2 13
REMARK SMILES IDX 1 14
REMARK H PARENT
REMARK Flexibility Score: inf
ROOT
ATOM      1  C   UNL     1      31.496   5.335  44.714  1.00  0.00     0.000 C 
ENDROOT
BRANCH   1   2
ATOM      2  C   UNL     1      32.728   6.005  44.080  1.00  0.00     0.000 C 
BRANCH   2   3
ATOM      3  C   UNL     1      32.920   5.740  42.572  1.00  0.00     0.000 C 
BRANCH   3   4
ATOM      4  C   UNL     1      31.660   5.263  41.828  1.00  0.00     0.006 C 
BRANCH   4   5
ATOM      5  C   UNL     1      31.887   5.094  40.321  1.00  0.00     0.053 C 
BRANCH   5   6
ATOM      6  C   UNL     1      30.592   5.215  39.581  1.00  0.00     0.041 C 
ATOM      7  O   UNL     1      30.578   5.639  38.395  1.00  0.00    -0.550 OA
ATOM      8  O   UNL     1      29.407   4.812  40.181  1.00  0.00    -0.550 OA
ENDBRANCH   5   6
ENDBRANCH   4   5
ENDBRANCH   3   4
ENDBRANCH   2   3
ENDBRANCH   1   2
BRANCH   1   9
ATOM      9  C   UNL     1      30.839   6.202  45.800  1.00  0.00     0.000 C 
BRANCH   9  10
ATOM     10  C   UNL     1      31.636   6.206  47.115  1.00  0.00    -0.000 C 
BRANCH  10  11
ATOM     11  C   UNL     1      31.127   5.161  48.120  1.00  0.00    -0.000 C 
BRANCH  11  12
ATOM     12  C   UNL     1      31.707   5.416  49.517  1.00  0.00    -0.000 C 
BRANCH  12  13
ATOM     13  C   UNL     1      32.259   4.123  50.128  1.00  0.00    -0.003 C 
ATOM     14  C   UNL     1      32.298   2.999  49.096  1.00  0.00     0.004 C 
ENDBRANCH  12  13
ENDBRANCH  11  12
ENDBRANCH  10  11
ENDBRANCH   9  10
ENDBRANCH   1   9
TORSDOF 10
ENDMDL
MODEL 4
REMARK VINA RESULT:    -3.876     16.246     17.546
REMARK INTER + INTRA:          -6.891
REMARK INTER:                  -6.560
REMARK INTRA:                  -0.331
REMARK UNBOUND:                -0.749
REMARK SMILES CCCCCCCCCCCC(=O)[O-]
REMARK SMILES IDX 7 1 8 2 9 3 10 4 11 5 12 6 13 7 14 8 6 9 5 10 4 11 3 12 2 13
REMARK SMILES IDX 1 14
REMARK H PARENT
REMARK Flexibility Score: inf
ROOT
ATOM      1  C   UNL     1      31.710   4.940  43.583  1.00  0.00     0.000 C 
ENDROOT
BRANCH   1   2
ATOM      2  C   UNL     1      32.190   5.892  42.474  1.00  0.00     0.000 C 
BRANCH   2   3
ATOM      3  C   UNL     1      33.673   5.744  42.074  1.00  0.00     0.000 C 
BRANCH   3   4
ATOM      4  C   UNL     1      33.922   4.989  40.756  1.00  0.00     0.006 C 
BRANCH   4   5
ATOM      5  C   UNL     1      35.229   4.187  40.767  1.00  0.00     0.053 C 
BRANCH   5   6
ATOM      6  C   UNL     1      36.036   4.486  39.543  1.00  0.00     0.041 C 
ATOM      7  O   UNL     1      36.463   5.653  39.336  1.00  0.00    -0.550 OA
ATOM      8  O   UNL     1      36.360   3.468  38.657  1.00  0.00    -0.550 OA
ENDBRANCH   5   6
ENDBRANCH   4   5
ENDBRANCH   3   4
ENDBRANCH   2   3
ENDBRANCH   1   2
BRANCH   1   9
ATOM      9  C   UNL     1      30.980   5.672  44.722  1.00  0.00     0.000 C 
BRANCH   9  10
ATOM     10  C   UNL     1      31.877   5.897  45.950  1.00  0.00    -0.000 C 
BRANCH  10  11
ATOM     11  C   UNL     1      31.516   4.974  47.125  1.00  0.00    -0.000 C 
BRANCH  11  12
ATOM     12  C   UNL     1      31.700   5.696  48.466  1.00  0.00    -0.000 C 
BRANCH  12  13
ATOM     13  C   UNL     1      31.637   4.707  49.636  1.00  0.00    -0.003 C 
ATOM     14  C   UNL     1      32.193   3.343  49.236  1.00  0.00     0.004 C 
ENDBRANCH  12  13
ENDBRANCH  11  12
ENDBRANCH  10  11
ENDBRANCH   9  10
ENDBRANCH   1   9
TORSDOF 10
ENDMDL
MODEL 5
REMARK VINA RESULT:    -3.850      4.252      6.843
REMARK INTER + INTRA:          -6.850
REMARK INTER:                  -5.487
REMARK INTRA:                  -1.363
REMARK UNBOUND:                -0.749
REMARK SMILES CCCCCCCCCCCC(=O)[O-]
REMARK SMILES IDX 7 1 8 2 9 3 10 4 11 5 12 6 13 7 14 8 6 9 5 10 4 11 3 12 2 13
REMARK SMILES IDX 1 14
REMARK H PARENT
REMARK Flexibility Score: inf
ROOT
ATOM      1  C   UNL     1      23.907  -3.260  57.863  1.00  0.00     0.000 C 
ENDROOT
BRANCH   1   2
ATOM      2  C   UNL     1      24.642  -2.998  56.536  1.00  0.00     0.000 C 
BRANCH   2   3
ATOM      3  C   UNL     1      23.947  -3.555  55.276  1.00  0.00     0.000 C 
BRANCH   3   4
ATOM      4  C   UNL     1      23.502  -2.494  54.253  1.00  0.00     0.006 C 
BRANCH   4   5
ATOM      5  C   UNL     1      22.429  -3.011  53.287  1.00  0.00     0.053 C 
BRANCH   5   6
ATOM      6  C   UNL     1      22.893  -2.875  51.871  1.00  0.00     0.041 C 
ATOM      7  O   UNL     1      24.120  -2.955  51.596  1.00  0.00    -0.550 OA
ATOM      8  O   UNL     1      21.968  -2.712  50.849  1.00  0.00    -0.550 OA
ENDBRANCH   5   6
ENDBRANCH   4   5
ENDBRANCH   3   4
ENDBRANCH   2   3
ENDBRANCH   1   2
BRANCH   1   9
ATOM      9  C   UNL     1      22.530  -3.914  57.661  1.00  0.00     0.000 C 
BRANCH   9  10
ATOM     10  C   UNL     1      21.370  -2.947  57.949  1.00  0.00    -0.000 C 
BRANCH  10  11
ATOM     11  C   UNL     1      21.830  -1.484  58.058  1.00  0.00    -0.000 C 
BRANCH  11  12
ATOM     12  C   UNL     1      21.469  -0.700  56.790  1.00  0.00    -0.000 C 
BRANCH  12  13
ATOM     13  C   UNL     1      20.343  -1.394  56.017  1.00  0.00    -0.003 C 
ATOM     14  C   UNL     1      20.061  -0.681  54.696  1.00  0.00     0.004 C 
ENDBRANCH  12  13
ENDBRANCH  11  12
ENDBRANCH  10  11
ENDBRANCH   9  10
ENDBRANCH   1   9
TORSDOF 10
ENDMDL
MODEL 6
REMARK VINA RESULT:    -3.807     16.222     17.452
REMARK INTER + INTRA:          -6.781
REMARK INTER:                  -6.016
REMARK INTRA:                  -0.764
REMARK UNBOUND:                -0.749
REMARK SMILES CCCCCCCCCCCC(=O)[O-]
REMARK SMILES IDX 7 1 8 2 9 3 10 4 11 5 12 6 13 7 14 8 6 9 5 10 4 11 3 12 2 13
REMARK SMILES IDX 1 14
REMARK H PARENT
REMARK Flexibility Score: inf
ROOT
ATOM      1  C   UNL     1      26.360   5.582  42.114  1.00  0.00     0.000 C 
ENDROOT
BRANCH   1   2
ATOM      2  C   UNL     1      27.207   6.775  41.637  1.00  0.00     0.000 C 
BRANCH   2   3
ATOM      3  C   UNL     1      28.685   6.453  41.328  1.00  0.00     0.000 C 
BRANCH   3   4
ATOM      4  C   UNL     1      28.998   4.961  41.121  1.00  0.00     0.006 C 
BRANCH   4   5
ATOM      5  C   UNL     1      29.224   4.599  39.648  1.00  0.00     0.053 C 
BRANCH   5   6
ATOM      6  C   UNL     1      30.525   5.160  39.166  1.00  0.00     0.041 C 
ATOM      7  O   UNL     1      31.612   4.739  39.643  1.00  0.00    -0.550 OA
ATOM      8  O   UNL     1      30.540   6.111  38.156  1.00  0.00    -0.550 OA
ENDBRANCH   5   6
ENDBRANCH   4   5
ENDBRANCH   3   4
ENDBRANCH   2   3
ENDBRANCH   1   2
BRANCH   1   9
ATOM      9  C   UNL     1      25.319   5.136  41.074  1.00  0.00     0.000 C 
BRANCH   9  10
ATOM     10  C   UNL     1      25.138   3.609  41.036  1.00  0.00    -0.000 C 
BRANCH  10  11
ATOM     11  C   UNL     1      25.303   3.027  39.624  1.00  0.00    -0.000 C 
BRANCH  11  12
ATOM     12  C   UNL     1      24.036   2.282  39.187  1.00  0.00    -0.000 C 
BRANCH  12  13
ATOM     13  C   UNL     1      23.660   1.194  40.199  1.00  0.00    -0.003 C 
ATOM     14  C   UNL     1      23.879  -0.200  39.617  1.00  0.00     0.004 C 
ENDBRANCH  12  13
ENDBRANCH  11  12
ENDBRANCH  10  11
ENDBRANCH   9  10
ENDBRANCH   1   9
TORSDOF 10
ENDMDL
MODEL 7
REMARK VINA RESULT:    -3.779      3.536      6.527
REMARK INTER + INTRA:          -6.737
REMARK INTER:                  -5.367
REMARK INTRA:                  -1.370
REMARK UNBOUND:                -0.749
REMARK SMILES CCCCCCCCCCCC(=O)[O-]
REMARK SMILES IDX 7 1 8 2 9 3 10 4 11 5 12 6 13 7 14 8 6 9 5 10 4 11 3 12 2 13
REMARK SMILES IDX 1 14
REMARK H PARENT
REMARK Flexibility Score: inf
ROOT
ATOM      1  C   UNL     1      23.647  -1.931  55.567  1.00  0.00     0.000 C 
ENDROOT
BRANCH   1   2
ATOM      2  C   UNL     1      23.295  -2.493  54.178  1.00  0.00     0.000 C 
BRANCH   2   3
ATOM      3  C   UNL     1      22.077  -3.440  54.139  1.00  0.00     0.000 C 
BRANCH   3   4
ATOM      4  C   UNL     1      22.392  -4.920  54.418  1.00  0.00     0.006 C 
BRANCH   4   5
ATOM      5  C   UNL     1      22.532  -5.751  53.137  1.00  0.00     0.053 C 
BRANCH   5   6
ATOM      6  C   UNL     1      23.939  -5.701  52.633  1.00  0.00     0.041 C 
ATOM      7  O   UNL     1      24.171  -5.741  51.395  1.00  0.00    -0.550 OA
ATOM      8  O   UNL     1      24.993  -5.558  53.525  1.00  0.00    -0.550 OA
ENDBRANCH   5   6
ENDBRANCH   4   5
ENDBRANCH   3   4
ENDBRANCH   2   3
ENDBRANCH   1   2
BRANCH   1   9
ATOM      9  C   UNL     1      24.541  -2.879  56.384  1.00  0.00     0.000 C 
BRANCH   9  10
ATOM     10  C   UNL     1      23.885  -3.315  57.705  1.00  0.00    -0.000 C 
BRANCH  10  11
ATOM     11  C   UNL     1      22.538  -2.620  57.957  1.00  0.00    -0.000 C 
BRANCH  11  12
ATOM     12  C   UNL     1      21.374  -3.606  57.805  1.00  0.00    -0.000 C 
BRANCH  12  13
ATOM     13  C   UNL     1      20.125  -2.904  57.262  1.00  0.00    -0.003 C 
ATOM     14  C   UNL     1      20.359  -1.403  57.108  1.00  0.00     0.004 C 
ENDBRANCH  12  13
ENDBRANCH  11  12
ENDBRANCH  10  11
ENDBRANCH   9  10
ENDBRANCH   1   9
TORSDOF 10
ENDMDL
MODEL 8
REMARK VINA RESULT:    -3.737      3.808      5.343
REMARK INTER + INTRA:          -6.671
REMARK INTER:                  -5.016
REMARK INTRA:                  -1.655
REMARK UNBOUND:                -0.749
REMARK SMILES CCCCCCCCCCCC(=O)[O-]
REMARK SMILES IDX 7 1 8 2 9 3 10 4 11 5 12 6 13 7 14 8 6 9 5 10 4 11 3 12 2 13
REMARK SMILES IDX 1 14
REMARK H PARENT
REMARK Flexibility Score: inf
ROOT
ATOM      1  C   UNL     1      23.980  -3.252  57.880  1.00  0.00     0.000 C 
ENDROOT
BRANCH   1   2
ATOM      2  C   UNL     1      22.648  -2.490  58.000  1.00  0.00     0.000 C 
BRANCH   2   3
ATOM      3  C   UNL     1      21.381  -3.371  57.970  1.00  0.00     0.000 C 
BRANCH   3   4
ATOM      4  C   UNL     1      20.176  -2.756  57.235  1.00  0.00     0.006 C 
BRANCH   4   5
ATOM      5  C   UNL     1      20.547  -1.510  56.422  1.00  0.00     0.053 C 
BRANCH   5   6
ATOM      6  C   UNL     1      19.846  -1.521  55.100  1.00  0.00     0.041 C 
ATOM      7  O   UNL     1      19.851  -0.492  54.372  1.00  0.00    -0.550 OA
ATOM      8  O   UNL     1      19.230  -2.680  54.649  1.00  0.00    -0.550 OA
ENDBRANCH   5   6
ENDBRANCH   4   5
ENDBRANCH   3   4
ENDBRANCH   2   3
ENDBRANCH   1   2
BRANCH   1   9
ATOM      9  C   UNL     1      24.526  -3.273  56.442  1.00  0.00     0.000 C 
BRANCH   9  10
ATOM     10  C   UNL     1      23.967  -2.128  55.582  1.00  0.00    -0.000 C 
BRANCH  10  11
ATOM     11  C   UNL     1      23.365  -2.621  54.256  1.00  0.00    -0.000 C 
BRANCH  11  12
ATOM     12  C   UNL     1      23.398  -4.152  54.175  1.00  0.00    -0.000 C 
BRANCH  12  13
ATOM     13  C   UNL     1      21.990  -4.721  53.967  1.00  0.00    -0.003 C 
ATOM     14  C   UNL     1      21.579  -5.615  55.134  1.00  0.00     0.004 C 
ENDBRANCH  12  13
ENDBRANCH  11  12
ENDBRANCH  10  11
ENDBRANCH   9  10
ENDBRANCH   1   9
TORSDOF 10
ENDMDL
MODEL 9
REMARK VINA RESULT:    -3.727      3.473      6.783
REMARK INTER + INTRA:          -6.655
REMARK INTER:                  -5.256
REMARK INTRA:                  -1.399
REMARK UNBOUND:                -0.749
REMARK SMILES CCCCCCCCCCCC(=O)[O-]
REMARK SMILES IDX 7 1 8 2 9 3 10 4 11 5 12 6 13 7 14 8 6 9 5 10 4 11 3 12 2 13
REMARK SMILES IDX 1 14
REMARK H PARENT
REMARK Flexibility Score: inf
ROOT
ATOM      1  C   UNL     1      23.679  -3.234  58.124  1.00  0.00     0.000 C 
ENDROOT
BRANCH   1   2
ATOM      2  C   UNL     1      24.463  -3.279  56.801  1.00  0.00     0.000 C 
BRANCH   2   3
ATOM      3  C   UNL     1      24.065  -2.210  55.762  1.00  0.00     0.000 C 
BRANCH   3   4
ATOM      4  C   UNL     1      23.403  -2.756  54.484  1.00  0.00     0.006 C 
BRANCH   4   5
ATOM      5  C   UNL     1      23.365  -4.288  54.442  1.00  0.00     0.053 C 
BRANCH   5   6
ATOM      6  C   UNL     1      24.272  -4.804  53.370  1.00  0.00     0.041 C 
ATOM      7  O   UNL     1      24.114  -4.437  52.175  1.00  0.00    -0.550 OA
ATOM      8  O   UNL     1      25.324  -5.650  53.696  1.00  0.00    -0.550 OA
ENDBRANCH   5   6
ENDBRANCH   4   5
ENDBRANCH   3   4
ENDBRANCH   2   3
ENDBRANCH   1   2
BRANCH   1   9
ATOM      9  C   UNL     1      22.256  -2.675  57.955  1.00  0.00     0.000 C 
BRANCH   9  10
ATOM     10  C   UNL     1      21.228  -3.768  57.623  1.00  0.00    -0.000 C 
BRANCH  10  11
ATOM     11  C   UNL     1      20.092  -3.261  56.720  1.00  0.00    -0.000 C 
BRANCH  11  12
ATOM     12  C   UNL     1      20.301  -1.787  56.352  1.00  0.00    -0.000 C 
BRANCH  12  13
ATOM     13  C   UNL     1      19.362  -1.365  55.217  1.00  0.00    -0.003 C 
ATOM     14  C   UNL     1      19.924  -1.769  53.857  1.00  0.00     0.004 C 
ENDBRANCH  12  13
ENDBRANCH  11  12
ENDBRANCH  10  11
ENDBRANCH   9  10
ENDBRANCH   1   9
TORSDOF 10
ENDMDL
