MODEL 1
REMARK VINA RESULT:    -8.064      0.000      0.000
REMARK INTER + INTRA:          -8.300
REMARK INTER:                  -8.300
REMARK INTRA:                   0.000
REMARK UNBOUND:                 0.000
REMARK SMILES CC1(C)CC[C@@]2(C)CC[C@@]3(C)C(=CC[C@@H]4[C@@]5(C)CC[C@H](O)C(C)(C)[C@@H]5CC[C@@]43C)[C@@H]2C1
REMARK SMILES IDX 1 1 2 2 4 3 5 4 6 5 8 6 9 7 10 8 12 9 13 10 14 11 15 12
REMARK SMILES IDX 28 13 27 14 26 15 25 16 16 17 18 18 19 19 20 20 22 21 23 22
REMARK SMILES IDX 24 23 17 24 29 25 30 26 31 27 11 28 7 29 3 30 21 31
REMARK H PARENT 21 32
REMARK Flexibility Score: inf
ROOT
ATOM      1  C   UNL     1     113.773 119.936 132.768  1.00  0.00     0.011 C 
ATOM      2  C   UNL     1     114.527 121.180 132.249  1.00  0.00    -0.035 C 
ATOM      3  C   UNL     1     113.496 122.153 131.611  1.00  0.00     0.007 C 
ATOM      4  C   UNL     1     114.142 123.308 130.822  1.00  0.00     0.008 C 
ATOM      5  C   UNL     1     115.159 122.830 129.748  1.00  0.00    -0.026 C 
ATOM      6  C   UNL     1     115.892 124.074 129.166  1.00  0.00     0.008 C 
ATOM      7  C   UNL     1     117.127 123.740 128.284  1.00  0.00     0.012 C 
ATOM      8  C   UNL     1     118.170 122.739 128.917  1.00  0.00    -0.006 C 
ATOM      9  C   UNL     1     117.318 121.566 129.420  1.00  0.00    -0.064 C 
ATOM     10  C   UNL     1     117.248 120.418 128.733  1.00  0.00    -0.027 C 
ATOM     11  C   UNL     1     118.134 120.057 127.599  1.00  0.00     0.032 C 
ATOM     12  C   UNL     1     118.784 121.238 126.808  1.00  0.00     0.006 C 
ATOM     13  C   UNL     1     119.322 122.302 127.852  1.00  0.00    -0.020 C 
ATOM     14  C   UNL     1     120.558 121.641 128.592  1.00  0.00     0.008 C 
ATOM     15  C   UNL     1     121.419 120.622 127.779  1.00  0.00     0.005 C 
ATOM     16  C   UNL     1     121.340 120.890 126.266  1.00  0.00     0.003 C 
ATOM     17  C   UNL     1     119.875 120.700 125.728  1.00  0.00    -0.025 C 
ATOM     18  C   UNL     1     119.800 121.507 124.399  1.00  0.00     0.010 C 
ATOM     19  C   UNL     1     120.887 121.097 123.372  1.00  0.00     0.033 C 
ATOM     20  C   UNL     1     122.331 121.104 123.931  1.00  0.00     0.120 C 
ATOM     21  C   UNL     1     122.517 120.405 125.332  1.00  0.00    -0.006 C 
ATOM     22  C   UNL     1     123.876 120.906 125.908  1.00  0.00     0.014 C 
ATOM     23  C   UNL     1     122.629 118.859 125.209  1.00  0.00     0.014 C 
ATOM     24  C   UNL     1     119.560 119.210 125.356  1.00  0.00     0.012 C 
ATOM     25  C   UNL     1     119.770 123.627 127.120  1.00  0.00     0.012 C 
ATOM     26  C   UNL     1     116.212 121.910 130.429  1.00  0.00     0.022 C 
ATOM     27  C   UNL     1     115.563 120.721 131.183  1.00  0.00     0.015 C 
ATOM     28  C   UNL     1     118.849 123.422 130.155  1.00  0.00     0.017 C 
ATOM     29  C   UNL     1     114.398 122.116 128.595  1.00  0.00     0.012 C 
ATOM     30  C   UNL     1     115.226 121.843 133.461  1.00  0.00     0.011 C 
ENDROOT
BRANCH  20  31
ATOM     31  O   UNL     1     123.184 120.529 122.971  1.00  0.00    -0.393 OA
ATOM     32  H   UNL     1     122.905 119.583 122.850  1.00  0.00     0.210 HD
ENDBRANCH  20  31
TORSDOF 1
ENDMDL
MODEL 2
REMARK VINA RESULT:    -7.561      2.738      8.178
REMARK INTER + INTRA:          -7.782
REMARK INTER:                  -7.782
REMARK INTRA:                   0.000
REMARK UNBOUND:                 0.000
REMARK SMILES CC1(C)CC[C@@]2(C)CC[C@@]3(C)C(=CC[C@@H]4[C@@]5(C)CC[C@H](O)C(C)(C)[C@@H]5CC[C@@]43C)[C@@H]2C1
REMARK SMILES IDX 1 1 2 2 4 3 5 4 6 5 8 6 9 7 10 8 12 9 13 10 14 11 15 12
REMARK SMILES IDX 28 13 27 14 26 15 25 16 16 17 18 18 19 19 20 20 22 21 23 22
REMARK SMILES IDX 24 23 17 24 29 25 30 26 31 27 11 28 7 29 3 30 21 31
REMARK H PARENT 21 32
REMARK Flexibility Score: inf
ROOT
ATOM      1  C   UNL     1     124.777 122.241 126.017  1.00  0.00     0.011 C 
ATOM      2  C   UNL     1     123.702 121.142 126.167  1.00  0.00    -0.035 C 
ATOM      3  C   UNL     1     123.312 120.635 124.751  1.00  0.00     0.007 C 
ATOM      4  C   UNL     1     122.066 119.729 124.739  1.00  0.00     0.008 C 
ATOM      5  C   UNL     1     120.831 120.367 125.436  1.00  0.00    -0.026 C 
ATOM      6  C   UNL     1     119.710 119.293 125.547  1.00  0.00     0.008 C 
ATOM      7  C   UNL     1     118.520 119.695 126.462  1.00  0.00     0.012 C 
ATOM      8  C   UNL     1     118.909 120.228 127.896  1.00  0.00    -0.006 C 
ATOM      9  C   UNL     1     119.991 121.283 127.632  1.00  0.00    -0.064 C 
ATOM     10  C   UNL     1     119.704 122.592 127.671  1.00  0.00    -0.027 C 
ATOM     11  C   UNL     1     118.441 123.164 128.197  1.00  0.00     0.032 C 
ATOM     12  C   UNL     1     117.185 122.234 128.181  1.00  0.00     0.006 C 
ATOM     13  C   UNL     1     117.617 120.802 128.705  1.00  0.00    -0.020 C 
ATOM     14  C   UNL     1     117.936 120.950 130.251  1.00  0.00     0.008 C 
ATOM     15  C   UNL     1     117.131 122.025 131.049  1.00  0.00     0.005 C 
ATOM     16  C   UNL     1     115.765 122.309 130.401  1.00  0.00     0.003 C 
ATOM     17  C   UNL     1     115.930 122.916 128.960  1.00  0.00    -0.025 C 
ATOM     18  C   UNL     1     114.588 122.638 128.223  1.00  0.00     0.010 C 
ATOM     19  C   UNL     1     113.350 123.186 128.978  1.00  0.00     0.033 C 
ATOM     20  C   UNL     1     113.257 122.744 130.459  1.00  0.00     0.120 C 
ATOM     21  C   UNL     1     114.590 122.879 131.290  1.00  0.00    -0.006 C 
ATOM     22  C   UNL     1     114.422 121.989 132.559  1.00  0.00     0.014 C 
ATOM     23  C   UNL     1     114.827 124.331 131.793  1.00  0.00     0.014 C 
ATOM     24  C   UNL     1     116.106 124.474 128.981  1.00  0.00     0.012 C 
ATOM     25  C   UNL     1     116.459 119.752 128.487  1.00  0.00     0.012 C 
ATOM     26  C   UNL     1     121.237 120.806 126.872  1.00  0.00     0.022 C 
ATOM     27  C   UNL     1     122.463 121.757 126.879  1.00  0.00     0.015 C 
ATOM     28  C   UNL     1     119.551 119.057 128.720  1.00  0.00     0.017 C 
ATOM     29  C   UNL     1     120.305 121.550 124.576  1.00  0.00     0.012 C 
ATOM     30  C   UNL     1     124.320 119.996 127.007  1.00  0.00     0.011 C 
ENDROOT
BRANCH  20  31
ATOM     31  O   UNL     1     112.213 123.461 131.074  1.00  0.00    -0.393 OA
ATOM     32  H   UNL     1     111.429 122.855 131.137  1.00  0.00     0.210 HD
ENDBRANCH  20  31
TORSDOF 1
ENDMDL
MODEL 3
REMARK VINA RESULT:    -7.127      3.280      8.325
REMARK INTER + INTRA:          -7.336
REMARK INTER:                  -7.336
REMARK INTRA:                   0.000
REMARK UNBOUND:                 0.000
REMARK SMILES CC1(C)CC[C@@]2(C)CC[C@@]3(C)C(=CC[C@@H]4[C@@]5(C)CC[C@H](O)C(C)(C)[C@@H]5CC[C@@]43C)[C@@H]2C1
REMARK SMILES IDX 1 1 2 2 4 3 5 4 6 5 8 6 9 7 10 8 12 9 13 10 14 11 15 12
REMARK SMILES IDX 28 13 27 14 26 15 25 16 16 17 18 18 19 19 20 20 22 21 23 22
REMARK SMILES IDX 24 23 17 24 29 25 30 26 31 27 11 28 7 29 3 30 21 31
REMARK H PARENT 21 32
REMARK Flexibility Score: inf
ROOT
ATOM      1  C   UNL     1     122.364 119.647 121.876  1.00  0.00     0.011 C 
ATOM      2  C   UNL     1     122.887 120.023 123.279  1.00  0.00    -0.035 C 
ATOM      3  C   UNL     1     123.126 118.715 124.085  1.00  0.00     0.007 C 
ATOM      4  C   UNL     1     123.396 118.953 125.584  1.00  0.00     0.008 C 
ATOM      5  C   UNL     1     122.305 119.816 126.279  1.00  0.00    -0.026 C 
ATOM      6  C   UNL     1     122.784 120.159 127.719  1.00  0.00     0.008 C 
ATOM      7  C   UNL     1     121.932 121.240 128.441  1.00  0.00     0.012 C 
ATOM      8  C   UNL     1     121.669 122.565 127.623  1.00  0.00    -0.006 C 
ATOM      9  C   UNL     1     121.186 122.077 126.251  1.00  0.00    -0.064 C 
ATOM     10  C   UNL     1     119.885 122.104 125.927  1.00  0.00    -0.027 C 
ATOM     11  C   UNL     1     118.836 122.805 126.705  1.00  0.00     0.032 C 
ATOM     12  C   UNL     1     119.122 123.041 128.223  1.00  0.00     0.006 C 
ATOM     13  C   UNL     1     120.615 123.550 128.377  1.00  0.00    -0.020 C 
ATOM     14  C   UNL     1     120.671 125.013 127.769  1.00  0.00     0.008 C 
ATOM     15  C   UNL     1     119.380 125.884 127.877  1.00  0.00     0.005 C 
ATOM     16  C   UNL     1     118.506 125.460 129.070  1.00  0.00     0.003 C 
ATOM     17  C   UNL     1     117.986 123.986 128.903  1.00  0.00    -0.025 C 
ATOM     18  C   UNL     1     117.625 123.495 130.335  1.00  0.00     0.010 C 
ATOM     19  C   UNL     1     116.616 124.421 131.063  1.00  0.00     0.033 C 
ATOM     20  C   UNL     1     117.021 125.915 131.087  1.00  0.00     0.120 C 
ATOM     21  C   UNL     1     117.509 126.505 129.709  1.00  0.00    -0.006 C 
ATOM     22  C   UNL     1     118.277 127.823 130.031  1.00  0.00     0.014 C 
ATOM     23  C   UNL     1     116.324 126.896 128.782  1.00  0.00     0.014 C 
ATOM     24  C   UNL     1     116.663 123.907 128.065  1.00  0.00     0.012 C 
ATOM     25  C   UNL     1     121.045 123.575 129.896  1.00  0.00     0.012 C 
ATOM     26  C   UNL     1     122.134 121.142 125.485  1.00  0.00     0.022 C 
ATOM     27  C   UNL     1     121.816 120.902 123.987  1.00  0.00     0.015 C 
ATOM     28  C   UNL     1     123.029 123.322 127.426  1.00  0.00     0.017 C 
ATOM     29  C   UNL     1     120.983 119.002 126.374  1.00  0.00     0.012 C 
ATOM     30  C   UNL     1     124.214 120.799 123.092  1.00  0.00     0.011 C 
ENDROOT
BRANCH  20  31
ATOM     31  O   UNL     1     115.940 126.662 131.593  1.00  0.00    -0.393 OA
ATOM     32  H   UNL     1     115.845 126.437 132.556  1.00  0.00     0.210 HD
ENDBRANCH  20  31
TORSDOF 1
ENDMDL
MODEL 4
REMARK VINA RESULT:    -7.013      3.802      6.147
REMARK INTER + INTRA:          -7.218
REMARK INTER:                  -7.218
REMARK INTRA:                   0.000
REMARK UNBOUND:                 0.000
REMARK SMILES CC1(C)CC[C@@]2(C)CC[C@@]3(C)C(=CC[C@@H]4[C@@]5(C)CC[C@H](O)C(C)(C)[C@@H]5CC[C@@]43C)[C@@H]2C1
REMARK SMILES IDX 1 1 2 2 4 3 5 4 6 5 8 6 9 7 10 8 12 9 13 10 14 11 15 12
REMARK SMILES IDX 28 13 27 14 26 15 25 16 16 17 18 18 19 19 20 20 22 21 23 22
REMARK SMILES IDX 24 23 17 24 29 25 30 26 31 27 11 28 7 29 3 30 21 31
REMARK H PARENT 21 32
REMARK Flexibility Score: inf
ROOT
ATOM      1  C   UNL     1     120.803 130.697 131.777  1.00  0.00     0.011 C 
ATOM      2  C   UNL     1     119.567 130.116 131.056  1.00  0.00    -0.035 C 
ATOM      3  C   UNL     1     118.343 130.221 132.009  1.00  0.00     0.007 C 
ATOM      4  C   UNL     1     117.109 129.441 131.519  1.00  0.00     0.008 C 
ATOM      5  C   UNL     1     117.408 127.949 131.198  1.00  0.00    -0.026 C 
ATOM      6  C   UNL     1     116.153 127.323 130.522  1.00  0.00     0.008 C 
ATOM      7  C   UNL     1     116.390 125.921 129.895  1.00  0.00     0.012 C 
ATOM      8  C   UNL     1     117.641 125.801 128.939  1.00  0.00    -0.006 C 
ATOM      9  C   UNL     1     118.792 126.428 129.737  1.00  0.00    -0.064 C 
ATOM     10  C   UNL     1     119.703 125.662 130.353  1.00  0.00    -0.027 C 
ATOM     11  C   UNL     1     119.859 124.202 130.146  1.00  0.00     0.032 C 
ATOM     12  C   UNL     1     118.599 123.423 129.646  1.00  0.00     0.006 C 
ATOM     13  C   UNL     1     117.919 124.261 128.487  1.00  0.00    -0.020 C 
ATOM     14  C   UNL     1     118.895 124.204 127.240  1.00  0.00     0.008 C 
ATOM     15  C   UNL     1     119.761 122.916 127.066  1.00  0.00     0.005 C 
ATOM     16  C   UNL     1     119.099 121.692 127.721  1.00  0.00     0.003 C 
ATOM     17  C   UNL     1     118.962 121.880 129.276  1.00  0.00    -0.025 C 
ATOM     18  C   UNL     1     117.832 120.909 129.726  1.00  0.00     0.010 C 
ATOM     19  C   UNL     1     118.086 119.438 129.308  1.00  0.00     0.033 C 
ATOM     20  C   UNL     1     118.401 119.246 127.805  1.00  0.00     0.120 C 
ATOM     21  C   UNL     1     119.460 120.246 127.202  1.00  0.00    -0.006 C 
ATOM     22  C   UNL     1     119.296 120.196 125.652  1.00  0.00     0.014 C 
ATOM     23  C   UNL     1     120.922 119.812 127.508  1.00  0.00     0.014 C 
ATOM     24  C   UNL     1     120.253 121.442 130.050  1.00  0.00     0.012 C 
ATOM     25  C   UNL     1     116.513 123.654 128.106  1.00  0.00     0.012 C 
ATOM     26  C   UNL     1     118.594 127.880 130.194  1.00  0.00     0.022 C 
ATOM     27  C   UNL     1     119.853 128.626 130.710  1.00  0.00     0.015 C 
ATOM     28  C   UNL     1     117.393 126.675 127.660  1.00  0.00     0.017 C 
ATOM     29  C   UNL     1     117.697 127.182 132.519  1.00  0.00     0.012 C 
ATOM     30  C   UNL     1     119.335 130.954 129.775  1.00  0.00     0.011 C 
ENDROOT
BRANCH  20  31
ATOM     31  O   UNL     1     118.803 117.912 127.600  1.00  0.00    -0.393 OA
ATOM     32  H   UNL     1     119.790 117.909 127.493  1.00  0.00     0.210 HD
ENDBRANCH  20  31
TORSDOF 1
ENDMDL
MODEL 5
REMARK VINA RESULT:    -6.999      3.237      7.336
REMARK INTER + INTRA:          -7.204
REMARK INTER:                  -7.204
REMARK INTRA:                   0.000
REMARK UNBOUND:                 0.000
REMARK SMILES CC1(C)CC[C@@]2(C)CC[C@@]3(C)C(=CC[C@@H]4[C@@]5(C)CC[C@H](O)C(C)(C)[C@@H]5CC[C@@]43C)[C@@H]2C1
REMARK SMILES IDX 1 1 2 2 4 3 5 4 6 5 8 6 9 7 10 8 12 9 13 10 14 11 15 12
REMARK SMILES IDX 28 13 27 14 26 15 25 16 16 17 18 18 19 19 20 20 22 21 23 22
REMARK SMILES IDX 24 23 17 24 29 25 30 26 31 27 11 28 7 29 3 30 21 31
REMARK H PARENT 21 32
REMARK Flexibility Score: inf
ROOT
ATOM      1  C   UNL     1     122.379 116.780 125.294  1.00  0.00     0.011 C 
ATOM      2  C   UNL     1     121.353 116.800 126.449  1.00  0.00    -0.035 C 
ATOM      3  C   UNL     1     120.113 115.965 126.023  1.00  0.00     0.007 C 
ATOM      4  C   UNL     1     118.908 116.119 126.971  1.00  0.00     0.008 C 
ATOM      5  C   UNL     1     118.497 117.599 127.212  1.00  0.00    -0.026 C 
ATOM      6  C   UNL     1     117.418 117.641 128.333  1.00  0.00     0.008 C 
ATOM      7  C   UNL     1     117.108 119.063 128.877  1.00  0.00     0.012 C 
ATOM      8  C   UNL     1     118.364 119.925 129.295  1.00  0.00    -0.006 C 
ATOM      9  C   UNL     1     119.319 119.813 128.100  1.00  0.00    -0.064 C 
ATOM     10  C   UNL     1     119.439 120.813 127.215  1.00  0.00    -0.027 C 
ATOM     11  C   UNL     1     118.892 122.178 127.403  1.00  0.00     0.032 C 
ATOM     12  C   UNL     1     117.671 122.321 128.369  1.00  0.00     0.006 C 
ATOM     13  C   UNL     1     117.956 121.458 129.667  1.00  0.00    -0.020 C 
ATOM     14  C   UNL     1     119.125 122.180 130.456  1.00  0.00     0.008 C 
ATOM     15  C   UNL     1     119.216 123.735 130.339  1.00  0.00     0.005 C 
ATOM     16  C   UNL     1     117.846 124.362 130.028  1.00  0.00     0.003 C 
ATOM     17  C   UNL     1     117.301 123.883 128.633  1.00  0.00    -0.025 C 
ATOM     18  C   UNL     1     115.761 124.100 128.678  1.00  0.00     0.010 C 
ATOM     19  C   UNL     1     115.358 125.557 129.024  1.00  0.00     0.033 C 
ATOM     20  C   UNL     1     116.023 126.117 130.305  1.00  0.00     0.120 C 
ATOM     21  C   UNL     1     117.575 125.866 130.427  1.00  0.00    -0.006 C 
ATOM     22  C   UNL     1     117.949 126.080 131.925  1.00  0.00     0.014 C 
ATOM     23  C   UNL     1     118.405 126.895 129.609  1.00  0.00     0.014 C 
ATOM     24  C   UNL     1     117.834 124.759 127.446  1.00  0.00     0.012 C 
ATOM     25  C   UNL     1     116.666 121.363 130.571  1.00  0.00     0.012 C 
ATOM     26  C   UNL     1     119.743 118.394 127.696  1.00  0.00     0.022 C 
ATOM     27  C   UNL     1     120.941 118.276 126.717  1.00  0.00     0.015 C 
ATOM     28  C   UNL     1     119.049 119.260 130.540  1.00  0.00     0.017 C 
ATOM     29  C   UNL     1     117.884 118.186 125.909  1.00  0.00     0.012 C 
ATOM     30  C   UNL     1     122.034 116.173 127.690  1.00  0.00     0.011 C 
ENDROOT
BRANCH  20  31
ATOM     31  O   UNL     1     115.734 127.492 130.393  1.00  0.00    -0.393 OA
ATOM     32  H   UNL     1     116.595 127.984 130.341  1.00  0.00     0.210 HD
ENDBRANCH  20  31
TORSDOF 1
ENDMDL
MODEL 6
REMARK VINA RESULT:    -6.811      9.076     12.013
REMARK INTER + INTRA:          -7.010
REMARK INTER:                  -7.010
REMARK INTRA:                   0.000
REMARK UNBOUND:                 0.000
REMARK SMILES CC1(C)CC[C@@]2(C)CC[C@@]3(C)C(=CC[C@@H]4[C@@]5(C)CC[C@H](O)C(C)(C)[C@@H]5CC[C@@]43C)[C@@H]2C1
REMARK SMILES IDX 1 1 2 2 4 3 5 4 6 5 8 6 9 7 10 8 12 9 13 10 14 11 15 12
REMARK SMILES IDX 28 13 27 14 26 15 25 16 16 17 18 18 19 19 20 20 22 21 23 22
REMARK SMILES IDX 24 23 17 24 29 25 30 26 31 27 11 28 7 29 3 30 21 31
REMARK H PARENT 21 32
REMARK Flexibility Score: inf
ROOT
ATOM      1  C   UNL     1     126.500 123.375 119.296  1.00  0.00     0.011 C 
ATOM      2  C   UNL     1     126.411 121.925 119.820  1.00  0.00    -0.035 C 
ATOM      3  C   UNL     1     124.920 121.484 119.807  1.00  0.00     0.007 C 
ATOM      4  C   UNL     1     124.660 120.159 120.549  1.00  0.00     0.008 C 
ATOM      5  C   UNL     1     125.206 120.148 122.004  1.00  0.00    -0.026 C 
ATOM      6  C   UNL     1     125.073 118.707 122.576  1.00  0.00     0.008 C 
ATOM      7  C   UNL     1     125.825 118.472 123.916  1.00  0.00     0.012 C 
ATOM      8  C   UNL     1     127.335 118.933 123.943  1.00  0.00    -0.006 C 
ATOM      9  C   UNL     1     127.309 120.360 123.382  1.00  0.00    -0.064 C 
ATOM     10  C   UNL     1     127.396 121.424 124.194  1.00  0.00    -0.027 C 
ATOM     11  C   UNL     1     127.765 121.363 125.628  1.00  0.00     0.032 C 
ATOM     12  C   UNL     1     127.497 120.012 126.369  1.00  0.00     0.006 C 
ATOM     13  C   UNL     1     127.979 118.826 125.435  1.00  0.00    -0.020 C 
ATOM     14  C   UNL     1     129.562 118.897 125.376  1.00  0.00     0.008 C 
ATOM     15  C   UNL     1     130.303 119.442 126.638  1.00  0.00     0.005 C 
ATOM     16  C   UNL     1     129.479 119.226 127.919  1.00  0.00     0.003 C 
ATOM     17  C   UNL     1     128.124 120.022 127.870  1.00  0.00    -0.025 C 
ATOM     18  C   UNL     1     127.177 119.318 128.884  1.00  0.00     0.010 C 
ATOM     19  C   UNL     1     127.775 119.216 130.311  1.00  0.00     0.033 C 
ATOM     20  C   UNL     1     129.191 118.593 130.368  1.00  0.00     0.120 C 
ATOM     21  C   UNL     1     130.219 119.153 129.312  1.00  0.00    -0.006 C 
ATOM     22  C   UNL     1     131.384 118.120 129.226  1.00  0.00     0.014 C 
ATOM     23  C   UNL     1     130.851 120.500 129.762  1.00  0.00     0.014 C 
ATOM     24  C   UNL     1     128.279 121.502 128.367  1.00  0.00     0.012 C 
ATOM     25  C   UNL     1     127.518 117.433 126.016  1.00  0.00     0.012 C 
ATOM     26  C   UNL     1     126.714 120.531 121.977  1.00  0.00     0.022 C 
ATOM     27  C   UNL     1     126.969 121.888 121.271  1.00  0.00     0.015 C 
ATOM     28  C   UNL     1     128.162 118.031 122.961  1.00  0.00     0.017 C 
ATOM     29  C   UNL     1     124.361 121.113 122.883  1.00  0.00     0.012 C 
ATOM     30  C   UNL     1     127.252 121.033 118.873  1.00  0.00     0.011 C 
ENDROOT
BRANCH  20  31
ATOM     31  O   UNL     1     129.691 118.741 131.676  1.00  0.00    -0.393 OA
ATOM     32  H   UNL     1     130.162 119.614 131.720  1.00  0.00     0.210 HD
ENDBRANCH  20  31
TORSDOF 1
ENDMDL
MODEL 7
REMARK VINA RESULT:    -6.756      3.115      4.772
REMARK INTER + INTRA:          -6.954
REMARK INTER:                  -6.954
REMARK INTRA:                   0.000
REMARK UNBOUND:                 0.000
REMARK SMILES CC1(C)CC[C@@]2(C)CC[C@@]3(C)C(=CC[C@@H]4[C@@]5(C)CC[C@H](O)C(C)(C)[C@@H]5CC[C@@]43C)[C@@H]2C1
REMARK SMILES IDX 1 1 2 2 4 3 5 4 6 5 8 6 9 7 10 8 12 9 13 10 14 11 15 12
REMARK SMILES IDX 28 13 27 14 26 15 25 16 16 17 18 18 19 19 20 20 22 21 23 22
REMARK SMILES IDX 24 23 17 24 29 25 30 26 31 27 11 28 7 29 3 30 21 31
REMARK H PARENT 21 32
REMARK Flexibility Score: inf
ROOT
ATOM      1  C   UNL     1     117.140 128.178 132.844  1.00  0.00     0.011 C 
ATOM      2  C   UNL     1     117.363 127.668 131.404  1.00  0.00    -0.035 C 
ATOM      3  C   UNL     1     115.998 127.671 130.661  1.00  0.00     0.007 C 
ATOM      4  C   UNL     1     116.030 126.940 129.305  1.00  0.00     0.008 C 
ATOM      5  C   UNL     1     116.583 125.490 129.398  1.00  0.00    -0.026 C 
ATOM      6  C   UNL     1     116.761 124.931 127.957  1.00  0.00     0.008 C 
ATOM      7  C   UNL     1     117.561 123.600 127.875  1.00  0.00     0.012 C 
ATOM      8  C   UNL     1     118.941 123.583 128.642  1.00  0.00    -0.006 C 
ATOM      9  C   UNL     1     118.610 124.130 130.036  1.00  0.00    -0.064 C 
ATOM     10  C   UNL     1     118.481 123.309 131.088  1.00  0.00    -0.027 C 
ATOM     11  C   UNL     1     118.870 121.878 131.095  1.00  0.00     0.032 C 
ATOM     12  C   UNL     1     118.900 121.149 129.713  1.00  0.00     0.006 C 
ATOM     13  C   UNL     1     119.610 122.098 128.662  1.00  0.00    -0.020 C 
ATOM     14  C   UNL     1     121.142 122.172 129.063  1.00  0.00     0.008 C 
ATOM     15  C   UNL     1     121.766 120.911 129.743  1.00  0.00     0.005 C 
ATOM     16  C   UNL     1     121.020 119.625 129.349  1.00  0.00     0.003 C 
ATOM     17  C   UNL     1     119.528 119.653 129.844  1.00  0.00    -0.025 C 
ATOM     18  C   UNL     1     118.761 118.637 128.949  1.00  0.00     0.010 C 
ATOM     19  C   UNL     1     119.383 117.217 128.963  1.00  0.00     0.033 C 
ATOM     20  C   UNL     1     120.899 117.179 128.651  1.00  0.00     0.120 C 
ATOM     21  C   UNL     1     121.775 118.240 129.422  1.00  0.00    -0.006 C 
ATOM     22  C   UNL     1     123.129 118.346 128.657  1.00  0.00     0.014 C 
ATOM     23  C   UNL     1     122.116 117.782 130.869  1.00  0.00     0.014 C 
ATOM     24  C   UNL     1     119.375 119.144 131.319  1.00  0.00     0.012 C 
ATOM     25  C   UNL     1     119.457 121.527 127.199  1.00  0.00     0.012 C 
ATOM     26  C   UNL     1     117.976 125.528 130.089  1.00  0.00     0.022 C 
ATOM     27  C   UNL     1     117.934 126.222 131.475  1.00  0.00     0.015 C 
ATOM     28  C   UNL     1     119.928 124.581 127.941  1.00  0.00     0.017 C 
ATOM     29  C   UNL     1     115.564 124.594 130.157  1.00  0.00     0.012 C 
ATOM     30  C   UNL     1     118.362 128.631 130.716  1.00  0.00     0.011 C 
ENDROOT
BRANCH  20  31
ATOM     31  O   UNL     1     121.371 115.875 128.891  1.00  0.00    -0.393 OA
ATOM     32  H   UNL     1     122.362 115.899 128.831  1.00  0.00     0.210 HD
ENDBRANCH  20  31
TORSDOF 1
ENDMDL
MODEL 8
REMARK VINA RESULT:    -6.705      3.711      8.609
REMARK INTER + INTRA:          -6.901
REMARK INTER:                  -6.901
REMARK INTRA:                   0.000
REMARK UNBOUND:                 0.000
REMARK SMILES CC1(C)CC[C@@]2(C)CC[C@@]3(C)C(=CC[C@@H]4[C@@]5(C)CC[C@H](O)C(C)(C)[C@@H]5CC[C@@]43C)[C@@H]2C1
REMARK SMILES IDX 1 1 2 2 4 3 5 4 6 5 8 6 9 7 10 8 12 9 13 10 14 11 15 12
REMARK SMILES IDX 28 13 27 14 26 15 25 16 16 17 18 18 19 19 20 20 22 21 23 22
REMARK SMILES IDX 24 23 17 24 29 25 30 26 31 27 11 28 7 29 3 30 21 31
REMARK H PARENT 21 32
REMARK Flexibility Score: inf
ROOT
ATOM      1  C   UNL     1     127.601 123.648 127.126  1.00  0.00     0.011 C 
ATOM      2  C   UNL     1     126.769 123.053 128.283  1.00  0.00    -0.035 C 
ATOM      3  C   UNL     1     126.825 121.503 128.186  1.00  0.00     0.007 C 
ATOM      4  C   UNL     1     125.827 120.788 129.118  1.00  0.00     0.008 C 
ATOM      5  C   UNL     1     124.362 121.281 128.949  1.00  0.00    -0.026 C 
ATOM      6  C   UNL     1     123.490 120.647 130.072  1.00  0.00     0.008 C 
ATOM      7  C   UNL     1     122.066 121.256 130.204  1.00  0.00     0.012 C 
ATOM      8  C   UNL     1     122.000 122.831 130.285  1.00  0.00    -0.006 C 
ATOM      9  C   UNL     1     122.874 123.312 129.120  1.00  0.00    -0.064 C 
ATOM     10  C   UNL     1     122.323 123.755 127.980  1.00  0.00    -0.027 C 
ATOM     11  C   UNL     1     120.884 124.064 127.802  1.00  0.00     0.032 C 
ATOM     12  C   UNL     1     119.883 123.334 128.755  1.00  0.00     0.006 C 
ATOM     13  C   UNL     1     120.468 123.382 130.227  1.00  0.00    -0.020 C 
ATOM     14  C   UNL     1     120.389 124.890 130.709  1.00  0.00     0.008 C 
ATOM     15  C   UNL     1     119.220 125.761 130.148  1.00  0.00     0.005 C 
ATOM     16  C   UNL     1     118.010 124.900 129.749  1.00  0.00     0.003 C 
ATOM     17  C   UNL     1     118.371 123.910 128.583  1.00  0.00    -0.025 C 
ATOM     18  C   UNL     1     117.319 122.766 128.652  1.00  0.00     0.010 C 
ATOM     19  C   UNL     1     115.855 123.275 128.590  1.00  0.00     0.033 C 
ATOM     20  C   UNL     1     115.520 124.384 129.617  1.00  0.00     0.120 C 
ATOM     21  C   UNL     1     116.573 125.554 129.717  1.00  0.00    -0.006 C 
ATOM     22  C   UNL     1     116.306 126.286 131.067  1.00  0.00     0.014 C 
ATOM     23  C   UNL     1     116.385 126.612 128.593  1.00  0.00     0.014 C 
ATOM     24  C   UNL     1     118.214 124.566 127.167  1.00  0.00     0.012 C 
ATOM     25  C   UNL     1     119.630 122.457 131.193  1.00  0.00     0.012 C 
ATOM     26  C   UNL     1     124.331 122.828 129.114  1.00  0.00     0.022 C 
ATOM     27  C   UNL     1     125.301 123.549 128.143  1.00  0.00     0.015 C 
ATOM     28  C   UNL     1     122.663 123.302 131.627  1.00  0.00     0.017 C 
ATOM     29  C   UNL     1     123.814 120.817 127.570  1.00  0.00     0.012 C 
ATOM     30  C   UNL     1     127.400 123.540 129.611  1.00  0.00     0.011 C 
ENDROOT
BRANCH  20  31
ATOM     31  O   UNL     1     114.240 124.890 129.325  1.00  0.00    -0.393 OA
ATOM     32  H   UNL     1     113.794 125.095 130.189  1.00  0.00     0.210 HD
ENDBRANCH  20  31
TORSDOF 1
ENDMDL
MODEL 9
REMARK VINA RESULT:    -6.662      4.672      7.249
REMARK INTER + INTRA:          -6.857
REMARK INTER:                  -6.857
REMARK INTRA:                   0.000
REMARK UNBOUND:                 0.000
REMARK SMILES CC1(C)CC[C@@]2(C)CC[C@@]3(C)C(=CC[C@@H]4[C@@]5(C)CC[C@H](O)C(C)(C)[C@@H]5CC[C@@]43C)[C@@H]2C1
REMARK SMILES IDX 1 1 2 2 4 3 5 4 6 5 8 6 9 7 10 8 12 9 13 10 14 11 15 12
REMARK SMILES IDX 28 13 27 14 26 15 25 16 16 17 18 18 19 19 20 20 22 21 23 22
REMARK SMILES IDX 24 23 17 24 29 25 30 26 31 27 11 28 7 29 3 30 21 31
REMARK H PARENT 21 32
REMARK Flexibility Score: inf
ROOT
ATOM      1  C   UNL     1     118.733 128.525 130.230  1.00  0.00     0.011 C 
ATOM      2  C   UNL     1     118.384 127.143 129.636  1.00  0.00    -0.035 C 
ATOM      3  C   UNL     1     116.839 127.036 129.504  1.00  0.00     0.007 C 
ATOM      4  C   UNL     1     116.343 125.615 129.174  1.00  0.00     0.008 C 
ATOM      5  C   UNL     1     116.871 124.532 130.156  1.00  0.00    -0.026 C 
ATOM      6  C   UNL     1     116.480 123.129 129.608  1.00  0.00     0.008 C 
ATOM      7  C   UNL     1     117.171 121.939 130.331  1.00  0.00     0.012 C 
ATOM      8  C   UNL     1     118.739 122.048 130.484  1.00  0.00    -0.006 C 
ATOM      9  C   UNL     1     118.971 123.455 131.049  1.00  0.00    -0.064 C 
ATOM     10  C   UNL     1     119.241 123.642 132.349  1.00  0.00    -0.027 C 
ATOM     11  C   UNL     1     119.585 122.561 133.304  1.00  0.00     0.032 C 
ATOM     12  C   UNL     1     119.077 121.124 132.955  1.00  0.00     0.006 C 
ATOM     13  C   UNL     1     119.346 120.858 131.417  1.00  0.00    -0.020 C 
ATOM     14  C   UNL     1     120.916 120.740 131.234  1.00  0.00     0.008 C 
ATOM     15  C   UNL     1     121.735 120.160 132.431  1.00  0.00     0.005 C 
ATOM     16  C   UNL     1     120.879 119.233 133.310  1.00  0.00     0.003 C 
ATOM     17  C   UNL     1     119.688 120.014 133.976  1.00  0.00    -0.025 C 
ATOM     18  C   UNL     1     118.625 118.939 134.345  1.00  0.00     0.010 C 
ATOM     19  C   UNL     1     119.187 117.804 135.239  1.00  0.00     0.033 C 
ATOM     20  C   UNL     1     120.469 117.133 134.690  1.00  0.00     0.120 C 
ATOM     21  C   UNL     1     121.587 118.123 134.182  1.00  0.00    -0.006 C 
ATOM     22  C   UNL     1     122.550 117.292 133.281  1.00  0.00     0.014 C 
ATOM     23  C   UNL     1     122.446 118.689 135.348  1.00  0.00     0.014 C 
ATOM     24  C   UNL     1     120.101 120.705 135.322  1.00  0.00     0.012 C 
ATOM     25  C   UNL     1     118.641 119.527 130.947  1.00  0.00     0.012 C 
ATOM     26  C   UNL     1     118.423 124.624 130.217  1.00  0.00     0.022 C 
ATOM     27  C   UNL     1     118.920 126.043 130.597  1.00  0.00     0.015 C 
ATOM     28  C   UNL     1     119.398 121.972 129.062  1.00  0.00     0.017 C 
ATOM     29  C   UNL     1     116.206 124.726 131.548  1.00  0.00     0.012 C 
ATOM     30  C   UNL     1     119.059 127.048 128.245  1.00  0.00     0.011 C 
ENDROOT
BRANCH  20  31
ATOM     31  O   UNL     1     120.980 116.271 135.679  1.00  0.00    -0.393 OA
ATOM     32  H   UNL     1     120.815 115.339 135.379  1.00  0.00     0.210 HD
ENDBRANCH  20  31
TORSDOF 1
ENDMDL
