MODEL 1
REMARK VINA RESULT:    -5.778      0.000      0.000
REMARK INTER + INTRA:          -6.492
REMARK INTER:                  -6.285
REMARK INTRA:                  -0.207
REMARK UNBOUND:                -0.207
REMARK SMILES CC1(C)CC[C@]2(C(=O)[O-])CC[C@]3(C)C(=CC[C@H]4[C@]5(C)CC[C@@H](O)C(C)(C)[C@H]5CC[C@]43C)[C@@H]2C1
REMARK SMILES IDX 6 1 5 2 10 3 32 4 4 5 11 6 14 7 33 8 2 9 12 10 15 11 1 12
REMARK SMILES IDX 3 13 13 14 30 15 16 16 17 17 29 18 31 19 18 20 28 21 27 22
REMARK SMILES IDX 20 23 19 24 24 25 21 26 22 27 25 28 26 29 7 30 8 31 9 32
REMARK SMILES IDX 23 33
REMARK H PARENT 23 34
REMARK Flexibility Score: inf
ROOT
ATOM      1  C   UNL     1     145.396   5.227  91.207  1.00  0.00     0.017 C 
ATOM      2  C   UNL     1     145.939   4.527  92.501  1.00  0.00     0.014 C 
ATOM      3  C   UNL     1     145.569   4.248  90.006  1.00  0.00     0.014 C 
ATOM      4  C   UNL     1     146.180   6.553  90.924  1.00  0.00     0.028 C 
ATOM      5  C   UNL     1     146.616   5.506  93.476  1.00  0.00     0.007 C 
ATOM      6  C   UNL     1     145.276   4.874  88.620  1.00  0.00     0.013 C 
ATOM      7  C   UNL     1     145.889   7.076  89.506  1.00  0.00    -0.064 C 
ATOM      8  C   UNL     1     147.671   6.422  91.297  1.00  0.00     0.015 C 
ATOM      9  C   UNL     1     147.856   6.219  92.838  1.00  0.00    -0.035 C 
ATOM     10  C   UNL     1     146.102   6.172  88.283  1.00  0.00    -0.006 C 
ATOM     11  C   UNL     1     145.080   8.145  89.443  1.00  0.00    -0.027 C 
ATOM     12  C   UNL     1     148.050   7.589  93.524  1.00  0.00     0.011 C 
ATOM     13  C   UNL     1     149.125   5.374  93.090  1.00  0.00     0.011 C 
ATOM     14  C   UNL     1     147.623   5.809  88.168  1.00  0.00     0.017 C 
ATOM     15  C   UNL     1     145.629   6.853  86.876  1.00  0.00    -0.020 C 
ATOM     16  C   UNL     1     144.410   8.645  88.219  1.00  0.00     0.032 C 
ATOM     17  C   UNL     1     144.264   7.640  87.032  1.00  0.00     0.006 C 
ATOM     18  C   UNL     1     146.705   7.895  86.353  1.00  0.00     0.008 C 
ATOM     19  C   UNL     1     145.475   5.666  85.849  1.00  0.00     0.012 C 
ATOM     20  C   UNL     1     143.726   8.385  85.689  1.00  0.00    -0.025 C 
ATOM     21  C   UNL     1     146.195   9.071  85.461  1.00  0.00     0.005 C 
ATOM     22  C   UNL     1     144.914   8.687  84.702  1.00  0.00     0.003 C 
ATOM     23  C   UNL     1     142.727   7.486  84.899  1.00  0.00     0.010 C 
ATOM     24  C   UNL     1     142.931   9.674  86.091  1.00  0.00     0.012 C 
ATOM     25  C   UNL     1     144.559   9.429  83.357  1.00  0.00    -0.006 C 
ATOM     26  C   UNL     1     142.261   8.116  83.558  1.00  0.00     0.033 C 
ATOM     27  C   UNL     1     143.425   8.592  82.647  1.00  0.00     0.120 C 
ATOM     28  C   UNL     1     145.793   9.407  82.404  1.00  0.00     0.014 C 
ATOM     29  C   UNL     1     144.180  10.924  83.550  1.00  0.00     0.014 C 
ENDROOT
BRANCH   1  30
ATOM     30  C   UNL     1     143.916   5.541  91.421  1.00  0.00     0.048 C 
ATOM     31  O   UNL     1     143.022   4.744  91.024  1.00  0.00    -0.550 OA
ATOM     32  O   UNL     1     143.529   6.659  92.151  1.00  0.00    -0.550 OA
ENDBRANCH   1  30
BRANCH  27  33
ATOM     33  O   UNL     1     142.933   9.244  81.500  1.00  0.00    -0.393 OA
ATOM     34  H   UNL     1     142.299   9.948  81.790  1.00  0.00     0.210 HD
ENDBRANCH  27  33
TORSDOF 2
ENDMDL
MODEL 2
REMARK VINA RESULT:    -5.769      2.006      2.870
REMARK INTER + INTRA:          -6.482
REMARK INTER:                  -6.285
REMARK INTRA:                  -0.197
REMARK UNBOUND:                -0.207
REMARK SMILES CC1(C)CC[C@]2(C(=O)[O-])CC[C@]3(C)C(=CC[C@H]4[C@]5(C)CC[C@@H](O)C(C)(C)[C@H]5CC[C@]43C)[C@@H]2C1
REMARK SMILES IDX 6 1 5 2 10 3 32 4 4 5 11 6 14 7 33 8 2 9 12 10 15 11 1 12
REMARK SMILES IDX 3 13 13 14 30 15 16 16 17 17 29 18 31 19 18 20 28 21 27 22
REMARK SMILES IDX 20 23 19 24 24 25 21 26 22 27 25 28 26 29 7 30 8 31 9 32
REMARK SMILES IDX 23 33
REMARK H PARENT 23 34
REMARK Flexibility Score: inf
ROOT
ATOM      1  C   UNL     1     145.444   6.154  91.961  1.00  0.00     0.017 C 
ATOM      2  C   UNL     1     145.480   5.953  93.516  1.00  0.00     0.014 C 
ATOM      3  C   UNL     1     146.903   6.362  91.454  1.00  0.00     0.014 C 
ATOM      4  C   UNL     1     144.572   7.398  91.583  1.00  0.00     0.028 C 
ATOM      5  C   UNL     1     144.262   6.565  94.230  1.00  0.00     0.007 C 
ATOM      6  C   UNL     1     147.014   6.785  89.969  1.00  0.00     0.013 C 
ATOM      7  C   UNL     1     144.786   7.799  90.113  1.00  0.00    -0.064 C 
ATOM      8  C   UNL     1     144.725   8.534  92.615  1.00  0.00     0.015 C 
ATOM      9  C   UNL     1     144.160   8.112  94.013  1.00  0.00    -0.035 C 
ATOM     10  C   UNL     1     146.199   8.076  89.578  1.00  0.00    -0.006 C 
ATOM     11  C   UNL     1     143.781   7.485  89.280  1.00  0.00    -0.027 C 
ATOM     12  C   UNL     1     142.678   8.533  94.124  1.00  0.00     0.011 C 
ATOM     13  C   UNL     1     144.949   8.843  95.122  1.00  0.00     0.011 C 
ATOM     14  C   UNL     1     146.798   9.319  90.324  1.00  0.00     0.017 C 
ATOM     15  C   UNL     1     146.246   8.368  87.973  1.00  0.00    -0.020 C 
ATOM     16  C   UNL     1     143.861   7.481  87.800  1.00  0.00     0.032 C 
ATOM     17  C   UNL     1     145.288   7.396  87.168  1.00  0.00     0.006 C 
ATOM     18  C   UNL     1     145.779   9.849  87.646  1.00  0.00     0.008 C 
ATOM     19  C   UNL     1     147.747   8.159  87.536  1.00  0.00     0.012 C 
ATOM     20  C   UNL     1     145.238   7.633  85.559  1.00  0.00    -0.025 C 
ATOM     21  C   UNL     1     145.142  10.111  86.244  1.00  0.00     0.005 C 
ATOM     22  C   UNL     1     145.652   9.107  85.197  1.00  0.00     0.003 C 
ATOM     23  C   UNL     1     146.246   6.707  84.814  1.00  0.00     0.010 C 
ATOM     24  C   UNL     1     143.815   7.255  85.021  1.00  0.00     0.012 C 
ATOM     25  C   UNL     1     145.633   9.504  83.671  1.00  0.00    -0.006 C 
ATOM     26  C   UNL     1     146.305   6.965  83.285  1.00  0.00     0.033 C 
ATOM     27  C   UNL     1     146.528   8.454  82.904  1.00  0.00     0.120 C 
ATOM     28  C   UNL     1     146.314  10.893  83.482  1.00  0.00     0.014 C 
ATOM     29  C   UNL     1     144.203   9.632  83.076  1.00  0.00     0.014 C 
ENDROOT
BRANCH   1  30
ATOM     30  C   UNL     1     144.843   4.896  91.333  1.00  0.00     0.048 C 
ATOM     31  O   UNL     1     145.579   3.930  90.990  1.00  0.00    -0.550 OA
ATOM     32  O   UNL     1     143.465   4.749  91.225  1.00  0.00    -0.550 OA
ENDBRANCH   1  30
BRANCH  27  33
ATOM     33  O   UNL     1     146.468   8.634  81.509  1.00  0.00    -0.393 OA
ATOM     34  H   UNL     1     145.559   8.953  81.277  1.00  0.00     0.210 HD
ENDBRANCH  27  33
TORSDOF 2
ENDMDL
MODEL 3
REMARK VINA RESULT:    -5.680      1.910      8.028
REMARK INTER + INTRA:          -6.385
REMARK INTER:                  -6.218
REMARK INTRA:                  -0.167
REMARK UNBOUND:                -0.207
REMARK SMILES CC1(C)CC[C@]2(C(=O)[O-])CC[C@]3(C)C(=CC[C@H]4[C@]5(C)CC[C@@H](O)C(C)(C)[C@H]5CC[C@]43C)[C@@H]2C1
REMARK SMILES IDX 6 1 5 2 10 3 32 4 4 5 11 6 14 7 33 8 2 9 12 10 15 11 1 12
REMARK SMILES IDX 3 13 13 14 30 15 16 16 17 17 29 18 31 19 18 20 28 21 27 22
REMARK SMILES IDX 20 23 19 24 24 25 21 26 22 27 25 28 26 29 7 30 8 31 9 32
REMARK SMILES IDX 23 33
REMARK H PARENT 23 34
REMARK Flexibility Score: inf
ROOT
ATOM      1  C   UNL     1     145.264   8.172  84.739  1.00  0.00     0.017 C 
ATOM      2  C   UNL     1     145.381   8.756  83.288  1.00  0.00     0.014 C 
ATOM      3  C   UNL     1     144.845   9.323  85.703  1.00  0.00     0.014 C 
ATOM      4  C   UNL     1     146.631   7.567  85.204  1.00  0.00     0.028 C 
ATOM      5  C   UNL     1     146.508   8.106  82.467  1.00  0.00     0.007 C 
ATOM      6  C   UNL     1     144.896   8.953  87.206  1.00  0.00     0.013 C 
ATOM      7  C   UNL     1     146.628   7.289  86.717  1.00  0.00    -0.064 C 
ATOM      8  C   UNL     1     147.825   8.388  84.677  1.00  0.00     0.015 C 
ATOM      9  C   UNL     1     147.917   8.322  83.115  1.00  0.00    -0.035 C 
ATOM     10  C   UNL     1     146.283   8.405  87.714  1.00  0.00    -0.006 C 
ATOM     11  C   UNL     1     146.524   5.996  87.063  1.00  0.00    -0.027 C 
ATOM     12  C   UNL     1     148.841   7.156  82.697  1.00  0.00     0.011 C 
ATOM     13  C   UNL     1     148.535   9.635  82.586  1.00  0.00     0.011 C 
ATOM     14  C   UNL     1     147.362   9.538  87.614  1.00  0.00     0.017 C 
ATOM     15  C   UNL     1     146.212   7.899  89.265  1.00  0.00    -0.020 C 
ATOM     16  C   UNL     1     146.194   5.493  88.418  1.00  0.00     0.032 C 
ATOM     17  C   UNL     1     145.494   6.493  89.394  1.00  0.00     0.006 C 
ATOM     18  C   UNL     1     147.664   7.732  89.881  1.00  0.00     0.008 C 
ATOM     19  C   UNL     1     145.410   9.009  90.048  1.00  0.00     0.012 C 
ATOM     20  C   UNL     1     145.404   5.886  90.900  1.00  0.00    -0.025 C 
ATOM     21  C   UNL     1     147.844   6.690  91.031  1.00  0.00     0.005 C 
ATOM     22  C   UNL     1     146.537   6.485  91.813  1.00  0.00     0.003 C 
ATOM     23  C   UNL     1     144.056   6.258  91.587  1.00  0.00     0.010 C 
ATOM     24  C   UNL     1     145.445   4.320  90.835  1.00  0.00     0.012 C 
ATOM     25  C   UNL     1     146.601   5.978  93.306  1.00  0.00    -0.006 C 
ATOM     26  C   UNL     1     143.964   5.783  93.062  1.00  0.00     0.033 C 
ATOM     27  C   UNL     1     145.173   6.210  93.938  1.00  0.00     0.120 C 
ATOM     28  C   UNL     1     147.598   6.859  94.117  1.00  0.00     0.014 C 
ATOM     29  C   UNL     1     147.096   4.511  93.446  1.00  0.00     0.014 C 
ENDROOT
BRANCH   1  30
ATOM     30  C   UNL     1     144.195   7.080  84.728  1.00  0.00     0.048 C 
ATOM     31  O   UNL     1     142.976   7.366  84.881  1.00  0.00    -0.550 OA
ATOM     32  O   UNL     1     144.535   5.762  84.445  1.00  0.00    -0.550 OA
ENDBRANCH   1  30
BRANCH  27  33
ATOM     33  O   UNL     1     145.079   5.662  95.232  1.00  0.00    -0.393 OA
ATOM     34  H   UNL     1     145.023   4.676  95.147  1.00  0.00     0.210 HD
ENDBRANCH  27  33
TORSDOF 2
ENDMDL
MODEL 4
REMARK VINA RESULT:    -5.675     14.794     17.087
REMARK INTER + INTRA:          -6.380
REMARK INTER:                  -6.182
REMARK INTRA:                  -0.198
REMARK UNBOUND:                -0.207
REMARK SMILES CC1(C)CC[C@]2(C(=O)[O-])CC[C@]3(C)C(=CC[C@H]4[C@]5(C)CC[C@@H](O)C(C)(C)[C@H]5CC[C@]43C)[C@@H]2C1
REMARK SMILES IDX 6 1 5 2 10 3 32 4 4 5 11 6 14 7 33 8 2 9 12 10 15 11 1 12
REMARK SMILES IDX 3 13 13 14 30 15 16 16 17 17 29 18 31 19 18 20 28 21 27 22
REMARK SMILES IDX 20 23 19 24 24 25 21 26 22 27 25 28 26 29 7 30 8 31 9 32
REMARK SMILES IDX 23 33
REMARK H PARENT 23 34
REMARK Flexibility Score: inf
ROOT
ATOM      1  C   UNL     1     133.380  -1.539  78.764  1.00  0.00     0.017 C 
ATOM      2  C   UNL     1     133.373  -3.008  79.315  1.00  0.00     0.014 C 
ATOM      3  C   UNL     1     134.657  -0.818  79.292  1.00  0.00     0.014 C 
ATOM      4  C   UNL     1     132.104  -0.765  79.236  1.00  0.00     0.028 C 
ATOM      5  C   UNL     1     131.959  -3.525  79.631  1.00  0.00     0.007 C 
ATOM      6  C   UNL     1     134.699   0.704  79.010  1.00  0.00     0.013 C 
ATOM      7  C   UNL     1     132.248   0.746  78.984  1.00  0.00    -0.064 C 
ATOM      8  C   UNL     1     131.691  -1.169  80.666  1.00  0.00     0.015 C 
ATOM      9  C   UNL     1     131.243  -2.668  80.727  1.00  0.00    -0.035 C 
ATOM     10  C   UNL     1     133.456   1.517  79.536  1.00  0.00    -0.006 C 
ATOM     11  C   UNL     1     131.532   1.228  77.956  1.00  0.00    -0.027 C 
ATOM     12  C   UNL     1     129.715  -2.763  80.515  1.00  0.00     0.011 C 
ATOM     13  C   UNL     1     131.568  -3.239  82.126  1.00  0.00     0.011 C 
ATOM     14  C   UNL     1     133.426   1.470  81.104  1.00  0.00     0.017 C 
ATOM     15  C   UNL     1     133.504   3.081  79.070  1.00  0.00    -0.020 C 
ATOM     16  C   UNL     1     131.723   2.554  77.322  1.00  0.00     0.032 C 
ATOM     17  C   UNL     1     133.102   3.255  77.548  1.00  0.00     0.006 C 
ATOM     18  C   UNL     1     132.494   3.963  79.917  1.00  0.00     0.008 C 
ATOM     19  C   UNL     1     134.986   3.562  79.314  1.00  0.00     0.012 C 
ATOM     20  C   UNL     1     133.085   4.785  76.996  1.00  0.00    -0.025 C 
ATOM     21  C   UNL     1     131.918   5.248  79.241  1.00  0.00     0.005 C 
ATOM     22  C   UNL     1     132.879   5.803  78.178  1.00  0.00     0.003 C 
ATOM     23  C   UNL     1     134.442   5.167  76.331  1.00  0.00     0.010 C 
ATOM     24  C   UNL     1     131.995   4.925  75.879  1.00  0.00     0.012 C 
ATOM     25  C   UNL     1     132.818   7.335  77.804  1.00  0.00    -0.006 C 
ATOM     26  C   UNL     1     134.509   6.649  75.875  1.00  0.00     0.033 C 
ATOM     27  C   UNL     1     134.125   7.667  76.984  1.00  0.00     0.120 C 
ATOM     28  C   UNL     1     132.875   8.195  79.103  1.00  0.00     0.014 C 
ATOM     29  C   UNL     1     131.515   7.745  77.062  1.00  0.00     0.014 C 
ENDROOT
BRANCH   1  30
ATOM     30  C   UNL     1     133.406  -1.604  77.237  1.00  0.00     0.048 C 
ATOM     31  O   UNL     1     134.500  -1.626  76.609  1.00  0.00    -0.550 OA
ATOM     32  O   UNL     1     132.226  -1.746  76.516  1.00  0.00    -0.550 OA
ENDBRANCH   1  30
BRANCH  27  33
ATOM     33  O   UNL     1     134.105   8.981  76.479  1.00  0.00    -0.393 OA
ATOM     34  H   UNL     1     134.501   8.971  75.571  1.00  0.00     0.210 HD
ENDBRANCH  27  33
TORSDOF 2
ENDMDL
MODEL 5
REMARK VINA RESULT:    -5.641      1.723      2.362
REMARK INTER + INTRA:          -6.343
REMARK INTER:                  -6.136
REMARK INTRA:                  -0.207
REMARK UNBOUND:                -0.207
REMARK SMILES CC1(C)CC[C@]2(C(=O)[O-])CC[C@]3(C)C(=CC[C@H]4[C@]5(C)CC[C@@H](O)C(C)(C)[C@H]5CC[C@]43C)[C@@H]2C1
REMARK SMILES IDX 6 1 5 2 10 3 32 4 4 5 11 6 14 7 33 8 2 9 12 10 15 11 1 12
REMARK SMILES IDX 3 13 13 14 30 15 16 16 17 17 29 18 31 19 18 20 28 21 27 22
REMARK SMILES IDX 20 23 19 24 24 25 21 26 22 27 25 28 26 29 7 30 8 31 9 32
REMARK SMILES IDX 23 33
REMARK H PARENT 23 34
REMARK Flexibility Score: inf
ROOT
ATOM      1  C   UNL     1     144.785   6.206  90.984  1.00  0.00     0.017 C 
ATOM      2  C   UNL     1     144.549   5.493  92.361  1.00  0.00     0.014 C 
ATOM      3  C   UNL     1     144.253   5.280  89.849  1.00  0.00     0.014 C 
ATOM      4  C   UNL     1     146.308   6.491  90.762  1.00  0.00     0.028 C 
ATOM      5  C   UNL     1     145.665   5.773  93.382  1.00  0.00     0.007 C 
ATOM      6  C   UNL     1     144.608   5.750  88.416  1.00  0.00     0.013 C 
ATOM      7  C   UNL     1     146.591   6.887  89.302  1.00  0.00    -0.064 C 
ATOM      8  C   UNL     1     147.187   5.358  91.331  1.00  0.00     0.015 C 
ATOM      9  C   UNL     1     147.063   5.270  92.889  1.00  0.00    -0.035 C 
ATOM     10  C   UNL     1     146.143   5.978  88.148  1.00  0.00    -0.006 C 
ATOM     11  C   UNL     1     146.843   8.189  89.098  1.00  0.00    -0.027 C 
ATOM     12  C   UNL     1     148.163   6.131  93.548  1.00  0.00     0.011 C 
ATOM     13  C   UNL     1     147.272   3.805  93.333  1.00  0.00     0.011 C 
ATOM     14  C   UNL     1     146.901   4.608  88.245  1.00  0.00     0.017 C 
ATOM     15  C   UNL     1     146.419   6.613  86.669  1.00  0.00    -0.020 C 
ATOM     16  C   UNL     1     146.842   8.869  87.781  1.00  0.00     0.032 C 
ATOM     17  C   UNL     1     146.076   8.159  86.619  1.00  0.00     0.006 C 
ATOM     18  C   UNL     1     147.944   6.466  86.257  1.00  0.00     0.008 C 
ATOM     19  C   UNL     1     145.503   5.806  85.671  1.00  0.00     0.012 C 
ATOM     20  C   UNL     1     146.352   8.893  85.193  1.00  0.00    -0.025 C 
ATOM     21  C   UNL     1     148.528   7.523  85.267  1.00  0.00     0.005 C 
ATOM     22  C   UNL     1     147.434   8.111  84.361  1.00  0.00     0.003 C 
ATOM     23  C   UNL     1     145.068   8.925  84.310  1.00  0.00     0.010 C 
ATOM     24  C   UNL     1     146.747  10.389  85.445  1.00  0.00     0.012 C 
ATOM     25  C   UNL     1     147.831   8.709  82.956  1.00  0.00    -0.006 C 
ATOM     26  C   UNL     1     145.306   9.529  82.900  1.00  0.00     0.033 C 
ATOM     27  C   UNL     1     146.497   8.891  82.133  1.00  0.00     0.120 C 
ATOM     28  C   UNL     1     148.701   7.679  82.174  1.00  0.00     0.014 C 
ATOM     29  C   UNL     1     148.671  10.014  83.048  1.00  0.00     0.014 C 
ENDROOT
BRANCH   1  30
ATOM     30  C   UNL     1     144.011   7.525  90.992  1.00  0.00     0.048 C 
ATOM     31  O   UNL     1     142.849   7.596  90.508  1.00  0.00    -0.550 OA
ATOM     32  O   UNL     1     144.533   8.646  91.628  1.00  0.00    -0.550 OA
ENDBRANCH   1  30
BRANCH  27  33
ATOM     33  O   UNL     1     146.723   9.552  80.910  1.00  0.00    -0.393 OA
ATOM     34  H   UNL     1     145.910  10.071  80.683  1.00  0.00     0.210 HD
ENDBRANCH  27  33
TORSDOF 2
ENDMDL
MODEL 6
REMARK VINA RESULT:    -5.610     15.214     18.210
REMARK INTER + INTRA:          -6.309
REMARK INTER:                  -6.102
REMARK INTRA:                  -0.206
REMARK UNBOUND:                -0.207
REMARK SMILES CC1(C)CC[C@]2(C(=O)[O-])CC[C@]3(C)C(=CC[C@H]4[C@]5(C)CC[C@@H](O)C(C)(C)[C@H]5CC[C@]43C)[C@@H]2C1
REMARK SMILES IDX 6 1 5 2 10 3 32 4 4 5 11 6 14 7 33 8 2 9 12 10 15 11 1 12
REMARK SMILES IDX 3 13 13 14 30 15 16 16 17 17 29 18 31 19 18 20 28 21 27 22
REMARK SMILES IDX 20 23 19 24 24 25 21 26 22 27 25 28 26 29 7 30 8 31 9 32
REMARK SMILES IDX 23 33
REMARK H PARENT 23 34
REMARK Flexibility Score: inf
ROOT
ATOM      1  C   UNL     1     134.146   4.356  76.871  1.00  0.00     0.017 C 
ATOM      2  C   UNL     1     134.341   5.760  76.200  1.00  0.00     0.014 C 
ATOM      3  C   UNL     1     133.381   3.433  75.876  1.00  0.00     0.014 C 
ATOM      4  C   UNL     1     133.331   4.487  78.202  1.00  0.00     0.028 C 
ATOM      5  C   UNL     1     134.260   6.924  77.203  1.00  0.00     0.007 C 
ATOM      6  C   UNL     1     132.925   2.080  76.475  1.00  0.00     0.013 C 
ATOM      7  C   UNL     1     132.856   3.110  78.698  1.00  0.00    -0.064 C 
ATOM      8  C   UNL     1     132.241   5.573  78.096  1.00  0.00     0.015 C 
ATOM      9  C   UNL     1     132.870   6.996  77.920  1.00  0.00    -0.035 C 
ATOM     10  C   UNL     1     132.045   2.187  77.777  1.00  0.00    -0.006 C 
ATOM     11  C   UNL     1     133.522   2.620  79.756  1.00  0.00    -0.027 C 
ATOM     12  C   UNL     1     133.057   7.656  79.304  1.00  0.00     0.011 C 
ATOM     13  C   UNL     1     131.907   7.879  77.095  1.00  0.00     0.011 C 
ATOM     14  C   UNL     1     130.679   2.874  77.431  1.00  0.00     0.017 C 
ATOM     15  C   UNL     1     131.733   0.723  78.428  1.00  0.00    -0.020 C 
ATOM     16  C   UNL     1     133.472   1.216  80.228  1.00  0.00     0.032 C 
ATOM     17  C   UNL     1     132.987   0.141  79.201  1.00  0.00     0.006 C 
ATOM     18  C   UNL     1     130.543   0.803  79.476  1.00  0.00     0.008 C 
ATOM     19  C   UNL     1     131.337  -0.215  77.223  1.00  0.00     0.012 C 
ATOM     20  C   UNL     1     132.764  -1.302  79.917  1.00  0.00    -0.025 C 
ATOM     21  C   UNL     1     130.527  -0.249  80.630  1.00  0.00     0.005 C 
ATOM     22  C   UNL     1     131.239  -1.548  80.217  1.00  0.00     0.003 C 
ATOM     23  C   UNL     1     133.215  -2.474  78.994  1.00  0.00     0.010 C 
ATOM     24  C   UNL     1     133.655  -1.390  81.204  1.00  0.00     0.012 C 
ATOM     25  C   UNL     1     130.856  -2.901  80.933  1.00  0.00    -0.006 C 
ATOM     26  C   UNL     1     132.931  -3.877  79.595  1.00  0.00     0.033 C 
ATOM     27  C   UNL     1     131.466  -4.074  80.071  1.00  0.00     0.120 C 
ATOM     28  C   UNL     1     129.309  -3.087  80.911  1.00  0.00     0.014 C 
ATOM     29  C   UNL     1     131.284  -2.959  82.427  1.00  0.00     0.014 C 
ENDROOT
BRANCH   1  30
ATOM     30  C   UNL     1     135.528   3.776  77.171  1.00  0.00     0.048 C 
ATOM     31  O   UNL     1     136.099   3.007  76.349  1.00  0.00    -0.550 OA
ATOM     32  O   UNL     1     136.229   4.169  78.306  1.00  0.00    -0.550 OA
ENDBRANCH   1  30
BRANCH  27  33
ATOM     33  O   UNL     1     131.302  -5.324  80.698  1.00  0.00    -0.393 OA
ATOM     34  H   UNL     1     130.380  -5.641  80.521  1.00  0.00     0.210 HD
ENDBRANCH  27  33
TORSDOF 2
ENDMDL
MODEL 7
REMARK VINA RESULT:    -5.502      1.895      3.015
REMARK INTER + INTRA:          -6.191
REMARK INTER:                  -5.991
REMARK INTRA:                  -0.201
REMARK UNBOUND:                -0.207
REMARK SMILES CC1(C)CC[C@]2(C(=O)[O-])CC[C@]3(C)C(=CC[C@H]4[C@]5(C)CC[C@@H](O)C(C)(C)[C@H]5CC[C@]43C)[C@@H]2C1
REMARK SMILES IDX 6 1 5 2 10 3 32 4 4 5 11 6 14 7 33 8 2 9 12 10 15 11 1 12
REMARK SMILES IDX 3 13 13 14 30 15 16 16 17 17 29 18 31 19 18 20 28 21 27 22
REMARK SMILES IDX 20 23 19 24 24 25 21 26 22 27 25 28 26 29 7 30 8 31 9 32
REMARK SMILES IDX 23 33
REMARK H PARENT 23 34
REMARK Flexibility Score: inf
ROOT
ATOM      1  C   UNL     1     147.507   5.556  91.140  1.00  0.00     0.017 C 
ATOM      2  C   UNL     1     147.817   5.238  92.644  1.00  0.00     0.014 C 
ATOM      3  C   UNL     1     148.660   6.438  90.573  1.00  0.00     0.014 C 
ATOM      4  C   UNL     1     146.145   6.317  91.003  1.00  0.00     0.028 C 
ATOM      5  C   UNL     1     146.552   5.173  93.518  1.00  0.00     0.007 C 
ATOM      6  C   UNL     1     148.395   7.012  89.159  1.00  0.00     0.013 C 
ATOM      7  C   UNL     1     145.984   6.915  89.595  1.00  0.00    -0.064 C 
ATOM      8  C   UNL     1     145.920   7.293  92.175  1.00  0.00     0.015 C 
ATOM      9  C   UNL     1     145.768   6.528  93.533  1.00  0.00    -0.035 C 
ATOM     10  C   UNL     1     147.063   7.841  89.013  1.00  0.00    -0.006 C 
ATOM     11  C   UNL     1     145.118   6.274  88.794  1.00  0.00    -0.027 C 
ATOM     12  C   UNL     1     144.275   6.236  93.801  1.00  0.00     0.011 C 
ATOM     13  C   UNL     1     146.295   7.418  94.680  1.00  0.00     0.011 C 
ATOM     14  C   UNL     1     147.155   9.139  89.888  1.00  0.00     0.017 C 
ATOM     15  C   UNL     1     146.782   8.282  87.467  1.00  0.00    -0.020 C 
ATOM     16  C   UNL     1     145.010   6.453  87.327  1.00  0.00     0.032 C 
ATOM     17  C   UNL     1     146.245   7.073  86.596  1.00  0.00     0.006 C 
ATOM     18  C   UNL     1     145.687   9.428  87.387  1.00  0.00     0.008 C 
ATOM     19  C   UNL     1     148.161   8.804  86.906  1.00  0.00     0.012 C 
ATOM     20  C   UNL     1     145.901   7.422  85.045  1.00  0.00    -0.025 C 
ATOM     21  C   UNL     1     144.832   9.519  86.083  1.00  0.00     0.005 C 
ATOM     22  C   UNL     1     145.593   8.955  84.872  1.00  0.00     0.003 C 
ATOM     23  C   UNL     1     147.110   7.117  84.110  1.00  0.00     0.010 C 
ATOM     24  C   UNL     1     144.726   6.509  84.553  1.00  0.00     0.012 C 
ATOM     25  C   UNL     1     145.218   9.453  83.423  1.00  0.00    -0.006 C 
ATOM     26  C   UNL     1     146.863   7.526  82.632  1.00  0.00     0.033 C 
ATOM     27  C   UNL     1     146.376   8.990  82.456  1.00  0.00     0.120 C 
ATOM     28  C   UNL     1     145.205  11.012  83.390  1.00  0.00     0.014 C 
ATOM     29  C   UNL     1     143.810   8.993  82.949  1.00  0.00     0.014 C 
ENDROOT
BRANCH   1  30
ATOM     30  C   UNL     1     147.434   4.232  90.379  1.00  0.00     0.048 C 
ATOM     31  O   UNL     1     148.464   3.735  89.846  1.00  0.00    -0.550 OA
ATOM     32  O   UNL     1     146.254   3.498  90.350  1.00  0.00    -0.550 OA
ENDBRANCH   1  30
BRANCH  27  33
ATOM     33  O   UNL     1     146.073   9.263  81.108  1.00  0.00    -0.393 OA
ATOM     34  H   UNL     1     146.657  10.003  80.802  1.00  0.00     0.210 HD
ENDBRANCH  27  33
TORSDOF 2
ENDMDL
MODEL 8
REMARK VINA RESULT:    -5.267      2.452      7.921
REMARK INTER + INTRA:          -5.936
REMARK INTER:                  -5.755
REMARK INTRA:                  -0.181
REMARK UNBOUND:                -0.207
REMARK SMILES CC1(C)CC[C@]2(C(=O)[O-])CC[C@]3(C)C(=CC[C@H]4[C@]5(C)CC[C@@H](O)C(C)(C)[C@H]5CC[C@]43C)[C@@H]2C1
REMARK SMILES IDX 6 1 5 2 10 3 32 4 4 5 11 6 14 7 33 8 2 9 12 10 15 11 1 12
REMARK SMILES IDX 3 13 13 14 30 15 16 16 17 17 29 18 31 19 18 20 28 21 27 22
REMARK SMILES IDX 20 23 19 24 24 25 21 26 22 27 25 28 26 29 7 30 8 31 9 32
REMARK SMILES IDX 23 33
REMARK H PARENT 23 34
REMARK Flexibility Score: inf
ROOT
ATOM      1  C   UNL     1     145.134   8.467  85.367  1.00  0.00     0.017 C 
ATOM      2  C   UNL     1     145.489   8.506  83.840  1.00  0.00     0.014 C 
ATOM      3  C   UNL     1     145.811   9.685  86.064  1.00  0.00     0.014 C 
ATOM      4  C   UNL     1     145.640   7.137  86.020  1.00  0.00     0.028 C 
ATOM      5  C   UNL     1     145.667   7.105  83.228  1.00  0.00     0.007 C 
ATOM      6  C   UNL     1     145.731   9.668  87.611  1.00  0.00     0.013 C 
ATOM      7  C   UNL     1     145.592   7.221  87.556  1.00  0.00    -0.064 C 
ATOM      8  C   UNL     1     146.984   6.683  85.416  1.00  0.00     0.015 C 
ATOM      9  C   UNL     1     146.829   6.303  83.905  1.00  0.00    -0.035 C 
ATOM     10  C   UNL     1     146.297   8.368  88.296  1.00  0.00    -0.006 C 
ATOM     11  C   UNL     1     144.601   6.528  88.139  1.00  0.00    -0.027 C 
ATOM     12  C   UNL     1     146.533   4.793  83.775  1.00  0.00     0.011 C 
ATOM     13  C   UNL     1     148.156   6.595  83.169  1.00  0.00     0.011 C 
ATOM     14  C   UNL     1     147.842   8.273  88.043  1.00  0.00     0.017 C 
ATOM     15  C   UNL     1     146.039   8.362  89.908  1.00  0.00    -0.020 C 
ATOM     16  C   UNL     1     144.154   6.683  89.543  1.00  0.00     0.032 C 
ATOM     17  C   UNL     1     144.535   8.017  90.264  1.00  0.00     0.006 C 
ATOM     18  C   UNL     1     146.944   7.276  90.630  1.00  0.00     0.008 C 
ATOM     19  C   UNL     1     146.414   9.808  90.414  1.00  0.00     0.012 C 
ATOM     20  C   UNL     1     144.186   7.952  91.851  1.00  0.00    -0.025 C 
ATOM     21  C   UNL     1     146.412   6.670  91.968  1.00  0.00     0.005 C 
ATOM     22  C   UNL     1     145.477   7.648  92.697  1.00  0.00     0.003 C 
ATOM     23  C   UNL     1     143.641   9.316  92.372  1.00  0.00     0.010 C 
ATOM     24  C   UNL     1     143.045   6.905  92.092  1.00  0.00     0.012 C 
ATOM     25  C   UNL     1     145.302   7.532  94.260  1.00  0.00    -0.006 C 
ATOM     26  C   UNL     1     143.385   9.333  93.903  1.00  0.00     0.033 C 
ATOM     27  C   UNL     1     144.596   8.855  94.750  1.00  0.00     0.120 C 
ATOM     28  C   UNL     1     146.702   7.493  94.944  1.00  0.00     0.014 C 
ATOM     29  C   UNL     1     144.558   6.243  94.710  1.00  0.00     0.014 C 
ENDROOT
BRANCH   1  30
ATOM     30  C   UNL     1     143.614   8.561  85.505  1.00  0.00     0.048 C 
ATOM     31  O   UNL     1     143.057   9.657  85.789  1.00  0.00    -0.550 OA
ATOM     32  O   UNL     1     142.809   7.465  85.215  1.00  0.00    -0.550 OA
ENDBRANCH   1  30
BRANCH  27  33
ATOM     33  O   UNL     1     144.264   8.795  96.117  1.00  0.00    -0.393 OA
ATOM     34  H   UNL     1     145.099   8.663  96.634  1.00  0.00     0.210 HD
ENDBRANCH  27  33
TORSDOF 2
ENDMDL
MODEL 9
REMARK VINA RESULT:    -5.218      1.669      2.192
REMARK INTER + INTRA:          -5.883
REMARK INTER:                  -5.678
REMARK INTRA:                  -0.205
REMARK UNBOUND:                -0.207
REMARK SMILES CC1(C)CC[C@]2(C(=O)[O-])CC[C@]3(C)C(=CC[C@H]4[C@]5(C)CC[C@@H](O)C(C)(C)[C@H]5CC[C@]43C)[C@@H]2C1
REMARK SMILES IDX 6 1 5 2 10 3 32 4 4 5 11 6 14 7 33 8 2 9 12 10 15 11 1 12
REMARK SMILES IDX 3 13 13 14 30 15 16 16 17 17 29 18 31 19 18 20 28 21 27 22
REMARK SMILES IDX 20 23 19 24 24 25 21 26 22 27 25 28 26 29 7 30 8 31 9 32
REMARK SMILES IDX 23 33
REMARK H PARENT 23 34
REMARK Flexibility Score: inf
ROOT
ATOM      1  C   UNL     1     145.121   6.164  92.371  1.00  0.00     0.017 C 
ATOM      2  C   UNL     1     145.174   5.782  93.891  1.00  0.00     0.014 C 
ATOM      3  C   UNL     1     145.935   5.106  91.566  1.00  0.00     0.014 C 
ATOM      4  C   UNL     1     145.729   7.587  92.135  1.00  0.00     0.028 C 
ATOM      5  C   UNL     1     145.214   7.009  94.818  1.00  0.00     0.007 C 
ATOM      6  C   UNL     1     146.156   5.462  90.075  1.00  0.00     0.013 C 
ATOM      7  C   UNL     1     145.982   7.842  90.639  1.00  0.00    -0.064 C 
ATOM      8  C   UNL     1     146.925   7.856  93.071  1.00  0.00     0.015 C 
ATOM      9  C   UNL     1     146.476   7.902  94.570  1.00  0.00    -0.035 C 
ATOM     10  C   UNL     1     146.830   6.862  89.814  1.00  0.00    -0.006 C 
ATOM     11  C   UNL     1     145.115   8.676  90.044  1.00  0.00    -0.027 C 
ATOM     12  C   UNL     1     146.143   9.357  94.969  1.00  0.00     0.011 C 
ATOM     13  C   UNL     1     147.638   7.415  95.465  1.00  0.00     0.011 C 
ATOM     14  C   UNL     1     148.295   6.850  90.373  1.00  0.00     0.017 C 
ATOM     15  C   UNL     1     146.890   7.226  88.224  1.00  0.00    -0.020 C 
ATOM     16  C   UNL     1     144.951   8.844  88.580  1.00  0.00     0.032 C 
ATOM     17  C   UNL     1     145.479   7.688  87.671  1.00  0.00     0.006 C 
ATOM     18  C   UNL     1     147.905   8.414  87.946  1.00  0.00     0.008 C 
ATOM     19  C   UNL     1     147.373   5.914  87.495  1.00  0.00     0.012 C 
ATOM     20  C   UNL     1     145.444   8.108  86.100  1.00  0.00    -0.025 C 
ATOM     21  C   UNL     1     147.636   9.314  86.698  1.00  0.00     0.005 C 
ATOM     22  C   UNL     1     146.872   8.548  85.606  1.00  0.00     0.003 C 
ATOM     23  C   UNL     1     145.027   6.908  85.197  1.00  0.00     0.010 C 
ATOM     24  C   UNL     1     144.360   9.219  85.881  1.00  0.00     0.012 C 
ATOM     25  C   UNL     1     147.002   9.008  84.103  1.00  0.00    -0.006 C 
ATOM     26  C   UNL     1     145.073   7.233  83.680  1.00  0.00     0.033 C 
ATOM     27  C   UNL     1     146.420   7.846  83.207  1.00  0.00     0.120 C 
ATOM     28  C   UNL     1     148.508   9.150  83.726  1.00  0.00     0.014 C 
ATOM     29  C   UNL     1     146.344  10.386  83.812  1.00  0.00     0.014 C 
ENDROOT
BRANCH   1  30
ATOM     30  C   UNL     1     143.658   6.150  91.927  1.00  0.00     0.048 C 
ATOM     31  O   UNL     1     143.142   5.111  91.433  1.00  0.00    -0.550 OA
ATOM     32  O   UNL     1     142.840   7.250  92.157  1.00  0.00    -0.550 OA
ENDBRANCH   1  30
BRANCH  27  33
ATOM     33  O   UNL     1     146.359   8.212  81.849  1.00  0.00    -0.393 OA
ATOM     34  H   UNL     1     146.332   9.202  81.796  1.00  0.00     0.210 HD
ENDBRANCH  27  33
TORSDOF 2
ENDMDL
