MODEL 1
REMARK VINA RESULT:    -4.918      0.000      0.000
REMARK INTER + INTRA:         -14.373
REMARK INTER:                 -11.243
REMARK INTRA:                  -3.130
REMARK UNBOUND:                -3.130
REMARK SMILES CCCCCCCCCCCCCCCCCCCCCCCC(=O)[O-]
REMARK SMILES IDX 13 1 14 2 15 3 16 4 17 5 18 6 19 7 20 8 21 9 22 10 23 11
REMARK SMILES IDX 24 12 25 13 26 14 12 15 11 16 10 17 9 18 8 19 7 20 6 21 5 22
REMARK SMILES IDX 4 23 3 24 2 25 1 26
REMARK H PARENT
REMARK Flexibility Score: inf
ROOT
ATOM      1  C   UNL     1       7.932  -5.845  31.974  1.00  0.00     0.000 C 
ENDROOT
BRANCH   1   2
ATOM      2  C   UNL     1       6.851  -5.399  32.970  1.00  0.00     0.000 C 
BRANCH   2   3
ATOM      3  C   UNL     1       5.424  -5.551  32.411  1.00  0.00     0.000 C 
BRANCH   3   4
ATOM      4  C   UNL     1       4.729  -6.879  32.763  1.00  0.00     0.000 C 
BRANCH   4   5
ATOM      5  C   UNL     1       4.497  -7.777  31.533  1.00  0.00     0.000 C 
BRANCH   5   6
ATOM      6  C   UNL     1       5.791  -8.451  31.045  1.00  0.00     0.000 C 
BRANCH   6   7
ATOM      7  C   UNL     1       5.760  -8.869  29.557  1.00  0.00     0.000 C 
BRANCH   7   8
ATOM      8  C   UNL     1       5.116  -7.816  28.637  1.00  0.00     0.000 C 
BRANCH   8   9
ATOM      9  C   UNL     1       5.395  -8.017  27.134  1.00  0.00     0.000 C 
BRANCH   9  10
ATOM     10  C   UNL     1       6.326  -9.196  26.795  1.00  0.00     0.006 C 
BRANCH  10  11
ATOM     11  C   UNL     1       7.343  -8.859  25.696  1.00  0.00     0.053 C 
BRANCH  11  12
ATOM     12  C   UNL     1       8.741  -9.122  26.166  1.00  0.00     0.041 C 
ATOM     13  O   UNL     1       9.005  -9.118  27.398  1.00  0.00    -0.550 OA
ATOM     14  O   UNL     1       9.753  -9.357  25.242  1.00  0.00    -0.550 OA
ENDBRANCH  11  12
ENDBRANCH  10  11
ENDBRANCH   9  10
ENDBRANCH   8   9
ENDBRANCH   7   8
ENDBRANCH   6   7
ENDBRANCH   5   6
ENDBRANCH   4   5
ENDBRANCH   3   4
ENDBRANCH   2   3
ENDBRANCH   1   2
BRANCH   1  15
ATOM     15  C   UNL     1       7.508  -5.552  30.526  1.00  0.00     0.000 C 
BRANCH  15  16
ATOM     16  C   UNL     1       8.415  -6.238  29.488  1.00  0.00     0.000 C 
BRANCH  16  17
ATOM     17  C   UNL     1       8.317  -5.665  28.059  1.00  0.00     0.000 C 
BRANCH  17  18
ATOM     18  C   UNL     1       7.727  -4.244  27.969  1.00  0.00    -0.000 C 
BRANCH  18  19
ATOM     19  C   UNL     1       6.956  -3.945  26.668  1.00  0.00    -0.000 C 
BRANCH  19  20
ATOM     20  C   UNL     1       6.548  -5.189  25.857  1.00  0.00    -0.000 C 
BRANCH  20  21
ATOM     21  C   UNL     1       5.731  -4.837  24.604  1.00  0.00    -0.000 C 
BRANCH  21  22
ATOM     22  C   UNL     1       5.194  -6.104  23.919  1.00  0.00    -0.000 C 
BRANCH  22  23
ATOM     23  C   UNL     1       4.049  -5.806  22.937  1.00  0.00    -0.000 C 
BRANCH  23  24
ATOM     24  C   UNL     1       4.269  -6.447  21.555  1.00  0.00    -0.000 C 
BRANCH  24  25
ATOM     25  C   UNL     1       5.610  -7.191  21.460  1.00  0.00    -0.003 C 
ATOM     26  C   UNL     1       5.506  -8.502  20.681  1.00  0.00     0.004 C 
ENDBRANCH  24  25
ENDBRANCH  23  24
ENDBRANCH  22  23
ENDBRANCH  21  22
ENDBRANCH  20  21
ENDBRANCH  19  20
ENDBRANCH  18  19
ENDBRANCH  17  18
ENDBRANCH  16  17
ENDBRANCH  15  16
ENDBRANCH   1  15
TORSDOF 22
ENDMDL
MODEL 2
REMARK VINA RESULT:    -4.830      2.449      6.695
REMARK INTER + INTRA:         -14.171
REMARK INTER:                 -10.526
REMARK INTRA:                  -3.645
REMARK UNBOUND:                -3.130
REMARK SMILES CCCCCCCCCCCCCCCCCCCCCCCC(=O)[O-]
REMARK SMILES IDX 13 1 14 2 15 3 16 4 17 5 18 6 19 7 20 8 21 9 22 10 23 11
REMARK SMILES IDX 24 12 25 13 26 14 12 15 11 16 10 17 9 18 8 19 7 20 6 21 5 22
REMARK SMILES IDX 4 23 3 24 2 25 1 26
REMARK H PARENT
REMARK Flexibility Score: inf
ROOT
ATOM      1  C   UNL     1       7.458  -5.028  29.115  1.00  0.00     0.000 C 
ENDROOT
BRANCH   1   2
ATOM      2  C   UNL     1       8.518  -5.557  28.139  1.00  0.00     0.000 C 
BRANCH   2   3
ATOM      3  C   UNL     1       8.784  -7.065  28.303  1.00  0.00     0.000 C 
BRANCH   3   4
ATOM      4  C   UNL     1       8.340  -7.933  27.111  1.00  0.00     0.000 C 
BRANCH   4   5
ATOM      5  C   UNL     1       9.048  -9.301  27.072  1.00  0.00     0.000 C 
BRANCH   5   6
ATOM      6  C   UNL     1       9.135  -9.877  25.648  1.00  0.00     0.000 C 
BRANCH   6   7
ATOM      7  C   UNL     1       7.994  -9.415  24.712  1.00  0.00     0.000 C 
BRANCH   7   8
ATOM      8  C   UNL     1       8.451  -9.171  23.262  1.00  0.00     0.000 C 
BRANCH   8   9
ATOM      9  C   UNL     1       7.409  -8.471  22.367  1.00  0.00     0.000 C 
BRANCH   9  10
ATOM     10  C   UNL     1       6.656  -7.303  23.033  1.00  0.00     0.006 C 
BRANCH  10  11
ATOM     11  C   UNL     1       6.065  -6.315  22.019  1.00  0.00     0.053 C 
BRANCH  11  12
ATOM     12  C   UNL     1       4.596  -6.134  22.246  1.00  0.00     0.041 C 
ATOM     13  O   UNL     1       3.764  -6.681  21.473  1.00  0.00    -0.550 OA
ATOM     14  O   UNL     1       4.147  -5.350  23.303  1.00  0.00    -0.550 OA
ENDBRANCH  11  12
ENDBRANCH  10  11
ENDBRANCH   9  10
ENDBRANCH   8   9
ENDBRANCH   7   8
ENDBRANCH   6   7
ENDBRANCH   5   6
ENDBRANCH   4   5
ENDBRANCH   3   4
ENDBRANCH   2   3
ENDBRANCH   1   2
BRANCH   1  15
ATOM     15  C   UNL     1       6.038  -5.307  28.597  1.00  0.00     0.000 C 
BRANCH  15  16
ATOM     16  C   UNL     1       5.935  -5.223  27.063  1.00  0.00     0.000 C 
BRANCH  16  17
ATOM     17  C   UNL     1       5.268  -6.439  26.388  1.00  0.00     0.000 C 
BRANCH  17  18
ATOM     18  C   UNL     1       4.523  -7.386  27.349  1.00  0.00    -0.000 C 
BRANCH  18  19
ATOM     19  C   UNL     1       4.838  -8.883  27.157  1.00  0.00    -0.000 C 
BRANCH  19  20
ATOM     20  C   UNL     1       4.569  -9.764  28.392  1.00  0.00    -0.000 C 
BRANCH  20  21
ATOM     21  C   UNL     1       4.694  -8.985  29.712  1.00  0.00    -0.000 C 
BRANCH  21  22
ATOM     22  C   UNL     1       6.168  -8.792  30.104  1.00  0.00    -0.000 C 
BRANCH  22  23
ATOM     23  C   UNL     1       6.344  -7.822  31.283  1.00  0.00    -0.000 C 
BRANCH  23  24
ATOM     24  C   UNL     1       5.016  -7.188  31.736  1.00  0.00    -0.000 C 
BRANCH  24  25
ATOM     25  C   UNL     1       5.226  -5.990  32.674  1.00  0.00    -0.003 C 
ATOM     26  C   UNL     1       6.685  -5.540  32.740  1.00  0.00     0.004 C 
ENDBRANCH  24  25
ENDBRANCH  23  24
ENDBRANCH  22  23
ENDBRANCH  21  22
ENDBRANCH  20  21
ENDBRANCH  19  20
ENDBRANCH  18  19
ENDBRANCH  17  18
ENDBRANCH  16  17
ENDBRANCH  15  16
ENDBRANCH   1  15
TORSDOF 22
ENDMDL
MODEL 3
REMARK VINA RESULT:    -4.698      2.298      5.007
REMARK INTER + INTRA:         -13.870
REMARK INTER:                  -9.709
REMARK INTRA:                  -4.161
REMARK UNBOUND:                -3.130
REMARK SMILES CCCCCCCCCCCCCCCCCCCCCCCC(=O)[O-]
REMARK SMILES IDX 13 1 14 2 15 3 16 4 17 5 18 6 19 7 20 8 21 9 22 10 23 11
REMARK SMILES IDX 24 12 25 13 26 14 12 15 11 16 10 17 9 18 8 19 7 20 6 21 5 22
REMARK SMILES IDX 4 23 3 24 2 25 1 26
REMARK H PARENT
REMARK Flexibility Score: inf
ROOT
ATOM      1  C   UNL     1       6.884  -4.125  26.943  1.00  0.00     0.000 C 
ENDROOT
BRANCH   1   2
ATOM      2  C   UNL     1       6.949  -5.336  27.885  1.00  0.00     0.000 C 
BRANCH   2   3
ATOM      3  C   UNL     1       8.338  -5.523  28.525  1.00  0.00     0.000 C 
BRANCH   3   4
ATOM      4  C   UNL     1       8.790  -6.987  28.673  1.00  0.00     0.000 C 
BRANCH   4   5
ATOM      5  C   UNL     1       8.593  -7.807  27.384  1.00  0.00     0.000 C 
BRANCH   5   6
ATOM      6  C   UNL     1       7.861  -9.136  27.638  1.00  0.00     0.000 C 
BRANCH   6   7
ATOM      7  C   UNL     1       6.324  -8.997  27.739  1.00  0.00     0.000 C 
BRANCH   7   8
ATOM      8  C   UNL     1       5.718  -9.739  28.945  1.00  0.00     0.000 C 
BRANCH   8   9
ATOM      9  C   UNL     1       4.745  -8.899  29.795  1.00  0.00     0.000 C 
BRANCH   9  10
ATOM     10  C   UNL     1       5.279  -7.520  30.228  1.00  0.00     0.006 C 
BRANCH  10  11
ATOM     11  C   UNL     1       6.317  -7.606  31.356  1.00  0.00     0.053 C 
BRANCH  11  12
ATOM     12  C   UNL     1       6.604  -6.248  31.918  1.00  0.00     0.041 C 
ATOM     13  O   UNL     1       7.795  -5.844  32.019  1.00  0.00    -0.550 OA
ATOM     14  O   UNL     1       5.560  -5.436  32.344  1.00  0.00    -0.550 OA
ENDBRANCH  11  12
ENDBRANCH  10  11
ENDBRANCH   9  10
ENDBRANCH   8   9
ENDBRANCH   7   8
ENDBRANCH   6   7
ENDBRANCH   5   6
ENDBRANCH   4   5
ENDBRANCH   3   4
ENDBRANCH   2   3
ENDBRANCH   1   2
BRANCH   1  15
ATOM     15  C   UNL     1       6.413  -4.539  25.539  1.00  0.00     0.000 C 
BRANCH  15  16
ATOM     16  C   UNL     1       6.278  -6.065  25.381  1.00  0.00     0.000 C 
BRANCH  16  17
ATOM     17  C   UNL     1       4.902  -6.546  24.874  1.00  0.00     0.000 C 
BRANCH  17  18
ATOM     18  C   UNL     1       4.481  -5.981  23.503  1.00  0.00    -0.000 C 
BRANCH  18  19
ATOM     19  C   UNL     1       5.565  -6.062  22.410  1.00  0.00    -0.000 C 
BRANCH  19  20
ATOM     20  C   UNL     1       5.294  -7.101  21.306  1.00  0.00    -0.000 C 
BRANCH  20  21
ATOM     21  C   UNL     1       3.941  -7.810  21.480  1.00  0.00    -0.000 C 
BRANCH  21  22
ATOM     22  C   UNL     1       4.102  -9.337  21.410  1.00  0.00    -0.000 C 
BRANCH  22  23
ATOM     23  C   UNL     1       5.446  -9.818  21.981  1.00  0.00    -0.000 C 
BRANCH  23  24
ATOM     24  C   UNL     1       5.402 -10.027  23.506  1.00  0.00    -0.000 C 
BRANCH  24  25
ATOM     25  C   UNL     1       6.788  -9.902  24.156  1.00  0.00    -0.003 C 
ATOM     26  C   UNL     1       7.700  -8.921  23.419  1.00  0.00     0.004 C 
ENDBRANCH  24  25
ENDBRANCH  23  24
ENDBRANCH  22  23
ENDBRANCH  21  22
ENDBRANCH  20  21
ENDBRANCH  19  20
ENDBRANCH  18  19
ENDBRANCH  17  18
ENDBRANCH  16  17
ENDBRANCH  15  16
ENDBRANCH   1  15
TORSDOF 22
ENDMDL
MODEL 4
REMARK VINA RESULT:    -4.686      2.341      6.965
REMARK INTER + INTRA:         -13.842
REMARK INTER:                 -10.157
REMARK INTRA:                  -3.685
REMARK UNBOUND:                -3.130
REMARK SMILES CCCCCCCCCCCCCCCCCCCCCCCC(=O)[O-]
REMARK SMILES IDX 13 1 14 2 15 3 16 4 17 5 18 6 19 7 20 8 21 9 22 10 23 11
REMARK SMILES IDX 24 12 25 13 26 14 12 15 11 16 10 17 9 18 8 19 7 20 6 21 5 22
REMARK SMILES IDX 4 23 3 24 2 25 1 26
REMARK H PARENT
REMARK Flexibility Score: inf
ROOT
ATOM      1  C   UNL     1       4.933  -9.138  28.066  1.00  0.00     0.000 C 
ENDROOT
BRANCH   1   2
ATOM      2  C   UNL     1       5.076  -7.612  28.151  1.00  0.00     0.000 C 
BRANCH   2   3
ATOM      3  C   UNL     1       5.076  -6.933  26.768  1.00  0.00     0.000 C 
BRANCH   3   4
ATOM      4  C   UNL     1       5.138  -7.901  25.573  1.00  0.00     0.000 C 
BRANCH   4   5
ATOM      5  C   UNL     1       6.391  -7.697  24.701  1.00  0.00     0.000 C 
BRANCH   5   6
ATOM      6  C   UNL     1       6.959  -9.023  24.167  1.00  0.00     0.000 C 
BRANCH   6   7
ATOM      7  C   UNL     1       8.034  -8.851  23.070  1.00  0.00     0.000 C 
BRANCH   7   8
ATOM      8  C   UNL     1       7.604  -9.400  21.697  1.00  0.00     0.000 C 
BRANCH   8   9
ATOM      9  C   UNL     1       6.104  -9.730  21.576  1.00  0.00     0.000 C 
BRANCH   9  10
ATOM     10  C   UNL     1       5.292  -8.761  20.695  1.00  0.00     0.006 C 
BRANCH  10  11
ATOM     11  C   UNL     1       4.251  -7.959  21.489  1.00  0.00     0.053 C 
BRANCH  11  12
ATOM     12  C   UNL     1       4.729  -6.560  21.731  1.00  0.00     0.041 C 
ATOM     13  O   UNL     1       3.939  -5.692  22.191  1.00  0.00    -0.550 OA
ATOM     14  O   UNL     1       6.041  -6.213  21.432  1.00  0.00    -0.550 OA
ENDBRANCH  11  12
ENDBRANCH  10  11
ENDBRANCH   9  10
ENDBRANCH   8   9
ENDBRANCH   7   8
ENDBRANCH   6   7
ENDBRANCH   5   6
ENDBRANCH   4   5
ENDBRANCH   3   4
ENDBRANCH   2   3
ENDBRANCH   1   2
BRANCH   1  15
ATOM     15  C   UNL     1       6.174  -9.844  28.633  1.00  0.00     0.000 C 
BRANCH  15  16
ATOM     16  C   UNL     1       7.257 -10.095  27.566  1.00  0.00     0.000 C 
BRANCH  16  17
ATOM     17  C   UNL     1       8.601  -9.382  27.823  1.00  0.00     0.000 C 
BRANCH  17  18
ATOM     18  C   UNL     1       8.656  -7.914  27.357  1.00  0.00    -0.000 C 
BRANCH  18  19
ATOM     19  C   UNL     1       8.991  -6.895  28.464  1.00  0.00    -0.000 C 
BRANCH  19  20
ATOM     20  C   UNL     1       8.191  -5.581  28.398  1.00  0.00    -0.000 C 
BRANCH  20  21
ATOM     21  C   UNL     1       7.447  -5.275  29.707  1.00  0.00    -0.000 C 
BRANCH  21  22
ATOM     22  C   UNL     1       7.810  -6.291  30.802  1.00  0.00    -0.000 C 
BRANCH  22  23
ATOM     23  C   UNL     1       7.475  -5.785  32.214  1.00  0.00    -0.000 C 
BRANCH  23  24
ATOM     24  C   UNL     1       6.028  -5.273  32.334  1.00  0.00    -0.000 C 
BRANCH  24  25
ATOM     25  C   UNL     1       5.072  -6.340  32.888  1.00  0.00    -0.003 C 
ATOM     26  C   UNL     1       4.855  -7.501  31.917  1.00  0.00     0.004 C 
ENDBRANCH  24  25
ENDBRANCH  23  24
ENDBRANCH  22  23
ENDBRANCH  21  22
ENDBRANCH  20  21
ENDBRANCH  19  20
ENDBRANCH  18  19
ENDBRANCH  17  18
ENDBRANCH  16  17
ENDBRANCH  15  16
ENDBRANCH   1  15
TORSDOF 22
ENDMDL
MODEL 5
REMARK VINA RESULT:    -4.674      1.454      2.669
REMARK INTER + INTRA:         -13.816
REMARK INTER:                 -10.707
REMARK INTRA:                  -3.109
REMARK UNBOUND:                -3.130
REMARK SMILES CCCCCCCCCCCCCCCCCCCCCCCC(=O)[O-]
REMARK SMILES IDX 13 1 14 2 15 3 16 4 17 5 18 6 19 7 20 8 21 9 22 10 23 11
REMARK SMILES IDX 24 12 25 13 26 14 12 15 11 16 10 17 9 18 8 19 7 20 6 21 5 22
REMARK SMILES IDX 4 23 3 24 2 25 1 26
REMARK H PARENT
REMARK Flexibility Score: inf
ROOT
ATOM      1  C   UNL     1       5.401  -5.592  32.454  1.00  0.00     0.000 C 
ENDROOT
BRANCH   1   2
ATOM      2  C   UNL     1       4.538  -6.737  33.005  1.00  0.00     0.000 C 
BRANCH   2   3
ATOM      3  C   UNL     1       3.984  -7.654  31.898  1.00  0.00     0.000 C 
BRANCH   3   4
ATOM      4  C   UNL     1       4.929  -7.867  30.702  1.00  0.00     0.000 C 
BRANCH   4   5
ATOM      5  C   UNL     1       4.223  -8.496  29.486  1.00  0.00     0.000 C 
BRANCH   5   6
ATOM      6  C   UNL     1       4.933  -9.766  28.985  1.00  0.00     0.000 C 
BRANCH   6   7
ATOM      7  C   UNL     1       6.454  -9.784  29.258  1.00  0.00     0.000 C 
BRANCH   7   8
ATOM      8  C   UNL     1       7.297 -10.113  28.012  1.00  0.00     0.000 C 
BRANCH   8   9
ATOM      9  C   UNL     1       7.510  -8.930  27.047  1.00  0.00     0.000 C 
BRANCH   9  10
ATOM     10  C   UNL     1       7.854  -9.323  25.598  1.00  0.00     0.006 C 
BRANCH  10  11
ATOM     11  C   UNL     1       9.298  -9.819  25.439  1.00  0.00     0.053 C 
BRANCH  11  12
ATOM     12  C   UNL     1       9.798  -9.563  24.050  1.00  0.00     0.041 C 
ATOM     13  O   UNL     1      11.021  -9.708  23.781  1.00  0.00    -0.550 OA
ATOM     14  O   UNL     1       8.916  -9.147  23.059  1.00  0.00    -0.550 OA
ENDBRANCH  11  12
ENDBRANCH  10  11
ENDBRANCH   9  10
ENDBRANCH   8   9
ENDBRANCH   7   8
ENDBRANCH   6   7
ENDBRANCH   5   6
ENDBRANCH   4   5
ENDBRANCH   3   4
ENDBRANCH   2   3
ENDBRANCH   1   2
BRANCH   1  15
ATOM     15  C   UNL     1       6.796  -5.589  33.099  1.00  0.00     0.000 C 
BRANCH  15  16
ATOM     16  C   UNL     1       7.929  -5.764  32.070  1.00  0.00     0.000 C 
BRANCH  16  17
ATOM     17  C   UNL     1       7.501  -5.599  30.597  1.00  0.00     0.000 C 
BRANCH  17  18
ATOM     18  C   UNL     1       8.378  -6.353  29.579  1.00  0.00    -0.000 C 
BRANCH  18  19
ATOM     19  C   UNL     1       8.630  -5.600  28.258  1.00  0.00    -0.000 C 
BRANCH  19  20
ATOM     20  C   UNL     1       7.726  -4.373  28.030  1.00  0.00    -0.000 C 
BRANCH  20  21
ATOM     21  C   UNL     1       6.777  -4.552  26.834  1.00  0.00    -0.000 C 
BRANCH  21  22
ATOM     22  C   UNL     1       5.817  -5.731  27.060  1.00  0.00    -0.000 C 
BRANCH  22  23
ATOM     23  C   UNL     1       5.265  -6.305  25.744  1.00  0.00    -0.000 C 
BRANCH  23  24
ATOM     24  C   UNL     1       5.982  -5.743  24.504  1.00  0.00    -0.000 C 
BRANCH  24  25
ATOM     25  C   UNL     1       6.241  -6.819  23.438  1.00  0.00    -0.003 C 
ATOM     26  C   UNL     1       6.017  -6.308  22.015  1.00  0.00     0.004 C 
ENDBRANCH  24  25
ENDBRANCH  23  24
ENDBRANCH  22  23
ENDBRANCH  21  22
ENDBRANCH  20  21
ENDBRANCH  19  20
ENDBRANCH  18  19
ENDBRANCH  17  18
ENDBRANCH  16  17
ENDBRANCH  15  16
ENDBRANCH   1  15
TORSDOF 22
ENDMDL
MODEL 6
REMARK VINA RESULT:    -4.660      2.325      6.168
REMARK INTER + INTRA:         -13.783
REMARK INTER:                  -9.978
REMARK INTRA:                  -3.805
REMARK UNBOUND:                -3.130
REMARK SMILES CCCCCCCCCCCCCCCCCCCCCCCC(=O)[O-]
REMARK SMILES IDX 13 1 14 2 15 3 16 4 17 5 18 6 19 7 20 8 21 9 22 10 23 11
REMARK SMILES IDX 24 12 25 13 26 14 12 15 11 16 10 17 9 18 8 19 7 20 6 21 5 22
REMARK SMILES IDX 4 23 3 24 2 25 1 26
REMARK H PARENT
REMARK Flexibility Score: inf
ROOT
ATOM      1  C   UNL     1       6.750  -4.833  28.463  1.00  0.00     0.000 C 
ENDROOT
BRANCH   1   2
ATOM      2  C   UNL     1       5.737  -5.713  27.718  1.00  0.00     0.000 C 
BRANCH   2   3
ATOM      3  C   UNL     1       6.272  -6.231  26.369  1.00  0.00     0.000 C 
BRANCH   3   4
ATOM      4  C   UNL     1       5.186  -6.642  25.358  1.00  0.00     0.000 C 
BRANCH   4   5
ATOM      5  C   UNL     1       5.028  -5.631  24.207  1.00  0.00     0.000 C 
BRANCH   5   6
ATOM      6  C   UNL     1       3.668  -5.757  23.497  1.00  0.00     0.000 C 
BRANCH   6   7
ATOM      7  C   UNL     1       3.773  -5.960  21.969  1.00  0.00     0.000 C 
BRANCH   7   8
ATOM      8  C   UNL     1       5.191  -6.328  21.494  1.00  0.00     0.000 C 
BRANCH   8   9
ATOM      9  C   UNL     1       5.309  -7.710  20.823  1.00  0.00     0.000 C 
BRANCH   9  10
ATOM     10  C   UNL     1       6.026  -8.784  21.663  1.00  0.00     0.006 C 
BRANCH  10  11
ATOM     11  C   UNL     1       5.182 -10.051  21.862  1.00  0.00     0.053 C 
BRANCH  11  12
ATOM     12  C   UNL     1       3.841  -9.710  22.436  1.00  0.00     0.041 C 
ATOM     13  O   UNL     1       3.745  -9.317  23.631  1.00  0.00    -0.550 OA
ATOM     14  O   UNL     1       2.697  -9.841  21.657  1.00  0.00    -0.550 OA
ENDBRANCH  11  12
ENDBRANCH  10  11
ENDBRANCH   9  10
ENDBRANCH   8   9
ENDBRANCH   7   8
ENDBRANCH   6   7
ENDBRANCH   5   6
ENDBRANCH   4   5
ENDBRANCH   3   4
ENDBRANCH   2   3
ENDBRANCH   1   2
BRANCH   1  15
ATOM     15  C   UNL     1       8.101  -5.549  28.616  1.00  0.00     0.000 C 
BRANCH  15  16
ATOM     16  C   UNL     1       8.190  -6.389  29.904  1.00  0.00     0.000 C 
BRANCH  16  17
ATOM     17  C   UNL     1       7.588  -5.722  31.158  1.00  0.00     0.000 C 
BRANCH  17  18
ATOM     18  C   UNL     1       6.521  -6.559  31.889  1.00  0.00    -0.000 C 
BRANCH  18  19
ATOM     19  C   UNL     1       6.083  -7.839  31.149  1.00  0.00    -0.000 C 
BRANCH  19  20
ATOM     20  C   UNL     1       4.589  -7.891  30.778  1.00  0.00    -0.000 C 
BRANCH  20  21
ATOM     21  C   UNL     1       4.326  -8.692  29.493  1.00  0.00    -0.000 C 
BRANCH  21  22
ATOM     22  C   UNL     1       5.581  -9.466  29.056  1.00  0.00    -0.000 C 
BRANCH  22  23
ATOM     23  C   UNL     1       5.444 -10.070  27.649  1.00  0.00    -0.000 C 
BRANCH  23  24
ATOM     24  C   UNL     1       6.736  -9.945  26.821  1.00  0.00    -0.000 C 
BRANCH  24  25
ATOM     25  C   UNL     1       7.898  -9.354  27.632  1.00  0.00    -0.003 C 
ATOM     26  C   UNL     1       8.995  -8.761  26.749  1.00  0.00     0.004 C 
ENDBRANCH  24  25
ENDBRANCH  23  24
ENDBRANCH  22  23
ENDBRANCH  21  22
ENDBRANCH  20  21
ENDBRANCH  19  20
ENDBRANCH  18  19
ENDBRANCH  17  18
ENDBRANCH  16  17
ENDBRANCH  15  16
ENDBRANCH   1  15
TORSDOF 22
ENDMDL
MODEL 7
REMARK VINA RESULT:    -4.647      2.344      4.962
REMARK INTER + INTRA:         -13.754
REMARK INTER:                 -10.060
REMARK INTRA:                  -3.694
REMARK UNBOUND:                -3.130
REMARK SMILES CCCCCCCCCCCCCCCCCCCCCCCC(=O)[O-]
REMARK SMILES IDX 13 1 14 2 15 3 16 4 17 5 18 6 19 7 20 8 21 9 22 10 23 11
REMARK SMILES IDX 24 12 25 13 26 14 12 15 11 16 10 17 9 18 8 19 7 20 6 21 5 22
REMARK SMILES IDX 4 23 3 24 2 25 1 26
REMARK H PARENT
REMARK Flexibility Score: inf
ROOT
ATOM      1  C   UNL     1       6.282  -5.215  27.684  1.00  0.00     0.000 C 
ENDROOT
BRANCH   1   2
ATOM      2  C   UNL     1       7.591  -4.627  28.230  1.00  0.00     0.000 C 
BRANCH   2   3
ATOM      3  C   UNL     1       8.775  -5.608  28.129  1.00  0.00     0.000 C 
BRANCH   3   4
ATOM      4  C   UNL     1       8.445  -7.062  28.511  1.00  0.00     0.000 C 
BRANCH   4   5
ATOM      5  C   UNL     1       8.744  -8.060  27.377  1.00  0.00     0.000 C 
BRANCH   5   6
ATOM      6  C   UNL     1       7.847  -9.309  27.440  1.00  0.00     0.000 C 
BRANCH   6   7
ATOM      7  C   UNL     1       6.382  -9.011  27.837  1.00  0.00     0.000 C 
BRANCH   7   8
ATOM      8  C   UNL     1       5.989  -9.583  29.211  1.00  0.00     0.000 C 
BRANCH   8   9
ATOM      9  C   UNL     1       5.239  -8.598  30.129  1.00  0.00     0.000 C 
BRANCH   9  10
ATOM     10  C   UNL     1       6.087  -7.983  31.259  1.00  0.00     0.006 C 
BRANCH  10  11
ATOM     11  C   UNL     1       6.116  -6.449  31.219  1.00  0.00     0.053 C 
BRANCH  11  12
ATOM     12  C   UNL     1       7.244  -5.918  32.049  1.00  0.00     0.041 C 
ATOM     13  O   UNL     1       8.410  -6.373  31.899  1.00  0.00    -0.550 OA
ATOM     14  O   UNL     1       7.004  -4.932  32.999  1.00  0.00    -0.550 OA
ENDBRANCH  11  12
ENDBRANCH  10  11
ENDBRANCH   9  10
ENDBRANCH   8   9
ENDBRANCH   7   8
ENDBRANCH   6   7
ENDBRANCH   5   6
ENDBRANCH   4   5
ENDBRANCH   3   4
ENDBRANCH   2   3
ENDBRANCH   1   2
BRANCH   1  15
ATOM     15  C   UNL     1       6.187  -5.039  26.160  1.00  0.00     0.000 C 
BRANCH  15  16
ATOM     16  C   UNL     1       6.086  -6.380  25.410  1.00  0.00     0.000 C 
BRANCH  16  17
ATOM     17  C   UNL     1       4.656  -6.786  24.995  1.00  0.00     0.000 C 
BRANCH  17  18
ATOM     18  C   UNL     1       3.895  -7.633  26.033  1.00  0.00    -0.000 C 
BRANCH  18  19
ATOM     19  C   UNL     1       3.497  -9.043  25.552  1.00  0.00    -0.000 C 
BRANCH  19  20
ATOM     20  C   UNL     1       4.296  -9.563  24.342  1.00  0.00    -0.000 C 
BRANCH  20  21
ATOM     21  C   UNL     1       3.401  -9.877  23.133  1.00  0.00    -0.000 C 
BRANCH  21  22
ATOM     22  C   UNL     1       4.195  -9.792  21.819  1.00  0.00    -0.000 C 
BRANCH  22  23
ATOM     23  C   UNL     1       5.433  -8.888  21.933  1.00  0.00    -0.000 C 
BRANCH  23  24
ATOM     24  C   UNL     1       5.471  -7.795  20.850  1.00  0.00    -0.000 C 
BRANCH  24  25
ATOM     25  C   UNL     1       5.159  -6.400  21.412  1.00  0.00    -0.003 C 
ATOM     26  C   UNL     1       3.663  -6.171  21.629  1.00  0.00     0.004 C 
ENDBRANCH  24  25
ENDBRANCH  23  24
ENDBRANCH  22  23
ENDBRANCH  21  22
ENDBRANCH  20  21
ENDBRANCH  19  20
ENDBRANCH  18  19
ENDBRANCH  17  18
ENDBRANCH  16  17
ENDBRANCH  15  16
ENDBRANCH   1  15
TORSDOF 22
ENDMDL
MODEL 8
REMARK VINA RESULT:    -4.595      2.400      3.933
REMARK INTER + INTRA:         -13.634
REMARK INTER:                  -9.554
REMARK INTRA:                  -4.080
REMARK UNBOUND:                -3.130
REMARK SMILES CCCCCCCCCCCCCCCCCCCCCCCC(=O)[O-]
REMARK SMILES IDX 13 1 14 2 15 3 16 4 17 5 18 6 19 7 20 8 21 9 22 10 23 11
REMARK SMILES IDX 24 12 25 13 26 14 12 15 11 16 10 17 9 18 8 19 7 20 6 21 5 22
REMARK SMILES IDX 4 23 3 24 2 25 1 26
REMARK H PARENT
REMARK Flexibility Score: inf
ROOT
ATOM      1  C   UNL     1       5.994  -5.280  32.021  1.00  0.00     0.000 C 
ENDROOT
BRANCH   1   2
ATOM      2  C   UNL     1       5.063  -6.083  32.941  1.00  0.00     0.000 C 
BRANCH   2   3
ATOM      3  C   UNL     1       4.791  -7.507  32.422  1.00  0.00     0.000 C 
BRANCH   3   4
ATOM      4  C   UNL     1       4.585  -7.612  30.900  1.00  0.00     0.000 C 
BRANCH   4   5
ATOM      5  C   UNL     1       5.505  -8.659  30.243  1.00  0.00     0.000 C 
BRANCH   5   6
ATOM      6  C   UNL     1       4.727  -9.661  29.373  1.00  0.00     0.000 C 
BRANCH   6   7
ATOM      7  C   UNL     1       3.198  -9.432  29.364  1.00  0.00     0.000 C 
BRANCH   7   8
ATOM      8  C   UNL     1       2.580  -9.464  27.954  1.00  0.00     0.000 C 
BRANCH   8   9
ATOM      9  C   UNL     1       2.980  -8.282  27.048  1.00  0.00     0.000 C 
BRANCH   9  10
ATOM     10  C   UNL     1       2.730  -8.500  25.543  1.00  0.00     0.006 C 
BRANCH  10  11
ATOM     11  C   UNL     1       3.702  -9.509  24.915  1.00  0.00     0.053 C 
BRANCH  11  12
ATOM     12  C   UNL     1       4.140  -9.050  23.558  1.00  0.00     0.041 C 
ATOM     13  O   UNL     1       4.942  -9.749  22.882  1.00  0.00    -0.550 OA
ATOM     14  O   UNL     1       3.675  -7.843  23.049  1.00  0.00    -0.550 OA
ENDBRANCH  11  12
ENDBRANCH  10  11
ENDBRANCH   9  10
ENDBRANCH   8   9
ENDBRANCH   7   8
ENDBRANCH   6   7
ENDBRANCH   5   6
ENDBRANCH   4   5
ENDBRANCH   3   4
ENDBRANCH   2   3
ENDBRANCH   1   2
BRANCH   1  15
ATOM     15  C   UNL     1       7.460  -5.414  32.462  1.00  0.00     0.000 C 
BRANCH  15  16
ATOM     16  C   UNL     1       8.282  -6.328  31.535  1.00  0.00     0.000 C 
BRANCH  16  17
ATOM     17  C   UNL     1       7.977  -6.172  30.030  1.00  0.00     0.000 C 
BRANCH  17  18
ATOM     18  C   UNL     1       9.102  -6.643  29.088  1.00  0.00    -0.000 C 
BRANCH  18  19
ATOM     19  C   UNL     1       8.631  -7.086  27.688  1.00  0.00    -0.000 C 
BRANCH  19  20
ATOM     20  C   UNL     1       7.957  -8.471  27.641  1.00  0.00    -0.000 C 
BRANCH  20  21
ATOM     21  C   UNL     1       6.778  -8.522  26.657  1.00  0.00    -0.000 C 
BRANCH  21  22
ATOM     22  C   UNL     1       6.929  -7.460  25.556  1.00  0.00    -0.000 C 
BRANCH  22  23
ATOM     23  C   UNL     1       5.796  -6.421  25.576  1.00  0.00    -0.000 C 
BRANCH  23  24
ATOM     24  C   UNL     1       6.315  -4.977  25.702  1.00  0.00    -0.000 C 
BRANCH  24  25
ATOM     25  C   UNL     1       6.322  -4.481  27.156  1.00  0.00    -0.003 C 
ATOM     26  C   UNL     1       5.377  -5.276  28.057  1.00  0.00     0.004 C 
ENDBRANCH  24  25
ENDBRANCH  23  24
ENDBRANCH  22  23
ENDBRANCH  21  22
ENDBRANCH  20  21
ENDBRANCH  19  20
ENDBRANCH  18  19
ENDBRANCH  17  18
ENDBRANCH  16  17
ENDBRANCH  15  16
ENDBRANCH   1  15
TORSDOF 22
ENDMDL
MODEL 9
REMARK VINA RESULT:    -4.499      2.277      6.552
REMARK INTER + INTRA:         -13.415
REMARK INTER:                  -9.125
REMARK INTRA:                  -4.290
REMARK UNBOUND:                -3.130
REMARK SMILES CCCCCCCCCCCCCCCCCCCCCCCC(=O)[O-]
REMARK SMILES IDX 13 1 14 2 15 3 16 4 17 5 18 6 19 7 20 8 21 9 22 10 23 11
REMARK SMILES IDX 24 12 25 13 26 14 12 15 11 16 10 17 9 18 8 19 7 20 6 21 5 22
REMARK SMILES IDX 4 23 3 24 2 25 1 26
REMARK H PARENT
REMARK Flexibility Score: inf
ROOT
ATOM      1  C   UNL     1       6.114  -5.964  23.249  1.00  0.00     0.000 C 
ENDROOT
BRANCH   1   2
ATOM      2  C   UNL     1       4.724  -5.798  23.881  1.00  0.00     0.000 C 
BRANCH   2   3
ATOM      3  C   UNL     1       4.421  -6.865  24.950  1.00  0.00     0.000 C 
BRANCH   3   4
ATOM      4  C   UNL     1       3.324  -7.874  24.564  1.00  0.00     0.000 C 
BRANCH   4   5
ATOM      5  C   UNL     1       3.130  -8.979  25.619  1.00  0.00     0.000 C 
BRANCH   5   6
ATOM      6  C   UNL     1       3.596  -8.543  27.019  1.00  0.00     0.000 C 
BRANCH   6   7
ATOM      7  C   UNL     1       4.450  -9.601  27.755  1.00  0.00     0.000 C 
BRANCH   7   8
ATOM      8  C   UNL     1       4.253  -9.596  29.282  1.00  0.00     0.000 C 
BRANCH   8   9
ATOM      9  C   UNL     1       4.473  -8.227  29.955  1.00  0.00     0.000 C 
BRANCH   9  10
ATOM     10  C   UNL     1       5.739  -8.124  30.827  1.00  0.00     0.006 C 
BRANCH  10  11
ATOM     11  C   UNL     1       5.617  -7.073  31.939  1.00  0.00     0.053 C 
BRANCH  11  12
ATOM     12  C   UNL     1       6.824  -6.187  31.968  1.00  0.00     0.041 C 
ATOM     13  O   UNL     1       7.883  -6.540  31.381  1.00  0.00    -0.550 OA
ATOM     14  O   UNL     1       6.784  -4.979  32.656  1.00  0.00    -0.550 OA
ENDBRANCH  11  12
ENDBRANCH  10  11
ENDBRANCH   9  10
ENDBRANCH   8   9
ENDBRANCH   7   8
ENDBRANCH   6   7
ENDBRANCH   5   6
ENDBRANCH   4   5
ENDBRANCH   3   4
ENDBRANCH   2   3
ENDBRANCH   1   2
BRANCH   1  15
ATOM     15  C   UNL     1       6.014  -6.569  21.840  1.00  0.00     0.000 C 
BRANCH  15  16
ATOM     16  C   UNL     1       6.128  -8.105  21.839  1.00  0.00     0.000 C 
BRANCH  16  17
ATOM     17  C   UNL     1       7.206  -8.677  22.783  1.00  0.00     0.000 C 
BRANCH  17  18
ATOM     18  C   UNL     1       6.773  -9.921  23.584  1.00  0.00    -0.000 C 
BRANCH  18  19
ATOM     19  C   UNL     1       6.796  -9.745  25.116  1.00  0.00    -0.000 C 
BRANCH  19  20
ATOM     20  C   UNL     1       7.578  -8.515  25.614  1.00  0.00    -0.000 C 
BRANCH  20  21
ATOM     21  C   UNL     1       7.945  -8.610  27.103  1.00  0.00    -0.000 C 
BRANCH  21  22
ATOM     22  C   UNL     1       7.964  -7.221  27.759  1.00  0.00    -0.000 C 
BRANCH  22  23
ATOM     23  C   UNL     1       6.634  -6.468  27.592  1.00  0.00    -0.000 C 
BRANCH  23  24
ATOM     24  C   UNL     1       6.593  -5.149  28.384  1.00  0.00    -0.000 C 
BRANCH  24  25
ATOM     25  C   UNL     1       7.545  -4.089  27.808  1.00  0.00    -0.003 C 
ATOM     26  C   UNL     1       7.262  -3.775  26.340  1.00  0.00     0.004 C 
ENDBRANCH  24  25
ENDBRANCH  23  24
ENDBRANCH  22  23
ENDBRANCH  21  22
ENDBRANCH  20  21
ENDBRANCH  19  20
ENDBRANCH  18  19
ENDBRANCH  17  18
ENDBRANCH  16  17
ENDBRANCH  15  16
ENDBRANCH   1  15
TORSDOF 22
ENDMDL
