MODEL 1
REMARK VINA RESULT:    -3.664      0.000      0.000
REMARK INTER + INTRA:          -7.183
REMARK INTER:                  -5.806
REMARK INTRA:                  -1.377
REMARK UNBOUND:                -1.377
REMARK SMILES CCCCCCCCCCCC(=O)[O-]
REMARK SMILES IDX 7 1 8 2 9 3 10 4 11 5 12 6 13 7 14 8 6 9 5 10 4 11 3 12 2 13
REMARK SMILES IDX 1 14
REMARK H PARENT
REMARK Flexibility Score: inf
ROOT
ATOM      1  C   UNL     1      -0.864   8.104  -8.383  1.00  0.00     0.000 C 
ENDROOT
BRANCH   1   2
ATOM      2  C   UNL     1      -1.091   6.800  -9.156  1.00  0.00     0.000 C 
BRANCH   2   3
ATOM      3  C   UNL     1      -1.990   7.031 -10.376  1.00  0.00     0.000 C 
BRANCH   3   4
ATOM      4  C   UNL     1      -2.613   8.434 -10.344  1.00  0.00     0.006 C 
BRANCH   4   5
ATOM      5  C   UNL     1      -4.026   8.456 -10.941  1.00  0.00     0.053 C 
BRANCH   5   6
ATOM      6  C   UNL     1      -4.696   9.781 -10.736  1.00  0.00     0.041 C 
ATOM      7  O   UNL     1      -5.782  10.039 -11.319  1.00  0.00    -0.550 OA
ATOM      8  O   UNL     1      -4.103  10.743  -9.928  1.00  0.00    -0.550 OA
ENDBRANCH   5   6
ENDBRANCH   4   5
ENDBRANCH   3   4
ENDBRANCH   2   3
ENDBRANCH   1   2
BRANCH   1   9
ATOM      9  C   UNL     1       0.506   8.100  -7.688  1.00  0.00     0.000 C 
BRANCH   9  10
ATOM     10  C   UNL     1       1.580   7.362  -8.503  1.00  0.00    -0.000 C 
BRANCH  10  11
ATOM     11  C   UNL     1       2.277   8.272  -9.525  1.00  0.00    -0.000 C 
BRANCH  11  12
ATOM     12  C   UNL     1       2.114   7.725 -10.948  1.00  0.00    -0.000 C 
BRANCH  12  13
ATOM     13  C   UNL     1       1.105   8.556 -11.747  1.00  0.00    -0.003 C 
ATOM     14  C   UNL     1       0.903   9.933 -11.120  1.00  0.00     0.004 C 
ENDBRANCH  12  13
ENDBRANCH  11  12
ENDBRANCH  10  11
ENDBRANCH   9  10
ENDBRANCH   1   9
TORSDOF 10
ENDMDL
MODEL 2
REMARK VINA RESULT:    -3.582      1.052      1.874
REMARK INTER + INTRA:          -7.054
REMARK INTER:                  -5.784
REMARK INTRA:                  -1.269
REMARK UNBOUND:                -1.377
REMARK SMILES CCCCCCCCCCCC(=O)[O-]
REMARK SMILES IDX 7 1 8 2 9 3 10 4 11 5 12 6 13 7 14 8 6 9 5 10 4 11 3 12 2 13
REMARK SMILES IDX 1 14
REMARK H PARENT
REMARK Flexibility Score: inf
ROOT
ATOM      1  C   UNL     1       0.484   8.245  -7.951  1.00  0.00     0.000 C 
ENDROOT
BRANCH   1   2
ATOM      2  C   UNL     1      -0.890   7.801  -8.466  1.00  0.00     0.000 C 
BRANCH   2   3
ATOM      3  C   UNL     1      -0.756   6.669  -9.491  1.00  0.00     0.000 C 
BRANCH   3   4
ATOM      4  C   UNL     1      -1.342   7.082 -10.849  1.00  0.00     0.006 C 
BRANCH   4   5
ATOM      5  C   UNL     1      -2.876   7.061 -10.850  1.00  0.00     0.053 C 
BRANCH   5   6
ATOM      6  C   UNL     1      -3.451   8.422 -11.100  1.00  0.00     0.041 C 
ATOM      7  O   UNL     1      -2.690   9.413 -11.250  1.00  0.00    -0.550 OA
ATOM      8  O   UNL     1      -4.829   8.601 -11.132  1.00  0.00    -0.550 OA
ENDBRANCH   5   6
ENDBRANCH   4   5
ENDBRANCH   3   4
ENDBRANCH   2   3
ENDBRANCH   1   2
BRANCH   1   9
ATOM      9  C   UNL     1       1.611   7.503  -8.684  1.00  0.00     0.000 C 
BRANCH   9  10
ATOM     10  C   UNL     1       2.384   8.410  -9.654  1.00  0.00    -0.000 C 
BRANCH  10  11
ATOM     11  C   UNL     1       2.327   7.910 -11.105  1.00  0.00    -0.000 C 
BRANCH  11  12
ATOM     12  C   UNL     1       1.641   8.936 -12.013  1.00  0.00    -0.000 C 
BRANCH  12  13
ATOM     13  C   UNL     1       0.903   9.996 -11.189  1.00  0.00    -0.003 C 
ATOM     14  C   UNL     1       0.531  11.203 -12.046  1.00  0.00     0.004 C 
ENDBRANCH  12  13
ENDBRANCH  11  12
ENDBRANCH  10  11
ENDBRANCH   9  10
ENDBRANCH   1   9
TORSDOF 10
ENDMDL
MODEL 3
REMARK VINA RESULT:    -3.565      3.167      5.800
REMARK INTER + INTRA:          -7.026
REMARK INTER:                  -6.158
REMARK INTRA:                  -0.868
REMARK UNBOUND:                -1.377
REMARK SMILES CCCCCCCCCCCC(=O)[O-]
REMARK SMILES IDX 7 1 8 2 9 3 10 4 11 5 12 6 13 7 14 8 6 9 5 10 4 11 3 12 2 13
REMARK SMILES IDX 1 14
REMARK H PARENT
REMARK Flexibility Score: inf
ROOT
ATOM      1  C   UNL     1      -1.078   6.736 -10.631  1.00  0.00     0.000 C 
ENDROOT
BRANCH   1   2
ATOM      2  C   UNL     1      -0.774   6.665  -9.130  1.00  0.00     0.000 C 
BRANCH   2   3
ATOM      3  C   UNL     1      -0.648   8.068  -8.525  1.00  0.00     0.000 C 
BRANCH   3   4
ATOM      4  C   UNL     1       0.701   8.241  -7.811  1.00  0.00     0.006 C 
BRANCH   4   5
ATOM      5  C   UNL     1       1.821   7.436  -8.483  1.00  0.00     0.053 C 
BRANCH   5   6
ATOM      6  C   UNL     1       2.333   8.116  -9.716  1.00  0.00     0.041 C 
ATOM      7  O   UNL     1       2.764   9.298  -9.656  1.00  0.00    -0.550 OA
ATOM      8  O   UNL     1       2.301   7.457 -10.939  1.00  0.00    -0.550 OA
ENDBRANCH   5   6
ENDBRANCH   4   5
ENDBRANCH   3   4
ENDBRANCH   2   3
ENDBRANCH   1   2
BRANCH   1   9
ATOM      9  C   UNL     1      -1.892   7.995 -10.967  1.00  0.00     0.000 C 
BRANCH   9  10
ATOM     10  C   UNL     1      -3.323   7.670 -11.423  1.00  0.00    -0.000 C 
BRANCH  10  11
ATOM     11  C   UNL     1      -4.363   8.642 -10.849  1.00  0.00    -0.000 C 
BRANCH  11  12
ATOM     12  C   UNL     1      -3.684   9.798 -10.105  1.00  0.00    -0.000 C 
BRANCH  12  13
ATOM     13  C   UNL     1      -4.424  11.118 -10.344  1.00  0.00    -0.003 C 
ATOM     14  C   UNL     1      -5.625  10.921 -11.265  1.00  0.00     0.004 C 
ENDBRANCH  12  13
ENDBRANCH  11  12
ENDBRANCH  10  11
ENDBRANCH   9  10
ENDBRANCH   1   9
TORSDOF 10
ENDMDL
MODEL 4
REMARK VINA RESULT:    -3.506      1.219      2.510
REMARK INTER + INTRA:          -6.932
REMARK INTER:                  -5.924
REMARK INTRA:                  -1.008
REMARK UNBOUND:                -1.377
REMARK SMILES CCCCCCCCCCCC(=O)[O-]
REMARK SMILES IDX 7 1 8 2 9 3 10 4 11 5 12 6 13 7 14 8 6 9 5 10 4 11 3 12 2 13
REMARK SMILES IDX 1 14
REMARK H PARENT
REMARK Flexibility Score: inf
ROOT
ATOM      1  C   UNL     1      -2.125   6.968 -10.428  1.00  0.00     0.000 C 
ENDROOT
BRANCH   1   2
ATOM      2  C   UNL     1      -2.023   8.311  -9.695  1.00  0.00     0.000 C 
BRANCH   2   3
ATOM      3  C   UNL     1      -3.269   9.170  -9.940  1.00  0.00     0.000 C 
BRANCH   3   4
ATOM      4  C   UNL     1      -4.101   8.613 -11.105  1.00  0.00     0.006 C 
BRANCH   4   5
ATOM      5  C   UNL     1      -4.655   9.725 -12.007  1.00  0.00     0.053 C 
BRANCH   5   6
ATOM      6  C   UNL     1      -5.395  10.763 -11.219  1.00  0.00     0.041 C 
ATOM      7  O   UNL     1      -6.494  10.480 -10.673  1.00  0.00    -0.550 OA
ATOM      8  O   UNL     1      -4.889  12.053 -11.118  1.00  0.00    -0.550 OA
ENDBRANCH   5   6
ENDBRANCH   4   5
ENDBRANCH   3   4
ENDBRANCH   2   3
ENDBRANCH   1   2
BRANCH   1   9
ATOM      9  C   UNL     1      -0.776   6.579 -11.051  1.00  0.00     0.000 C 
BRANCH   9  10
ATOM     10  C   UNL     1       0.115   7.797 -11.342  1.00  0.00    -0.000 C 
BRANCH  10  11
ATOM     11  C   UNL     1       1.603   7.518 -11.085  1.00  0.00    -0.000 C 
BRANCH  11  12
ATOM     12  C   UNL     1       2.080   8.216  -9.807  1.00  0.00    -0.000 C 
BRANCH  12  13
ATOM     13  C   UNL     1       1.821   7.346  -8.573  1.00  0.00    -0.003 C 
ATOM     14  C   UNL     1       0.904   8.053  -7.580  1.00  0.00     0.004 C 
ENDBRANCH  12  13
ENDBRANCH  11  12
ENDBRANCH  10  11
ENDBRANCH   9  10
ENDBRANCH   1   9
TORSDOF 10
ENDMDL
MODEL 5
REMARK VINA RESULT:    -3.462      1.379      2.344
REMARK INTER + INTRA:          -6.863
REMARK INTER:                  -6.247
REMARK INTRA:                  -0.617
REMARK UNBOUND:                -1.377
REMARK SMILES CCCCCCCCCCCC(=O)[O-]
REMARK SMILES IDX 7 1 8 2 9 3 10 4 11 5 12 6 13 7 14 8 6 9 5 10 4 11 3 12 2 13
REMARK SMILES IDX 1 14
REMARK H PARENT
REMARK Flexibility Score: inf
ROOT
ATOM      1  C   UNL     1      -2.022   8.267 -10.150  1.00  0.00     0.000 C 
ENDROOT
BRANCH   1   2
ATOM      2  C   UNL     1      -2.663   7.159 -10.994  1.00  0.00     0.000 C 
BRANCH   2   3
ATOM      3  C   UNL     1      -3.855   7.695 -11.795  1.00  0.00     0.000 C 
BRANCH   3   4
ATOM      4  C   UNL     1      -4.482   8.913 -11.101  1.00  0.00     0.006 C 
BRANCH   4   5
ATOM      5  C   UNL     1      -4.886  10.006 -12.099  1.00  0.00     0.053 C 
BRANCH   5   6
ATOM      6  C   UNL     1      -5.839  10.991 -11.491  1.00  0.00     0.041 C 
ATOM      7  O   UNL     1      -6.775  10.592 -10.751  1.00  0.00    -0.550 OA
ATOM      8  O   UNL     1      -5.712  12.346 -11.771  1.00  0.00    -0.550 OA
ENDBRANCH   5   6
ENDBRANCH   4   5
ENDBRANCH   3   4
ENDBRANCH   2   3
ENDBRANCH   1   2
BRANCH   1   9
ATOM      9  C   UNL     1      -1.484   7.706  -8.825  1.00  0.00     0.000 C 
BRANCH   9  10
ATOM     10  C   UNL     1      -0.366   6.672  -9.030  1.00  0.00    -0.000 C 
BRANCH  10  11
ATOM     11  C   UNL     1       0.963   7.101  -8.390  1.00  0.00    -0.000 C 
BRANCH  11  12
ATOM     12  C   UNL     1       0.956   8.598  -8.060  1.00  0.00    -0.000 C 
BRANCH  12  13
ATOM     13  C   UNL     1       1.574   9.417  -9.198  1.00  0.00    -0.003 C 
ATOM     14  C   UNL     1       2.603   8.599  -9.973  1.00  0.00     0.004 C 
ENDBRANCH  12  13
ENDBRANCH  11  12
ENDBRANCH  10  11
ENDBRANCH   9  10
ENDBRANCH   1   9
TORSDOF 10
ENDMDL
MODEL 6
REMARK VINA RESULT:    -3.425     15.782     17.455
REMARK INTER + INTRA:          -6.805
REMARK INTER:                  -6.081
REMARK INTRA:                  -0.724
REMARK UNBOUND:                -1.377
REMARK SMILES CCCCCCCCCCCC(=O)[O-]
REMARK SMILES IDX 7 1 8 2 9 3 10 4 11 5 12 6 13 7 14 8 6 9 5 10 4 11 3 12 2 13
REMARK SMILES IDX 1 14
REMARK H PARENT
REMARK Flexibility Score: inf
ROOT
ATOM      1  C   UNL     1       1.917  13.470   4.457  1.00  0.00     0.000 C 
ENDROOT
BRANCH   1   2
ATOM      2  C   UNL     1       2.994  13.438   5.548  1.00  0.00     0.000 C 
BRANCH   2   3
ATOM      3  C   UNL     1       2.740  12.298   6.541  1.00  0.00     0.000 C 
BRANCH   3   4
ATOM      4  C   UNL     1       4.051  11.833   7.193  1.00  0.00     0.006 C 
BRANCH   4   5
ATOM      5  C   UNL     1       5.259  12.021   6.266  1.00  0.00     0.053 C 
BRANCH   5   6
ATOM      6  C   UNL     1       5.936  10.719   5.962  1.00  0.00     0.041 C 
ATOM      7  O   UNL     1       5.259   9.664   5.851  1.00  0.00    -0.550 OA
ATOM      8  O   UNL     1       7.319  10.666   5.836  1.00  0.00    -0.550 OA
ENDBRANCH   5   6
ENDBRANCH   4   5
ENDBRANCH   3   4
ENDBRANCH   2   3
ENDBRANCH   1   2
BRANCH   1   9
ATOM      9  C   UNL     1       0.553  13.861   5.044  1.00  0.00     0.000 C 
BRANCH   9  10
ATOM     10  C   UNL     1      -0.608  13.067   4.424  1.00  0.00    -0.000 C 
BRANCH  10  11
ATOM     11  C   UNL     1      -0.395  11.548   4.504  1.00  0.00    -0.000 C 
BRANCH  11  12
ATOM     12  C   UNL     1      -1.114  10.955   5.721  1.00  0.00    -0.000 C 
BRANCH  12  13
ATOM     13  C   UNL     1      -2.087   9.848   5.302  1.00  0.00    -0.003 C 
ATOM     14  C   UNL     1      -3.524  10.360   5.266  1.00  0.00     0.004 C 
ENDBRANCH  12  13
ENDBRANCH  11  12
ENDBRANCH  10  11
ENDBRANCH   9  10
ENDBRANCH   1   9
TORSDOF 10
ENDMDL
MODEL 7
REMARK VINA RESULT:    -3.381      3.732      5.833
REMARK INTER + INTRA:          -6.734
REMARK INTER:                  -5.331
REMARK INTRA:                  -1.403
REMARK UNBOUND:                -1.377
REMARK SMILES CCCCCCCCCCCC(=O)[O-]
REMARK SMILES IDX 7 1 8 2 9 3 10 4 11 5 12 6 13 7 14 8 6 9 5 10 4 11 3 12 2 13
REMARK SMILES IDX 1 14
REMARK H PARENT
REMARK Flexibility Score: inf
ROOT
ATOM      1  C   UNL     1       1.490   7.428 -11.542  1.00  0.00     0.000 C 
ENDROOT
BRANCH   1   2
ATOM      2  C   UNL     1       1.340   8.947 -11.693  1.00  0.00     0.000 C 
BRANCH   2   3
ATOM      3  C   UNL     1       2.325   9.692 -10.784  1.00  0.00     0.000 C 
BRANCH   3   4
ATOM      4  C   UNL     1       1.682  10.955 -10.194  1.00  0.00     0.006 C 
BRANCH   4   5
ATOM      5  C   UNL     1       2.340  11.380  -8.874  1.00  0.00     0.053 C 
BRANCH   5   6
ATOM      6  C   UNL     1       3.301  12.513  -9.071  1.00  0.00     0.041 C 
ATOM      7  O   UNL     1       4.409  12.515  -8.472  1.00  0.00    -0.550 OA
ATOM      8  O   UNL     1       2.959  13.583  -9.888  1.00  0.00    -0.550 OA
ENDBRANCH   5   6
ENDBRANCH   4   5
ENDBRANCH   3   4
ENDBRANCH   2   3
ENDBRANCH   1   2
BRANCH   1   9
ATOM      9  C   UNL     1       0.148   6.718 -11.776  1.00  0.00     0.000 C 
BRANCH   9  10
ATOM     10  C   UNL     1      -0.915   7.105 -10.736  1.00  0.00    -0.000 C 
BRANCH  10  11
ATOM     11  C   UNL     1      -0.513   6.720  -9.305  1.00  0.00    -0.000 C 
BRANCH  11  12
ATOM     12  C   UNL     1      -0.669   7.910  -8.351  1.00  0.00    -0.000 C 
BRANCH  12  13
ATOM     13  C   UNL     1       0.679   8.310  -7.742  1.00  0.00    -0.003 C 
ATOM     14  C   UNL     1       1.729   7.224  -7.961  1.00  0.00     0.004 C 
ENDBRANCH  12  13
ENDBRANCH  11  12
ENDBRANCH  10  11
ENDBRANCH   9  10
ENDBRANCH   1   9
TORSDOF 10
ENDMDL
MODEL 8
REMARK VINA RESULT:    -3.350      3.683      5.836
REMARK INTER + INTRA:          -6.686
REMARK INTER:                  -5.716
REMARK INTRA:                  -0.970
REMARK UNBOUND:                -1.377
REMARK SMILES CCCCCCCCCCCC(=O)[O-]
REMARK SMILES IDX 7 1 8 2 9 3 10 4 11 5 12 6 13 7 14 8 6 9 5 10 4 11 3 12 2 13
REMARK SMILES IDX 1 14
REMARK H PARENT
REMARK Flexibility Score: inf
ROOT
ATOM      1  C   UNL     1       0.800   7.998  -7.801  1.00  0.00     0.000 C 
ENDROOT
BRANCH   1   2
ATOM      2  C   UNL     1       1.833   7.502  -8.819  1.00  0.00     0.000 C 
BRANCH   2   3
ATOM      3  C   UNL     1       2.417   8.668  -9.626  1.00  0.00     0.000 C 
BRANCH   3   4
ATOM      4  C   UNL     1       2.043   8.553 -11.110  1.00  0.00     0.006 C 
BRANCH   4   5
ATOM      5  C   UNL     1       3.240   8.148 -11.981  1.00  0.00     0.053 C 
BRANCH   5   6
ATOM      6  C   UNL     1       4.388   9.098 -11.826  1.00  0.00     0.041 C 
ATOM      7  O   UNL     1       5.501   8.684 -11.406  1.00  0.00    -0.550 OA
ATOM      8  O   UNL     1       4.219  10.447 -12.112  1.00  0.00    -0.550 OA
ENDBRANCH   5   6
ENDBRANCH   4   5
ENDBRANCH   3   4
ENDBRANCH   2   3
ENDBRANCH   1   2
BRANCH   1   9
ATOM      9  C   UNL     1      -0.624   7.896  -8.369  1.00  0.00     0.000 C 
BRANCH   9  10
ATOM     10  C   UNL     1      -0.764   6.783  -9.419  1.00  0.00    -0.000 C 
BRANCH  10  11
ATOM     11  C   UNL     1      -1.389   7.280 -10.731  1.00  0.00    -0.000 C 
BRANCH  11  12
ATOM     12  C   UNL     1      -2.892   7.530 -10.564  1.00  0.00    -0.000 C 
BRANCH  12  13
ATOM     13  C   UNL     1      -3.219   9.022 -10.676  1.00  0.00    -0.003 C 
ATOM     14  C   UNL     1      -2.015   9.817 -11.173  1.00  0.00     0.004 C 
ENDBRANCH  12  13
ENDBRANCH  11  12
ENDBRANCH  10  11
ENDBRANCH   9  10
ENDBRANCH   1   9
TORSDOF 10
ENDMDL
MODEL 9
REMARK VINA RESULT:    -3.315      2.069      3.365
REMARK INTER + INTRA:          -6.630
REMARK INTER:                  -5.450
REMARK INTRA:                  -1.180
REMARK UNBOUND:                -1.377
REMARK SMILES CCCCCCCCCCCC(=O)[O-]
REMARK SMILES IDX 7 1 8 2 9 3 10 4 11 5 12 6 13 7 14 8 6 9 5 10 4 11 3 12 2 13
REMARK SMILES IDX 1 14
REMARK H PARENT
REMARK Flexibility Score: inf
ROOT
ATOM      1  C   UNL     1       2.290   8.113  -9.383  1.00  0.00     0.000 C 
ENDROOT
BRANCH   1   2
ATOM      2  C   UNL     1       1.392   7.344  -8.406  1.00  0.00     0.000 C 
BRANCH   2   3
ATOM      3  C   UNL     1       0.124   8.142  -8.078  1.00  0.00     0.000 C 
BRANCH   3   4
ATOM      4  C   UNL     1      -1.119   7.472  -8.681  1.00  0.00     0.006 C 
BRANCH   4   5
ATOM      5  C   UNL     1      -1.681   8.259  -9.873  1.00  0.00     0.053 C 
BRANCH   5   6
ATOM      6  C   UNL     1      -2.774   7.506 -10.571  1.00  0.00     0.041 C 
ATOM      7  O   UNL     1      -2.611   6.298 -10.884  1.00  0.00    -0.550 OA
ATOM      8  O   UNL     1      -3.958   8.150 -10.907  1.00  0.00    -0.550 OA
ENDBRANCH   5   6
ENDBRANCH   4   5
ENDBRANCH   3   4
ENDBRANCH   2   3
ENDBRANCH   1   2
BRANCH   1   9
ATOM      9  C   UNL     1       1.897   7.818 -10.838  1.00  0.00     0.000 C 
BRANCH   9  10
ATOM     10  C   UNL     1       1.717   9.095 -11.673  1.00  0.00    -0.000 C 
BRANCH  10  11
ATOM     11  C   UNL     1       1.380  10.322 -10.814  1.00  0.00    -0.000 C 
BRANCH  11  12
ATOM     12  C   UNL     1       2.267  11.515 -11.186  1.00  0.00    -0.000 C 
BRANCH  12  13
ATOM     13  C   UNL     1       3.089  11.988  -9.982  1.00  0.00    -0.003 C 
ATOM     14  C   UNL     1       2.394  11.643  -8.668  1.00  0.00     0.004 C 
ENDBRANCH  12  13
ENDBRANCH  11  12
ENDBRANCH  10  11
ENDBRANCH   9  10
ENDBRANCH   1   9
TORSDOF 10
ENDMDL
