MODEL 1
REMARK VINA RESULT:    -6.823      0.000      0.000
REMARK INTER + INTRA:         -17.269
REMARK INTER:                 -14.800
REMARK INTRA:                  -2.469
REMARK UNBOUND:                -2.469
REMARK SMILES CCCCCCCCCCCCCCCCCCCCCC(=O)[O-]
REMARK SMILES IDX 12 1 11 2 10 3 9 4 8 5 7 6 6 7 5 8 4 9 3 10 2 11 1 12 13 13
REMARK SMILES IDX 14 14 15 15 16 16 17 17 18 18 19 19 20 20 21 21 22 22 23 23
REMARK SMILES IDX 24 24
REMARK H PARENT
REMARK Flexibility Score: inf
ROOT
ATOM      1  C   UNL     1      -4.193   0.851   2.634  1.00  0.00     0.000 C 
ENDROOT
BRANCH   1   2
ATOM      2  C   UNL     1      -5.454   0.062   2.238  1.00  0.00     0.000 C 
BRANCH   2   3
ATOM      3  C   UNL     1      -6.552  -0.017   3.318  1.00  0.00     0.000 C 
BRANCH   3   4
ATOM      4  C   UNL     1      -6.765  -1.409   3.941  1.00  0.00    -0.000 C 
BRANCH   4   5
ATOM      5  C   UNL     1      -6.017  -1.585   5.273  1.00  0.00    -0.000 C 
BRANCH   5   6
ATOM      6  C   UNL     1      -4.731  -2.415   5.125  1.00  0.00    -0.000 C 
BRANCH   6   7
ATOM      7  C   UNL     1      -3.456  -1.572   5.301  1.00  0.00    -0.000 C 
BRANCH   7   8
ATOM      8  C   UNL     1      -3.494  -0.690   6.560  1.00  0.00    -0.000 C 
BRANCH   8   9
ATOM      9  C   UNL     1      -2.279  -0.884   7.491  1.00  0.00    -0.000 C 
BRANCH   9  10
ATOM     10  C   UNL     1      -2.088   0.299   8.453  1.00  0.00    -0.000 C 
BRANCH  10  11
ATOM     11  C   UNL     1      -2.515   1.616   7.795  1.00  0.00    -0.003 C 
ATOM     12  C   UNL     1      -2.870   2.667   8.844  1.00  0.00     0.004 C 
ENDBRANCH  10  11
ENDBRANCH   9  10
ENDBRANCH   8   9
ENDBRANCH   7   8
ENDBRANCH   6   7
ENDBRANCH   5   6
ENDBRANCH   4   5
ENDBRANCH   3   4
ENDBRANCH   2   3
ENDBRANCH   1   2
BRANCH   1  13
ATOM     13  C   UNL     1      -4.506   2.094   3.484  1.00  0.00     0.000 C 
BRANCH  13  14
ATOM     14  C   UNL     1      -3.386   2.429   4.485  1.00  0.00     0.000 C 
BRANCH  14  15
ATOM     15  C   UNL     1      -3.223   3.927   4.812  1.00  0.00     0.000 C 
BRANCH  15  16
ATOM     16  C   UNL     1      -4.279   4.504   5.771  1.00  0.00     0.000 C 
BRANCH  16  17
ATOM     17  C   UNL     1      -5.387   5.275   5.039  1.00  0.00     0.000 C 
BRANCH  17  18
ATOM     18  C   UNL     1      -4.798   6.336   4.098  1.00  0.00     0.000 C 
BRANCH  18  19
ATOM     19  C   UNL     1      -5.749   6.662   2.929  1.00  0.00     0.000 C 
BRANCH  19  20
ATOM     20  C   UNL     1      -7.038   5.821   2.919  1.00  0.00     0.006 C 
BRANCH  20  21
ATOM     21  C   UNL     1      -7.972   6.115   1.730  1.00  0.00     0.053 C 
BRANCH  21  22
ATOM     22  C   UNL     1      -9.394   5.720   2.004  1.00  0.00     0.041 C 
ATOM     23  O   UNL     1     -10.240   5.714   1.073  1.00  0.00    -0.550 OA
ATOM     24  O   UNL     1      -9.769   5.300   3.275  1.00  0.00    -0.550 OA
ENDBRANCH  21  22
ENDBRANCH  20  21
ENDBRANCH  19  20
ENDBRANCH  18  19
ENDBRANCH  17  18
ENDBRANCH  16  17
ENDBRANCH  15  16
ENDBRANCH  14  15
ENDBRANCH  13  14
ENDBRANCH   1  13
TORSDOF 20
ENDMDL
MODEL 2
REMARK VINA RESULT:    -6.811      3.635      8.702
REMARK INTER + INTRA:         -17.243
REMARK INTER:                 -15.545
REMARK INTRA:                  -1.698
REMARK UNBOUND:                -2.469
REMARK SMILES CCCCCCCCCCCCCCCCCCCCCC(=O)[O-]
REMARK SMILES IDX 12 1 11 2 10 3 9 4 8 5 7 6 6 7 5 8 4 9 3 10 2 11 1 12 13 13
REMARK SMILES IDX 14 14 15 15 16 16 17 17 18 18 19 19 20 20 21 21 22 22 23 23
REMARK SMILES IDX 24 24
REMARK H PARENT
REMARK Flexibility Score: inf
ROOT
ATOM      1  C   UNL     1      -4.321   1.864   3.472  1.00  0.00     0.000 C 
ENDROOT
BRANCH   1   2
ATOM      2  C   UNL     1      -3.534   2.147   4.764  1.00  0.00     0.000 C 
BRANCH   2   3
ATOM      3  C   UNL     1      -3.186   3.629   5.015  1.00  0.00     0.000 C 
BRANCH   3   4
ATOM      4  C   UNL     1      -4.374   4.526   5.411  1.00  0.00    -0.000 C 
BRANCH   4   5
ATOM      5  C   UNL     1      -4.431   5.832   4.599  1.00  0.00    -0.000 C 
BRANCH   5   6
ATOM      6  C   UNL     1      -5.802   6.064   3.946  1.00  0.00    -0.000 C 
BRANCH   6   7
ATOM      7  C   UNL     1      -5.697   6.734   2.565  1.00  0.00    -0.000 C 
BRANCH   7   8
ATOM      8  C   UNL     1      -6.893   6.411   1.654  1.00  0.00    -0.000 C 
BRANCH   8   9
ATOM      9  C   UNL     1      -8.170   6.013   2.423  1.00  0.00    -0.000 C 
BRANCH   9  10
ATOM     10  C   UNL     1      -9.383   5.856   1.493  1.00  0.00    -0.000 C 
BRANCH  10  11
ATOM     11  C   UNL     1     -10.683   5.752   2.299  1.00  0.00    -0.003 C 
ATOM     12  C   UNL     1     -10.483   6.233   3.734  1.00  0.00     0.004 C 
ENDBRANCH  10  11
ENDBRANCH   9  10
ENDBRANCH   8   9
ENDBRANCH   7   8
ENDBRANCH   6   7
ENDBRANCH   5   6
ENDBRANCH   4   5
ENDBRANCH   3   4
ENDBRANCH   2   3
ENDBRANCH   1   2
BRANCH   1  13
ATOM     13  C   UNL     1      -4.501   0.361   3.197  1.00  0.00     0.000 C 
BRANCH  13  14
ATOM     14  C   UNL     1      -5.981  -0.060   3.136  1.00  0.00     0.000 C 
BRANCH  14  15
ATOM     15  C   UNL     1      -6.339  -1.320   3.949  1.00  0.00     0.000 C 
BRANCH  15  16
ATOM     16  C   UNL     1      -5.553  -1.496   5.261  1.00  0.00     0.000 C 
BRANCH  16  17
ATOM     17  C   UNL     1      -4.505  -2.615   5.178  1.00  0.00     0.000 C 
BRANCH  17  18
ATOM     18  C   UNL     1      -3.361  -2.380   6.176  1.00  0.00     0.000 C 
BRANCH  18  19
ATOM     19  C   UNL     1      -3.437  -0.981   6.820  1.00  0.00     0.000 C 
BRANCH  19  20
ATOM     20  C   UNL     1      -2.233  -0.641   7.716  1.00  0.00     0.006 C 
BRANCH  20  21
ATOM     21  C   UNL     1      -2.181   0.830   8.169  1.00  0.00     0.053 C 
BRANCH  21  22
ATOM     22  C   UNL     1      -1.179   1.062   9.261  1.00  0.00     0.041 C 
ATOM     23  O   UNL     1      -0.790   2.228   9.527  1.00  0.00    -0.550 OA
ATOM     24  O   UNL     1      -0.720  -0.005  10.026  1.00  0.00    -0.550 OA
ENDBRANCH  21  22
ENDBRANCH  20  21
ENDBRANCH  19  20
ENDBRANCH  18  19
ENDBRANCH  17  18
ENDBRANCH  16  17
ENDBRANCH  15  16
ENDBRANCH  14  15
ENDBRANCH  13  14
ENDBRANCH   1  13
TORSDOF 20
ENDMDL
MODEL 3
REMARK VINA RESULT:    -6.763      3.719      8.279
REMARK INTER + INTRA:         -17.140
REMARK INTER:                 -15.429
REMARK INTRA:                  -1.711
REMARK UNBOUND:                -2.469
REMARK SMILES CCCCCCCCCCCCCCCCCCCCCC(=O)[O-]
REMARK SMILES IDX 12 1 11 2 10 3 9 4 8 5 7 6 6 7 5 8 4 9 3 10 2 11 1 12 13 13
REMARK SMILES IDX 14 14 15 15 16 16 17 17 18 18 19 19 20 20 21 21 22 22 23 23
REMARK SMILES IDX 24 24
REMARK H PARENT
REMARK Flexibility Score: inf
ROOT
ATOM      1  C   UNL     1      -5.408   0.374   2.120  1.00  0.00     0.000 C 
ENDROOT
BRANCH   1   2
ATOM      2  C   UNL     1      -4.032   0.740   2.706  1.00  0.00     0.000 C 
BRANCH   2   3
ATOM      3  C   UNL     1      -4.063   1.688   3.923  1.00  0.00     0.000 C 
BRANCH   3   4
ATOM      4  C   UNL     1      -2.908   2.705   3.994  1.00  0.00    -0.000 C 
BRANCH   4   5
ATOM      5  C   UNL     1      -3.079   3.720   5.138  1.00  0.00    -0.000 C 
BRANCH   5   6
ATOM      6  C   UNL     1      -3.663   5.058   4.659  1.00  0.00    -0.000 C 
BRANCH   6   7
ATOM      7  C   UNL     1      -5.135   5.244   5.067  1.00  0.00    -0.000 C 
BRANCH   7   8
ATOM      8  C   UNL     1      -6.104   5.112   3.880  1.00  0.00    -0.000 C 
BRANCH   8   9
ATOM      9  C   UNL     1      -6.150   6.361   2.975  1.00  0.00    -0.000 C 
BRANCH   9  10
ATOM     10  C   UNL     1      -7.048   6.155   1.745  1.00  0.00    -0.000 C 
BRANCH  10  11
ATOM     11  C   UNL     1      -8.503   5.913   2.162  1.00  0.00    -0.003 C 
ATOM     12  C   UNL     1      -9.430   5.904   0.950  1.00  0.00     0.004 C 
ENDBRANCH  10  11
ENDBRANCH   9  10
ENDBRANCH   8   9
ENDBRANCH   7   8
ENDBRANCH   6   7
ENDBRANCH   5   6
ENDBRANCH   4   5
ENDBRANCH   3   4
ENDBRANCH   2   3
ENDBRANCH   1   2
BRANCH   1  13
ATOM     13  C   UNL     1      -6.489   0.187   3.198  1.00  0.00     0.000 C 
BRANCH  13  14
ATOM     14  C   UNL     1      -6.693  -1.289   3.586  1.00  0.00     0.000 C 
BRANCH  14  15
ATOM     15  C   UNL     1      -6.071  -1.705   4.934  1.00  0.00     0.000 C 
BRANCH  15  16
ATOM     16  C   UNL     1      -4.553  -1.954   4.903  1.00  0.00     0.000 C 
BRANCH  16  17
ATOM     17  C   UNL     1      -4.098  -2.980   5.952  1.00  0.00     0.000 C 
BRANCH  17  18
ATOM     18  C   UNL     1      -2.907  -2.454   6.764  1.00  0.00     0.000 C 
BRANCH  18  19
ATOM     19  C   UNL     1      -2.963  -0.923   6.946  1.00  0.00     0.000 C 
BRANCH  19  20
ATOM     20  C   UNL     1      -1.905  -0.370   7.916  1.00  0.00     0.006 C 
BRANCH  20  21
ATOM     21  C   UNL     1      -2.244   1.017   8.494  1.00  0.00     0.053 C 
BRANCH  21  22
ATOM     22  C   UNL     1      -1.141   1.571   9.347  1.00  0.00     0.041 C 
ATOM     23  O   UNL     1      -1.382   1.960  10.519  1.00  0.00    -0.550 OA
ATOM     24  O   UNL     1       0.164   1.599   8.869  1.00  0.00    -0.550 OA
ENDBRANCH  21  22
ENDBRANCH  20  21
ENDBRANCH  19  20
ENDBRANCH  18  19
ENDBRANCH  17  18
ENDBRANCH  16  17
ENDBRANCH  15  16
ENDBRANCH  14  15
ENDBRANCH  13  14
ENDBRANCH   1  13
TORSDOF 20
ENDMDL
MODEL 4
REMARK VINA RESULT:    -6.602      1.899      2.852
REMARK INTER + INTRA:         -16.790
REMARK INTER:                 -15.362
REMARK INTRA:                  -1.429
REMARK UNBOUND:                -2.469
REMARK SMILES CCCCCCCCCCCCCCCCCCCCCC(=O)[O-]
REMARK SMILES IDX 12 1 11 2 10 3 9 4 8 5 7 6 6 7 5 8 4 9 3 10 2 11 1 12 13 13
REMARK SMILES IDX 14 14 15 15 16 16 17 17 18 18 19 19 20 20 21 21 22 22 23 23
REMARK SMILES IDX 24 24
REMARK H PARENT
REMARK Flexibility Score: inf
ROOT
ATOM      1  C   UNL     1      -4.082   0.950   2.981  1.00  0.00     0.000 C 
ENDROOT
BRANCH   1   2
ATOM      2  C   UNL     1      -5.224   0.217   2.253  1.00  0.00     0.000 C 
BRANCH   2   3
ATOM      3  C   UNL     1      -6.526   0.051   3.063  1.00  0.00     0.000 C 
BRANCH   3   4
ATOM      4  C   UNL     1      -6.768  -1.358   3.637  1.00  0.00    -0.000 C 
BRANCH   4   5
ATOM      5  C   UNL     1      -6.121  -1.556   5.019  1.00  0.00    -0.000 C 
BRANCH   5   6
ATOM      6  C   UNL     1      -4.775  -2.295   4.942  1.00  0.00    -0.000 C 
BRANCH   6   7
ATOM      7  C   UNL     1      -3.662  -1.586   5.732  1.00  0.00    -0.000 C 
BRANCH   7   8
ATOM      8  C   UNL     1      -2.907  -2.533   6.679  1.00  0.00    -0.000 C 
BRANCH   8   9
ATOM      9  C   UNL     1      -3.488  -3.963   6.720  1.00  0.00    -0.000 C 
BRANCH   9  10
ATOM     10  C   UNL     1      -2.477  -4.986   7.261  1.00  0.00    -0.000 C 
BRANCH  10  11
ATOM     11  C   UNL     1      -3.134  -5.917   8.286  1.00  0.00    -0.003 C 
ATOM     12  C   UNL     1      -2.821  -5.476   9.714  1.00  0.00     0.004 C 
ENDBRANCH  10  11
ENDBRANCH   9  10
ENDBRANCH   8   9
ENDBRANCH   7   8
ENDBRANCH   6   7
ENDBRANCH   5   6
ENDBRANCH   4   5
ENDBRANCH   3   4
ENDBRANCH   2   3
ENDBRANCH   1   2
BRANCH   1  13
ATOM     13  C   UNL     1      -4.537   2.262   3.642  1.00  0.00     0.000 C 
BRANCH  13  14
ATOM     14  C   UNL     1      -3.444   2.896   4.521  1.00  0.00     0.000 C 
BRANCH  14  15
ATOM     15  C   UNL     1      -3.913   4.067   5.408  1.00  0.00     0.000 C 
BRANCH  15  16
ATOM     16  C   UNL     1      -3.993   5.431   4.700  1.00  0.00     0.000 C 
BRANCH  16  17
ATOM     17  C   UNL     1      -5.411   6.021   4.708  1.00  0.00     0.000 C 
BRANCH  17  18
ATOM     18  C   UNL     1      -5.918   6.267   3.280  1.00  0.00     0.000 C 
BRANCH  18  19
ATOM     19  C   UNL     1      -7.294   5.613   3.036  1.00  0.00     0.000 C 
BRANCH  19  20
ATOM     20  C   UNL     1      -7.926   5.977   1.680  1.00  0.00     0.006 C 
BRANCH  20  21
ATOM     21  C   UNL     1      -9.467   5.964   1.681  1.00  0.00     0.053 C 
BRANCH  21  22
ATOM     22  C   UNL     1     -10.039   5.645   3.031  1.00  0.00     0.041 C 
ATOM     23  O   UNL     1     -10.263   6.566   3.858  1.00  0.00    -0.550 OA
ATOM     24  O   UNL     1     -10.382   4.336   3.351  1.00  0.00    -0.550 OA
ENDBRANCH  21  22
ENDBRANCH  20  21
ENDBRANCH  19  20
ENDBRANCH  18  19
ENDBRANCH  17  18
ENDBRANCH  16  17
ENDBRANCH  15  16
ENDBRANCH  14  15
ENDBRANCH  13  14
ENDBRANCH   1  13
TORSDOF 20
ENDMDL
MODEL 5
REMARK VINA RESULT:    -6.591      4.741      9.314
REMARK INTER + INTRA:         -16.765
REMARK INTER:                 -15.011
REMARK INTRA:                  -1.754
REMARK UNBOUND:                -2.469
REMARK SMILES CCCCCCCCCCCCCCCCCCCCCC(=O)[O-]
REMARK SMILES IDX 12 1 11 2 10 3 9 4 8 5 7 6 6 7 5 8 4 9 3 10 2 11 1 12 13 13
REMARK SMILES IDX 14 14 15 15 16 16 17 17 18 18 19 19 20 20 21 21 22 22 23 23
REMARK SMILES IDX 24 24
REMARK H PARENT
REMARK Flexibility Score: inf
ROOT
ATOM      1  C   UNL     1      -5.122   0.328   2.418  1.00  0.00     0.000 C 
ENDROOT
BRANCH   1   2
ATOM      2  C   UNL     1      -3.989   1.106   3.110  1.00  0.00     0.000 C 
BRANCH   2   3
ATOM      3  C   UNL     1      -4.425   2.383   3.858  1.00  0.00     0.000 C 
BRANCH   3   4
ATOM      4  C   UNL     1      -3.296   3.137   4.587  1.00  0.00    -0.000 C 
BRANCH   4   5
ATOM      5  C   UNL     1      -3.575   4.644   4.718  1.00  0.00    -0.000 C 
BRANCH   5   6
ATOM      6  C   UNL     1      -5.009   4.943   5.184  1.00  0.00    -0.000 C 
BRANCH   6   7
ATOM      7  C   UNL     1      -5.573   6.238   4.574  1.00  0.00    -0.000 C 
BRANCH   7   8
ATOM      8  C   UNL     1      -5.427   6.290   3.044  1.00  0.00    -0.000 C 
BRANCH   8   9
ATOM      9  C   UNL     1      -6.765   6.160   2.288  1.00  0.00    -0.000 C 
BRANCH   9  10
ATOM     10  C   UNL     1      -7.912   5.713   3.208  1.00  0.00    -0.000 C 
BRANCH  10  11
ATOM     11  C   UNL     1      -9.259   5.780   2.479  1.00  0.00    -0.003 C 
ATOM     12  C   UNL     1      -9.065   5.971   0.977  1.00  0.00     0.004 C 
ENDBRANCH  10  11
ENDBRANCH   9  10
ENDBRANCH   8   9
ENDBRANCH   7   8
ENDBRANCH   6   7
ENDBRANCH   5   6
ENDBRANCH   4   5
ENDBRANCH   3   4
ENDBRANCH   2   3
ENDBRANCH   1   2
BRANCH   1  13
ATOM     13  C   UNL     1      -6.341   0.106   3.329  1.00  0.00     0.000 C 
BRANCH  13  14
ATOM     14  C   UNL     1      -6.525  -1.369   3.731  1.00  0.00     0.000 C 
BRANCH  14  15
ATOM     15  C   UNL     1      -6.021  -1.732   5.142  1.00  0.00     0.000 C 
BRANCH  15  16
ATOM     16  C   UNL     1      -4.544  -2.159   5.218  1.00  0.00     0.000 C 
BRANCH  16  17
ATOM     17  C   UNL     1      -3.666  -1.131   5.946  1.00  0.00     0.000 C 
BRANCH  17  18
ATOM     18  C   UNL     1      -2.873  -1.785   7.087  1.00  0.00     0.000 C 
BRANCH  18  19
ATOM     19  C   UNL     1      -2.197  -3.097   6.640  1.00  0.00     0.000 C 
BRANCH  19  20
ATOM     20  C   UNL     1      -2.583  -4.320   7.490  1.00  0.00     0.006 C 
BRANCH  20  21
ATOM     21  C   UNL     1      -3.187  -5.484   6.681  1.00  0.00     0.053 C 
BRANCH  21  22
ATOM     22  C   UNL     1      -3.067  -6.801   7.391  1.00  0.00     0.041 C 
ATOM     23  O   UNL     1      -2.852  -6.836   8.630  1.00  0.00    -0.550 OA
ATOM     24  O   UNL     1      -3.255  -7.989   6.694  1.00  0.00    -0.550 OA
ENDBRANCH  21  22
ENDBRANCH  20  21
ENDBRANCH  19  20
ENDBRANCH  18  19
ENDBRANCH  17  18
ENDBRANCH  16  17
ENDBRANCH  15  16
ENDBRANCH  14  15
ENDBRANCH  13  14
ENDBRANCH   1  13
TORSDOF 20
ENDMDL
MODEL 6
REMARK VINA RESULT:    -6.567      1.092      2.832
REMARK INTER + INTRA:         -16.715
REMARK INTER:                 -14.925
REMARK INTRA:                  -1.789
REMARK UNBOUND:                -2.469
REMARK SMILES CCCCCCCCCCCCCCCCCCCCCC(=O)[O-]
REMARK SMILES IDX 12 1 11 2 10 3 9 4 8 5 7 6 6 7 5 8 4 9 3 10 2 11 1 12 13 13
REMARK SMILES IDX 14 14 15 15 16 16 17 17 18 18 19 19 20 20 21 21 22 22 23 23
REMARK SMILES IDX 24 24
REMARK H PARENT
REMARK Flexibility Score: inf
ROOT
ATOM      1  C   UNL     1      -3.238   2.887   4.916  1.00  0.00     0.000 C 
ENDROOT
BRANCH   1   2
ATOM      2  C   UNL     1      -4.323   2.371   3.953  1.00  0.00     0.000 C 
BRANCH   2   3
ATOM      3  C   UNL     1      -4.024   1.013   3.286  1.00  0.00     0.000 C 
BRANCH   3   4
ATOM      4  C   UNL     1      -5.140   0.466   2.376  1.00  0.00    -0.000 C 
BRANCH   4   5
ATOM      5  C   UNL     1      -6.452   0.203   3.137  1.00  0.00    -0.000 C 
BRANCH   5   6
ATOM      6  C   UNL     1      -6.632  -1.277   3.512  1.00  0.00    -0.000 C 
BRANCH   6   7
ATOM      7  C   UNL     1      -6.032  -1.620   4.886  1.00  0.00    -0.000 C 
BRANCH   7   8
ATOM      8  C   UNL     1      -4.674  -2.334   4.782  1.00  0.00    -0.000 C 
BRANCH   8   9
ATOM      9  C   UNL     1      -3.870  -2.333   6.099  1.00  0.00    -0.000 C 
BRANCH   9  10
ATOM     10  C   UNL     1      -3.491  -0.914   6.548  1.00  0.00    -0.000 C 
BRANCH  10  11
ATOM     11  C   UNL     1      -2.212  -0.929   7.394  1.00  0.00    -0.003 C 
ATOM     12  C   UNL     1      -2.128   0.305   8.289  1.00  0.00     0.004 C 
ENDBRANCH  10  11
ENDBRANCH   9  10
ENDBRANCH   8   9
ENDBRANCH   7   8
ENDBRANCH   6   7
ENDBRANCH   5   6
ENDBRANCH   4   5
ENDBRANCH   3   4
ENDBRANCH   2   3
ENDBRANCH   1   2
BRANCH   1  13
ATOM     13  C   UNL     1      -3.714   4.067   5.779  1.00  0.00     0.000 C 
BRANCH  13  14
ATOM     14  C   UNL     1      -4.972   4.751   5.212  1.00  0.00     0.000 C 
BRANCH  14  15
ATOM     15  C   UNL     1      -4.727   6.107   4.520  1.00  0.00     0.000 C 
BRANCH  15  16
ATOM     16  C   UNL     1      -5.893   6.619   3.656  1.00  0.00     0.000 C 
BRANCH  16  17
ATOM     17  C   UNL     1      -5.579   6.581   2.153  1.00  0.00     0.000 C 
BRANCH  17  18
ATOM     18  C   UNL     1      -6.865   6.494   1.319  1.00  0.00     0.000 C 
BRANCH  18  19
ATOM     19  C   UNL     1      -8.058   5.979   2.150  1.00  0.00     0.000 C 
BRANCH  19  20
ATOM     20  C   UNL     1      -9.398   5.993   1.394  1.00  0.00     0.006 C 
BRANCH  20  21
ATOM     21  C   UNL     1     -10.616   6.320   2.279  1.00  0.00     0.053 C 
BRANCH  21  22
ATOM     22  C   UNL     1     -10.658   5.491   3.529  1.00  0.00     0.041 C 
ATOM     23  O   UNL     1     -10.530   6.037   4.655  1.00  0.00    -0.550 OA
ATOM     24  O   UNL     1     -10.901   4.124   3.453  1.00  0.00    -0.550 OA
ENDBRANCH  21  22
ENDBRANCH  20  21
ENDBRANCH  19  20
ENDBRANCH  18  19
ENDBRANCH  17  18
ENDBRANCH  16  17
ENDBRANCH  15  16
ENDBRANCH  14  15
ENDBRANCH  13  14
ENDBRANCH   1  13
TORSDOF 20
ENDMDL
MODEL 7
REMARK VINA RESULT:    -6.433      2.313      8.016
REMARK INTER + INTRA:         -16.424
REMARK INTER:                 -14.898
REMARK INTRA:                  -1.526
REMARK UNBOUND:                -2.469
REMARK SMILES CCCCCCCCCCCCCCCCCCCCCC(=O)[O-]
REMARK SMILES IDX 12 1 11 2 10 3 9 4 8 5 7 6 6 7 5 8 4 9 3 10 2 11 1 12 13 13
REMARK SMILES IDX 14 14 15 15 16 16 17 17 18 18 19 19 20 20 21 21 22 22 23 23
REMARK SMILES IDX 24 24
REMARK H PARENT
REMARK Flexibility Score: inf
ROOT
ATOM      1  C   UNL     1      -3.650   3.331   7.283  1.00  0.00     0.000 C 
ENDROOT
BRANCH   1   2
ATOM      2  C   UNL     1      -2.882   2.986   5.993  1.00  0.00     0.000 C 
BRANCH   2   3
ATOM      3  C   UNL     1      -3.138   3.929   4.799  1.00  0.00     0.000 C 
BRANCH   3   4
ATOM      4  C   UNL     1      -4.491   4.664   4.819  1.00  0.00    -0.000 C 
BRANCH   4   5
ATOM      5  C   UNL     1      -4.363   6.155   4.459  1.00  0.00    -0.000 C 
BRANCH   5   6
ATOM      6  C   UNL     1      -5.637   6.720   3.812  1.00  0.00    -0.000 C 
BRANCH   6   7
ATOM      7  C   UNL     1      -5.780   6.319   2.333  1.00  0.00    -0.000 C 
BRANCH   7   8
ATOM      8  C   UNL     1      -7.245   6.260   1.871  1.00  0.00    -0.000 C 
BRANCH   8   9
ATOM      9  C   UNL     1      -8.200   5.642   2.914  1.00  0.00    -0.000 C 
BRANCH   9  10
ATOM     10  C   UNL     1      -9.661   5.639   2.436  1.00  0.00    -0.000 C 
BRANCH  10  11
ATOM     11  C   UNL     1      -9.743   5.855   0.920  1.00  0.00    -0.003 C 
ATOM     12  C   UNL     1     -10.830   6.865   0.564  1.00  0.00     0.004 C 
ENDBRANCH  10  11
ENDBRANCH   9  10
ENDBRANCH   8   9
ENDBRANCH   7   8
ENDBRANCH   6   7
ENDBRANCH   5   6
ENDBRANCH   4   5
ENDBRANCH   3   4
ENDBRANCH   2   3
ENDBRANCH   1   2
BRANCH   1  13
ATOM     13  C   UNL     1      -3.005   2.732   8.543  1.00  0.00     0.000 C 
BRANCH  13  14
ATOM     14  C   UNL     1      -1.828   1.794   8.222  1.00  0.00     0.000 C 
BRANCH  14  15
ATOM     15  C   UNL     1      -1.911   0.392   8.860  1.00  0.00     0.000 C 
BRANCH  15  16
ATOM     16  C   UNL     1      -1.891  -0.781   7.864  1.00  0.00     0.000 C 
BRANCH  16  17
ATOM     17  C   UNL     1      -3.149  -0.834   6.984  1.00  0.00     0.000 C 
BRANCH  17  18
ATOM     18  C   UNL     1      -3.292  -2.202   6.302  1.00  0.00     0.000 C 
BRANCH  18  19
ATOM     19  C   UNL     1      -4.579  -2.293   5.457  1.00  0.00     0.000 C 
BRANCH  19  20
ATOM     20  C   UNL     1      -4.887  -1.018   4.651  1.00  0.00     0.006 C 
BRANCH  20  21
ATOM     21  C   UNL     1      -3.962  -0.801   3.439  1.00  0.00     0.053 C 
BRANCH  21  22
ATOM     22  C   UNL     1      -4.391   0.359   2.588  1.00  0.00     0.041 C 
ATOM     23  O   UNL     1      -4.305   1.534   3.030  1.00  0.00    -0.550 OA
ATOM     24  O   UNL     1      -4.828   0.146   1.286  1.00  0.00    -0.550 OA
ENDBRANCH  21  22
ENDBRANCH  20  21
ENDBRANCH  19  20
ENDBRANCH  18  19
ENDBRANCH  17  18
ENDBRANCH  16  17
ENDBRANCH  15  16
ENDBRANCH  14  15
ENDBRANCH  13  14
ENDBRANCH   1  13
TORSDOF 20
ENDMDL
MODEL 8
REMARK VINA RESULT:    -6.411      6.024      9.866
REMARK INTER + INTRA:         -16.376
REMARK INTER:                 -15.447
REMARK INTRA:                  -0.929
REMARK UNBOUND:                -2.469
REMARK SMILES CCCCCCCCCCCCCCCCCCCCCC(=O)[O-]
REMARK SMILES IDX 12 1 11 2 10 3 9 4 8 5 7 6 6 7 5 8 4 9 3 10 2 11 1 12 13 13
REMARK SMILES IDX 14 14 15 15 16 16 17 17 18 18 19 19 20 20 21 21 22 22 23 23
REMARK SMILES IDX 24 24
REMARK H PARENT
REMARK Flexibility Score: inf
ROOT
ATOM      1  C   UNL     1      -4.737   1.394   3.273  1.00  0.00     0.000 C 
ENDROOT
BRANCH   1   2
ATOM      2  C   UNL     1      -3.641   1.689   4.314  1.00  0.00     0.000 C 
BRANCH   2   3
ATOM      3  C   UNL     1      -3.282   3.179   4.492  1.00  0.00     0.000 C 
BRANCH   3   4
ATOM      4  C   UNL     1      -4.475   4.152   4.458  1.00  0.00    -0.000 C 
BRANCH   4   5
ATOM      5  C   UNL     1      -4.043   5.627   4.537  1.00  0.00    -0.000 C 
BRANCH   5   6
ATOM      6  C   UNL     1      -5.227   6.599   4.413  1.00  0.00    -0.000 C 
BRANCH   6   7
ATOM      7  C   UNL     1      -6.450   5.961   3.732  1.00  0.00    -0.000 C 
BRANCH   7   8
ATOM      8  C   UNL     1      -6.495   6.227   2.218  1.00  0.00    -0.000 C 
BRANCH   8   9
ATOM      9  C   UNL     1      -7.921   6.223   1.629  1.00  0.00    -0.000 C 
BRANCH   9  10
ATOM     10  C   UNL     1      -8.936   5.553   2.568  1.00  0.00    -0.000 C 
BRANCH  10  11
ATOM     11  C   UNL     1     -10.352   5.620   1.985  1.00  0.00    -0.003 C 
ATOM     12  C   UNL     1     -10.318   5.871   0.479  1.00  0.00     0.004 C 
ENDBRANCH  10  11
ENDBRANCH   9  10
ENDBRANCH   8   9
ENDBRANCH   7   8
ENDBRANCH   6   7
ENDBRANCH   5   6
ENDBRANCH   4   5
ENDBRANCH   3   4
ENDBRANCH   2   3
ENDBRANCH   1   2
BRANCH   1  13
ATOM     13  C   UNL     1      -4.352   0.265   2.302  1.00  0.00     0.000 C 
BRANCH  13  14
ATOM     14  C   UNL     1      -4.965   0.449   0.902  1.00  0.00     0.000 C 
BRANCH  14  15
ATOM     15  C   UNL     1      -4.052   0.043  -0.273  1.00  0.00     0.000 C 
BRANCH  15  16
ATOM     16  C   UNL     1      -4.728   0.046  -1.656  1.00  0.00     0.000 C 
BRANCH  16  17
ATOM     17  C   UNL     1      -3.736   0.304  -2.800  1.00  0.00     0.000 C 
BRANCH  17  18
ATOM     18  C   UNL     1      -3.412  -0.992  -3.557  1.00  0.00     0.000 C 
BRANCH  18  19
ATOM     19  C   UNL     1      -2.482  -1.917  -2.745  1.00  0.00     0.000 C 
BRANCH  19  20
ATOM     20  C   UNL     1      -1.690  -2.917  -3.606  1.00  0.00     0.006 C 
BRANCH  20  21
ATOM     21  C   UNL     1      -1.059  -2.299  -4.868  1.00  0.00     0.053 C 
BRANCH  21  22
ATOM     22  C   UNL     1      -0.276  -3.298  -5.668  1.00  0.00     0.041 C 
ATOM     23  O   UNL     1      -0.232  -4.503  -5.308  1.00  0.00    -0.550 OA
ATOM     24  O   UNL     1       0.353  -2.910  -6.846  1.00  0.00    -0.550 OA
ENDBRANCH  21  22
ENDBRANCH  20  21
ENDBRANCH  19  20
ENDBRANCH  18  19
ENDBRANCH  17  18
ENDBRANCH  16  17
ENDBRANCH  15  16
ENDBRANCH  14  15
ENDBRANCH  13  14
ENDBRANCH   1  13
TORSDOF 20
ENDMDL
MODEL 9
REMARK VINA RESULT:    -6.248      5.171      7.454
REMARK INTER + INTRA:         -16.022
REMARK INTER:                 -15.069
REMARK INTRA:                  -0.953
REMARK UNBOUND:                -2.469
REMARK SMILES CCCCCCCCCCCCCCCCCCCCCC(=O)[O-]
REMARK SMILES IDX 12 1 11 2 10 3 9 4 8 5 7 6 6 7 5 8 4 9 3 10 2 11 1 12 13 13
REMARK SMILES IDX 14 14 15 15 16 16 17 17 18 18 19 19 20 20 21 21 22 22 23 23
REMARK SMILES IDX 24 24
REMARK H PARENT
REMARK Flexibility Score: inf
ROOT
ATOM      1  C   UNL     1      -5.062   0.451   2.394  1.00  0.00     0.000 C 
ENDROOT
BRANCH   1   2
ATOM      2  C   UNL     1      -4.295   0.360   1.062  1.00  0.00     0.000 C 
BRANCH   2   3
ATOM      3  C   UNL     1      -5.169   0.401  -0.209  1.00  0.00     0.000 C 
BRANCH   3   4
ATOM      4  C   UNL     1      -4.411   0.205  -1.535  1.00  0.00    -0.000 C 
BRANCH   4   5
ATOM      5  C   UNL     1      -5.112  -0.787  -2.479  1.00  0.00    -0.000 C 
BRANCH   5   6
ATOM      6  C   UNL     1      -4.189  -1.934  -2.923  1.00  0.00    -0.000 C 
BRANCH   6   7
ATOM      7  C   UNL     1      -2.801  -1.442  -3.365  1.00  0.00    -0.000 C 
BRANCH   7   8
ATOM      8  C   UNL     1      -1.851  -2.593  -3.737  1.00  0.00    -0.000 C 
BRANCH   8   9
ATOM      9  C   UNL     1      -0.964  -2.294  -4.963  1.00  0.00    -0.000 C 
BRANCH   9  10
ATOM     10  C   UNL     1      -0.156  -3.523  -5.410  1.00  0.00    -0.000 C 
BRANCH  10  11
ATOM     11  C   UNL     1      -0.173  -3.666  -6.936  1.00  0.00    -0.003 C 
ATOM     12  C   UNL     1       0.943  -4.590  -7.417  1.00  0.00     0.004 C 
ENDBRANCH  10  11
ENDBRANCH   9  10
ENDBRANCH   8   9
ENDBRANCH   7   8
ENDBRANCH   6   7
ENDBRANCH   5   6
ENDBRANCH   4   5
ENDBRANCH   3   4
ENDBRANCH   2   3
ENDBRANCH   1   2
BRANCH   1  13
ATOM     13  C   UNL     1      -4.217   1.048   3.532  1.00  0.00     0.000 C 
BRANCH  13  14
ATOM     14  C   UNL     1      -4.391   2.571   3.667  1.00  0.00     0.000 C 
BRANCH  14  15
ATOM     15  C   UNL     1      -3.618   3.219   4.834  1.00  0.00     0.000 C 
BRANCH  15  16
ATOM     16  C   UNL     1      -4.257   4.495   5.411  1.00  0.00     0.000 C 
BRANCH  16  17
ATOM     17  C   UNL     1      -4.062   5.719   4.503  1.00  0.00     0.000 C 
BRANCH  17  18
ATOM     18  C   UNL     1      -5.408   6.367   4.149  1.00  0.00     0.000 C 
BRANCH  18  19
ATOM     19  C   UNL     1      -5.523   6.671   2.641  1.00  0.00     0.000 C 
BRANCH  19  20
ATOM     20  C   UNL     1      -6.918   6.396   2.053  1.00  0.00     0.006 C 
BRANCH  20  21
ATOM     21  C   UNL     1      -7.893   5.722   3.037  1.00  0.00     0.053 C 
BRANCH  21  22
ATOM     22  C   UNL     1      -9.242   5.473   2.429  1.00  0.00     0.041 C 
ATOM     23  O   UNL     1      -9.493   5.866   1.260  1.00  0.00    -0.550 OA
ATOM     24  O   UNL     1     -10.202   4.752   3.131  1.00  0.00    -0.550 OA
ENDBRANCH  21  22
ENDBRANCH  20  21
ENDBRANCH  19  20
ENDBRANCH  18  19
ENDBRANCH  17  18
ENDBRANCH  16  17
ENDBRANCH  15  16
ENDBRANCH  14  15
ENDBRANCH  13  14
ENDBRANCH   1  13
TORSDOF 20
ENDMDL
