MODEL 1
REMARK VINA RESULT:    -3.263      0.000      0.000
REMARK INTER + INTRA:          -3.263
REMARK INTER:                  -3.263
REMARK INTRA:                   0.000
REMARK UNBOUND:                 0.000
REMARK SMILES CC1(C)C(=O)[C@@]2(C)CC[C@@H]1C2
REMARK SMILES IDX 1 1 2 2 10 3 9 4 8 5 6 6 11 7 4 8 5 9 7 10 3 11
REMARK H PARENT
REMARK Flexibility Score: inf
ROOT
ATOM      1  C   UNL     1     119.740 113.233 114.821  1.00  0.00     0.020 C 
ATOM      2  C   UNL     1     119.063 114.535 114.344  1.00  0.00     0.027 C 
ATOM      3  C   UNL     1     119.595 114.980 112.934  1.00  0.00     0.003 C 
ATOM      4  C   UNL     1     119.048 116.378 112.547  1.00  0.00     0.005 C 
ATOM      5  C   UNL     1     117.541 116.116 112.330  1.00  0.00     0.015 C 
ATOM      6  C   UNL     1     117.434 114.590 112.520  1.00  0.00     0.027 C 
ATOM      7  C   UNL     1     118.769 114.121 111.978  1.00  0.00     0.019 C 
ATOM      8  C   UNL     1     117.625 114.300 113.983  1.00  0.00     0.144 C 
ATOM      9  O   UNL     1     116.739 113.996 114.769  1.00  0.00    -0.298 OA
ATOM     10  C   UNL     1     116.213 113.932 111.875  1.00  0.00     0.020 C 
ATOM     11  C   UNL     1     119.203 115.610 115.444  1.00  0.00     0.020 C 
ENDROOT
TORSDOF 0
ENDMDL
MODEL 2
REMARK VINA RESULT:    -3.259      2.777      4.502
REMARK INTER + INTRA:          -3.259
REMARK INTER:                  -3.259
REMARK INTRA:                   0.000
REMARK UNBOUND:                 0.000
REMARK SMILES CC1(C)C(=O)[C@@]2(C)CC[C@@H]1C2
REMARK SMILES IDX 1 1 2 2 10 3 9 4 8 5 6 6 11 7 4 8 5 9 7 10 3 11
REMARK H PARENT
REMARK Flexibility Score: inf
ROOT
ATOM      1  C   UNL     1     115.780 119.029 114.374  1.00  0.00     0.020 C 
ATOM      2  C   UNL     1     116.695 118.852 113.143  1.00  0.00     0.027 C 
ATOM      3  C   UNL     1     118.095 119.529 113.361  1.00  0.00     0.003 C 
ATOM      4  C   UNL     1     118.936 119.504 112.059  1.00  0.00     0.005 C 
ATOM      5  C   UNL     1     119.252 118.003 111.875  1.00  0.00     0.015 C 
ATOM      6  C   UNL     1     118.642 117.373 113.142  1.00  0.00     0.027 C 
ATOM      7  C   UNL     1     118.856 118.473 114.163  1.00  0.00     0.019 C 
ATOM      8  C   UNL     1     117.146 117.427 113.003  1.00  0.00     0.144 C 
ATOM      9  O   UNL     1     116.422 116.478 112.741  1.00  0.00    -0.298 OA
ATOM     10  C   UNL     1     119.215 116.011 113.539  1.00  0.00     0.020 C 
ATOM     11  C   UNL     1     115.944 119.336 111.883  1.00  0.00     0.020 C 
ENDROOT
TORSDOF 0
ENDMDL
MODEL 3
REMARK VINA RESULT:    -3.240      4.494      5.903
REMARK INTER + INTRA:          -3.240
REMARK INTER:                  -3.240
REMARK INTRA:                   0.000
REMARK UNBOUND:                 0.000
REMARK SMILES CC1(C)C(=O)[C@@]2(C)CC[C@@H]1C2
REMARK SMILES IDX 1 1 2 2 10 3 9 4 8 5 6 6 11 7 4 8 5 9 7 10 3 11
REMARK H PARENT
REMARK Flexibility Score: inf
ROOT
ATOM      1  C   UNL     1     113.508 119.847 114.886  1.00  0.00     0.020 C 
ATOM      2  C   UNL     1     114.168 118.638 114.189  1.00  0.00     0.027 C 
ATOM      3  C   UNL     1     113.637 118.458 112.721  1.00  0.00     0.003 C 
ATOM      4  C   UNL     1     114.166 117.142 112.095  1.00  0.00     0.005 C 
ATOM      5  C   UNL     1     115.678 117.415 111.932  1.00  0.00     0.015 C 
ATOM      6  C   UNL     1     115.806 118.880 112.390  1.00  0.00     0.027 C 
ATOM      7  C   UNL     1     114.482 119.459 111.934  1.00  0.00     0.019 C 
ATOM      8  C   UNL     1     115.612 118.911 113.880  1.00  0.00     0.144 C 
ATOM      9  O   UNL     1     116.497 119.057 114.711  1.00  0.00    -0.298 OA
ATOM     10  C   UNL     1     117.041 119.623 111.875  1.00  0.00     0.020 C 
ATOM     11  C   UNL     1     114.005 117.388 115.081  1.00  0.00     0.020 C 
ENDROOT
TORSDOF 0
ENDMDL
MODEL 4
REMARK VINA RESULT:    -3.238      2.902      4.155
REMARK INTER + INTRA:          -3.238
REMARK INTER:                  -3.238
REMARK INTRA:                   0.000
REMARK UNBOUND:                 0.000
REMARK SMILES CC1(C)C(=O)[C@@]2(C)CC[C@@H]1C2
REMARK SMILES IDX 1 1 2 2 10 3 9 4 8 5 6 6 11 7 4 8 5 9 7 10 3 11
REMARK H PARENT
REMARK Flexibility Score: inf
ROOT
ATOM      1  C   UNL     1     113.444 113.456 114.794  1.00  0.00     0.020 C 
ATOM      2  C   UNL     1     114.647 114.169 114.141  1.00  0.00     0.027 C 
ATOM      3  C   UNL     1     114.877 113.682 112.666  1.00  0.00     0.003 C 
ATOM      4  C   UNL     1     116.191 114.266 112.084  1.00  0.00     0.005 C 
ATOM      5  C   UNL     1     115.875 115.772 111.952  1.00  0.00     0.015 C 
ATOM      6  C   UNL     1     114.395 115.845 112.377  1.00  0.00     0.027 C 
ATOM      7  C   UNL     1     113.869 114.515 111.876  1.00  0.00     0.019 C 
ATOM      8  C   UNL     1     114.336 115.612 113.862  1.00  0.00     0.144 C 
ATOM      9  O   UNL     1     114.144 116.471 114.710  1.00  0.00    -0.298 OA
ATOM     10  C   UNL     1     113.627 117.068 111.875  1.00  0.00     0.020 C 
ATOM     11  C   UNL     1     115.880 114.023 115.059  1.00  0.00     0.020 C 
ENDROOT
TORSDOF 0
ENDMDL
MODEL 5
REMARK VINA RESULT:    -3.205      2.902      4.156
REMARK INTER + INTRA:          -3.205
REMARK INTER:                  -3.205
REMARK INTRA:                   0.000
REMARK UNBOUND:                 0.000
REMARK SMILES CC1(C)C(=O)[C@@]2(C)CC[C@@H]1C2
REMARK SMILES IDX 1 1 2 2 10 3 9 4 8 5 6 6 11 7 4 8 5 9 7 10 3 11
REMARK H PARENT
REMARK Flexibility Score: inf
ROOT
ATOM      1  C   UNL     1     119.601 119.665 115.035  1.00  0.00     0.020 C 
ATOM      2  C   UNL     1     118.387 119.076 114.285  1.00  0.00     0.027 C 
ATOM      3  C   UNL     1     118.261 119.667 112.835  1.00  0.00     0.003 C 
ATOM      4  C   UNL     1     116.942 119.211 112.159  1.00  0.00     0.005 C 
ATOM      5  C   UNL     1     117.165 117.697 111.945  1.00  0.00     0.015 C 
ATOM      6  C   UNL     1     118.615 117.499 112.430  1.00  0.00     0.027 C 
ATOM      7  C   UNL     1     119.250 118.817 112.039  1.00  0.00     0.019 C 
ATOM      8  C   UNL     1     118.616 117.636 113.927  1.00  0.00     0.144 C 
ATOM      9  O   UNL     1     118.711 116.715 114.726  1.00  0.00    -0.298 OA
ATOM     10  C   UNL     1     119.325 116.258 111.885  1.00  0.00     0.020 C 
ATOM     11  C   UNL     1     117.123 119.250 115.155  1.00  0.00     0.020 C 
ENDROOT
TORSDOF 0
ENDMDL
MODEL 6
REMARK VINA RESULT:    -3.141      3.905      5.383
REMARK INTER + INTRA:          -3.141
REMARK INTER:                  -3.141
REMARK INTRA:                   0.000
REMARK UNBOUND:                 0.000
REMARK SMILES CC1(C)C(=O)[C@@]2(C)CC[C@@H]1C2
REMARK SMILES IDX 1 1 2 2 10 3 9 4 8 5 6 6 11 7 4 8 5 9 7 10 3 11
REMARK H PARENT
REMARK Flexibility Score: inf
ROOT
ATOM      1  C   UNL     1     114.261 116.126 114.677  1.00  0.00     0.020 C 
ATOM      2  C   UNL     1     114.481 116.913 113.368  1.00  0.00     0.027 C 
ATOM      3  C   UNL     1     113.844 118.347 113.442  1.00  0.00     0.003 C 
ATOM      4  C   UNL     1     113.910 119.058 112.065  1.00  0.00     0.005 C 
ATOM      5  C   UNL     1     115.422 119.313 111.875  1.00  0.00     0.015 C 
ATOM      6  C   UNL     1     116.017 118.809 113.204  1.00  0.00     0.027 C 
ATOM      7  C   UNL     1     114.912 119.150 114.183  1.00  0.00     0.019 C 
ATOM      8  C   UNL     1     115.921 117.308 113.207  1.00  0.00     0.144 C 
ATOM      9  O   UNL     1     116.851 116.535 113.029  1.00  0.00    -0.298 OA
ATOM     10  C   UNL     1     117.391 119.377 113.566  1.00  0.00     0.020 C 
ATOM     11  C   UNL     1     113.991 116.060 112.177  1.00  0.00     0.020 C 
ENDROOT
TORSDOF 0
ENDMDL
MODEL 7
REMARK VINA RESULT:    -3.137      1.622      2.804
REMARK INTER + INTRA:          -3.137
REMARK INTER:                  -3.137
REMARK INTRA:                   0.000
REMARK UNBOUND:                 0.000
REMARK SMILES CC1(C)C(=O)[C@@]2(C)CC[C@@H]1C2
REMARK SMILES IDX 1 1 2 2 10 3 9 4 8 5 6 6 11 7 4 8 5 9 7 10 3 11
REMARK H PARENT
REMARK Flexibility Score: inf
ROOT
ATOM      1  C   UNL     1     118.130 117.908 114.172  1.00  0.00     0.020 C 
ATOM      2  C   UNL     1     118.453 116.901 113.048  1.00  0.00     0.027 C 
ATOM      3  C   UNL     1     119.220 115.646 113.598  1.00  0.00     0.003 C 
ATOM      4  C   UNL     1     119.699 114.732 112.441  1.00  0.00     0.005 C 
ATOM      5  C   UNL     1     118.378 114.165 111.875  1.00  0.00     0.015 C 
ATOM      6  C   UNL     1     117.323 114.742 112.838  1.00  0.00     0.027 C 
ATOM      7  C   UNL     1     118.090 114.775 114.145  1.00  0.00     0.019 C 
ATOM      8  C   UNL     1     117.210 116.216 112.559  1.00  0.00     0.144 C 
ATOM      9  O   UNL     1     116.291 116.758 111.962  1.00  0.00    -0.298 OA
ATOM     10  C   UNL     1     115.997 113.982 112.893  1.00  0.00     0.020 C 
ATOM     11  C   UNL     1     119.181 117.639 111.902  1.00  0.00     0.020 C 
ENDROOT
TORSDOF 0
ENDMDL
MODEL 8
REMARK VINA RESULT:    -3.071      2.495      3.973
REMARK INTER + INTRA:          -3.071
REMARK INTER:                  -3.071
REMARK INTRA:                   0.000
REMARK UNBOUND:                 0.000
REMARK SMILES CC1(C)C(=O)[C@@]2(C)CC[C@@H]1C2
REMARK SMILES IDX 1 1 2 2 10 3 9 4 8 5 6 6 11 7 4 8 5 9 7 10 3 11
REMARK H PARENT
REMARK Flexibility Score: inf
ROOT
ATOM      1  C   UNL     1     117.353 114.375 114.394  1.00  0.00     0.020 C 
ATOM      2  C   UNL     1     116.478 114.656 113.153  1.00  0.00     0.027 C 
ATOM      3  C   UNL     1     115.058 113.998 113.286  1.00  0.00     0.003 C 
ATOM      4  C   UNL     1     114.256 114.130 111.965  1.00  0.00     0.005 C 
ATOM      5  C   UNL     1     113.977 115.647 111.875  1.00  0.00     0.015 C 
ATOM      6  C   UNL     1     114.563 116.176 113.199  1.00  0.00     0.027 C 
ATOM      7  C   UNL     1     114.297 115.015 114.136  1.00  0.00     0.019 C 
ATOM      8  C   UNL     1     116.061 116.097 113.097  1.00  0.00     0.144 C 
ATOM      9  O   UNL     1     116.813 117.045 112.920  1.00  0.00    -0.298 OA
ATOM     10  C   UNL     1     114.008 117.521 113.671  1.00  0.00     0.020 C 
ATOM     11  C   UNL     1     117.255 114.241 111.883  1.00  0.00     0.020 C 
ENDROOT
TORSDOF 0
ENDMDL
MODEL 9
REMARK VINA RESULT:    -3.035      1.431      2.556
REMARK INTER + INTRA:          -3.035
REMARK INTER:                  -3.035
REMARK INTRA:                   0.000
REMARK UNBOUND:                 0.000
REMARK SMILES CC1(C)C(=O)[C@@]2(C)CC[C@@H]1C2
REMARK SMILES IDX 1 1 2 2 10 3 9 4 8 5 6 6 11 7 4 8 5 9 7 10 3 11
REMARK H PARENT
REMARK Flexibility Score: inf
ROOT
ATOM      1  C   UNL     1     116.891 114.371 115.103  1.00  0.00     0.020 C 
ATOM      2  C   UNL     1     118.166 114.470 114.238  1.00  0.00     0.027 C 
ATOM      3  C   UNL     1     117.877 114.099 112.740  1.00  0.00     0.003 C 
ATOM      4  C   UNL     1     119.191 114.024 111.920  1.00  0.00     0.005 C 
ATOM      5  C   UNL     1     119.660 115.496 111.875  1.00  0.00     0.015 C 
ATOM      6  C   UNL     1     118.510 116.237 112.583  1.00  0.00     0.027 C 
ATOM      7  C   UNL     1     117.312 115.402 112.175  1.00  0.00     0.019 C 
ATOM      8  C   UNL     1     118.583 115.899 114.047  1.00  0.00     0.144 C 
ATOM      9  O   UNL     1     118.989 116.642 114.928  1.00  0.00    -0.298 OA
ATOM     10  C   UNL     1     118.391 117.728 112.260  1.00  0.00     0.020 C 
ATOM     11  C   UNL     1     119.288 113.635 114.895  1.00  0.00     0.020 C 
ENDROOT
TORSDOF 0
ENDMDL
