MODEL 1
REMARK VINA RESULT:    -3.308      0.000      0.000
REMARK INTER + INTRA:          -8.078
REMARK INTER:                  -6.015
REMARK INTRA:                  -2.062
REMARK UNBOUND:                -2.062
REMARK SMILES CCCCCCCCCCCCCCCC(=O)[O-]
REMARK SMILES IDX 9 1 10 2 11 3 12 4 13 5 14 6 15 7 16 8 17 9 18 10 8 11 7 12
REMARK SMILES IDX 6 13 5 14 4 15 3 16 2 17 1 18
REMARK H PARENT
REMARK Flexibility Score: inf
ROOT
ATOM      1  C   UNL     1      54.307  30.091  50.668  1.00  0.00     0.000 C 
ENDROOT
BRANCH   1   2
ATOM      2  C   UNL     1      54.999  29.513  51.915  1.00  0.00     0.000 C 
BRANCH   2   3
ATOM      3  C   UNL     1      56.533  29.507  51.797  1.00  0.00     0.000 C 
BRANCH   3   4
ATOM      4  C   UNL     1      57.013  29.381  50.343  1.00  0.00     0.000 C 
BRANCH   4   5
ATOM      5  C   UNL     1      58.524  29.633  50.185  1.00  0.00     0.000 C 
BRANCH   5   6
ATOM      6  C   UNL     1      59.207  28.841  49.055  1.00  0.00     0.006 C 
BRANCH   6   7
ATOM      7  C   UNL     1      60.017  27.644  49.568  1.00  0.00     0.053 C 
BRANCH   7   8
ATOM      8  C   UNL     1      61.470  27.990  49.645  1.00  0.00     0.041 C 
ATOM      9  O   UNL     1      61.834  29.195  49.680  1.00  0.00    -0.550 OA
ATOM     10  O   UNL     1      62.427  26.982  49.620  1.00  0.00    -0.550 OA
ENDBRANCH   7   8
ENDBRANCH   6   7
ENDBRANCH   5   6
ENDBRANCH   4   5
ENDBRANCH   3   4
ENDBRANCH   2   3
ENDBRANCH   1   2
BRANCH   1  11
ATOM     11  C   UNL     1      53.073  29.263  50.251  1.00  0.00     0.000 C 
BRANCH  11  12
ATOM     12  C   UNL     1      53.194  27.768  50.587  1.00  0.00    -0.000 C 
BRANCH  12  13
ATOM     13  C   UNL     1      53.388  26.888  49.341  1.00  0.00    -0.000 C 
BRANCH  13  14
ATOM     14  C   UNL     1      54.691  26.074  49.392  1.00  0.00    -0.000 C 
BRANCH  14  15
ATOM     15  C   UNL     1      55.303  26.027  50.802  1.00  0.00    -0.000 C 
BRANCH  15  16
ATOM     16  C   UNL     1      56.840  25.952  50.784  1.00  0.00    -0.000 C 
BRANCH  16  17
ATOM     17  C   UNL     1      57.478  25.487  52.105  1.00  0.00    -0.003 C 
ATOM     18  C   UNL     1      58.534  26.458  52.634  1.00  0.00     0.004 C 
ENDBRANCH  16  17
ENDBRANCH  15  16
ENDBRANCH  14  15
ENDBRANCH  13  14
ENDBRANCH  12  13
ENDBRANCH  11  12
ENDBRANCH   1  11
TORSDOF 14
ENDMDL
MODEL 2
REMARK VINA RESULT:    -3.228      1.607      3.553
REMARK INTER + INTRA:          -7.931
REMARK INTER:                  -5.661
REMARK INTRA:                  -2.270
REMARK UNBOUND:                -2.062
REMARK SMILES CCCCCCCCCCCCCCCC(=O)[O-]
REMARK SMILES IDX 9 1 10 2 11 3 12 4 13 5 14 6 15 7 16 8 17 9 18 10 8 11 7 12
REMARK SMILES IDX 6 13 5 14 4 15 3 16 2 17 1 18
REMARK H PARENT
REMARK Flexibility Score: inf
ROOT
ATOM      1  C   UNL     1      57.487  28.361  52.796  1.00  0.00     0.000 C 
ENDROOT
BRANCH   1   2
ATOM      2  C   UNL     1      57.367  29.669  51.993  1.00  0.00     0.000 C 
BRANCH   2   3
ATOM      3  C   UNL     1      58.566  29.908  51.060  1.00  0.00     0.000 C 
BRANCH   3   4
ATOM      4  C   UNL     1      58.307  29.416  49.627  1.00  0.00     0.000 C 
BRANCH   4   5
ATOM      5  C   UNL     1      59.391  28.446  49.120  1.00  0.00     0.000 C 
BRANCH   5   6
ATOM      6  C   UNL     1      59.209  26.979  49.550  1.00  0.00     0.006 C 
BRANCH   6   7
ATOM      7  C   UNL     1      60.164  26.561  50.675  1.00  0.00     0.053 C 
BRANCH   7   8
ATOM      8  C   UNL     1      60.860  25.284  50.324  1.00  0.00     0.041 C 
ATOM      9  O   UNL     1      60.196  24.286  49.938  1.00  0.00    -0.550 OA
ATOM     10  O   UNL     1      62.237  25.179  50.477  1.00  0.00    -0.550 OA
ENDBRANCH   7   8
ENDBRANCH   6   7
ENDBRANCH   5   6
ENDBRANCH   4   5
ENDBRANCH   3   4
ENDBRANCH   2   3
ENDBRANCH   1   2
BRANCH   1  11
ATOM     11  C   UNL     1      56.243  27.461  52.631  1.00  0.00     0.000 C 
BRANCH  11  12
ATOM     12  C   UNL     1      56.518  26.171  51.842  1.00  0.00    -0.000 C 
BRANCH  12  13
ATOM     13  C   UNL     1      55.659  26.052  50.572  1.00  0.00    -0.000 C 
BRANCH  13  14
ATOM     14  C   UNL     1      55.236  27.421  50.016  1.00  0.00    -0.000 C 
BRANCH  14  15
ATOM     15  C   UNL     1      53.723  27.512  49.757  1.00  0.00    -0.000 C 
BRANCH  15  16
ATOM     16  C   UNL     1      53.158  28.922  50.006  1.00  0.00    -0.000 C 
BRANCH  16  17
ATOM     17  C   UNL     1      53.400  29.471  51.423  1.00  0.00    -0.003 C 
ATOM     18  C   UNL     1      53.903  30.914  51.428  1.00  0.00     0.004 C 
ENDBRANCH  16  17
ENDBRANCH  15  16
ENDBRANCH  14  15
ENDBRANCH  13  14
ENDBRANCH  12  13
ENDBRANCH  11  12
ENDBRANCH   1  11
TORSDOF 14
ENDMDL
MODEL 3
REMARK VINA RESULT:    -3.204      5.434      7.848
REMARK INTER + INTRA:          -7.888
REMARK INTER:                  -7.088
REMARK INTRA:                  -0.800
REMARK UNBOUND:                -2.062
REMARK SMILES CCCCCCCCCCCCCCCC(=O)[O-]
REMARK SMILES IDX 9 1 10 2 11 3 12 4 13 5 14 6 15 7 16 8 17 9 18 10 8 11 7 12
REMARK SMILES IDX 6 13 5 14 4 15 3 16 2 17 1 18
REMARK H PARENT
REMARK Flexibility Score: inf
ROOT
ATOM      1  C   UNL     1      59.728  24.612  50.425  1.00  0.00     0.000 C 
ENDROOT
BRANCH   1   2
ATOM      2  C   UNL     1      60.972  23.709  50.508  1.00  0.00     0.000 C 
BRANCH   2   3
ATOM      3  C   UNL     1      61.097  22.756  49.308  1.00  0.00     0.000 C 
BRANCH   3   4
ATOM      4  C   UNL     1      60.395  21.409  49.546  1.00  0.00     0.000 C 
BRANCH   4   5
ATOM      5  C   UNL     1      60.519  20.447  48.350  1.00  0.00     0.000 C 
BRANCH   5   6
ATOM      6  C   UNL     1      59.624  19.196  48.421  1.00  0.00     0.006 C 
BRANCH   6   7
ATOM      7  C   UNL     1      59.896  18.334  49.660  1.00  0.00     0.053 C 
BRANCH   7   8
ATOM      8  C   UNL     1      58.620  18.049  50.388  1.00  0.00     0.041 C 
ATOM      9  O   UNL     1      57.577  18.699  50.117  1.00  0.00    -0.550 OA
ATOM     10  O   UNL     1      58.598  17.103  51.406  1.00  0.00    -0.550 OA
ENDBRANCH   7   8
ENDBRANCH   6   7
ENDBRANCH   5   6
ENDBRANCH   4   5
ENDBRANCH   3   4
ENDBRANCH   2   3
ENDBRANCH   1   2
BRANCH   1  11
ATOM     11  C   UNL     1      60.069  26.026  49.906  1.00  0.00     0.000 C 
BRANCH  11  12
ATOM     12  C   UNL     1      58.833  26.848  49.505  1.00  0.00    -0.000 C 
BRANCH  12  13
ATOM     13  C   UNL     1      59.133  28.349  49.360  1.00  0.00    -0.000 C 
BRANCH  13  14
ATOM     14  C   UNL     1      58.091  29.229  50.068  1.00  0.00    -0.000 C 
BRANCH  14  15
ATOM     15  C   UNL     1      57.018  28.403  50.797  1.00  0.00    -0.000 C 
BRANCH  15  16
ATOM     16  C   UNL     1      55.590  28.920  50.541  1.00  0.00    -0.000 C 
BRANCH  16  17
ATOM     17  C   UNL     1      54.593  27.847  50.069  1.00  0.00    -0.003 C 
ATOM     18  C   UNL     1      55.247  26.488  49.822  1.00  0.00     0.004 C 
ENDBRANCH  16  17
ENDBRANCH  15  16
ENDBRANCH  14  15
ENDBRANCH  13  14
ENDBRANCH  12  13
ENDBRANCH  11  12
ENDBRANCH   1  11
TORSDOF 14
ENDMDL
MODEL 4
REMARK VINA RESULT:    -3.193      2.893      5.468
REMARK INTER + INTRA:          -7.868
REMARK INTER:                  -5.214
REMARK INTRA:                  -2.654
REMARK UNBOUND:                -2.062
REMARK SMILES CCCCCCCCCCCCCCCC(=O)[O-]
REMARK SMILES IDX 9 1 10 2 11 3 12 4 13 5 14 6 15 7 16 8 17 9 18 10 8 11 7 12
REMARK SMILES IDX 6 13 5 14 4 15 3 16 2 17 1 18
REMARK H PARENT
REMARK Flexibility Score: inf
ROOT
ATOM      1  C   UNL     1      58.518  27.336  53.018  1.00  0.00     0.000 C 
ENDROOT
BRANCH   1   2
ATOM      2  C   UNL     1      57.097  26.745  53.041  1.00  0.00     0.000 C 
BRANCH   2   3
ATOM      3  C   UNL     1      56.837  25.775  51.876  1.00  0.00     0.000 C 
BRANCH   3   4
ATOM      4  C   UNL     1      55.527  26.082  51.132  1.00  0.00     0.000 C 
BRANCH   4   5
ATOM      5  C   UNL     1      55.641  27.297  50.192  1.00  0.00     0.000 C 
BRANCH   5   6
ATOM      6  C   UNL     1      54.415  28.228  50.174  1.00  0.00     0.006 C 
BRANCH   6   7
ATOM      7  C   UNL     1      54.736  29.652  50.644  1.00  0.00     0.053 C 
BRANCH   7   8
ATOM      8  C   UNL     1      54.743  29.720  52.138  1.00  0.00     0.041 C 
ATOM      9  O   UNL     1      54.052  28.912  52.813  1.00  0.00    -0.550 OA
ATOM     10  O   UNL     1      55.469  30.714  52.785  1.00  0.00    -0.550 OA
ENDBRANCH   7   8
ENDBRANCH   6   7
ENDBRANCH   5   6
ENDBRANCH   4   5
ENDBRANCH   3   4
ENDBRANCH   2   3
ENDBRANCH   1   2
BRANCH   1  11
ATOM     11  C   UNL     1      58.507  28.875  52.899  1.00  0.00     0.000 C 
BRANCH  11  12
ATOM     12  C   UNL     1      59.273  29.402  51.675  1.00  0.00    -0.000 C 
BRANCH  12  13
ATOM     13  C   UNL     1      58.347  29.778  50.506  1.00  0.00    -0.000 C 
BRANCH  13  14
ATOM     14  C   UNL     1      58.853  29.241  49.158  1.00  0.00    -0.000 C 
BRANCH  14  15
ATOM     15  C   UNL     1      59.892  28.118  49.321  1.00  0.00    -0.000 C 
BRANCH  15  16
ATOM     16  C   UNL     1      59.254  26.719  49.380  1.00  0.00    -0.000 C 
BRANCH  16  17
ATOM     17  C   UNL     1      60.121  25.644  50.060  1.00  0.00    -0.003 C 
ATOM     18  C   UNL     1      61.326  26.226  50.798  1.00  0.00     0.004 C 
ENDBRANCH  16  17
ENDBRANCH  15  16
ENDBRANCH  14  15
ENDBRANCH  13  14
ENDBRANCH  12  13
ENDBRANCH  11  12
ENDBRANCH   1  11
TORSDOF 14
ENDMDL
MODEL 5
REMARK VINA RESULT:    -3.113      1.630      2.360
REMARK INTER + INTRA:          -7.722
REMARK INTER:                  -5.665
REMARK INTRA:                  -2.057
REMARK UNBOUND:                -2.062
REMARK SMILES CCCCCCCCCCCCCCCC(=O)[O-]
REMARK SMILES IDX 9 1 10 2 11 3 12 4 13 5 14 6 15 7 16 8 17 9 18 10 8 11 7 12
REMARK SMILES IDX 6 13 5 14 4 15 3 16 2 17 1 18
REMARK H PARENT
REMARK Flexibility Score: inf
ROOT
ATOM      1  C   UNL     1      56.111  30.145  52.250  1.00  0.00     0.000 C 
ENDROOT
BRANCH   1   2
ATOM      2  C   UNL     1      57.456  29.612  51.725  1.00  0.00     0.000 C 
BRANCH   2   3
ATOM      3  C   UNL     1      57.529  29.591  50.189  1.00  0.00     0.000 C 
BRANCH   3   4
ATOM      4  C   UNL     1      58.924  29.206  49.669  1.00  0.00     0.000 C 
BRANCH   4   5
ATOM      5  C   UNL     1      59.591  28.097  50.505  1.00  0.00     0.000 C 
BRANCH   5   6
ATOM      6  C   UNL     1      60.127  26.901  49.697  1.00  0.00     0.006 C 
BRANCH   6   7
ATOM      7  C   UNL     1      61.522  26.451  50.147  1.00  0.00     0.053 C 
BRANCH   7   8
ATOM      8  C   UNL     1      61.521  24.991  50.472  1.00  0.00     0.041 C 
ATOM      9  O   UNL     1      62.434  24.500  51.188  1.00  0.00    -0.550 OA
ATOM     10  O   UNL     1      60.543  24.160  49.938  1.00  0.00    -0.550 OA
ENDBRANCH   7   8
ENDBRANCH   6   7
ENDBRANCH   5   6
ENDBRANCH   4   5
ENDBRANCH   3   4
ENDBRANCH   2   3
ENDBRANCH   1   2
BRANCH   1  11
ATOM     11  C   UNL     1      54.940  29.193  51.924  1.00  0.00     0.000 C 
BRANCH  11  12
ATOM     12  C   UNL     1      54.123  29.624  50.694  1.00  0.00    -0.000 C 
BRANCH  12  13
ATOM     13  C   UNL     1      53.591  28.431  49.881  1.00  0.00    -0.000 C 
BRANCH  13  14
ATOM     14  C   UNL     1      53.996  27.078  50.487  1.00  0.00    -0.000 C 
BRANCH  14  15
ATOM     15  C   UNL     1      54.943  26.281  49.574  1.00  0.00    -0.000 C 
BRANCH  15  16
ATOM     16  C   UNL     1      56.368  26.169  50.144  1.00  0.00    -0.000 C 
BRANCH  16  17
ATOM     17  C   UNL     1      56.437  25.881  51.655  1.00  0.00    -0.003 C 
ATOM     18  C   UNL     1      57.781  25.303  52.094  1.00  0.00     0.004 C 
ENDBRANCH  16  17
ENDBRANCH  15  16
ENDBRANCH  14  15
ENDBRANCH  13  14
ENDBRANCH  12  13
ENDBRANCH  11  12
ENDBRANCH   1  11
TORSDOF 14
ENDMDL
MODEL 6
REMARK VINA RESULT:    -3.095      3.526      5.821
REMARK INTER + INTRA:          -7.690
REMARK INTER:                  -5.317
REMARK INTRA:                  -2.373
REMARK UNBOUND:                -2.062
REMARK SMILES CCCCCCCCCCCCCCCC(=O)[O-]
REMARK SMILES IDX 9 1 10 2 11 3 12 4 13 5 14 6 15 7 16 8 17 9 18 10 8 11 7 12
REMARK SMILES IDX 6 13 5 14 4 15 3 16 2 17 1 18
REMARK H PARENT
REMARK Flexibility Score: inf
ROOT
ATOM      1  C   UNL     1      56.003  26.693  49.980  1.00  0.00     0.000 C 
ENDROOT
BRANCH   1   2
ATOM      2  C   UNL     1      54.468  26.676  49.882  1.00  0.00     0.000 C 
BRANCH   2   3
ATOM      3  C   UNL     1      53.846  28.076  50.026  1.00  0.00     0.000 C 
BRANCH   3   4
ATOM      4  C   UNL     1      54.866  29.132  50.481  1.00  0.00     0.000 C 
BRANCH   4   5
ATOM      5  C   UNL     1      54.493  29.786  51.825  1.00  0.00     0.000 C 
BRANCH   5   6
ATOM      6  C   UNL     1      53.749  28.871  52.815  1.00  0.00     0.006 C 
BRANCH   6   7
ATOM      7  C   UNL     1      54.696  28.071  53.717  1.00  0.00     0.053 C 
BRANCH   7   8
ATOM      8  C   UNL     1      54.120  26.722  54.014  1.00  0.00     0.041 C 
ATOM      9  O   UNL     1      53.445  26.115  53.142  1.00  0.00    -0.550 OA
ATOM     10  O   UNL     1      54.281  26.160  55.276  1.00  0.00    -0.550 OA
ENDBRANCH   7   8
ENDBRANCH   6   7
ENDBRANCH   5   6
ENDBRANCH   4   5
ENDBRANCH   3   4
ENDBRANCH   2   3
ENDBRANCH   1   2
BRANCH   1  11
ATOM     11  C   UNL     1      56.514  25.972  51.246  1.00  0.00     0.000 C 
BRANCH  11  12
ATOM     12  C   UNL     1      58.043  25.817  51.290  1.00  0.00    -0.000 C 
BRANCH  12  13
ATOM     13  C   UNL     1      58.695  25.921  49.901  1.00  0.00    -0.000 C 
BRANCH  13  14
ATOM     14  C   UNL     1      60.164  26.367  49.971  1.00  0.00    -0.000 C 
BRANCH  14  15
ATOM     15  C   UNL     1      60.320  27.896  49.908  1.00  0.00    -0.000 C 
BRANCH  15  16
ATOM     16  C   UNL     1      59.229  28.573  49.059  1.00  0.00    -0.000 C 
BRANCH  16  17
ATOM     17  C   UNL     1      58.437  29.673  49.788  1.00  0.00    -0.003 C 
ATOM     18  C   UNL     1      58.458  29.519  51.308  1.00  0.00     0.004 C 
ENDBRANCH  16  17
ENDBRANCH  15  16
ENDBRANCH  14  15
ENDBRANCH  13  14
ENDBRANCH  12  13
ENDBRANCH  11  12
ENDBRANCH   1  11
TORSDOF 14
ENDMDL
MODEL 7
REMARK VINA RESULT:    -3.091      1.478      3.514
REMARK INTER + INTRA:          -7.683
REMARK INTER:                  -5.371
REMARK INTRA:                  -2.312
REMARK UNBOUND:                -2.062
REMARK SMILES CCCCCCCCCCCCCCCC(=O)[O-]
REMARK SMILES IDX 9 1 10 2 11 3 12 4 13 5 14 6 15 7 16 8 17 9 18 10 8 11 7 12
REMARK SMILES IDX 6 13 5 14 4 15 3 16 2 17 1 18
REMARK H PARENT
REMARK Flexibility Score: inf
ROOT
ATOM      1  C   UNL     1      54.732  26.276  49.957  1.00  0.00     0.000 C 
ENDROOT
BRANCH   1   2
ATOM      2  C   UNL     1      56.173  26.812  50.028  1.00  0.00     0.000 C 
BRANCH   2   3
ATOM      3  C   UNL     1      56.692  26.935  51.471  1.00  0.00     0.000 C 
BRANCH   3   4
ATOM      4  C   UNL     1      57.478  28.235  51.708  1.00  0.00     0.000 C 
BRANCH   4   5
ATOM      5  C   UNL     1      57.357  29.231  50.539  1.00  0.00     0.000 C 
BRANCH   5   6
ATOM      6  C   UNL     1      58.692  29.654  49.899  1.00  0.00     0.006 C 
BRANCH   6   7
ATOM      7  C   UNL     1      59.258  28.599  48.941  1.00  0.00     0.053 C 
BRANCH   7   8
ATOM      8  C   UNL     1      60.420  27.894  49.565  1.00  0.00     0.041 C 
ATOM      9  O   UNL     1      60.326  26.680  49.889  1.00  0.00    -0.550 OA
ATOM     10  O   UNL     1      61.589  28.592  49.842  1.00  0.00    -0.550 OA
ENDBRANCH   7   8
ENDBRANCH   6   7
ENDBRANCH   5   6
ENDBRANCH   4   5
ENDBRANCH   3   4
ENDBRANCH   2   3
ENDBRANCH   1   2
BRANCH   1  11
ATOM     11  C   UNL     1      53.724  27.221  50.646  1.00  0.00     0.000 C 
BRANCH  11  12
ATOM     12  C   UNL     1      53.474  28.524  49.870  1.00  0.00    -0.000 C 
BRANCH  12  13
ATOM     13  C   UNL     1      53.908  29.778  50.648  1.00  0.00    -0.000 C 
BRANCH  13  14
ATOM     14  C   UNL     1      54.006  29.526  52.161  1.00  0.00    -0.000 C 
BRANCH  14  15
ATOM     15  C   UNL     1      54.277  30.814  52.958  1.00  0.00    -0.000 C 
BRANCH  15  16
ATOM     16  C   UNL     1      55.638  30.795  53.678  1.00  0.00    -0.000 C 
BRANCH  16  17
ATOM     17  C   UNL     1      56.647  31.842  53.174  1.00  0.00    -0.003 C 
ATOM     18  C   UNL     1      58.098  31.464  53.467  1.00  0.00     0.004 C 
ENDBRANCH  16  17
ENDBRANCH  15  16
ENDBRANCH  14  15
ENDBRANCH  13  14
ENDBRANCH  12  13
ENDBRANCH  11  12
ENDBRANCH   1  11
TORSDOF 14
ENDMDL
MODEL 8
REMARK VINA RESULT:    -3.089      1.564      3.377
REMARK INTER + INTRA:          -7.680
REMARK INTER:                  -5.669
REMARK INTRA:                  -2.011
REMARK UNBOUND:                -2.062
REMARK SMILES CCCCCCCCCCCCCCCC(=O)[O-]
REMARK SMILES IDX 9 1 10 2 11 3 12 4 13 5 14 6 15 7 16 8 17 9 18 10 8 11 7 12
REMARK SMILES IDX 6 13 5 14 4 15 3 16 2 17 1 18
REMARK H PARENT
REMARK Flexibility Score: inf
ROOT
ATOM      1  C   UNL     1      56.670  27.417  51.453  1.00  0.00     0.000 C 
ENDROOT
BRANCH   1   2
ATOM      2  C   UNL     1      57.718  28.544  51.425  1.00  0.00     0.000 C 
BRANCH   2   3
ATOM      3  C   UNL     1      57.570  29.464  50.201  1.00  0.00     0.000 C 
BRANCH   3   4
ATOM      4  C   UNL     1      58.846  29.520  49.346  1.00  0.00     0.000 C 
BRANCH   4   5
ATOM      5  C   UNL     1      59.483  28.135  49.126  1.00  0.00     0.000 C 
BRANCH   5   6
ATOM      6  C   UNL     1      60.954  28.014  49.565  1.00  0.00     0.006 C 
BRANCH   6   7
ATOM      7  C   UNL     1      61.130  27.195  50.849  1.00  0.00     0.053 C 
BRANCH   7   8
ATOM      8  C   UNL     1      61.559  25.799  50.524  1.00  0.00     0.041 C 
ATOM      9  O   UNL     1      62.760  25.452  50.678  1.00  0.00    -0.550 OA
ATOM     10  O   UNL     1      60.642  24.896  49.998  1.00  0.00    -0.550 OA
ENDBRANCH   7   8
ENDBRANCH   6   7
ENDBRANCH   5   6
ENDBRANCH   4   5
ENDBRANCH   3   4
ENDBRANCH   2   3
ENDBRANCH   1   2
BRANCH   1  11
ATOM     11  C   UNL     1      56.026  27.185  50.069  1.00  0.00     0.000 C 
BRANCH  11  12
ATOM     12  C   UNL     1      54.609  26.594  50.142  1.00  0.00    -0.000 C 
BRANCH  12  13
ATOM     13  C   UNL     1      53.524  27.582  49.682  1.00  0.00    -0.000 C 
BRANCH  13  14
ATOM     14  C   UNL     1      53.172  28.615  50.764  1.00  0.00    -0.000 C 
BRANCH  14  15
ATOM     15  C   UNL     1      53.687  30.025  50.425  1.00  0.00    -0.000 C 
BRANCH  15  16
ATOM     16  C   UNL     1      54.131  30.813  51.670  1.00  0.00    -0.000 C 
BRANCH  16  17
ATOM     17  C   UNL     1      54.396  29.951  52.918  1.00  0.00    -0.003 C 
ATOM     18  C   UNL     1      55.543  30.479  53.778  1.00  0.00     0.004 C 
ENDBRANCH  16  17
ENDBRANCH  15  16
ENDBRANCH  14  15
ENDBRANCH  13  14
ENDBRANCH  12  13
ENDBRANCH  11  12
ENDBRANCH   1  11
TORSDOF 14
ENDMDL
MODEL 9
REMARK VINA RESULT:    -3.084      1.537      3.373
REMARK INTER + INTRA:          -7.669
REMARK INTER:                  -5.692
REMARK INTRA:                  -1.977
REMARK UNBOUND:                -2.062
REMARK SMILES CCCCCCCCCCCCCCCC(=O)[O-]
REMARK SMILES IDX 9 1 10 2 11 3 12 4 13 5 14 6 15 7 16 8 17 9 18 10 8 11 7 12
REMARK SMILES IDX 6 13 5 14 4 15 3 16 2 17 1 18
REMARK H PARENT
REMARK Flexibility Score: inf
ROOT
ATOM      1  C   UNL     1      58.205  26.464  51.050  1.00  0.00     0.000 C 
ENDROOT
BRANCH   1   2
ATOM      2  C   UNL     1      59.378  27.289  50.492  1.00  0.00     0.000 C 
BRANCH   2   3
ATOM      3  C   UNL     1      59.003  28.075  49.224  1.00  0.00     0.000 C 
BRANCH   3   4
ATOM      4  C   UNL     1      59.063  29.597  49.433  1.00  0.00     0.000 C 
BRANCH   4   5
ATOM      5  C   UNL     1      59.952  30.005  50.622  1.00  0.00     0.000 C 
BRANCH   5   6
ATOM      6  C   UNL     1      61.326  30.587  50.244  1.00  0.00     0.006 C 
BRANCH   6   7
ATOM      7  C   UNL     1      62.475  29.592  50.451  1.00  0.00     0.053 C 
BRANCH   7   8
ATOM      8  C   UNL     1      63.283  29.458  49.200  1.00  0.00     0.041 C 
ATOM      9  O   UNL     1      63.864  30.463  48.710  1.00  0.00    -0.550 OA
ATOM     10  O   UNL     1      63.349  28.235  48.543  1.00  0.00    -0.550 OA
ENDBRANCH   7   8
ENDBRANCH   6   7
ENDBRANCH   5   6
ENDBRANCH   4   5
ENDBRANCH   3   4
ENDBRANCH   2   3
ENDBRANCH   1   2
BRANCH   1  11
ATOM     11  C   UNL     1      57.068  26.296  50.019  1.00  0.00     0.000 C 
BRANCH  11  12
ATOM     12  C   UNL     1      55.690  26.055  50.658  1.00  0.00    -0.000 C 
BRANCH  12  13
ATOM     13  C   UNL     1      54.527  26.290  49.679  1.00  0.00    -0.000 C 
BRANCH  13  14
ATOM     14  C   UNL     1      53.978  27.724  49.750  1.00  0.00    -0.000 C 
BRANCH  14  15
ATOM     15  C   UNL     1      54.360  28.438  51.058  1.00  0.00    -0.000 C 
BRANCH  15  16
ATOM     16  C   UNL     1      55.322  29.619  50.834  1.00  0.00    -0.000 C 
BRANCH  16  17
ATOM     17  C   UNL     1      56.401  29.785  51.919  1.00  0.00    -0.003 C 
ATOM     18  C   UNL     1      56.220  28.826  53.095  1.00  0.00     0.004 C 
ENDBRANCH  16  17
ENDBRANCH  15  16
ENDBRANCH  14  15
ENDBRANCH  13  14
ENDBRANCH  12  13
ENDBRANCH  11  12
ENDBRANCH   1  11
TORSDOF 14
ENDMDL
