MODEL 1
REMARK VINA RESULT:    -4.192      0.000      0.000
REMARK INTER + INTRA:         -16.473
REMARK INTER:                 -11.054
REMARK INTRA:                  -5.418
REMARK UNBOUND:                -5.418
REMARK SMILES CCCCCCCCCCCCCCCCCCCCCCCCCCCCCC(=O)[O-]
REMARK SMILES IDX 16 1 17 2 18 3 19 4 20 5 21 6 22 7 23 8 24 9 25 10 26 11
REMARK SMILES IDX 27 12 28 13 29 14 30 15 31 16 32 17 15 18 14 19 13 20 12 21
REMARK SMILES IDX 11 22 10 23 9 24 8 25 7 26 6 27 5 28 4 29 3 30 2 31 1 32
REMARK H PARENT
REMARK Flexibility Score: inf
ROOT
ATOM      1  C   UNL     1      32.496  78.966  11.736  1.00  0.00     0.000 C 
ENDROOT
BRANCH   1   2
ATOM      2  C   UNL     1      32.986  78.339  13.053  1.00  0.00     0.000 C 
BRANCH   2   3
ATOM      3  C   UNL     1      32.115  77.200  13.616  1.00  0.00     0.000 C 
BRANCH   3   4
ATOM      4  C   UNL     1      31.522  77.435  15.020  1.00  0.00     0.000 C 
BRANCH   4   5
ATOM      5  C   UNL     1      30.036  77.852  15.029  1.00  0.00     0.000 C 
BRANCH   5   6
ATOM      6  C   UNL     1      29.757  79.103  14.174  1.00  0.00     0.000 C 
BRANCH   6   7
ATOM      7  C   UNL     1      29.471  80.352  15.030  1.00  0.00     0.000 C 
BRANCH   7   8
ATOM      8  C   UNL     1      30.541  81.454  14.907  1.00  0.00     0.000 C 
BRANCH   8   9
ATOM      9  C   UNL     1      31.925  80.998  15.403  1.00  0.00     0.000 C 
BRANCH   9  10
ATOM     10  C   UNL     1      32.456  81.866  16.555  1.00  0.00     0.000 C 
BRANCH  10  11
ATOM     11  C   UNL     1      32.129  81.282  17.938  1.00  0.00     0.000 C 
BRANCH  11  12
ATOM     12  C   UNL     1      31.847  79.775  17.846  1.00  0.00     0.000 C 
BRANCH  12  13
ATOM     13  C   UNL     1      30.954  79.266  18.992  1.00  0.00     0.006 C 
BRANCH  13  14
ATOM     14  C   UNL     1      29.796  78.362  18.538  1.00  0.00     0.053 C 
BRANCH  14  15
ATOM     15  C   UNL     1      30.053  76.919  18.852  1.00  0.00     0.041 C 
ATOM     16  O   UNL     1      31.014  76.312  18.309  1.00  0.00    -0.550 OA
ATOM     17  O   UNL     1      29.247  76.252  19.766  1.00  0.00    -0.550 OA
ENDBRANCH  14  15
ENDBRANCH  13  14
ENDBRANCH  12  13
ENDBRANCH  11  12
ENDBRANCH  10  11
ENDBRANCH   9  10
ENDBRANCH   8   9
ENDBRANCH   7   8
ENDBRANCH   6   7
ENDBRANCH   5   6
ENDBRANCH   4   5
ENDBRANCH   3   4
ENDBRANCH   2   3
ENDBRANCH   1   2
BRANCH   1  18
ATOM     18  C   UNL     1      31.487  78.083  10.981  1.00  0.00     0.000 C 
BRANCH  18  19
ATOM     19  C   UNL     1      31.976  77.705   9.574  1.00  0.00     0.000 C 
BRANCH  19  20
ATOM     20  C   UNL     1      31.357  76.418   8.995  1.00  0.00     0.000 C 
BRANCH  20  21
ATOM     21  C   UNL     1      32.079  75.894   7.737  1.00  0.00     0.000 C 
BRANCH  21  22
ATOM     22  C   UNL     1      32.553  74.439   7.898  1.00  0.00     0.000 C 
BRANCH  22  23
ATOM     23  C   UNL     1      33.968  74.200   7.338  1.00  0.00     0.000 C 
BRANCH  23  24
ATOM     24  C   UNL     1      34.881  75.441   7.299  1.00  0.00    -0.000 C 
BRANCH  24  25
ATOM     25  C   UNL     1      36.310  75.149   7.788  1.00  0.00    -0.000 C 
BRANCH  25  26
ATOM     26  C   UNL     1      36.555  75.628   9.230  1.00  0.00    -0.000 C 
BRANCH  26  27
ATOM     27  C   UNL     1      35.423  76.475   9.844  1.00  0.00    -0.000 C 
BRANCH  27  28
ATOM     28  C   UNL     1      34.851  75.952  11.178  1.00  0.00    -0.000 C 
BRANCH  28  29
ATOM     29  C   UNL     1      34.242  74.537  11.123  1.00  0.00    -0.000 C 
BRANCH  29  30
ATOM     30  C   UNL     1      33.194  74.259  12.225  1.00  0.00    -0.000 C 
BRANCH  30  31
ATOM     31  C   UNL     1      31.806  73.897  11.674  1.00  0.00    -0.003 C 
ATOM     32  C   UNL     1      30.737  73.826  12.763  1.00  0.00     0.004 C 
ENDBRANCH  30  31
ENDBRANCH  29  30
ENDBRANCH  28  29
ENDBRANCH  27  28
ENDBRANCH  26  27
ENDBRANCH  25  26
ENDBRANCH  24  25
ENDBRANCH  23  24
ENDBRANCH  22  23
ENDBRANCH  21  22
ENDBRANCH  20  21
ENDBRANCH  19  20
ENDBRANCH  18  19
ENDBRANCH   1  18
TORSDOF 28
ENDMDL
MODEL 2
REMARK VINA RESULT:    -4.191      2.024      4.092
REMARK INTER + INTRA:         -16.470
REMARK INTER:                 -11.402
REMARK INTRA:                  -5.067
REMARK UNBOUND:                -5.418
REMARK SMILES CCCCCCCCCCCCCCCCCCCCCCCCCCCCCC(=O)[O-]
REMARK SMILES IDX 16 1 17 2 18 3 19 4 20 5 21 6 22 7 23 8 24 9 25 10 26 11
REMARK SMILES IDX 27 12 28 13 29 14 30 15 31 16 32 17 15 18 14 19 13 20 12 21
REMARK SMILES IDX 11 22 10 23 9 24 8 25 7 26 6 27 5 28 4 29 3 30 2 31 1 32
REMARK H PARENT
REMARK Flexibility Score: inf
ROOT
ATOM      1  C   UNL     1      36.802  76.226  10.120  1.00  0.00     0.000 C 
ENDROOT
BRANCH   1   2
ATOM      2  C   UNL     1      36.187  77.163  11.175  1.00  0.00     0.000 C 
BRANCH   2   3
ATOM      3  C   UNL     1      34.801  77.740  10.830  1.00  0.00     0.000 C 
BRANCH   3   4
ATOM      4  C   UNL     1      33.742  77.666  11.948  1.00  0.00     0.000 C 
BRANCH   4   5
ATOM      5  C   UNL     1      32.716  78.819  11.937  1.00  0.00     0.000 C 
BRANCH   5   6
ATOM      6  C   UNL     1      31.792  78.814  13.170  1.00  0.00     0.000 C 
BRANCH   6   7
ATOM      7  C   UNL     1      32.103  77.656  14.138  1.00  0.00     0.000 C 
BRANCH   7   8
ATOM      8  C   UNL     1      32.813  78.096  15.433  1.00  0.00     0.000 C 
BRANCH   8   9
ATOM      9  C   UNL     1      32.928  79.626  15.559  1.00  0.00     0.000 C 
BRANCH   9  10
ATOM     10  C   UNL     1      32.144  80.181  16.760  1.00  0.00     0.000 C 
BRANCH  10  11
ATOM     11  C   UNL     1      30.623  80.095  16.567  1.00  0.00     0.000 C 
BRANCH  11  12
ATOM     12  C   UNL     1      30.004  79.067  17.526  1.00  0.00     0.000 C 
BRANCH  12  13
ATOM     13  C   UNL     1      30.512  79.220  18.971  1.00  0.00     0.006 C 
BRANCH  13  14
ATOM     14  C   UNL     1      29.657  80.149  19.848  1.00  0.00     0.053 C 
BRANCH  14  15
ATOM     15  C   UNL     1      30.422  81.355  20.302  1.00  0.00     0.041 C 
ATOM     16  O   UNL     1      30.616  81.558  21.530  1.00  0.00    -0.550 OA
ATOM     17  O   UNL     1      30.945  82.240  19.368  1.00  0.00    -0.550 OA
ENDBRANCH  14  15
ENDBRANCH  13  14
ENDBRANCH  12  13
ENDBRANCH  11  12
ENDBRANCH  10  11
ENDBRANCH   9  10
ENDBRANCH   8   9
ENDBRANCH   7   8
ENDBRANCH   6   7
ENDBRANCH   5   6
ENDBRANCH   4   5
ENDBRANCH   3   4
ENDBRANCH   2   3
ENDBRANCH   1   2
BRANCH   1  18
ATOM     18  C   UNL     1      35.763  75.635   9.153  1.00  0.00     0.000 C 
BRANCH  18  19
ATOM     19  C   UNL     1      36.405  75.069   7.877  1.00  0.00     0.000 C 
BRANCH  19  20
ATOM     20  C   UNL     1      35.422  74.794   6.722  1.00  0.00     0.000 C 
BRANCH  20  21
ATOM     21  C   UNL     1      34.178  75.705   6.737  1.00  0.00     0.000 C 
BRANCH  21  22
ATOM     22  C   UNL     1      32.894  74.936   7.095  1.00  0.00     0.000 C 
BRANCH  22  23
ATOM     23  C   UNL     1      31.834  75.818   7.781  1.00  0.00     0.000 C 
BRANCH  23  24
ATOM     24  C   UNL     1      32.361  77.134   8.387  1.00  0.00    -0.000 C 
BRANCH  24  25
ATOM     25  C   UNL     1      31.239  78.129   8.728  1.00  0.00    -0.000 C 
BRANCH  25  26
ATOM     26  C   UNL     1      29.918  77.432   9.103  1.00  0.00    -0.000 C 
BRANCH  26  27
ATOM     27  C   UNL     1      29.403  77.721  10.526  1.00  0.00    -0.000 C 
BRANCH  27  28
ATOM     28  C   UNL     1      29.468  76.534  11.510  1.00  0.00    -0.000 C 
BRANCH  28  29
ATOM     29  C   UNL     1      30.171  75.272  10.972  1.00  0.00    -0.000 C 
BRANCH  29  30
ATOM     30  C   UNL     1      31.326  74.764  11.865  1.00  0.00    -0.000 C 
BRANCH  30  31
ATOM     31  C   UNL     1      32.517  74.208  11.070  1.00  0.00    -0.003 C 
ATOM     32  C   UNL     1      33.790  74.100  11.909  1.00  0.00     0.004 C 
ENDBRANCH  30  31
ENDBRANCH  29  30
ENDBRANCH  28  29
ENDBRANCH  27  28
ENDBRANCH  26  27
ENDBRANCH  25  26
ENDBRANCH  24  25
ENDBRANCH  23  24
ENDBRANCH  22  23
ENDBRANCH  21  22
ENDBRANCH  20  21
ENDBRANCH  19  20
ENDBRANCH  18  19
ENDBRANCH   1  18
TORSDOF 28
ENDMDL
MODEL 3
REMARK VINA RESULT:    -4.159      2.548      5.235
REMARK INTER + INTRA:         -16.386
REMARK INTER:                 -11.138
REMARK INTRA:                  -5.248
REMARK UNBOUND:                -5.418
REMARK SMILES CCCCCCCCCCCCCCCCCCCCCCCCCCCCCC(=O)[O-]
REMARK SMILES IDX 16 1 17 2 18 3 19 4 20 5 21 6 22 7 23 8 24 9 25 10 26 11
REMARK SMILES IDX 27 12 28 13 29 14 30 15 31 16 32 17 15 18 14 19 13 20 12 21
REMARK SMILES IDX 11 22 10 23 9 24 8 25 7 26 6 27 5 28 4 29 3 30 2 31 1 32
REMARK H PARENT
REMARK Flexibility Score: inf
ROOT
ATOM      1  C   UNL     1      32.825  78.606  11.088  1.00  0.00     0.000 C 
ENDROOT
BRANCH   1   2
ATOM      2  C   UNL     1      31.597  78.256  10.229  1.00  0.00     0.000 C 
BRANCH   2   3
ATOM      3  C   UNL     1      31.871  78.036   8.729  1.00  0.00     0.000 C 
BRANCH   3   4
ATOM      4  C   UNL     1      31.656  76.601   8.208  1.00  0.00     0.000 C 
BRANCH   4   5
ATOM      5  C   UNL     1      31.240  75.581   9.289  1.00  0.00     0.000 C 
BRANCH   5   6
ATOM      6  C   UNL     1      32.414  74.714   9.781  1.00  0.00     0.000 C 
BRANCH   6   7
ATOM      7  C   UNL     1      32.194  74.174  11.208  1.00  0.00     0.000 C 
BRANCH   7   8
ATOM      8  C   UNL     1      32.395  75.228  12.314  1.00  0.00     0.000 C 
BRANCH   8   9
ATOM      9  C   UNL     1      31.167  75.367  13.233  1.00  0.00     0.000 C 
BRANCH   9  10
ATOM     10  C   UNL     1      29.943  75.943  12.501  1.00  0.00     0.000 C 
BRANCH  10  11
ATOM     11  C   UNL     1      29.301  77.118  13.252  1.00  0.00     0.000 C 
BRANCH  11  12
ATOM     12  C   UNL     1      30.289  77.740  14.250  1.00  0.00     0.000 C 
BRANCH  12  13
ATOM     13  C   UNL     1      30.591  79.219  13.945  1.00  0.00     0.006 C 
BRANCH  13  14
ATOM     14  C   UNL     1      31.517  79.899  14.967  1.00  0.00     0.053 C 
BRANCH  14  15
ATOM     15  C   UNL     1      32.673  79.024  15.347  1.00  0.00     0.041 C 
ATOM     16  O   UNL     1      33.619  78.834  14.537  1.00  0.00    -0.550 OA
ATOM     17  O   UNL     1      32.720  78.440  16.607  1.00  0.00    -0.550 OA
ENDBRANCH  14  15
ENDBRANCH  13  14
ENDBRANCH  12  13
ENDBRANCH  11  12
ENDBRANCH  10  11
ENDBRANCH   9  10
ENDBRANCH   8   9
ENDBRANCH   7   8
ENDBRANCH   6   7
ENDBRANCH   5   6
ENDBRANCH   4   5
ENDBRANCH   3   4
ENDBRANCH   2   3
ENDBRANCH   1   2
BRANCH   1  18
ATOM     18  C   UNL     1      34.161  78.279  10.399  1.00  0.00     0.000 C 
BRANCH  18  19
ATOM     19  C   UNL     1      35.113  77.488  11.311  1.00  0.00     0.000 C 
BRANCH  19  20
ATOM     20  C   UNL     1      35.788  76.272  10.646  1.00  0.00     0.000 C 
BRANCH  20  21
ATOM     21  C   UNL     1      35.464  76.128   9.145  1.00  0.00     0.000 C 
BRANCH  21  22
ATOM     22  C   UNL     1      36.528  75.308   8.394  1.00  0.00     0.000 C 
BRANCH  22  23
ATOM     23  C   UNL     1      36.088  74.906   6.974  1.00  0.00     0.000 C 
BRANCH  23  24
ATOM     24  C   UNL     1      34.665  75.342   6.575  1.00  0.00    -0.000 C 
BRANCH  24  25
ATOM     25  C   UNL     1      33.787  74.168   6.110  1.00  0.00    -0.000 C 
BRANCH  25  26
ATOM     26  C   UNL     1      33.976  72.905   6.970  1.00  0.00    -0.000 C 
BRANCH  26  27
ATOM     27  C   UNL     1      32.858  71.852   6.845  1.00  0.00    -0.000 C 
BRANCH  27  28
ATOM     28  C   UNL     1      31.909  71.743   8.058  1.00  0.00    -0.000 C 
BRANCH  28  29
ATOM     29  C   UNL     1      32.394  70.816   9.191  1.00  0.00    -0.000 C 
BRANCH  29  30
ATOM     30  C   UNL     1      33.266  69.635   8.708  1.00  0.00    -0.000 C 
BRANCH  30  31
ATOM     31  C   UNL     1      32.565  68.271   8.817  1.00  0.00    -0.003 C 
ATOM     32  C   UNL     1      31.172  68.369   9.437  1.00  0.00     0.004 C 
ENDBRANCH  30  31
ENDBRANCH  29  30
ENDBRANCH  28  29
ENDBRANCH  27  28
ENDBRANCH  26  27
ENDBRANCH  25  26
ENDBRANCH  24  25
ENDBRANCH  23  24
ENDBRANCH  22  23
ENDBRANCH  21  22
ENDBRANCH  20  21
ENDBRANCH  19  20
ENDBRANCH  18  19
ENDBRANCH   1  18
TORSDOF 28
ENDMDL
MODEL 4
REMARK VINA RESULT:    -4.115      3.088      5.692
REMARK INTER + INTRA:         -16.269
REMARK INTER:                 -11.439
REMARK INTRA:                  -4.831
REMARK UNBOUND:                -5.418
REMARK SMILES CCCCCCCCCCCCCCCCCCCCCCCCCCCCCC(=O)[O-]
REMARK SMILES IDX 16 1 17 2 18 3 19 4 20 5 21 6 22 7 23 8 24 9 25 10 26 11
REMARK SMILES IDX 27 12 28 13 29 14 30 15 31 16 32 17 15 18 14 19 13 20 12 21
REMARK SMILES IDX 11 22 10 23 9 24 8 25 7 26 6 27 5 28 4 29 3 30 2 31 1 32
REMARK H PARENT
REMARK Flexibility Score: inf
ROOT
ATOM      1  C   UNL     1      34.002  78.180  10.467  1.00  0.00     0.000 C 
ENDROOT
BRANCH   1   2
ATOM      2  C   UNL     1      33.325  77.845   9.125  1.00  0.00     0.000 C 
BRANCH   2   3
ATOM      3  C   UNL     1      31.812  78.130   9.051  1.00  0.00     0.000 C 
BRANCH   3   4
ATOM      4  C   UNL     1      30.950  77.028   8.404  1.00  0.00     0.000 C 
BRANCH   4   5
ATOM      5  C   UNL     1      31.669  75.675   8.219  1.00  0.00     0.000 C 
BRANCH   5   6
ATOM      6  C   UNL     1      31.125  74.572   9.147  1.00  0.00     0.000 C 
BRANCH   6   7
ATOM      7  C   UNL     1      30.787  75.098  10.556  1.00  0.00     0.000 C 
BRANCH   7   8
ATOM      8  C   UNL     1      31.803  74.684  11.639  1.00  0.00     0.000 C 
BRANCH   8   9
ATOM      9  C   UNL     1      32.154  75.837  12.596  1.00  0.00     0.000 C 
BRANCH   9  10
ATOM     10  C   UNL     1      31.151  76.999  12.515  1.00  0.00     0.000 C 
BRANCH  10  11
ATOM     11  C   UNL     1      31.629  78.249  13.269  1.00  0.00     0.000 C 
BRANCH  11  12
ATOM     12  C   UNL     1      32.827  77.923  14.172  1.00  0.00     0.000 C 
BRANCH  12  13
ATOM     13  C   UNL     1      33.164  79.064  15.150  1.00  0.00     0.006 C 
BRANCH  13  14
ATOM     14  C   UNL     1      31.935  79.759  15.758  1.00  0.00     0.053 C 
BRANCH  14  15
ATOM     15  C   UNL     1      31.990  81.247  15.589  1.00  0.00     0.041 C 
ATOM     16  O   UNL     1      32.673  81.952  16.379  1.00  0.00    -0.550 OA
ATOM     17  O   UNL     1      31.309  81.854  14.541  1.00  0.00    -0.550 OA
ENDBRANCH  14  15
ENDBRANCH  13  14
ENDBRANCH  12  13
ENDBRANCH  11  12
ENDBRANCH  10  11
ENDBRANCH   9  10
ENDBRANCH   8   9
ENDBRANCH   7   8
ENDBRANCH   6   7
ENDBRANCH   5   6
ENDBRANCH   4   5
ENDBRANCH   3   4
ENDBRANCH   2   3
ENDBRANCH   1   2
BRANCH   1  18
ATOM     18  C   UNL     1      35.164  77.234  10.813  1.00  0.00     0.000 C 
BRANCH  18  19
ATOM     19  C   UNL     1      35.177  75.974   9.934  1.00  0.00     0.000 C 
BRANCH  19  20
ATOM     20  C   UNL     1      36.547  75.623   9.322  1.00  0.00     0.000 C 
BRANCH  20  21
ATOM     21  C   UNL     1      36.461  75.079   7.881  1.00  0.00     0.000 C 
BRANCH  21  22
ATOM     22  C   UNL     1      35.192  75.553   7.152  1.00  0.00     0.000 C 
BRANCH  22  23
ATOM     23  C   UNL     1      34.613  74.493   6.196  1.00  0.00     0.000 C 
BRANCH  23  24
ATOM     24  C   UNL     1      35.330  73.129   6.212  1.00  0.00    -0.000 C 
BRANCH  24  25
ATOM     25  C   UNL     1      34.364  71.947   6.396  1.00  0.00    -0.000 C 
BRANCH  25  26
ATOM     26  C   UNL     1      33.152  72.299   7.278  1.00  0.00    -0.000 C 
BRANCH  26  27
ATOM     27  C   UNL     1      32.255  71.108   7.669  1.00  0.00    -0.000 C 
BRANCH  27  28
ATOM     28  C   UNL     1      32.477  70.548   9.090  1.00  0.00    -0.000 C 
BRANCH  28  29
ATOM     29  C   UNL     1      32.128  69.057   9.272  1.00  0.00    -0.000 C 
BRANCH  29  30
ATOM     30  C   UNL     1      32.656  68.145   8.141  1.00  0.00    -0.000 C 
BRANCH  30  31
ATOM     31  C   UNL     1      34.187  68.010   8.128  1.00  0.00    -0.003 C 
ATOM     32  C   UNL     1      34.782  68.166   6.729  1.00  0.00     0.004 C 
ENDBRANCH  30  31
ENDBRANCH  29  30
ENDBRANCH  28  29
ENDBRANCH  27  28
ENDBRANCH  26  27
ENDBRANCH  25  26
ENDBRANCH  24  25
ENDBRANCH  23  24
ENDBRANCH  22  23
ENDBRANCH  21  22
ENDBRANCH  20  21
ENDBRANCH  19  20
ENDBRANCH  18  19
ENDBRANCH   1  18
TORSDOF 28
ENDMDL
MODEL 5
REMARK VINA RESULT:    -4.109      3.032      8.338
REMARK INTER + INTRA:         -16.254
REMARK INTER:                 -10.770
REMARK INTRA:                  -5.484
REMARK UNBOUND:                -5.418
REMARK SMILES CCCCCCCCCCCCCCCCCCCCCCCCCCCCCC(=O)[O-]
REMARK SMILES IDX 16 1 17 2 18 3 19 4 20 5 21 6 22 7 23 8 24 9 25 10 26 11
REMARK SMILES IDX 27 12 28 13 29 14 30 15 31 16 32 17 15 18 14 19 13 20 12 21
REMARK SMILES IDX 11 22 10 23 9 24 8 25 7 26 6 27 5 28 4 29 3 30 2 31 1 32
REMARK H PARENT
REMARK Flexibility Score: inf
ROOT
ATOM      1  C   UNL     1      34.537  77.738  11.499  1.00  0.00     0.000 C 
ENDROOT
BRANCH   1   2
ATOM      2  C   UNL     1      35.918  77.262  11.013  1.00  0.00     0.000 C 
BRANCH   2   3
ATOM      3  C   UNL     1      35.945  75.885  10.321  1.00  0.00     0.000 C 
BRANCH   3   4
ATOM      4  C   UNL     1      35.619  75.880   8.815  1.00  0.00     0.000 C 
BRANCH   4   5
ATOM      5  C   UNL     1      36.634  75.113   7.940  1.00  0.00     0.000 C 
BRANCH   5   6
ATOM      6  C   UNL     1      36.032  74.624   6.609  1.00  0.00     0.000 C 
BRANCH   6   7
ATOM      7  C   UNL     1      34.519  74.896   6.509  1.00  0.00     0.000 C 
BRANCH   7   8
ATOM      8  C   UNL     1      33.661  73.622   6.381  1.00  0.00     0.000 C 
BRANCH   8   9
ATOM      9  C   UNL     1      34.509  72.340   6.291  1.00  0.00     0.000 C 
BRANCH   9  10
ATOM     10  C   UNL     1      33.802  71.119   6.903  1.00  0.00     0.000 C 
BRANCH  10  11
ATOM     11  C   UNL     1      32.619  71.507   7.802  1.00  0.00     0.000 C 
BRANCH  11  12
ATOM     12  C   UNL     1      32.701  70.792   9.159  1.00  0.00     0.000 C 
BRANCH  12  13
ATOM     13  C   UNL     1      31.349  70.205   9.606  1.00  0.00     0.006 C 
BRANCH  13  14
ATOM     14  C   UNL     1      30.133  71.072   9.242  1.00  0.00     0.053 C 
BRANCH  14  15
ATOM     15  C   UNL     1      29.237  71.307  10.420  1.00  0.00     0.041 C 
ATOM     16  O   UNL     1      29.709  71.759  11.496  1.00  0.00    -0.550 OA
ATOM     17  O   UNL     1      27.875  71.050  10.321  1.00  0.00    -0.550 OA
ENDBRANCH  14  15
ENDBRANCH  13  14
ENDBRANCH  12  13
ENDBRANCH  11  12
ENDBRANCH  10  11
ENDBRANCH   9  10
ENDBRANCH   8   9
ENDBRANCH   7   8
ENDBRANCH   6   7
ENDBRANCH   5   6
ENDBRANCH   4   5
ENDBRANCH   3   4
ENDBRANCH   2   3
ENDBRANCH   1   2
BRANCH   1  18
ATOM     18  C   UNL     1      33.750  78.511  10.428  1.00  0.00     0.000 C 
BRANCH  18  19
ATOM     19  C   UNL     1      32.242  78.550  10.723  1.00  0.00     0.000 C 
BRANCH  19  20
ATOM     20  C   UNL     1      31.347  77.983   9.603  1.00  0.00     0.000 C 
BRANCH  20  21
ATOM     21  C   UNL     1      32.113  77.137   8.566  1.00  0.00     0.000 C 
BRANCH  21  22
ATOM     22  C   UNL     1      31.277  75.955   8.045  1.00  0.00     0.000 C 
BRANCH  22  23
ATOM     23  C   UNL     1      31.207  74.780   9.038  1.00  0.00     0.000 C 
BRANCH  23  24
ATOM     24  C   UNL     1      32.516  74.476   9.794  1.00  0.00    -0.000 C 
BRANCH  24  25
ATOM     25  C   UNL     1      32.278  74.006  11.238  1.00  0.00    -0.000 C 
BRANCH  25  26
ATOM     26  C   UNL     1      32.403  75.147  12.265  1.00  0.00    -0.000 C 
BRANCH  26  27
ATOM     27  C   UNL     1      31.130  75.437  13.084  1.00  0.00    -0.000 C 
BRANCH  27  28
ATOM     28  C   UNL     1      30.965  76.896  13.560  1.00  0.00    -0.000 C 
BRANCH  28  29
ATOM     29  C   UNL     1      32.093  77.421  14.471  1.00  0.00    -0.000 C 
BRANCH  29  30
ATOM     30  C   UNL     1      32.390  78.928  14.300  1.00  0.00    -0.000 C 
BRANCH  30  31
ATOM     31  C   UNL     1      31.125  79.798  14.232  1.00  0.00    -0.003 C 
ATOM     32  C   UNL     1      31.324  81.182  14.849  1.00  0.00     0.004 C 
ENDBRANCH  30  31
ENDBRANCH  29  30
ENDBRANCH  28  29
ENDBRANCH  27  28
ENDBRANCH  26  27
ENDBRANCH  25  26
ENDBRANCH  24  25
ENDBRANCH  23  24
ENDBRANCH  22  23
ENDBRANCH  21  22
ENDBRANCH  20  21
ENDBRANCH  19  20
ENDBRANCH  18  19
ENDBRANCH   1  18
TORSDOF 28
ENDMDL
MODEL 6
REMARK VINA RESULT:    -4.109      2.161      4.824
REMARK INTER + INTRA:         -16.254
REMARK INTER:                 -10.731
REMARK INTRA:                  -5.522
REMARK UNBOUND:                -5.418
REMARK SMILES CCCCCCCCCCCCCCCCCCCCCCCCCCCCCC(=O)[O-]
REMARK SMILES IDX 16 1 17 2 18 3 19 4 20 5 21 6 22 7 23 8 24 9 25 10 26 11
REMARK SMILES IDX 27 12 28 13 29 14 30 15 31 16 32 17 15 18 14 19 13 20 12 21
REMARK SMILES IDX 11 22 10 23 9 24 8 25 7 26 6 27 5 28 4 29 3 30 2 31 1 32
REMARK H PARENT
REMARK Flexibility Score: inf
ROOT
ATOM      1  C   UNL     1      34.783  77.637  10.870  1.00  0.00     0.000 C 
ENDROOT
BRANCH   1   2
ATOM      2  C   UNL     1      33.751  77.786  12.003  1.00  0.00     0.000 C 
BRANCH   2   3
ATOM      3  C   UNL     1      32.817  76.579  12.218  1.00  0.00     0.000 C 
BRANCH   3   4
ATOM      4  C   UNL     1      33.459  75.189  12.038  1.00  0.00     0.000 C 
BRANCH   4   5
ATOM      5  C   UNL     1      32.450  74.034  11.858  1.00  0.00     0.000 C 
BRANCH   5   6
ATOM      6  C   UNL     1      30.987  74.513  11.822  1.00  0.00     0.000 C 
BRANCH   6   7
ATOM      7  C   UNL     1      30.102  73.791  12.857  1.00  0.00     0.000 C 
BRANCH   7   8
ATOM      8  C   UNL     1      28.976  74.668  13.438  1.00  0.00     0.000 C 
BRANCH   8   9
ATOM      9  C   UNL     1      29.450  76.089  13.792  1.00  0.00     0.000 C 
BRANCH   9  10
ATOM     10  C   UNL     1      30.330  76.123  15.052  1.00  0.00     0.000 C 
BRANCH  10  11
ATOM     11  C   UNL     1      30.883  77.523  15.353  1.00  0.00     0.000 C 
BRANCH  11  12
ATOM     12  C   UNL     1      30.427  78.536  14.292  1.00  0.00     0.000 C 
BRANCH  12  13
ATOM     13  C   UNL     1      31.446  79.667  14.071  1.00  0.00     0.006 C 
BRANCH  13  14
ATOM     14  C   UNL     1      32.358  79.943  15.278  1.00  0.00     0.053 C 
BRANCH  14  15
ATOM     15  C   UNL     1      31.926  81.157  16.043  1.00  0.00     0.041 C 
ATOM     16  O   UNL     1      30.824  81.165  16.653  1.00  0.00    -0.550 OA
ATOM     17  O   UNL     1      32.753  82.272  16.104  1.00  0.00    -0.550 OA
ENDBRANCH  14  15
ENDBRANCH  13  14
ENDBRANCH  12  13
ENDBRANCH  11  12
ENDBRANCH  10  11
ENDBRANCH   9  10
ENDBRANCH   8   9
ENDBRANCH   7   8
ENDBRANCH   6   7
ENDBRANCH   5   6
ENDBRANCH   4   5
ENDBRANCH   3   4
ENDBRANCH   2   3
ENDBRANCH   1   2
BRANCH   1  18
ATOM     18  C   UNL     1      34.159  77.703   9.467  1.00  0.00     0.000 C 
BRANCH  18  19
ATOM     19  C   UNL     1      34.697  76.606   8.533  1.00  0.00     0.000 C 
BRANCH  19  20
ATOM     20  C   UNL     1      35.853  75.769   9.114  1.00  0.00     0.000 C 
BRANCH  20  21
ATOM     21  C   UNL     1      36.719  75.079   8.040  1.00  0.00     0.000 C 
BRANCH  21  22
ATOM     22  C   UNL     1      35.980  74.936   6.698  1.00  0.00     0.000 C 
BRANCH  22  23
ATOM     23  C   UNL     1      35.911  73.480   6.200  1.00  0.00     0.000 C 
BRANCH  23  24
ATOM     24  C   UNL     1      34.543  72.789   6.368  1.00  0.00    -0.000 C 
BRANCH  24  25
ATOM     25  C   UNL     1      33.396  73.783   6.616  1.00  0.00    -0.000 C 
BRANCH  25  26
ATOM     26  C   UNL     1      32.666  73.529   7.947  1.00  0.00    -0.000 C 
BRANCH  26  27
ATOM     27  C   UNL     1      31.531  74.520   8.274  1.00  0.00    -0.000 C 
BRANCH  27  28
ATOM     28  C   UNL     1      31.452  75.763   7.364  1.00  0.00    -0.000 C 
BRANCH  28  29
ATOM     29  C   UNL     1      30.267  76.709   7.644  1.00  0.00    -0.000 C 
BRANCH  29  30
ATOM     30  C   UNL     1      30.681  78.083   8.220  1.00  0.00    -0.000 C 
BRANCH  30  31
ATOM     31  C   UNL     1      30.681  78.128   9.756  1.00  0.00    -0.003 C 
ATOM     32  C   UNL     1      29.381  77.603  10.364  1.00  0.00     0.004 C 
ENDBRANCH  30  31
ENDBRANCH  29  30
ENDBRANCH  28  29
ENDBRANCH  27  28
ENDBRANCH  26  27
ENDBRANCH  25  26
ENDBRANCH  24  25
ENDBRANCH  23  24
ENDBRANCH  22  23
ENDBRANCH  21  22
ENDBRANCH  20  21
ENDBRANCH  19  20
ENDBRANCH  18  19
ENDBRANCH   1  18
TORSDOF 28
ENDMDL
MODEL 7
REMARK VINA RESULT:    -4.086      1.493      3.625
REMARK INTER + INTRA:         -16.194
REMARK INTER:                 -10.384
REMARK INTRA:                  -5.810
REMARK UNBOUND:                -5.418
REMARK SMILES CCCCCCCCCCCCCCCCCCCCCCCCCCCCCC(=O)[O-]
REMARK SMILES IDX 16 1 17 2 18 3 19 4 20 5 21 6 22 7 23 8 24 9 25 10 26 11
REMARK SMILES IDX 27 12 28 13 29 14 30 15 31 16 32 17 15 18 14 19 13 20 12 21
REMARK SMILES IDX 11 22 10 23 9 24 8 25 7 26 6 27 5 28 4 29 3 30 2 31 1 32
REMARK H PARENT
REMARK Flexibility Score: inf
ROOT
ATOM      1  C   UNL     1      34.060  77.319  11.826  1.00  0.00     0.000 C 
ENDROOT
BRANCH   1   2
ATOM      2  C   UNL     1      33.135  78.489  12.205  1.00  0.00     0.000 C 
BRANCH   2   3
ATOM      3  C   UNL     1      32.035  78.165  13.234  1.00  0.00     0.000 C 
BRANCH   3   4
ATOM      4  C   UNL     1      32.523  77.789  14.647  1.00  0.00     0.000 C 
BRANCH   4   5
ATOM      5  C   UNL     1      33.396  78.862  15.331  1.00  0.00     0.000 C 
BRANCH   5   6
ATOM      6  C   UNL     1      32.595  79.782  16.271  1.00  0.00     0.000 C 
BRANCH   6   7
ATOM      7  C   UNL     1      32.336  81.173  15.659  1.00  0.00     0.000 C 
BRANCH   7   8
ATOM      8  C   UNL     1      30.994  81.288  14.910  1.00  0.00     0.000 C 
BRANCH   8   9
ATOM      9  C   UNL     1      29.814  80.712  15.713  1.00  0.00     0.000 C 
BRANCH   9  10
ATOM     10  C   UNL     1      29.075  79.595  14.957  1.00  0.00     0.000 C 
BRANCH  10  11
ATOM     11  C   UNL     1      28.669  78.428  15.871  1.00  0.00     0.000 C 
BRANCH  11  12
ATOM     12  C   UNL     1      29.104  77.083  15.272  1.00  0.00     0.000 C 
BRANCH  12  13
ATOM     13  C   UNL     1      28.775  75.889  16.187  1.00  0.00     0.006 C 
BRANCH  13  14
ATOM     14  C   UNL     1      30.008  75.166  16.752  1.00  0.00     0.053 C 
BRANCH  14  15
ATOM     15  C   UNL     1      30.540  75.839  17.981  1.00  0.00     0.041 C 
ATOM     16  O   UNL     1      30.119  75.506  19.120  1.00  0.00    -0.550 OA
ATOM     17  O   UNL     1      31.521  76.817  17.870  1.00  0.00    -0.550 OA
ENDBRANCH  14  15
ENDBRANCH  13  14
ENDBRANCH  12  13
ENDBRANCH  11  12
ENDBRANCH  10  11
ENDBRANCH   9  10
ENDBRANCH   8   9
ENDBRANCH   7   8
ENDBRANCH   6   7
ENDBRANCH   5   6
ENDBRANCH   4   5
ENDBRANCH   3   4
ENDBRANCH   2   3
ENDBRANCH   1   2
BRANCH   1  18
ATOM     18  C   UNL     1      35.514  77.752  11.574  1.00  0.00     0.000 C 
BRANCH  18  19
ATOM     19  C   UNL     1      36.299  76.719  10.749  1.00  0.00     0.000 C 
BRANCH  19  20
ATOM     20  C   UNL     1      35.433  75.652  10.051  1.00  0.00     0.000 C 
BRANCH  20  21
ATOM     21  C   UNL     1      35.746  75.485   8.550  1.00  0.00     0.000 C 
BRANCH  21  22
ATOM     22  C   UNL     1      34.609  76.010   7.655  1.00  0.00     0.000 C 
BRANCH  22  23
ATOM     23  C   UNL     1      33.319  76.322   8.438  1.00  0.00     0.000 C 
BRANCH  23  24
ATOM     24  C   UNL     1      32.948  77.815   8.530  1.00  0.00    -0.000 C 
BRANCH  24  25
ATOM     25  C   UNL     1      31.454  78.044   8.813  1.00  0.00    -0.000 C 
BRANCH  25  26
ATOM     26  C   UNL     1      30.822  76.906   9.636  1.00  0.00    -0.000 C 
BRANCH  26  27
ATOM     27  C   UNL     1      29.742  77.345  10.644  1.00  0.00    -0.000 C 
BRANCH  27  28
ATOM     28  C   UNL     1      29.291  76.263  11.648  1.00  0.00    -0.000 C 
BRANCH  28  29
ATOM     29  C   UNL     1      30.048  74.923  11.553  1.00  0.00    -0.000 C 
BRANCH  29  30
ATOM     30  C   UNL     1      31.029  74.671  12.721  1.00  0.00    -0.000 C 
BRANCH  30  31
ATOM     31  C   UNL     1      32.426  74.222  12.262  1.00  0.00    -0.003 C 
ATOM     32  C   UNL     1      32.418  73.594  10.869  1.00  0.00     0.004 C 
ENDBRANCH  30  31
ENDBRANCH  29  30
ENDBRANCH  28  29
ENDBRANCH  27  28
ENDBRANCH  26  27
ENDBRANCH  25  26
ENDBRANCH  24  25
ENDBRANCH  23  24
ENDBRANCH  22  23
ENDBRANCH  21  22
ENDBRANCH  20  21
ENDBRANCH  19  20
ENDBRANCH  18  19
ENDBRANCH   1  18
TORSDOF 28
ENDMDL
MODEL 8
REMARK VINA RESULT:    -4.039      2.011      3.701
REMARK INTER + INTRA:         -16.068
REMARK INTER:                 -10.613
REMARK INTRA:                  -5.455
REMARK UNBOUND:                -5.418
REMARK SMILES CCCCCCCCCCCCCCCCCCCCCCCCCCCCCC(=O)[O-]
REMARK SMILES IDX 16 1 17 2 18 3 19 4 20 5 21 6 22 7 23 8 24 9 25 10 26 11
REMARK SMILES IDX 27 12 28 13 29 14 30 15 31 16 32 17 15 18 14 19 13 20 12 21
REMARK SMILES IDX 11 22 10 23 9 24 8 25 7 26 6 27 5 28 4 29 3 30 2 31 1 32
REMARK H PARENT
REMARK Flexibility Score: inf
ROOT
ATOM      1  C   UNL     1      32.531  77.758  15.020  1.00  0.00     0.000 C 
ENDROOT
BRANCH   1   2
ATOM      2  C   UNL     1      33.262  79.081  15.312  1.00  0.00     0.000 C 
BRANCH   2   3
ATOM      3  C   UNL     1      32.391  80.213  15.890  1.00  0.00     0.000 C 
BRANCH   3   4
ATOM      4  C   UNL     1      31.480  80.944  14.884  1.00  0.00     0.000 C 
BRANCH   4   5
ATOM      5  C   UNL     1      29.968  80.766  15.139  1.00  0.00     0.000 C 
BRANCH   5   6
ATOM      6  C   UNL     1      29.373  79.550  14.405  1.00  0.00     0.000 C 
BRANCH   6   7
ATOM      7  C   UNL     1      28.538  78.648  15.335  1.00  0.00     0.000 C 
BRANCH   7   8
ATOM      8  C   UNL     1      28.929  77.158  15.281  1.00  0.00     0.000 C 
BRANCH   8   9
ATOM      9  C   UNL     1      28.828  76.467  16.653  1.00  0.00     0.000 C 
BRANCH   9  10
ATOM     10  C   UNL     1      30.192  76.333  17.350  1.00  0.00     0.000 C 
BRANCH  10  11
ATOM     11  C   UNL     1      30.249  77.077  18.692  1.00  0.00     0.000 C 
BRANCH  11  12
ATOM     12  C   UNL     1      30.908  78.454  18.531  1.00  0.00     0.000 C 
BRANCH  12  13
ATOM     13  C   UNL     1      29.900  79.613  18.631  1.00  0.00     0.006 C 
BRANCH  13  14
ATOM     14  C   UNL     1      29.985  80.414  19.941  1.00  0.00     0.053 C 
BRANCH  14  15
ATOM     15  C   UNL     1      31.007  81.508  19.865  1.00  0.00     0.041 C 
ATOM     16  O   UNL     1      31.655  81.845  20.891  1.00  0.00    -0.550 OA
ATOM     17  O   UNL     1      31.264  82.137  18.653  1.00  0.00    -0.550 OA
ENDBRANCH  14  15
ENDBRANCH  13  14
ENDBRANCH  12  13
ENDBRANCH  11  12
ENDBRANCH  10  11
ENDBRANCH   9  10
ENDBRANCH   8   9
ENDBRANCH   7   8
ENDBRANCH   6   7
ENDBRANCH   5   6
ENDBRANCH   4   5
ENDBRANCH   3   4
ENDBRANCH   2   3
ENDBRANCH   1   2
BRANCH   1  18
ATOM     18  C   UNL     1      32.261  77.530  13.524  1.00  0.00     0.000 C 
BRANCH  18  19
ATOM     19  C   UNL     1      33.122  78.435  12.628  1.00  0.00     0.000 C 
BRANCH  19  20
ATOM     20  C   UNL     1      32.397  79.010  11.396  1.00  0.00     0.000 C 
BRANCH  20  21
ATOM     21  C   UNL     1      31.533  77.975  10.647  1.00  0.00     0.000 C 
BRANCH  21  22
ATOM     22  C   UNL     1      31.817  77.961   9.134  1.00  0.00     0.000 C 
BRANCH  22  23
ATOM     23  C   UNL     1      32.591  76.710   8.677  1.00  0.00     0.000 C 
BRANCH  23  24
ATOM     24  C   UNL     1      34.101  76.719   8.984  1.00  0.00    -0.000 C 
BRANCH  24  25
ATOM     25  C   UNL     1      34.578  75.433   9.679  1.00  0.00    -0.000 C 
BRANCH  25  26
ATOM     26  C   UNL     1      34.399  75.479  11.207  1.00  0.00    -0.000 C 
BRANCH  26  27
ATOM     27  C   UNL     1      33.870  74.181  11.847  1.00  0.00    -0.000 C 
BRANCH  27  28
ATOM     28  C   UNL     1      32.374  74.189  12.226  1.00  0.00    -0.000 C 
BRANCH  28  29
ATOM     29  C   UNL     1      31.394  74.138  11.036  1.00  0.00    -0.000 C 
BRANCH  29  30
ATOM     30  C   UNL     1      30.864  72.722  10.717  1.00  0.00    -0.000 C 
BRANCH  30  31
ATOM     31  C   UNL     1      31.838  71.878   9.881  1.00  0.00    -0.003 C 
ATOM     32  C   UNL     1      32.359  72.620   8.650  1.00  0.00     0.004 C 
ENDBRANCH  30  31
ENDBRANCH  29  30
ENDBRANCH  28  29
ENDBRANCH  27  28
ENDBRANCH  26  27
ENDBRANCH  25  26
ENDBRANCH  24  25
ENDBRANCH  23  24
ENDBRANCH  22  23
ENDBRANCH  21  22
ENDBRANCH  20  21
ENDBRANCH  19  20
ENDBRANCH  18  19
ENDBRANCH   1  18
TORSDOF 28
ENDMDL
MODEL 9
REMARK VINA RESULT:    -3.985      4.499      9.257
REMARK INTER + INTRA:         -15.927
REMARK INTER:                 -11.212
REMARK INTRA:                  -4.715
REMARK UNBOUND:                -5.418
REMARK SMILES CCCCCCCCCCCCCCCCCCCCCCCCCCCCCC(=O)[O-]
REMARK SMILES IDX 16 1 17 2 18 3 19 4 20 5 21 6 22 7 23 8 24 9 25 10 26 11
REMARK SMILES IDX 27 12 28 13 29 14 30 15 31 16 32 17 15 18 14 19 13 20 12 21
REMARK SMILES IDX 11 22 10 23 9 24 8 25 7 26 6 27 5 28 4 29 3 30 2 31 1 32
REMARK H PARENT
REMARK Flexibility Score: inf
ROOT
ATOM      1  C   UNL     1      34.592  77.752  11.541  1.00  0.00     0.000 C 
ENDROOT
BRANCH   1   2
ATOM      2  C   UNL     1      35.926  77.137  11.081  1.00  0.00     0.000 C 
BRANCH   2   3
ATOM      3  C   UNL     1      35.819  75.794  10.331  1.00  0.00     0.000 C 
BRANCH   3   4
ATOM      4  C   UNL     1      35.634  75.887   8.804  1.00  0.00     0.000 C 
BRANCH   4   5
ATOM      5  C   UNL     1      36.691  75.120   7.981  1.00  0.00     0.000 C 
BRANCH   5   6
ATOM      6  C   UNL     1      36.126  74.532   6.674  1.00  0.00     0.000 C 
BRANCH   6   7
ATOM      7  C   UNL     1      34.611  74.774   6.523  1.00  0.00     0.000 C 
BRANCH   7   8
ATOM      8  C   UNL     1      33.790  73.488   6.309  1.00  0.00     0.000 C 
BRANCH   8   9
ATOM      9  C   UNL     1      34.674  72.236   6.156  1.00  0.00     0.000 C 
BRANCH   9  10
ATOM     10  C   UNL     1      33.934  70.941   6.528  1.00  0.00     0.000 C 
BRANCH  10  11
ATOM     11  C   UNL     1      32.837  71.165   7.579  1.00  0.00     0.000 C 
BRANCH  11  12
ATOM     12  C   UNL     1      33.135  70.376   8.863  1.00  0.00     0.000 C 
BRANCH  12  13
ATOM     13  C   UNL     1      32.121  69.246   9.117  1.00  0.00     0.006 C 
BRANCH  13  14
ATOM     14  C   UNL     1      32.687  67.831   8.915  1.00  0.00     0.053 C 
BRANCH  14  15
ATOM     15  C   UNL     1      32.501  67.346   7.509  1.00  0.00     0.041 C 
ATOM     16  O   UNL     1      31.389  66.885   7.138  1.00  0.00    -0.550 OA
ATOM     17  O   UNL     1      33.548  67.430   6.600  1.00  0.00    -0.550 OA
ENDBRANCH  14  15
ENDBRANCH  13  14
ENDBRANCH  12  13
ENDBRANCH  11  12
ENDBRANCH  10  11
ENDBRANCH   9  10
ENDBRANCH   8   9
ENDBRANCH   7   8
ENDBRANCH   6   7
ENDBRANCH   5   6
ENDBRANCH   4   5
ENDBRANCH   3   4
ENDBRANCH   2   3
ENDBRANCH   1   2
BRANCH   1  18
ATOM     18  C   UNL     1      33.847  78.495  10.420  1.00  0.00     0.000 C 
BRANCH  18  19
ATOM     19  C   UNL     1      32.324  78.494  10.627  1.00  0.00     0.000 C 
BRANCH  19  20
ATOM     20  C   UNL     1      31.503  78.004   9.419  1.00  0.00     0.000 C 
BRANCH  20  21
ATOM     21  C   UNL     1      32.254  76.992   8.530  1.00  0.00     0.000 C 
BRANCH  21  22
ATOM     22  C   UNL     1      31.329  75.885   7.993  1.00  0.00     0.000 C 
BRANCH  22  23
ATOM     23  C   UNL     1      31.229  74.672   8.937  1.00  0.00     0.000 C 
BRANCH  23  24
ATOM     24  C   UNL     1      32.543  74.268   9.633  1.00  0.00    -0.000 C 
BRANCH  24  25
ATOM     25  C   UNL     1      32.317  73.400  10.882  1.00  0.00    -0.000 C 
BRANCH  25  26
ATOM     26  C   UNL     1      32.609  74.153  12.193  1.00  0.00    -0.000 C 
BRANCH  26  27
ATOM     27  C   UNL     1      32.016  75.573  12.281  1.00  0.00    -0.000 C 
BRANCH  27  28
ATOM     28  C   UNL     1      30.933  75.774  13.361  1.00  0.00    -0.000 C 
BRANCH  28  29
ATOM     29  C   UNL     1      30.291  77.176  13.396  1.00  0.00    -0.000 C 
BRANCH  29  30
ATOM     30  C   UNL     1      31.013  78.176  14.328  1.00  0.00    -0.000 C 
BRANCH  30  31
ATOM     31  C   UNL     1      32.460  77.774  14.654  1.00  0.00    -0.003 C 
ATOM     32  C   UNL     1      33.235  78.881  15.367  1.00  0.00     0.004 C 
ENDBRANCH  30  31
ENDBRANCH  29  30
ENDBRANCH  28  29
ENDBRANCH  27  28
ENDBRANCH  26  27
ENDBRANCH  25  26
ENDBRANCH  24  25
ENDBRANCH  23  24
ENDBRANCH  22  23
ENDBRANCH  21  22
ENDBRANCH  20  21
ENDBRANCH  19  20
ENDBRANCH  18  19
ENDBRANCH   1  18
TORSDOF 28
ENDMDL
