MODEL 1
REMARK VINA RESULT:    -7.487      0.000      0.000
REMARK INTER + INTRA:          -8.354
REMARK INTER:                  -8.144
REMARK INTRA:                  -0.210
REMARK UNBOUND:                -0.210
REMARK SMILES C[C@@H]1[C@H](C)CC[C@@]2(C(=O)[O-])CC[C@]3(C)C(=CC[C@@H]4[C@]5(C)CC[C@@H](O)C(C)(C)[C@H]5CC[C@@]43C)[C@@H]12
REMARK SMILES IDX 7 1 6 2 11 3 33 4 5 5 12 6 15 7 2 8 3 9 13 10 16 11 1 12
REMARK SMILES IDX 4 13 14 14 31 15 17 16 18 17 30 18 32 19 19 20 29 21 28 22
REMARK SMILES IDX 21 23 20 24 25 25 22 26 23 27 26 28 27 29 8 30 9 31 10 32
REMARK SMILES IDX 24 33
REMARK H PARENT 24 34
REMARK Flexibility Score: inf
ROOT
ATOM      1  C   UNL     1       9.209   8.928  38.440  1.00  0.00     0.017 C 
ATOM      2  C   UNL     1      10.563   9.233  37.737  1.00  0.00     0.014 C 
ATOM      3  C   UNL     1       8.302  10.209  38.420  1.00  0.00     0.014 C 
ATOM      4  C   UNL     1       8.504   7.680  37.785  1.00  0.00     0.030 C 
ATOM      5  C   UNL     1      10.456   9.300  36.212  1.00  0.00     0.004 C 
ATOM      6  C   UNL     1       6.831   9.993  38.021  1.00  0.00     0.013 C 
ATOM      7  C   UNL     1       7.064   7.518  38.313  1.00  0.00    -0.063 C 
ATOM      8  C   UNL     1       8.538   7.647  36.215  1.00  0.00    -0.003 C 
ATOM      9  C   UNL     1       9.938   7.982  35.630  1.00  0.00    -0.011 C 
ATOM     10  C   UNL     1       6.164   8.713  38.630  1.00  0.00    -0.006 C 
ATOM     11  C   UNL     1       6.603   6.277  38.509  1.00  0.00    -0.027 C 
ATOM     12  C   UNL     1       8.037   6.301  35.645  1.00  0.00     0.008 C 
ATOM     13  C   UNL     1      10.976   6.849  35.785  1.00  0.00     0.008 C 
ATOM     14  C   UNL     1       6.139   8.886  40.182  1.00  0.00     0.017 C 
ATOM     15  C   UNL     1       4.665   8.458  38.080  1.00  0.00    -0.020 C 
ATOM     16  C   UNL     1       5.156   5.927  38.638  1.00  0.00     0.032 C 
ATOM     17  C   UNL     1       4.092   7.081  38.656  1.00  0.00     0.006 C 
ATOM     18  C   UNL     1       4.639   8.398  36.521  1.00  0.00     0.008 C 
ATOM     19  C   UNL     1       3.764   9.659  38.527  1.00  0.00     0.012 C 
ATOM     20  C   UNL     1       2.691   6.602  38.028  1.00  0.00    -0.025 C 
ATOM     21  C   UNL     1       3.303   7.945  35.903  1.00  0.00     0.005 C 
ATOM     22  C   UNL     1       2.829   6.577  36.456  1.00  0.00     0.003 C 
ATOM     23  C   UNL     1       2.315   5.161  38.534  1.00  0.00     0.010 C 
ATOM     24  C   UNL     1       1.541   7.547  38.528  1.00  0.00     0.012 C 
ATOM     25  C   UNL     1       1.623   5.916  35.665  1.00  0.00    -0.006 C 
ATOM     26  C   UNL     1       1.114   4.535  37.805  1.00  0.00     0.033 C 
ATOM     27  C   UNL     1       1.334   4.507  36.282  1.00  0.00     0.120 C 
ATOM     28  C   UNL     1       2.034   5.689  34.183  1.00  0.00     0.014 C 
ATOM     29  C   UNL     1       0.344   6.795  35.648  1.00  0.00     0.014 C 
ENDROOT
BRANCH   1  30
ATOM     30  C   UNL     1       9.579   8.622  39.894  1.00  0.00     0.048 C 
ATOM     31  O   UNL     1       9.377   9.456  40.819  1.00  0.00    -0.550 OA
ATOM     32  O   UNL     1      10.138   7.390  40.220  1.00  0.00    -0.550 OA
ENDBRANCH   1  30
BRANCH  27  33
ATOM     33  O   UNL     1       0.260   3.859  35.638  1.00  0.00    -0.393 OA
ATOM     34  H   UNL     1      -0.446   4.532  35.456  1.00  0.00     0.210 HD
ENDBRANCH  27  33
TORSDOF 2
ENDMDL
MODEL 2
REMARK VINA RESULT:    -7.235      2.219      7.387
REMARK INTER + INTRA:          -8.080
REMARK INTER:                  -7.979
REMARK INTRA:                  -0.101
REMARK UNBOUND:                -0.210
REMARK SMILES C[C@@H]1[C@H](C)CC[C@@]2(C(=O)[O-])CC[C@]3(C)C(=CC[C@@H]4[C@]5(C)CC[C@@H](O)C(C)(C)[C@H]5CC[C@@]43C)[C@@H]12
REMARK SMILES IDX 7 1 6 2 11 3 33 4 5 5 12 6 15 7 2 8 3 9 13 10 16 11 1 12
REMARK SMILES IDX 4 13 14 14 31 15 17 16 18 17 30 18 32 19 19 20 29 21 28 22
REMARK SMILES IDX 21 23 20 24 25 25 22 26 23 27 26 28 27 29 8 30 9 31 10 32
REMARK SMILES IDX 24 33
REMARK H PARENT 24 34
REMARK Flexibility Score: inf
ROOT
ATOM      1  C   UNL     1       2.269   6.447  38.703  1.00  0.00     0.017 C 
ATOM      2  C   UNL     1       1.207   5.347  38.414  1.00  0.00     0.014 C 
ATOM      3  C   UNL     1       3.132   6.034  39.947  1.00  0.00     0.014 C 
ATOM      4  C   UNL     1       3.148   6.729  37.425  1.00  0.00     0.030 C 
ATOM      5  C   UNL     1       1.791   4.091  37.763  1.00  0.00     0.004 C 
ATOM      6  C   UNL     1       4.654   6.217  39.807  1.00  0.00     0.013 C 
ATOM      7  C   UNL     1       4.346   7.636  37.768  1.00  0.00    -0.063 C 
ATOM      8  C   UNL     1       3.613   5.447  36.644  1.00  0.00    -0.003 C 
ATOM      9  C   UNL     1       2.470   4.417  36.430  1.00  0.00    -0.011 C 
ATOM     10  C   UNL     1       5.097   7.542  39.097  1.00  0.00    -0.006 C 
ATOM     11  C   UNL     1       4.725   8.545  36.862  1.00  0.00    -0.027 C 
ATOM     12  C   UNL     1       4.272   5.793  35.290  1.00  0.00     0.008 C 
ATOM     13  C   UNL     1       1.439   4.830  35.356  1.00  0.00     0.008 C 
ATOM     14  C   UNL     1       4.629   8.735  39.989  1.00  0.00     0.017 C 
ATOM     15  C   UNL     1       6.694   7.627  38.856  1.00  0.00    -0.020 C 
ATOM     16  C   UNL     1       6.057   9.223  36.854  1.00  0.00     0.032 C 
ATOM     17  C   UNL     1       7.058   8.948  38.032  1.00  0.00     0.006 C 
ATOM     18  C   UNL     1       7.213   6.385  38.067  1.00  0.00     0.008 C 
ATOM     19  C   UNL     1       7.404   7.637  40.252  1.00  0.00     0.012 C 
ATOM     20  C   UNL     1       8.587   9.056  37.544  1.00  0.00    -0.025 C 
ATOM     21  C   UNL     1       8.677   6.470  37.596  1.00  0.00     0.005 C 
ATOM     22  C   UNL     1       8.954   7.741  36.752  1.00  0.00     0.003 C 
ATOM     23  C   UNL     1       8.787  10.297  36.599  1.00  0.00     0.010 C 
ATOM     24  C   UNL     1       9.517   9.305  38.784  1.00  0.00     0.012 C 
ATOM     25  C   UNL     1      10.350   7.753  35.999  1.00  0.00    -0.006 C 
ATOM     26  C   UNL     1      10.158  10.341  35.904  1.00  0.00     0.033 C 
ATOM     27  C   UNL     1      10.432   9.046  35.120  1.00  0.00     0.120 C 
ATOM     28  C   UNL     1      10.430   6.538  35.032  1.00  0.00     0.014 C 
ATOM     29  C   UNL     1      11.567   7.646  36.957  1.00  0.00     0.014 C 
ENDROOT
BRANCH   1  30
ATOM     30  C   UNL     1       1.458   7.692  39.070  1.00  0.00     0.048 C 
ATOM     31  O   UNL     1       0.825   7.774  40.158  1.00  0.00    -0.550 OA
ATOM     32  O   UNL     1       1.423   8.776  38.198  1.00  0.00    -0.550 OA
ENDBRANCH   1  30
BRANCH  27  33
ATOM     33  O   UNL     1      11.656   9.135  34.426  1.00  0.00    -0.393 OA
ATOM     34  H   UNL     1      11.946   8.217  34.187  1.00  0.00     0.210 HD
ENDBRANCH  27  33
TORSDOF 2
ENDMDL
MODEL 3
REMARK VINA RESULT:    -7.184      2.266      3.644
REMARK INTER + INTRA:          -8.024
REMARK INTER:                  -7.774
REMARK INTRA:                  -0.250
REMARK UNBOUND:                -0.210
REMARK SMILES C[C@@H]1[C@H](C)CC[C@@]2(C(=O)[O-])CC[C@]3(C)C(=CC[C@@H]4[C@]5(C)CC[C@@H](O)C(C)(C)[C@H]5CC[C@@]43C)[C@@H]12
REMARK SMILES IDX 7 1 6 2 11 3 33 4 5 5 12 6 15 7 2 8 3 9 13 10 16 11 1 12
REMARK SMILES IDX 4 13 14 14 31 15 17 16 18 17 30 18 32 19 19 20 29 21 28 22
REMARK SMILES IDX 21 23 20 24 25 25 22 26 23 27 26 28 27 29 8 30 9 31 10 32
REMARK SMILES IDX 24 33
REMARK H PARENT 24 34
REMARK Flexibility Score: inf
ROOT
ATOM      1  C   UNL     1       9.616  10.605  36.900  1.00  0.00     0.017 C 
ATOM      2  C   UNL     1      10.074  11.996  36.376  1.00  0.00     0.014 C 
ATOM      3  C   UNL     1       9.694  10.580  38.468  1.00  0.00     0.014 C 
ATOM      4  C   UNL     1       8.178  10.247  36.362  1.00  0.00     0.030 C 
ATOM      5  C   UNL     1       9.033  13.098  36.582  1.00  0.00     0.004 C 
ATOM      6  C   UNL     1       8.479   9.978  39.198  1.00  0.00     0.013 C 
ATOM      7  C   UNL     1       7.623   8.990  37.063  1.00  0.00    -0.063 C 
ATOM      8  C   UNL     1       7.141  11.426  36.407  1.00  0.00    -0.003 C 
ATOM      9  C   UNL     1       7.718  12.765  35.872  1.00  0.00    -0.011 C 
ATOM     10  C   UNL     1       7.887   8.686  38.539  1.00  0.00    -0.006 C 
ATOM     11  C   UNL     1       6.893   8.137  36.335  1.00  0.00    -0.027 C 
ATOM     12  C   UNL     1       5.830  11.081  35.664  1.00  0.00     0.008 C 
ATOM     13  C   UNL     1       7.875  12.817  34.336  1.00  0.00     0.008 C 
ATOM     14  C   UNL     1       8.985   7.577  38.601  1.00  0.00     0.017 C 
ATOM     15  C   UNL     1       6.538   8.167  39.263  1.00  0.00    -0.020 C 
ATOM     16  C   UNL     1       5.979   7.105  36.913  1.00  0.00     0.032 C 
ATOM     17  C   UNL     1       5.931   6.917  38.471  1.00  0.00     0.006 C 
ATOM     18  C   UNL     1       5.460   9.294  39.321  1.00  0.00     0.008 C 
ATOM     19  C   UNL     1       6.890   7.767  40.736  1.00  0.00     0.012 C 
ATOM     20  C   UNL     1       4.480   6.430  38.963  1.00  0.00    -0.025 C 
ATOM     21  C   UNL     1       4.064   8.844  39.794  1.00  0.00     0.005 C 
ATOM     22  C   UNL     1       3.504   7.670  38.952  1.00  0.00     0.003 C 
ATOM     23  C   UNL     1       3.909   5.319  38.006  1.00  0.00     0.010 C 
ATOM     24  C   UNL     1       4.602   5.758  40.376  1.00  0.00     0.012 C 
ATOM     25  C   UNL     1       1.969   7.347  39.191  1.00  0.00    -0.006 C 
ATOM     26  C   UNL     1       2.435   4.965  38.266  1.00  0.00     0.033 C 
ATOM     27  C   UNL     1       1.538   6.213  38.201  1.00  0.00     0.120 C 
ATOM     28  C   UNL     1       1.114   8.600  38.849  1.00  0.00     0.014 C 
ATOM     29  C   UNL     1       1.643   6.965  40.659  1.00  0.00     0.014 C 
ENDROOT
BRANCH   1  30
ATOM     30  C   UNL     1      10.647   9.616  36.350  1.00  0.00     0.048 C 
ATOM     31  O   UNL     1      11.646   9.254  37.029  1.00  0.00    -0.550 OA
ATOM     32  O   UNL     1      10.480   9.081  35.076  1.00  0.00    -0.550 OA
ENDBRANCH   1  30
BRANCH  27  33
ATOM     33  O   UNL     1       0.183   5.860  38.362  1.00  0.00    -0.393 OA
ATOM     34  H   UNL     1       0.095   4.884  38.204  1.00  0.00     0.210 HD
ENDBRANCH  27  33
TORSDOF 2
ENDMDL
MODEL 4
REMARK VINA RESULT:    -7.139      1.909      3.013
REMARK INTER + INTRA:          -7.976
REMARK INTER:                  -7.753
REMARK INTRA:                  -0.223
REMARK UNBOUND:                -0.210
REMARK SMILES C[C@@H]1[C@H](C)CC[C@@]2(C(=O)[O-])CC[C@]3(C)C(=CC[C@@H]4[C@]5(C)CC[C@@H](O)C(C)(C)[C@H]5CC[C@@]43C)[C@@H]12
REMARK SMILES IDX 7 1 6 2 11 3 33 4 5 5 12 6 15 7 2 8 3 9 13 10 16 11 1 12
REMARK SMILES IDX 4 13 14 14 31 15 17 16 18 17 30 18 32 19 19 20 29 21 28 22
REMARK SMILES IDX 21 23 20 24 25 25 22 26 23 27 26 28 27 29 8 30 9 31 10 32
REMARK SMILES IDX 24 33
REMARK H PARENT 24 34
REMARK Flexibility Score: inf
ROOT
ATOM      1  C   UNL     1      10.521   7.901  35.655  1.00  0.00     0.017 C 
ATOM      2  C   UNL     1      11.246   8.220  34.316  1.00  0.00     0.014 C 
ATOM      3  C   UNL     1      10.368   9.215  36.499  1.00  0.00     0.014 C 
ATOM      4  C   UNL     1       9.139   7.190  35.391  1.00  0.00     0.030 C 
ATOM      5  C   UNL     1      10.356   8.934  33.296  1.00  0.00     0.004 C 
ATOM      6  C   UNL     1       8.988   9.456  37.136  1.00  0.00     0.013 C 
ATOM      7  C   UNL     1       8.314   7.087  36.690  1.00  0.00    -0.063 C 
ATOM      8  C   UNL     1       8.287   7.808  34.225  1.00  0.00    -0.003 C 
ATOM      9  C   UNL     1       9.123   8.096  32.947  1.00  0.00    -0.011 C 
ATOM     10  C   UNL     1       8.316   8.183  37.756  1.00  0.00    -0.006 C 
ATOM     11  C   UNL     1       7.581   5.984  36.881  1.00  0.00    -0.027 C 
ATOM     12  C   UNL     1       7.061   6.937  33.869  1.00  0.00     0.008 C 
ATOM     13  C   UNL     1       9.505   6.833  32.144  1.00  0.00     0.008 C 
ATOM     14  C   UNL     1       9.222   7.695  38.931  1.00  0.00     0.017 C 
ATOM     15  C   UNL     1       6.816   8.457  38.294  1.00  0.00    -0.020 C 
ATOM     16  C   UNL     1       6.454   5.881  37.858  1.00  0.00     0.032 C 
ATOM     17  C   UNL     1       6.156   7.095  38.808  1.00  0.00     0.006 C 
ATOM     18  C   UNL     1       5.915   9.058  37.170  1.00  0.00     0.008 C 
ATOM     19  C   UNL     1       6.892   9.505  39.456  1.00  0.00     0.012 C 
ATOM     20  C   UNL     1       4.594   7.184  39.179  1.00  0.00    -0.025 C 
ATOM     21  C   UNL     1       4.416   9.154  37.511  1.00  0.00     0.005 C 
ATOM     22  C   UNL     1       3.819   7.791  37.945  1.00  0.00     0.003 C 
ATOM     23  C   UNL     1       4.012   5.758  39.499  1.00  0.00     0.010 C 
ATOM     24  C   UNL     1       4.413   8.026  40.491  1.00  0.00     0.012 C 
ATOM     25  C   UNL     1       2.236   7.751  38.033  1.00  0.00    -0.006 C 
ATOM     26  C   UNL     1       2.481   5.722  39.636  1.00  0.00     0.033 C 
ATOM     27  C   UNL     1       1.792   6.291  38.383  1.00  0.00     0.120 C 
ATOM     28  C   UNL     1       1.629   8.092  36.643  1.00  0.00     0.014 C 
ATOM     29  C   UNL     1       1.649   8.774  39.043  1.00  0.00     0.014 C 
ENDROOT
BRANCH   1  30
ATOM     30  C   UNL     1      11.467   6.956  36.401  1.00  0.00     0.048 C 
ATOM     31  O   UNL     1      12.185   7.356  37.357  1.00  0.00    -0.550 OA
ATOM     32  O   UNL     1      11.532   5.614  36.036  1.00  0.00    -0.550 OA
ENDBRANCH   1  30
BRANCH  27  33
ATOM     33  O   UNL     1       0.391   6.177  38.492  1.00  0.00    -0.393 OA
ATOM     34  H   UNL     1       0.127   6.451  39.408  1.00  0.00     0.210 HD
ENDBRANCH  27  33
TORSDOF 2
ENDMDL
MODEL 5
REMARK VINA RESULT:    -7.110     16.032     18.579
REMARK INTER + INTRA:          -7.944
REMARK INTER:                  -7.693
REMARK INTRA:                  -0.251
REMARK UNBOUND:                -0.210
REMARK SMILES C[C@@H]1[C@H](C)CC[C@@]2(C(=O)[O-])CC[C@]3(C)C(=CC[C@@H]4[C@]5(C)CC[C@@H](O)C(C)(C)[C@H]5CC[C@@]43C)[C@@H]12
REMARK SMILES IDX 7 1 6 2 11 3 33 4 5 5 12 6 15 7 2 8 3 9 13 10 16 11 1 12
REMARK SMILES IDX 4 13 14 14 31 15 17 16 18 17 30 18 32 19 19 20 29 21 28 22
REMARK SMILES IDX 21 23 20 24 25 25 22 26 23 27 26 28 27 29 8 30 9 31 10 32
REMARK SMILES IDX 24 33
REMARK H PARENT 24 34
REMARK Flexibility Score: inf
ROOT
ATOM      1  C   UNL     1      13.163  13.182  23.548  1.00  0.00     0.017 C 
ATOM      2  C   UNL     1      13.171  11.883  22.692  1.00  0.00     0.014 C 
ATOM      3  C   UNL     1      14.349  14.111  23.109  1.00  0.00     0.014 C 
ATOM      4  C   UNL     1      11.765  13.906  23.459  1.00  0.00     0.030 C 
ATOM      5  C   UNL     1      12.659  12.090  21.265  1.00  0.00     0.004 C 
ATOM      6  C   UNL     1      14.010  15.601  22.920  1.00  0.00     0.013 C 
ATOM      7  C   UNL     1      11.826  15.305  24.105  1.00  0.00    -0.063 C 
ATOM      8  C   UNL     1      11.144  13.973  22.018  1.00  0.00    -0.003 C 
ATOM      9  C   UNL     1      11.223  12.621  21.257  1.00  0.00    -0.011 C 
ATOM     10  C   UNL     1      13.059  16.204  24.009  1.00  0.00    -0.006 C 
ATOM     11  C   UNL     1      10.753  15.729  24.783  1.00  0.00    -0.027 C 
ATOM     12  C   UNL     1       9.687  14.487  22.031  1.00  0.00     0.008 C 
ATOM     13  C   UNL     1      10.223  11.554  21.757  1.00  0.00     0.008 C 
ATOM     14  C   UNL     1      13.803  16.131  25.380  1.00  0.00     0.017 C 
ATOM     15  C   UNL     1      12.627  17.730  23.697  1.00  0.00    -0.020 C 
ATOM     16  C   UNL     1      10.488  17.158  25.132  1.00  0.00     0.032 C 
ATOM     17  C   UNL     1      11.573  18.240  24.786  1.00  0.00     0.006 C 
ATOM     18  C   UNL     1      11.985  17.857  22.280  1.00  0.00     0.008 C 
ATOM     19  C   UNL     1      13.915  18.623  23.719  1.00  0.00     0.012 C 
ATOM     20  C   UNL     1      10.904  19.670  24.480  1.00  0.00    -0.025 C 
ATOM     21  C   UNL     1      11.343  19.222  21.970  1.00  0.00     0.005 C 
ATOM     22  C   UNL     1      10.287  19.635  23.027  1.00  0.00     0.003 C 
ATOM     23  C   UNL     1       9.761  19.986  25.514  1.00  0.00     0.010 C 
ATOM     24  C   UNL     1      11.975  20.802  24.664  1.00  0.00     0.012 C 
ATOM     25  C   UNL     1       9.387  20.877  22.626  1.00  0.00    -0.006 C 
ATOM     26  C   UNL     1       8.917  21.220  25.157  1.00  0.00     0.033 C 
ATOM     27  C   UNL     1       8.316  21.100  23.745  1.00  0.00     0.120 C 
ATOM     28  C   UNL     1       8.616  20.559  21.313  1.00  0.00     0.014 C 
ATOM     29  C   UNL     1      10.205  22.171  22.365  1.00  0.00     0.014 C 
ENDROOT
BRANCH   1  30
ATOM     30  C   UNL     1      13.424  12.713  24.982  1.00  0.00     0.048 C 
ATOM     31  O   UNL     1      14.585  12.700  25.474  1.00  0.00    -0.550 OA
ATOM     32  O   UNL     1      12.359  12.302  25.779  1.00  0.00    -0.550 OA
ENDBRANCH   1  30
BRANCH  27  33
ATOM     33  O   UNL     1       7.481  22.201  23.465  1.00  0.00    -0.393 OA
ATOM     34  H   UNL     1       7.997  23.033  23.630  1.00  0.00     0.210 HD
ENDBRANCH  27  33
TORSDOF 2
ENDMDL
MODEL 6
REMARK VINA RESULT:    -7.103     12.570     15.417
REMARK INTER + INTRA:          -7.937
REMARK INTER:                  -7.742
REMARK INTRA:                  -0.195
REMARK UNBOUND:                -0.210
REMARK SMILES C[C@@H]1[C@H](C)CC[C@@]2(C(=O)[O-])CC[C@]3(C)C(=CC[C@@H]4[C@]5(C)CC[C@@H](O)C(C)(C)[C@H]5CC[C@@]43C)[C@@H]12
REMARK SMILES IDX 7 1 6 2 11 3 33 4 5 5 12 6 15 7 2 8 3 9 13 10 16 11 1 12
REMARK SMILES IDX 4 13 14 14 31 15 17 16 18 17 30 18 32 19 19 20 29 21 28 22
REMARK SMILES IDX 21 23 20 24 25 25 22 26 23 27 26 28 27 29 8 30 9 31 10 32
REMARK SMILES IDX 24 33
REMARK H PARENT 24 34
REMARK Flexibility Score: inf
ROOT
ATOM      1  C   UNL     1      12.435  14.687  24.360  1.00  0.00     0.017 C 
ATOM      2  C   UNL     1      11.603  15.689  23.508  1.00  0.00     0.014 C 
ATOM      3  C   UNL     1      11.857  14.624  25.817  1.00  0.00     0.014 C 
ATOM      4  C   UNL     1      12.488  13.271  23.670  1.00  0.00     0.030 C 
ATOM      5  C   UNL     1      10.236  15.142  23.089  1.00  0.00     0.004 C 
ATOM      6  C   UNL     1      11.685  13.217  26.418  1.00  0.00     0.013 C 
ATOM      7  C   UNL     1      13.104  12.219  24.614  1.00  0.00    -0.063 C 
ATOM      8  C   UNL     1      11.122  12.771  23.078  1.00  0.00    -0.003 C 
ATOM      9  C   UNL     1      10.376  13.862  22.261  1.00  0.00    -0.011 C 
ATOM     10  C   UNL     1      12.862  12.226  26.125  1.00  0.00    -0.006 C 
ATOM     11  C   UNL     1      13.888  11.276  24.078  1.00  0.00    -0.027 C 
ATOM     12  C   UNL     1      11.286  11.492  22.224  1.00  0.00     0.008 C 
ATOM     13  C   UNL     1      10.996  14.149  20.875  1.00  0.00     0.008 C 
ATOM     14  C   UNL     1      14.145  12.800  26.804  1.00  0.00     0.017 C 
ATOM     15  C   UNL     1      12.577  10.728  26.662  1.00  0.00    -0.020 C 
ATOM     16  C   UNL     1      14.243   9.991  24.753  1.00  0.00     0.032 C 
ATOM     17  C   UNL     1      13.766   9.750  26.230  1.00  0.00     0.006 C 
ATOM     18  C   UNL     1      11.236  10.169  26.091  1.00  0.00     0.008 C 
ATOM     19  C   UNL     1      12.447  10.779  28.222  1.00  0.00     0.012 C 
ATOM     20  C   UNL     1      13.514   8.189  26.521  1.00  0.00    -0.025 C 
ATOM     21  C   UNL     1      10.977   8.675  26.364  1.00  0.00     0.005 C 
ATOM     22  C   UNL     1      12.137   7.773  25.871  1.00  0.00     0.003 C 
ATOM     23  C   UNL     1      14.661   7.311  25.899  1.00  0.00     0.010 C 
ATOM     24  C   UNL     1      13.564   7.928  28.068  1.00  0.00     0.012 C 
ATOM     25  C   UNL     1      11.818   6.220  25.857  1.00  0.00    -0.006 C 
ATOM     26  C   UNL     1      14.380   5.800  25.928  1.00  0.00     0.033 C 
ATOM     27  C   UNL     1      13.043   5.464  25.243  1.00  0.00     0.120 C 
ATOM     28  C   UNL     1      10.601   5.946  24.928  1.00  0.00     0.014 C 
ATOM     29  C   UNL     1      11.452   5.654  27.255  1.00  0.00     0.014 C 
ENDROOT
BRANCH   1  30
ATOM     30  C   UNL     1      13.839  15.295  24.424  1.00  0.00     0.048 C 
ATOM     31  O   UNL     1      14.282  15.831  25.476  1.00  0.00    -0.550 OA
ATOM     32  O   UNL     1      14.664  15.247  23.304  1.00  0.00    -0.550 OA
ENDBRANCH   1  30
BRANCH  27  33
ATOM     33  O   UNL     1      12.840   4.069  25.209  1.00  0.00    -0.393 OA
ATOM     34  H   UNL     1      12.158   3.871  24.515  1.00  0.00     0.210 HD
ENDBRANCH  27  33
TORSDOF 2
ENDMDL
MODEL 7
REMARK VINA RESULT:    -7.055      2.514      7.380
REMARK INTER + INTRA:          -7.884
REMARK INTER:                  -7.656
REMARK INTRA:                  -0.228
REMARK UNBOUND:                -0.210
REMARK SMILES C[C@@H]1[C@H](C)CC[C@@]2(C(=O)[O-])CC[C@]3(C)C(=CC[C@@H]4[C@]5(C)CC[C@@H](O)C(C)(C)[C@H]5CC[C@@]43C)[C@@H]12
REMARK SMILES IDX 7 1 6 2 11 3 33 4 5 5 12 6 15 7 2 8 3 9 13 10 16 11 1 12
REMARK SMILES IDX 4 13 14 14 31 15 17 16 18 17 30 18 32 19 19 20 29 21 28 22
REMARK SMILES IDX 21 23 20 24 25 25 22 26 23 27 26 28 27 29 8 30 9 31 10 32
REMARK SMILES IDX 24 33
REMARK H PARENT 24 34
REMARK Flexibility Score: inf
ROOT
ATOM      1  C   UNL     1       3.630   8.355  38.778  1.00  0.00     0.017 C 
ATOM      2  C   UNL     1       2.419   7.620  39.421  1.00  0.00     0.014 C 
ATOM      3  C   UNL     1       4.572   8.907  39.906  1.00  0.00     0.014 C 
ATOM      4  C   UNL     1       4.389   7.412  37.768  1.00  0.00     0.030 C 
ATOM      5  C   UNL     1       2.773   6.244  39.989  1.00  0.00     0.004 C 
ATOM      6  C   UNL     1       6.080   8.667  39.709  1.00  0.00     0.013 C 
ATOM      7  C   UNL     1       5.718   8.046  37.311  1.00  0.00    -0.063 C 
ATOM      8  C   UNL     1       4.606   5.940  38.271  1.00  0.00    -0.003 C 
ATOM      9  C   UNL     1       3.332   5.318  38.906  1.00  0.00    -0.011 C 
ATOM     10  C   UNL     1       6.596   8.881  38.245  1.00  0.00    -0.006 C 
ATOM     11  C   UNL     1       6.098   7.860  36.042  1.00  0.00    -0.027 C 
ATOM     12  C   UNL     1       5.147   5.014  37.158  1.00  0.00     0.008 C 
ATOM     13  C   UNL     1       2.244   4.923  37.882  1.00  0.00     0.008 C 
ATOM     14  C   UNL     1       6.377  10.383  37.880  1.00  0.00     0.017 C 
ATOM     15  C   UNL     1       8.154   8.490  38.060  1.00  0.00    -0.020 C 
ATOM     16  C   UNL     1       7.492   8.061  35.542  1.00  0.00     0.032 C 
ATOM     17  C   UNL     1       8.579   8.626  36.524  1.00  0.00     0.006 C 
ATOM     18  C   UNL     1       8.429   7.027  38.528  1.00  0.00     0.008 C 
ATOM     19  C   UNL     1       9.013   9.447  38.955  1.00  0.00     0.012 C 
ATOM     20  C   UNL     1      10.045   8.073  36.165  1.00  0.00    -0.025 C 
ATOM     21  C   UNL     1       9.831   6.483  38.195  1.00  0.00     0.005 C 
ATOM     22  C   UNL     1      10.162   6.587  36.684  1.00  0.00     0.003 C 
ATOM     23  C   UNL     1      10.286   8.093  34.610  1.00  0.00     0.010 C 
ATOM     24  C   UNL     1      11.132   9.024  36.780  1.00  0.00     0.012 C 
ATOM     25  C   UNL     1      11.456   5.792  36.226  1.00  0.00    -0.006 C 
ATOM     26  C   UNL     1      11.565   7.368  34.164  1.00  0.00     0.033 C 
ATOM     27  C   UNL     1      11.593   5.915  34.672  1.00  0.00     0.120 C 
ATOM     28  C   UNL     1      11.281   4.282  36.550  1.00  0.00     0.014 C 
ATOM     29  C   UNL     1      12.751   6.260  36.943  1.00  0.00     0.014 C 
ENDROOT
BRANCH   1  30
ATOM     30  C   UNL     1       3.021   9.545  38.033  1.00  0.00     0.048 C 
ATOM     31  O   UNL     1       3.062  10.714  38.505  1.00  0.00    -0.550 OA
ATOM     32  O   UNL     1       2.417   9.349  36.795  1.00  0.00    -0.550 OA
ENDBRANCH   1  30
BRANCH  27  33
ATOM     33  O   UNL     1      12.733   5.242  34.187  1.00  0.00    -0.393 OA
ATOM     34  H   UNL     1      12.980   5.638  33.312  1.00  0.00     0.210 HD
ENDBRANCH  27  33
TORSDOF 2
ENDMDL
MODEL 8
REMARK VINA RESULT:    -6.863     15.307     18.309
REMARK INTER + INTRA:          -7.675
REMARK INTER:                  -7.428
REMARK INTRA:                  -0.247
REMARK UNBOUND:                -0.210
REMARK SMILES C[C@@H]1[C@H](C)CC[C@@]2(C(=O)[O-])CC[C@]3(C)C(=CC[C@@H]4[C@]5(C)CC[C@@H](O)C(C)(C)[C@H]5CC[C@@]43C)[C@@H]12
REMARK SMILES IDX 7 1 6 2 11 3 33 4 5 5 12 6 15 7 2 8 3 9 13 10 16 11 1 12
REMARK SMILES IDX 4 13 14 14 31 15 17 16 18 17 30 18 32 19 19 20 29 21 28 22
REMARK SMILES IDX 21 23 20 24 25 25 22 26 23 27 26 28 27 29 8 30 9 31 10 32
REMARK SMILES IDX 24 33
REMARK H PARENT 24 34
REMARK Flexibility Score: inf
ROOT
ATOM      1  C   UNL     1      12.469  12.435  23.782  1.00  0.00     0.017 C 
ATOM      2  C   UNL     1      12.001  11.157  23.029  1.00  0.00     0.014 C 
ATOM      3  C   UNL     1      13.693  13.072  23.034  1.00  0.00     0.014 C 
ATOM      4  C   UNL     1      11.276  13.451  23.959  1.00  0.00     0.030 C 
ATOM      5  C   UNL     1      11.233  11.455  21.740  1.00  0.00     0.004 C 
ATOM      6  C   UNL     1      13.647  14.597  22.831  1.00  0.00     0.013 C 
ATOM      7  C   UNL     1      11.781  14.810  24.486  1.00  0.00    -0.063 C 
ATOM      8  C   UNL     1      10.370  13.638  22.689  1.00  0.00    -0.003 C 
ATOM      9  C   UNL     1       9.981  12.292  22.016  1.00  0.00    -0.011 C 
ATOM     10  C   UNL     1      13.123  15.410  24.063  1.00  0.00    -0.006 C 
ATOM     11  C   UNL     1      11.009  15.471  25.356  1.00  0.00    -0.027 C 
ATOM     12  C   UNL     1       9.099  14.463  22.992  1.00  0.00     0.008 C 
ATOM     13  C   UNL     1       8.918  11.482  22.791  1.00  0.00     0.008 C 
ATOM     14  C   UNL     1      14.128  15.190  25.238  1.00  0.00     0.017 C 
ATOM     15  C   UNL     1      12.968  16.990  23.759  1.00  0.00    -0.020 C 
ATOM     16  C   UNL     1      11.144  16.927  25.664  1.00  0.00     0.032 C 
ATOM     17  C   UNL     1      12.326  17.736  25.020  1.00  0.00     0.006 C 
ATOM     18  C   UNL     1      12.061  17.240  22.514  1.00  0.00     0.008 C 
ATOM     19  C   UNL     1      14.387  17.573  23.440  1.00  0.00     0.012 C 
ATOM     20  C   UNL     1      11.927  19.275  24.780  1.00  0.00    -0.025 C 
ATOM     21  C   UNL     1      11.672  18.709  22.268  1.00  0.00     0.005 C 
ATOM     22  C   UNL     1      11.001  19.360  23.504  1.00  0.00     0.003 C 
ATOM     23  C   UNL     1      11.147  19.851  26.019  1.00  0.00     0.010 C 
ATOM     24  C   UNL     1      13.229  20.141  24.651  1.00  0.00     0.012 C 
ATOM     25  C   UNL     1      10.320  20.767  23.235  1.00  0.00    -0.006 C 
ATOM     26  C   UNL     1      10.528  21.237  25.781  1.00  0.00     0.033 C 
ATOM     27  C   UNL     1       9.608  21.236  24.547  1.00  0.00     0.120 C 
ATOM     28  C   UNL     1       9.219  20.612  22.148  1.00  0.00     0.014 C 
ATOM     29  C   UNL     1      11.314  21.842  22.719  1.00  0.00     0.014 C 
ENDROOT
BRANCH   1  30
ATOM     30  C   UNL     1      12.945  11.937  25.149  1.00  0.00     0.048 C 
ATOM     31  O   UNL     1      12.142  11.753  26.104  1.00  0.00    -0.550 OA
ATOM     32  O   UNL     1      14.294  11.661  25.352  1.00  0.00    -0.550 OA
ENDBRANCH   1  30
BRANCH  27  33
ATOM     33  O   UNL     1       8.987  22.492  24.390  1.00  0.00    -0.393 OA
ATOM     34  H   UNL     1       9.423  22.963  23.632  1.00  0.00     0.210 HD
ENDBRANCH  27  33
TORSDOF 2
ENDMDL
MODEL 9
REMARK VINA RESULT:    -6.806      3.284      6.830
REMARK INTER + INTRA:          -7.613
REMARK INTER:                  -7.457
REMARK INTRA:                  -0.156
REMARK UNBOUND:                -0.210
REMARK SMILES C[C@@H]1[C@H](C)CC[C@@]2(C(=O)[O-])CC[C@]3(C)C(=CC[C@@H]4[C@]5(C)CC[C@@H](O)C(C)(C)[C@H]5CC[C@@]43C)[C@@H]12
REMARK SMILES IDX 7 1 6 2 11 3 33 4 5 5 12 6 15 7 2 8 3 9 13 10 16 11 1 12
REMARK SMILES IDX 4 13 14 14 31 15 17 16 18 17 30 18 32 19 19 20 29 21 28 22
REMARK SMILES IDX 21 23 20 24 25 25 22 26 23 27 26 28 27 29 8 30 9 31 10 32
REMARK SMILES IDX 24 33
REMARK H PARENT 24 34
REMARK Flexibility Score: inf
ROOT
ATOM      1  C   UNL     1       8.153   9.237  39.757  1.00  0.00     0.017 C 
ATOM      2  C   UNL     1       7.119   9.251  40.920  1.00  0.00     0.014 C 
ATOM      3  C   UNL     1       9.445   8.467  40.208  1.00  0.00     0.014 C 
ATOM      4  C   UNL     1       7.517   8.632  38.447  1.00  0.00     0.030 C 
ATOM      5  C   UNL     1       6.414   7.908  41.125  1.00  0.00     0.004 C 
ATOM      6  C   UNL     1      10.016   7.453  39.200  1.00  0.00     0.013 C 
ATOM      7  C   UNL     1       8.594   8.395  37.369  1.00  0.00    -0.063 C 
ATOM      8  C   UNL     1       6.642   7.346  38.668  1.00  0.00    -0.003 C 
ATOM      9  C   UNL     1       5.660   7.475  39.865  1.00  0.00    -0.011 C 
ATOM     10  C   UNL     1      10.011   7.931  37.708  1.00  0.00    -0.006 C 
ATOM     11  C   UNL     1       8.263   8.621  36.092  1.00  0.00    -0.027 C 
ATOM     12  C   UNL     1       5.870   6.937  37.393  1.00  0.00     0.008 C 
ATOM     13  C   UNL     1       4.444   8.387  39.590  1.00  0.00     0.008 C 
ATOM     14  C   UNL     1      10.951   9.174  37.606  1.00  0.00     0.017 C 
ATOM     15  C   UNL     1      10.497   6.786  36.675  1.00  0.00    -0.020 C 
ATOM     16  C   UNL     1       9.023   8.092  34.919  1.00  0.00     0.032 C 
ATOM     17  C   UNL     1      10.359   7.306  35.170  1.00  0.00     0.006 C 
ATOM     18  C   UNL     1       9.650   5.485  36.836  1.00  0.00     0.008 C 
ATOM     19  C   UNL     1      11.987   6.429  36.999  1.00  0.00     0.012 C 
ATOM     20  C   UNL     1      10.614   6.198  34.033  1.00  0.00    -0.025 C 
ATOM     21  C   UNL     1       9.884   4.411  35.756  1.00  0.00     0.005 C 
ATOM     22  C   UNL     1       9.679   4.959  34.321  1.00  0.00     0.003 C 
ATOM     23  C   UNL     1      10.280   6.771  32.606  1.00  0.00     0.010 C 
ATOM     24  C   UNL     1      12.137   5.821  33.998  1.00  0.00     0.012 C 
ATOM     25  C   UNL     1       9.621   3.855  33.185  1.00  0.00    -0.006 C 
ATOM     26  C   UNL     1      10.272   5.714  31.491  1.00  0.00     0.033 C 
ATOM     27  C   UNL     1       9.311   4.558  31.821  1.00  0.00     0.120 C 
ATOM     28  C   UNL     1       8.448   2.875  33.470  1.00  0.00     0.014 C 
ATOM     29  C   UNL     1      10.911   2.997  33.094  1.00  0.00     0.014 C 
ENDROOT
BRANCH   1  30
ATOM     30  C   UNL     1       8.519  10.707  39.536  1.00  0.00     0.048 C 
ATOM     31  O   UNL     1       8.054  11.367  38.568  1.00  0.00    -0.550 OA
ATOM     32  O   UNL     1       9.372  11.347  40.430  1.00  0.00    -0.550 OA
ENDBRANCH   1  30
BRANCH  27  33
ATOM     33  O   UNL     1       9.256   3.638  30.753  1.00  0.00    -0.393 OA
ATOM     34  H   UNL     1       9.814   3.989  30.011  1.00  0.00     0.210 HD
ENDBRANCH  27  33
TORSDOF 2
ENDMDL
