MODEL 1
REMARK VINA RESULT:    -1.856      0.000      0.000
REMARK INTER + INTRA:          -5.870
REMARK INTER:                  -4.894
REMARK INTRA:                  -0.975
REMARK UNBOUND:                -0.975
REMARK SMILES CCCCCCCCCCCCCCCCCCCCCCCCCCCCCC(=O)[O-]
REMARK SMILES IDX 16 1 17 2 18 3 19 4 20 5 21 6 22 7 23 8 24 9 25 10 26 11
REMARK SMILES IDX 27 12 28 13 29 14 30 15 31 16 32 17 15 18 14 19 13 20 12 21
REMARK SMILES IDX 11 22 10 23 9 24 8 25 7 26 6 27 5 28 4 29 3 30 2 31 1 32
REMARK H PARENT
REMARK Flexibility Score: inf
ROOT
ATOM      1  C   UNL     1       1.130 -20.860  16.995  1.00  0.00     0.000 C 
ENDROOT
BRANCH   1   2
ATOM      2  C   UNL     1      -0.134 -21.674  17.313  1.00  0.00     0.000 C 
BRANCH   2   3
ATOM      3  C   UNL     1      -1.149 -21.786  16.158  1.00  0.00     0.000 C 
BRANCH   3   4
ATOM      4  C   UNL     1      -2.111 -22.985  16.274  1.00  0.00     0.000 C 
BRANCH   4   5
ATOM      5  C   UNL     1      -3.582 -22.637  15.959  1.00  0.00     0.000 C 
BRANCH   5   6
ATOM      6  C   UNL     1      -4.539 -22.878  17.146  1.00  0.00     0.000 C 
BRANCH   6   7
ATOM      7  C   UNL     1      -5.855 -22.079  17.082  1.00  0.00     0.000 C 
BRANCH   7   8
ATOM      8  C   UNL     1      -6.130 -21.466  15.699  1.00  0.00     0.000 C 
BRANCH   8   9
ATOM      9  C   UNL     1      -7.546 -21.810  15.211  1.00  0.00     0.000 C 
BRANCH   9  10
ATOM     10  C   UNL     1      -8.407 -20.561  14.950  1.00  0.00     0.000 C 
BRANCH  10  11
ATOM     11  C   UNL     1      -9.928 -20.771  15.095  1.00  0.00     0.000 C 
BRANCH  11  12
ATOM     12  C   UNL     1     -10.564 -20.098  16.325  1.00  0.00     0.000 C 
BRANCH  12  13
ATOM     13  C   UNL     1     -10.863 -21.094  17.458  1.00  0.00     0.006 C 
BRANCH  13  14
ATOM     14  C   UNL     1      -9.608 -21.436  18.273  1.00  0.00     0.053 C 
BRANCH  14  15
ATOM     15  C   UNL     1      -9.686 -20.900  19.670  1.00  0.00     0.041 C 
ATOM     16  O   UNL     1      -9.657 -21.683  20.655  1.00  0.00    -0.550 OA
ATOM     17  O   UNL     1      -9.762 -19.528  19.885  1.00  0.00    -0.550 OA
ENDBRANCH  14  15
ENDBRANCH  13  14
ENDBRANCH  12  13
ENDBRANCH  11  12
ENDBRANCH  10  11
ENDBRANCH   9  10
ENDBRANCH   8   9
ENDBRANCH   7   8
ENDBRANCH   6   7
ENDBRANCH   5   6
ENDBRANCH   4   5
ENDBRANCH   3   4
ENDBRANCH   2   3
ENDBRANCH   1   2
BRANCH   1  18
ATOM     18  C   UNL     1       2.306 -21.737  16.537  1.00  0.00     0.000 C 
BRANCH  18  19
ATOM     19  C   UNL     1       1.831 -22.840  15.579  1.00  0.00     0.000 C 
BRANCH  19  20
ATOM     20  C   UNL     1       2.834 -23.119  14.447  1.00  0.00     0.000 C 
BRANCH  20  21
ATOM     21  C   UNL     1       4.293 -22.907  14.885  1.00  0.00     0.000 C 
BRANCH  21  22
ATOM     22  C   UNL     1       5.283 -22.912  13.708  1.00  0.00     0.000 C 
BRANCH  22  23
ATOM     23  C   UNL     1       6.754 -23.110  14.127  1.00  0.00     0.000 C 
BRANCH  23  24
ATOM     24  C   UNL     1       6.939 -23.086  15.657  1.00  0.00    -0.000 C 
BRANCH  24  25
ATOM     25  C   UNL     1       7.650 -21.815  16.148  1.00  0.00    -0.000 C 
BRANCH  25  26
ATOM     26  C   UNL     1       9.085 -21.688  15.604  1.00  0.00    -0.000 C 
BRANCH  26  27
ATOM     27  C   UNL     1       9.122 -21.454  14.085  1.00  0.00    -0.000 C 
BRANCH  27  28
ATOM     28  C   UNL     1       8.375 -20.178  13.659  1.00  0.00    -0.000 C 
BRANCH  28  29
ATOM     29  C   UNL     1       9.076 -19.448  12.493  1.00  0.00    -0.000 C 
BRANCH  29  30
ATOM     30  C   UNL     1       8.634 -19.939  11.100  1.00  0.00    -0.000 C 
BRANCH  30  31
ATOM     31  C   UNL     1       7.112 -19.982  10.883  1.00  0.00    -0.003 C 
ATOM     32  C   UNL     1       6.695 -19.525   9.485  1.00  0.00     0.004 C 
ENDBRANCH  30  31
ENDBRANCH  29  30
ENDBRANCH  28  29
ENDBRANCH  27  28
ENDBRANCH  26  27
ENDBRANCH  25  26
ENDBRANCH  24  25
ENDBRANCH  23  24
ENDBRANCH  22  23
ENDBRANCH  21  22
ENDBRANCH  20  21
ENDBRANCH  19  20
ENDBRANCH  18  19
ENDBRANCH   1  18
TORSDOF 28
ENDMDL
MODEL 2
REMARK VINA RESULT:    -1.170      5.062     15.132
REMARK INTER + INTRA:          -4.059
REMARK INTER:                  -2.258
REMARK INTRA:                  -1.801
REMARK UNBOUND:                -0.975
REMARK SMILES CCCCCCCCCCCCCCCCCCCCCCCCCCCCCC(=O)[O-]
REMARK SMILES IDX 16 1 17 2 18 3 19 4 20 5 21 6 22 7 23 8 24 9 25 10 26 11
REMARK SMILES IDX 27 12 28 13 29 14 30 15 31 16 32 17 15 18 14 19 13 20 12 21
REMARK SMILES IDX 11 22 10 23 9 24 8 25 7 26 6 27 5 28 4 29 3 30 2 31 1 32
REMARK H PARENT
REMARK Flexibility Score: inf
ROOT
ATOM      1  C   UNL     1      -2.070 -21.484  16.017  1.00  0.00     0.000 C 
ENDROOT
BRANCH   1   2
ATOM      2  C   UNL     1      -1.001 -22.539  16.339  1.00  0.00     0.000 C 
BRANCH   2   3
ATOM      3  C   UNL     1       0.236 -22.010  17.092  1.00  0.00     0.000 C 
BRANCH   3   4
ATOM      4  C   UNL     1       1.303 -21.367  16.185  1.00  0.00     0.000 C 
BRANCH   4   5
ATOM      5  C   UNL     1       2.221 -22.389  15.480  1.00  0.00     0.000 C 
BRANCH   5   6
ATOM      6  C   UNL     1       3.242 -23.054  16.428  1.00  0.00     0.000 C 
BRANCH   6   7
ATOM      7  C   UNL     1       4.713 -22.695  16.141  1.00  0.00     0.000 C 
BRANCH   7   8
ATOM      8  C   UNL     1       5.304 -21.693  17.147  1.00  0.00     0.000 C 
BRANCH   8   9
ATOM      9  C   UNL     1       6.618 -22.217  17.746  1.00  0.00     0.000 C 
BRANCH   9  10
ATOM     10  C   UNL     1       7.848 -21.855  16.895  1.00  0.00     0.000 C 
BRANCH  10  11
ATOM     11  C   UNL     1       8.626 -23.058  16.321  1.00  0.00     0.000 C 
BRANCH  11  12
ATOM     12  C   UNL     1       9.081 -22.903  14.860  1.00  0.00     0.000 C 
BRANCH  12  13
ATOM     13  C   UNL     1       8.119 -22.041  14.026  1.00  0.00     0.006 C 
BRANCH  13  14
ATOM     14  C   UNL     1       8.852 -20.934  13.257  1.00  0.00     0.053 C 
BRANCH  14  15
ATOM     15  C   UNL     1       8.057 -20.447  12.084  1.00  0.00     0.041 C 
ATOM     16  O   UNL     1       7.519 -21.268  11.295  1.00  0.00    -0.550 OA
ATOM     17  O   UNL     1       7.885 -19.083  11.878  1.00  0.00    -0.550 OA
ENDBRANCH  14  15
ENDBRANCH  13  14
ENDBRANCH  12  13
ENDBRANCH  11  12
ENDBRANCH  10  11
ENDBRANCH   9  10
ENDBRANCH   8   9
ENDBRANCH   7   8
ENDBRANCH   6   7
ENDBRANCH   5   6
ENDBRANCH   4   5
ENDBRANCH   3   4
ENDBRANCH   2   3
ENDBRANCH   1   2
BRANCH   1  18
ATOM     18  C   UNL     1      -3.168 -22.012  15.080  1.00  0.00     0.000 C 
BRANCH  18  19
ATOM     19  C   UNL     1      -4.484 -22.228  15.840  1.00  0.00     0.000 C 
BRANCH  19  20
ATOM     20  C   UNL     1      -4.317 -23.125  17.078  1.00  0.00     0.000 C 
BRANCH  20  21
ATOM     21  C   UNL     1      -5.531 -23.066  18.021  1.00  0.00     0.000 C 
BRANCH  21  22
ATOM     22  C   UNL     1      -6.779 -22.457  17.359  1.00  0.00     0.000 C 
BRANCH  22  23
ATOM     23  C   UNL     1      -8.109 -23.050  17.866  1.00  0.00     0.000 C 
BRANCH  23  24
ATOM     24  C   UNL     1      -8.203 -23.056  19.405  1.00  0.00    -0.000 C 
BRANCH  24  25
ATOM     25  C   UNL     1      -9.503 -22.421  19.921  1.00  0.00    -0.000 C 
BRANCH  25  26
ATOM     26  C   UNL     1      -9.251 -21.190  20.811  1.00  0.00    -0.000 C 
BRANCH  26  27
ATOM     27  C   UNL     1     -10.518 -20.348  21.026  1.00  0.00    -0.000 C 
BRANCH  27  28
ATOM     28  C   UNL     1     -10.801 -19.386  19.858  1.00  0.00    -0.000 C 
BRANCH  28  29
ATOM     29  C   UNL     1     -11.124 -20.133  18.546  1.00  0.00    -0.000 C 
BRANCH  29  30
ATOM     30  C   UNL     1     -10.267 -19.679  17.348  1.00  0.00    -0.000 C 
BRANCH  30  31
ATOM     31  C   UNL     1     -10.593 -20.380  16.018  1.00  0.00    -0.003 C 
ATOM     32  C   UNL     1      -9.400 -20.430  15.063  1.00  0.00     0.004 C 
ENDBRANCH  30  31
ENDBRANCH  29  30
ENDBRANCH  28  29
ENDBRANCH  27  28
ENDBRANCH  26  27
ENDBRANCH  25  26
ENDBRANCH  24  25
ENDBRANCH  23  24
ENDBRANCH  22  23
ENDBRANCH  21  22
ENDBRANCH  20  21
ENDBRANCH  19  20
ENDBRANCH  18  19
ENDBRANCH   1  18
TORSDOF 28
ENDMDL
MODEL 3
REMARK VINA RESULT:    -0.851      1.488      3.115
REMARK INTER + INTRA:          -3.219
REMARK INTER:                  -1.375
REMARK INTRA:                  -1.844
REMARK UNBOUND:                -0.975
REMARK SMILES CCCCCCCCCCCCCCCCCCCCCCCCCCCCCC(=O)[O-]
REMARK SMILES IDX 16 1 17 2 18 3 19 4 20 5 21 6 22 7 23 8 24 9 25 10 26 11
REMARK SMILES IDX 27 12 28 13 29 14 30 15 31 16 32 17 15 18 14 19 13 20 12 21
REMARK SMILES IDX 11 22 10 23 9 24 8 25 7 26 6 27 5 28 4 29 3 30 2 31 1 32
REMARK H PARENT
REMARK Flexibility Score: inf
ROOT
ATOM      1  C   UNL     1      -2.478 -22.989  16.373  1.00  0.00     0.000 C 
ENDROOT
BRANCH   1   2
ATOM      2  C   UNL     1      -3.833 -22.385  15.974  1.00  0.00     0.000 C 
BRANCH   2   3
ATOM      3  C   UNL     1      -5.067 -23.121  16.530  1.00  0.00     0.000 C 
BRANCH   3   4
ATOM      4  C   UNL     1      -5.712 -22.441  17.755  1.00  0.00     0.000 C 
BRANCH   4   5
ATOM      5  C   UNL     1      -7.080 -21.790  17.459  1.00  0.00     0.000 C 
BRANCH   5   6
ATOM      6  C   UNL     1      -7.722 -22.279  16.143  1.00  0.00     0.000 C 
BRANCH   6   7
ATOM      7  C   UNL     1      -7.804 -21.213  15.033  1.00  0.00     0.000 C 
BRANCH   7   8
ATOM      8  C   UNL     1      -9.244 -20.885  14.606  1.00  0.00     0.000 C 
BRANCH   8   9
ATOM      9  C   UNL     1      -9.967 -20.059  15.681  1.00  0.00     0.000 C 
BRANCH   9  10
ATOM     10  C   UNL     1     -10.848 -20.921  16.604  1.00  0.00     0.000 C 
BRANCH  10  11
ATOM     11  C   UNL     1     -10.724 -20.606  18.109  1.00  0.00     0.000 C 
BRANCH  11  12
ATOM     12  C   UNL     1     -10.447 -21.824  19.009  1.00  0.00     0.000 C 
BRANCH  12  13
ATOM     13  C   UNL     1     -10.405 -21.462  20.503  1.00  0.00     0.006 C 
BRANCH  13  14
ATOM     14  C   UNL     1      -9.269 -22.184  21.241  1.00  0.00     0.053 C 
BRANCH  14  15
ATOM     15  C   UNL     1      -8.975 -21.553  22.568  1.00  0.00     0.041 C 
ATOM     16  O   UNL     1      -8.542 -22.251  23.522  1.00  0.00    -0.550 OA
ATOM     17  O   UNL     1      -9.153 -20.186  22.742  1.00  0.00    -0.550 OA
ENDBRANCH  14  15
ENDBRANCH  13  14
ENDBRANCH  12  13
ENDBRANCH  11  12
ENDBRANCH  10  11
ENDBRANCH   9  10
ENDBRANCH   8   9
ENDBRANCH   7   8
ENDBRANCH   6   7
ENDBRANCH   5   6
ENDBRANCH   4   5
ENDBRANCH   3   4
ENDBRANCH   2   3
ENDBRANCH   1   2
BRANCH   1  18
ATOM     18  C   UNL     1      -1.305 -22.017  16.165  1.00  0.00     0.000 C 
BRANCH  18  19
ATOM     19  C   UNL     1       0.041 -22.726  16.374  1.00  0.00     0.000 C 
BRANCH  19  20
ATOM     20  C   UNL     1       0.716 -23.125  15.050  1.00  0.00     0.000 C 
BRANCH  20  21
ATOM     21  C   UNL     1       2.093 -22.466  14.866  1.00  0.00     0.000 C 
BRANCH  21  22
ATOM     22  C   UNL     1       2.724 -22.008  16.192  1.00  0.00     0.000 C 
BRANCH  22  23
ATOM     23  C   UNL     1       3.826 -22.949  16.719  1.00  0.00     0.000 C 
BRANCH  23  24
ATOM     24  C   UNL     1       5.243 -22.448  16.377  1.00  0.00    -0.000 C 
BRANCH  24  25
ATOM     25  C   UNL     1       6.022 -21.982  17.617  1.00  0.00    -0.000 C 
BRANCH  25  26
ATOM     26  C   UNL     1       7.409 -21.411  17.269  1.00  0.00    -0.000 C 
BRANCH  26  27
ATOM     27  C   UNL     1       8.371 -22.483  16.735  1.00  0.00    -0.000 C 
BRANCH  27  28
ATOM     28  C   UNL     1       9.124 -22.033  15.470  1.00  0.00    -0.000 C 
BRANCH  28  29
ATOM     29  C   UNL     1       8.315 -21.019  14.634  1.00  0.00    -0.000 C 
BRANCH  29  30
ATOM     30  C   UNL     1       8.383 -21.274  13.115  1.00  0.00    -0.000 C 
BRANCH  30  31
ATOM     31  C   UNL     1       9.125 -20.194  12.310  1.00  0.00    -0.003 C 
ATOM     32  C   UNL     1       8.709 -20.156  10.839  1.00  0.00     0.004 C 
ENDBRANCH  30  31
ENDBRANCH  29  30
ENDBRANCH  28  29
ENDBRANCH  27  28
ENDBRANCH  26  27
ENDBRANCH  25  26
ENDBRANCH  24  25
ENDBRANCH  23  24
ENDBRANCH  22  23
ENDBRANCH  21  22
ENDBRANCH  20  21
ENDBRANCH  19  20
ENDBRANCH  18  19
ENDBRANCH   1  18
TORSDOF 28
ENDMDL
MODEL 4
REMARK VINA RESULT:    -0.805      4.948     15.154
REMARK INTER + INTRA:          -3.098
REMARK INTER:                  -1.753
REMARK INTRA:                  -1.345
REMARK UNBOUND:                -0.975
REMARK SMILES CCCCCCCCCCCCCCCCCCCCCCCCCCCCCC(=O)[O-]
REMARK SMILES IDX 16 1 17 2 18 3 19 4 20 5 21 6 22 7 23 8 24 9 25 10 26 11
REMARK SMILES IDX 27 12 28 13 29 14 30 15 31 16 32 17 15 18 14 19 13 20 12 21
REMARK SMILES IDX 11 22 10 23 9 24 8 25 7 26 6 27 5 28 4 29 3 30 2 31 1 32
REMARK H PARENT
REMARK Flexibility Score: inf
ROOT
ATOM      1  C   UNL     1      -4.662 -21.397  15.693  1.00  0.00     0.000 C 
ENDROOT
BRANCH   1   2
ATOM      2  C   UNL     1      -3.239 -21.053  15.227  1.00  0.00     0.000 C 
BRANCH   2   3
ATOM      3  C   UNL     1      -2.212 -22.195  15.360  1.00  0.00     0.000 C 
BRANCH   3   4
ATOM      4  C   UNL     1      -0.969 -21.834  16.197  1.00  0.00     0.000 C 
BRANCH   4   5
ATOM      5  C   UNL     1       0.047 -22.989  16.335  1.00  0.00     0.000 C 
BRANCH   5   6
ATOM      6  C   UNL     1       1.237 -22.882  15.358  1.00  0.00     0.000 C 
BRANCH   6   7
ATOM      7  C   UNL     1       2.622 -22.864  16.033  1.00  0.00     0.000 C 
BRANCH   7   8
ATOM      8  C   UNL     1       3.781 -23.124  15.055  1.00  0.00     0.000 C 
BRANCH   8   9
ATOM      9  C   UNL     1       5.007 -22.267  15.406  1.00  0.00     0.000 C 
BRANCH   9  10
ATOM     10  C   UNL     1       6.272 -23.108  15.652  1.00  0.00     0.000 C 
BRANCH  10  11
ATOM     11  C   UNL     1       7.524 -22.304  16.059  1.00  0.00     0.000 C 
BRANCH  11  12
ATOM     12  C   UNL     1       8.786 -22.597  15.227  1.00  0.00     0.000 C 
BRANCH  12  13
ATOM     13  C   UNL     1       8.503 -22.643  13.716  1.00  0.00     0.006 C 
BRANCH  13  14
ATOM     14  C   UNL     1       8.203 -21.251  13.142  1.00  0.00     0.053 C 
BRANCH  14  15
ATOM     15  C   UNL     1       7.185 -21.308  12.043  1.00  0.00     0.041 C 
ATOM     16  O   UNL     1       7.211 -20.466  11.108  1.00  0.00    -0.550 OA
ATOM     17  O   UNL     1       6.223 -22.312  12.038  1.00  0.00    -0.550 OA
ENDBRANCH  14  15
ENDBRANCH  13  14
ENDBRANCH  12  13
ENDBRANCH  11  12
ENDBRANCH  10  11
ENDBRANCH   9  10
ENDBRANCH   8   9
ENDBRANCH   7   8
ENDBRANCH   6   7
ENDBRANCH   5   6
ENDBRANCH   4   5
ENDBRANCH   3   4
ENDBRANCH   2   3
ENDBRANCH   1   2
BRANCH   1  18
ATOM     18  C   UNL     1      -4.814 -22.868  16.115  1.00  0.00     0.000 C 
BRANCH  18  19
ATOM     19  C   UNL     1      -6.095 -23.076  16.935  1.00  0.00     0.000 C 
BRANCH  19  20
ATOM     20  C   UNL     1      -5.865 -22.919  18.448  1.00  0.00     0.000 C 
BRANCH  20  21
ATOM     21  C   UNL     1      -7.170 -23.012  19.257  1.00  0.00     0.000 C 
BRANCH  21  22
ATOM     22  C   UNL     1      -6.941 -22.963  20.777  1.00  0.00     0.000 C 
BRANCH  22  23
ATOM     23  C   UNL     1      -8.242 -22.953  21.606  1.00  0.00     0.000 C 
BRANCH  23  24
ATOM     24  C   UNL     1      -8.162 -22.002  22.817  1.00  0.00    -0.000 C 
BRANCH  24  25
ATOM     25  C   UNL     1      -9.045 -20.755  22.649  1.00  0.00    -0.000 C 
BRANCH  25  26
ATOM     26  C   UNL     1     -10.488 -21.098  22.238  1.00  0.00    -0.000 C 
BRANCH  26  27
ATOM     27  C   UNL     1     -10.625 -21.365  20.730  1.00  0.00    -0.000 C 
BRANCH  27  28
ATOM     28  C   UNL     1      -9.771 -20.411  19.876  1.00  0.00    -0.000 C 
BRANCH  28  29
ATOM     29  C   UNL     1     -10.451 -20.052  18.538  1.00  0.00    -0.000 C 
BRANCH  29  30
ATOM     30  C   UNL     1     -11.121 -21.253  17.841  1.00  0.00    -0.000 C 
BRANCH  30  31
ATOM     31  C   UNL     1     -10.951 -21.291  16.313  1.00  0.00    -0.003 C 
ATOM     32  C   UNL     1     -10.495 -19.953  15.730  1.00  0.00     0.004 C 
ENDBRANCH  30  31
ENDBRANCH  29  30
ENDBRANCH  28  29
ENDBRANCH  27  28
ENDBRANCH  26  27
ENDBRANCH  25  26
ENDBRANCH  24  25
ENDBRANCH  23  24
ENDBRANCH  22  23
ENDBRANCH  21  22
ENDBRANCH  20  21
ENDBRANCH  19  20
ENDBRANCH  18  19
ENDBRANCH   1  18
TORSDOF 28
ENDMDL
MODEL 5
REMARK VINA RESULT:    -0.689      5.034     15.237
REMARK INTER + INTRA:          -2.791
REMARK INTER:                  -0.890
REMARK INTRA:                  -1.900
REMARK UNBOUND:                -0.975
REMARK SMILES CCCCCCCCCCCCCCCCCCCCCCCCCCCCCC(=O)[O-]
REMARK SMILES IDX 16 1 17 2 18 3 19 4 20 5 21 6 22 7 23 8 24 9 25 10 26 11
REMARK SMILES IDX 27 12 28 13 29 14 30 15 31 16 32 17 15 18 14 19 13 20 12 21
REMARK SMILES IDX 11 22 10 23 9 24 8 25 7 26 6 27 5 28 4 29 3 30 2 31 1 32
REMARK H PARENT
REMARK Flexibility Score: inf
ROOT
ATOM      1  C   UNL     1      -3.309 -23.125  16.327  1.00  0.00     0.000 C 
ENDROOT
BRANCH   1   2
ATOM      2  C   UNL     1      -2.745 -21.736  15.993  1.00  0.00     0.000 C 
BRANCH   2   3
ATOM      3  C   UNL     1      -1.214 -21.673  15.822  1.00  0.00     0.000 C 
BRANCH   3   4
ATOM      4  C   UNL     1      -0.505 -23.035  15.963  1.00  0.00     0.000 C 
BRANCH   4   5
ATOM      5  C   UNL     1       0.832 -23.125  15.196  1.00  0.00     0.000 C 
BRANCH   5   6
ATOM      6  C   UNL     1       2.072 -22.975  16.102  1.00  0.00     0.000 C 
BRANCH   6   7
ATOM      7  C   UNL     1       2.553 -21.524  16.298  1.00  0.00     0.000 C 
BRANCH   7   8
ATOM      8  C   UNL     1       4.055 -21.417  16.614  1.00  0.00     0.000 C 
BRANCH   8   9
ATOM      9  C   UNL     1       4.779 -22.741  16.326  1.00  0.00     0.000 C 
BRANCH   9  10
ATOM     10  C   UNL     1       6.306 -22.634  16.490  1.00  0.00     0.000 C 
BRANCH  10  11
ATOM     11  C   UNL     1       7.130 -23.084  15.267  1.00  0.00     0.000 C 
BRANCH  11  12
ATOM     12  C   UNL     1       6.671 -22.497  13.920  1.00  0.00     0.000 C 
BRANCH  12  13
ATOM     13  C   UNL     1       7.559 -21.334  13.446  1.00  0.00     0.006 C 
BRANCH  13  14
ATOM     14  C   UNL     1       7.505 -21.150  11.923  1.00  0.00     0.053 C 
BRANCH  14  15
ATOM     15  C   UNL     1       7.684 -19.716  11.527  1.00  0.00     0.041 C 
ATOM     16  O   UNL     1       8.560 -19.006  12.088  1.00  0.00    -0.550 OA
ATOM     17  O   UNL     1       6.900 -19.169  10.517  1.00  0.00    -0.550 OA
ENDBRANCH  14  15
ENDBRANCH  13  14
ENDBRANCH  12  13
ENDBRANCH  11  12
ENDBRANCH  10  11
ENDBRANCH   9  10
ENDBRANCH   8   9
ENDBRANCH   7   8
ENDBRANCH   6   7
ENDBRANCH   5   6
ENDBRANCH   4   5
ENDBRANCH   3   4
ENDBRANCH   2   3
ENDBRANCH   1   2
BRANCH   1  18
ATOM     18  C   UNL     1      -4.815 -23.102  16.631  1.00  0.00     0.000 C 
BRANCH  18  19
ATOM     19  C   UNL     1      -5.430 -21.744  16.263  1.00  0.00     0.000 C 
BRANCH  19  20
ATOM     20  C   UNL     1      -6.863 -21.867  15.717  1.00  0.00     0.000 C 
BRANCH  20  21
ATOM     21  C   UNL     1      -7.456 -20.511  15.298  1.00  0.00     0.000 C 
BRANCH  21  22
ATOM     22  C   UNL     1      -8.486 -20.629  14.162  1.00  0.00     0.000 C 
BRANCH  22  23
ATOM     23  C   UNL     1      -9.923 -20.255  14.579  1.00  0.00     0.000 C 
BRANCH  23  24
ATOM     24  C   UNL     1     -10.563 -21.310  15.502  1.00  0.00    -0.000 C 
BRANCH  24  25
ATOM     25  C   UNL     1     -10.956 -20.738  16.873  1.00  0.00    -0.000 C 
BRANCH  25  26
ATOM     26  C   UNL     1     -10.837 -19.204  16.933  1.00  0.00    -0.000 C 
BRANCH  26  27
ATOM     27  C   UNL     1     -10.968 -18.658  18.363  1.00  0.00    -0.000 C 
BRANCH  27  28
ATOM     28  C   UNL     1     -11.012 -19.770  19.426  1.00  0.00    -0.000 C 
BRANCH  28  29
ATOM     29  C   UNL     1      -9.814 -19.704  20.396  1.00  0.00    -0.000 C 
BRANCH  29  30
ATOM     30  C   UNL     1      -9.899 -20.716  21.557  1.00  0.00    -0.000 C 
BRANCH  30  31
ATOM     31  C   UNL     1      -8.901 -21.882  21.472  1.00  0.00    -0.003 C 
ATOM     32  C   UNL     1      -8.714 -22.405  20.047  1.00  0.00     0.004 C 
ENDBRANCH  30  31
ENDBRANCH  29  30
ENDBRANCH  28  29
ENDBRANCH  27  28
ENDBRANCH  26  27
ENDBRANCH  25  26
ENDBRANCH  24  25
ENDBRANCH  23  24
ENDBRANCH  22  23
ENDBRANCH  21  22
ENDBRANCH  20  21
ENDBRANCH  19  20
ENDBRANCH  18  19
ENDBRANCH   1  18
TORSDOF 28
ENDMDL
MODEL 6
REMARK VINA RESULT:    -0.220      1.720      2.657
REMARK INTER + INTRA:          -1.555
REMARK INTER:                   0.151
REMARK INTRA:                  -1.707
REMARK UNBOUND:                -0.975
REMARK SMILES CCCCCCCCCCCCCCCCCCCCCCCCCCCCCC(=O)[O-]
REMARK SMILES IDX 16 1 17 2 18 3 19 4 20 5 21 6 22 7 23 8 24 9 25 10 26 11
REMARK SMILES IDX 27 12 28 13 29 14 30 15 31 16 32 17 15 18 14 19 13 20 12 21
REMARK SMILES IDX 11 22 10 23 9 24 8 25 7 26 6 27 5 28 4 29 3 30 2 31 1 32
REMARK H PARENT
REMARK Flexibility Score: inf
ROOT
ATOM      1  C   UNL     1       0.083 -23.012  16.061  1.00  0.00     0.000 C 
ENDROOT
BRANCH   1   2
ATOM      2  C   UNL     1      -1.189 -23.056  16.922  1.00  0.00     0.000 C 
BRANCH   2   3
ATOM      3  C   UNL     1      -2.276 -22.034  16.537  1.00  0.00     0.000 C 
BRANCH   3   4
ATOM      4  C   UNL     1      -3.369 -22.593  15.604  1.00  0.00     0.000 C 
BRANCH   4   5
ATOM      5  C   UNL     1      -4.615 -23.121  16.349  1.00  0.00     0.000 C 
BRANCH   5   6
ATOM      6  C   UNL     1      -5.389 -22.023  17.109  1.00  0.00     0.000 C 
BRANCH   6   7
ATOM      7  C   UNL     1      -6.383 -21.223  16.245  1.00  0.00     0.000 C 
BRANCH   7   8
ATOM      8  C   UNL     1      -7.694 -21.978  15.968  1.00  0.00     0.000 C 
BRANCH   8   9
ATOM      9  C   UNL     1      -8.209 -22.681  17.234  1.00  0.00     0.000 C 
BRANCH   9  10
ATOM     10  C   UNL     1      -8.850 -21.706  18.238  1.00  0.00     0.000 C 
BRANCH  10  11
ATOM     11  C   UNL     1      -9.472 -22.366  19.486  1.00  0.00     0.000 C 
BRANCH  11  12
ATOM     12  C   UNL     1      -8.478 -23.118  20.389  1.00  0.00     0.000 C 
BRANCH  12  13
ATOM     13  C   UNL     1      -7.956 -22.253  21.548  1.00  0.00     0.006 C 
BRANCH  13  14
ATOM     14  C   UNL     1      -9.005 -22.078  22.656  1.00  0.00     0.053 C 
BRANCH  14  15
ATOM     15  C   UNL     1      -9.378 -20.640  22.849  1.00  0.00     0.041 C 
ATOM     16  O   UNL     1      -8.484 -19.757  22.944  1.00  0.00    -0.550 OA
ATOM     17  O   UNL     1     -10.717 -20.269  22.897  1.00  0.00    -0.550 OA
ENDBRANCH  14  15
ENDBRANCH  13  14
ENDBRANCH  12  13
ENDBRANCH  11  12
ENDBRANCH  10  11
ENDBRANCH   9  10
ENDBRANCH   8   9
ENDBRANCH   7   8
ENDBRANCH   6   7
ENDBRANCH   5   6
ENDBRANCH   4   5
ENDBRANCH   3   4
ENDBRANCH   2   3
ENDBRANCH   1   2
BRANCH   1  18
ATOM     18  C   UNL     1       0.601 -21.583  15.832  1.00  0.00     0.000 C 
BRANCH  18  19
ATOM     19  C   UNL     1       1.653 -21.205  16.885  1.00  0.00     0.000 C 
BRANCH  19  20
ATOM     20  C   UNL     1       2.735 -22.284  17.062  1.00  0.00     0.000 C 
BRANCH  20  21
ATOM     21  C   UNL     1       3.973 -22.031  16.185  1.00  0.00     0.000 C 
BRANCH  21  22
ATOM     22  C   UNL     1       5.282 -22.501  16.841  1.00  0.00     0.000 C 
BRANCH  22  23
ATOM     23  C   UNL     1       6.233 -21.352  17.232  1.00  0.00     0.000 C 
BRANCH  23  24
ATOM     24  C   UNL     1       7.716 -21.771  17.183  1.00  0.00    -0.000 C 
BRANCH  24  25
ATOM     25  C   UNL     1       7.959 -22.980  16.266  1.00  0.00    -0.000 C 
BRANCH  25  26
ATOM     26  C   UNL     1       9.096 -22.740  15.255  1.00  0.00    -0.000 C 
BRANCH  26  27
ATOM     27  C   UNL     1       8.584 -22.606  13.812  1.00  0.00    -0.000 C 
BRANCH  27  28
ATOM     28  C   UNL     1       8.514 -21.143  13.338  1.00  0.00    -0.000 C 
BRANCH  28  29
ATOM     29  C   UNL     1       7.508 -20.947  12.183  1.00  0.00    -0.000 C 
BRANCH  29  30
ATOM     30  C   UNL     1       7.905 -19.831  11.198  1.00  0.00    -0.000 C 
BRANCH  30  31
ATOM     31  C   UNL     1       6.728 -19.172  10.459  1.00  0.00    -0.003 C 
ATOM     32  C   UNL     1       6.919 -19.141   8.941  1.00  0.00     0.004 C 
ENDBRANCH  30  31
ENDBRANCH  29  30
ENDBRANCH  28  29
ENDBRANCH  27  28
ENDBRANCH  26  27
ENDBRANCH  25  26
ENDBRANCH  24  25
ENDBRANCH  23  24
ENDBRANCH  22  23
ENDBRANCH  21  22
ENDBRANCH  20  21
ENDBRANCH  19  20
ENDBRANCH  18  19
ENDBRANCH   1  18
TORSDOF 28
ENDMDL
MODEL 7
REMARK VINA RESULT:    -0.067      4.442     14.907
REMARK INTER + INTRA:          -1.151
REMARK INTER:                   0.268
REMARK INTRA:                  -1.418
REMARK UNBOUND:                -0.975
REMARK SMILES CCCCCCCCCCCCCCCCCCCCCCCCCCCCCC(=O)[O-]
REMARK SMILES IDX 16 1 17 2 18 3 19 4 20 5 21 6 22 7 23 8 24 9 25 10 26 11
REMARK SMILES IDX 27 12 28 13 29 14 30 15 31 16 32 17 15 18 14 19 13 20 12 21
REMARK SMILES IDX 11 22 10 23 9 24 8 25 7 26 6 27 5 28 4 29 3 30 2 31 1 32
REMARK H PARENT
REMARK Flexibility Score: inf
ROOT
ATOM      1  C   UNL     1      -0.043 -22.752  15.732  1.00  0.00     0.000 C 
ENDROOT
BRANCH   1   2
ATOM      2  C   UNL     1       1.461 -22.791  16.044  1.00  0.00     0.000 C 
BRANCH   2   3
ATOM      3  C   UNL     1       2.363 -22.091  15.008  1.00  0.00     0.000 C 
BRANCH   3   4
ATOM      4  C   UNL     1       3.060 -23.051  14.024  1.00  0.00     0.000 C 
BRANCH   4   5
ATOM      5  C   UNL     1       4.592 -23.125  14.204  1.00  0.00     0.000 C 
BRANCH   5   6
ATOM      6  C   UNL     1       5.373 -22.262  13.190  1.00  0.00     0.000 C 
BRANCH   6   7
ATOM      7  C   UNL     1       5.844 -23.018  11.933  1.00  0.00     0.000 C 
BRANCH   7   8
ATOM      8  C   UNL     1       6.860 -22.227  11.091  1.00  0.00     0.000 C 
BRANCH   8   9
ATOM      9  C   UNL     1       7.669 -21.257  11.965  1.00  0.00     0.000 C 
BRANCH   9  10
ATOM     10  C   UNL     1       9.025 -21.838  12.404  1.00  0.00     0.000 C 
BRANCH  10  11
ATOM     11  C   UNL     1       8.941 -23.025  13.386  1.00  0.00     0.000 C 
BRANCH  11  12
ATOM     12  C   UNL     1       8.162 -22.744  14.683  1.00  0.00     0.000 C 
BRANCH  12  13
ATOM     13  C   UNL     1       8.958 -21.885  15.681  1.00  0.00     0.006 C 
BRANCH  13  14
ATOM     14  C   UNL     1       8.497 -22.105  17.128  1.00  0.00     0.053 C 
BRANCH  14  15
ATOM     15  C   UNL     1       7.036 -21.818  17.299  1.00  0.00     0.041 C 
ATOM     16  O   UNL     1       6.228 -22.752  17.544  1.00  0.00    -0.550 OA
ATOM     17  O   UNL     1       6.570 -20.511  17.217  1.00  0.00    -0.550 OA
ENDBRANCH  14  15
ENDBRANCH  13  14
ENDBRANCH  12  13
ENDBRANCH  11  12
ENDBRANCH  10  11
ENDBRANCH   9  10
ENDBRANCH   8   9
ENDBRANCH   7   8
ENDBRANCH   6   7
ENDBRANCH   5   6
ENDBRANCH   4   5
ENDBRANCH   3   4
ENDBRANCH   2   3
ENDBRANCH   1   2
BRANCH   1  18
ATOM     18  C   UNL     1      -0.915 -23.107  16.947  1.00  0.00     0.000 C 
BRANCH  18  19
ATOM     19  C   UNL     1      -2.355 -22.610  16.755  1.00  0.00     0.000 C 
BRANCH  19  20
ATOM     20  C   UNL     1      -2.555 -21.861  15.426  1.00  0.00     0.000 C 
BRANCH  20  21
ATOM     21  C   UNL     1      -4.002 -21.376  15.232  1.00  0.00     0.000 C 
BRANCH  21  22
ATOM     22  C   UNL     1      -5.048 -22.392  15.720  1.00  0.00     0.000 C 
BRANCH  22  23
ATOM     23  C   UNL     1      -6.035 -21.823  16.760  1.00  0.00     0.000 C 
BRANCH  23  24
ATOM     24  C   UNL     1      -6.603 -22.912  17.692  1.00  0.00    -0.000 C 
BRANCH  24  25
ATOM     25  C   UNL     1      -8.114 -23.122  17.505  1.00  0.00    -0.000 C 
BRANCH  25  26
ATOM     26  C   UNL     1      -8.945 -21.911  17.968  1.00  0.00    -0.000 C 
BRANCH  26  27
ATOM     27  C   UNL     1     -10.303 -22.319  18.558  1.00  0.00    -0.000 C 
BRANCH  27  28
ATOM     28  C   UNL     1     -10.352 -22.188  20.091  1.00  0.00    -0.000 C 
BRANCH  28  29
ATOM     29  C   UNL     1      -8.949 -22.250  20.731  1.00  0.00    -0.000 C 
BRANCH  29  30
ATOM     30  C   UNL     1      -8.959 -22.716  22.201  1.00  0.00    -0.000 C 
BRANCH  30  31
ATOM     31  C   UNL     1      -8.771 -21.594  23.236  1.00  0.00    -0.003 C 
ATOM     32  C   UNL     1      -9.738 -20.427  23.033  1.00  0.00     0.004 C 
ENDBRANCH  30  31
ENDBRANCH  29  30
ENDBRANCH  28  29
ENDBRANCH  27  28
ENDBRANCH  26  27
ENDBRANCH  25  26
ENDBRANCH  24  25
ENDBRANCH  23  24
ENDBRANCH  22  23
ENDBRANCH  21  22
ENDBRANCH  20  21
ENDBRANCH  19  20
ENDBRANCH  18  19
ENDBRANCH   1  18
TORSDOF 28
ENDMDL
MODEL 8
REMARK VINA RESULT:     0.800      5.041     15.219
REMARK INTER + INTRA:           1.135
REMARK INTER:                   1.773
REMARK INTRA:                  -0.638
REMARK UNBOUND:                -0.975
REMARK SMILES CCCCCCCCCCCCCCCCCCCCCCCCCCCCCC(=O)[O-]
REMARK SMILES IDX 16 1 17 2 18 3 19 4 20 5 21 6 22 7 23 8 24 9 25 10 26 11
REMARK SMILES IDX 27 12 28 13 29 14 30 15 31 16 32 17 15 18 14 19 13 20 12 21
REMARK SMILES IDX 11 22 10 23 9 24 8 25 7 26 6 27 5 28 4 29 3 30 2 31 1 32
REMARK H PARENT
REMARK Flexibility Score: inf
ROOT
ATOM      1  C   UNL     1      -0.249 -21.776  16.954  1.00  0.00     0.000 C 
ENDROOT
BRANCH   1   2
ATOM      2  C   UNL     1       1.183 -22.102  17.404  1.00  0.00     0.000 C 
BRANCH   2   3
ATOM      3  C   UNL     1       2.244 -22.075  16.286  1.00  0.00     0.000 C 
BRANCH   3   4
ATOM      4  C   UNL     1       3.417 -23.051  16.502  1.00  0.00     0.000 C 
BRANCH   4   5
ATOM      5  C   UNL     1       4.460 -23.035  15.364  1.00  0.00     0.000 C 
BRANCH   5   6
ATOM      6  C   UNL     1       5.919 -23.029  15.867  1.00  0.00     0.000 C 
BRANCH   6   7
ATOM      7  C   UNL     1       6.982 -22.936  14.755  1.00  0.00     0.000 C 
BRANCH   7   8
ATOM      8  C   UNL     1       8.090 -21.912  15.053  1.00  0.00     0.000 C 
BRANCH   8   9
ATOM      9  C   UNL     1       7.816 -20.577  14.345  1.00  0.00     0.000 C 
BRANCH   9  10
ATOM     10  C   UNL     1       8.972 -20.140  13.427  1.00  0.00     0.000 C 
BRANCH  10  11
ATOM     11  C   UNL     1       8.962 -20.766  12.017  1.00  0.00     0.000 C 
BRANCH  11  12
ATOM     12  C   UNL     1       8.024 -21.974  11.848  1.00  0.00     0.000 C 
BRANCH  12  13
ATOM     13  C   UNL     1       7.049 -21.809  10.670  1.00  0.00     0.006 C 
BRANCH  13  14
ATOM     14  C   UNL     1       7.522 -20.741   9.674  1.00  0.00     0.053 C 
BRANCH  14  15
ATOM     15  C   UNL     1       6.844 -19.424   9.905  1.00  0.00     0.041 C 
ATOM     16  O   UNL     1       6.812 -18.918  11.057  1.00  0.00    -0.550 OA
ATOM     17  O   UNL     1       6.270 -18.741   8.838  1.00  0.00    -0.550 OA
ENDBRANCH  14  15
ENDBRANCH  13  14
ENDBRANCH  12  13
ENDBRANCH  11  12
ENDBRANCH  10  11
ENDBRANCH   9  10
ENDBRANCH   8   9
ENDBRANCH   7   8
ENDBRANCH   6   7
ENDBRANCH   5   6
ENDBRANCH   4   5
ENDBRANCH   3   4
ENDBRANCH   2   3
ENDBRANCH   1   2
BRANCH   1  18
ATOM     18  C   UNL     1      -0.528 -22.193  15.501  1.00  0.00     0.000 C 
BRANCH  18  19
ATOM     19  C   UNL     1      -1.980 -22.665  15.333  1.00  0.00     0.000 C 
BRANCH  19  20
ATOM     20  C   UNL     1      -2.614 -23.125  16.657  1.00  0.00     0.000 C 
BRANCH  20  21
ATOM     21  C   UNL     1      -4.146 -22.988  16.659  1.00  0.00     0.000 C 
BRANCH  21  22
ATOM     22  C   UNL     1      -4.650 -21.852  15.752  1.00  0.00     0.000 C 
BRANCH  22  23
ATOM     23  C   UNL     1      -6.091 -21.398  16.061  1.00  0.00     0.000 C 
BRANCH  23  24
ATOM     24  C   UNL     1      -7.057 -22.585  16.246  1.00  0.00    -0.000 C 
BRANCH  24  25
ATOM     25  C   UNL     1      -7.902 -22.468  17.524  1.00  0.00    -0.000 C 
BRANCH  25  26
ATOM     26  C   UNL     1      -9.291 -23.116  17.381  1.00  0.00    -0.000 C 
BRANCH  26  27
ATOM     27  C   UNL     1     -10.337 -22.480  18.310  1.00  0.00    -0.000 C 
BRANCH  27  28
ATOM     28  C   UNL     1      -9.943 -22.560  19.796  1.00  0.00    -0.000 C 
BRANCH  28  29
ATOM     29  C   UNL     1      -9.769 -21.166  20.434  1.00  0.00    -0.000 C 
BRANCH  29  30
ATOM     30  C   UNL     1      -8.942 -21.178  21.735  1.00  0.00    -0.000 C 
BRANCH  30  31
ATOM     31  C   UNL     1      -9.463 -22.132  22.823  1.00  0.00    -0.003 C 
ATOM     32  C   UNL     1      -8.425 -22.424  23.908  1.00  0.00     0.004 C 
ENDBRANCH  30  31
ENDBRANCH  29  30
ENDBRANCH  28  29
ENDBRANCH  27  28
ENDBRANCH  26  27
ENDBRANCH  25  26
ENDBRANCH  24  25
ENDBRANCH  23  24
ENDBRANCH  22  23
ENDBRANCH  21  22
ENDBRANCH  20  21
ENDBRANCH  19  20
ENDBRANCH  18  19
ENDBRANCH   1  18
TORSDOF 28
ENDMDL
