MODEL 1
REMARK VINA RESULT:    -5.152      0.000      0.000
REMARK INTER + INTRA:         -14.022
REMARK INTER:                 -11.177
REMARK INTRA:                  -2.846
REMARK UNBOUND:                -2.846
REMARK SMILES CCCCCCCCCCCCCCCCCCCCCC(=O)[O-]
REMARK SMILES IDX 12 1 11 2 10 3 9 4 8 5 7 6 6 7 5 8 4 9 3 10 2 11 1 12 13 13
REMARK SMILES IDX 14 14 15 15 16 16 17 17 18 18 19 19 20 20 21 21 22 22 23 23
REMARK SMILES IDX 24 24
REMARK H PARENT
REMARK Flexibility Score: inf
ROOT
ATOM      1  C   UNL     1      -7.727   7.126  -6.912  1.00  0.00     0.000 C 
ENDROOT
BRANCH   1   2
ATOM      2  C   UNL     1      -8.880   6.554  -6.064  1.00  0.00     0.000 C 
BRANCH   2   3
ATOM      3  C   UNL     1     -10.160   6.245  -6.872  1.00  0.00     0.000 C 
BRANCH   3   4
ATOM      4  C   UNL     1     -10.994   5.115  -6.242  1.00  0.00    -0.000 C 
BRANCH   4   5
ATOM      5  C   UNL     1     -10.363   4.559  -4.955  1.00  0.00    -0.000 C 
BRANCH   5   6
ATOM      6  C   UNL     1     -10.480   3.031  -4.850  1.00  0.00    -0.000 C 
BRANCH   6   7
ATOM      7  C   UNL     1     -10.905   2.419  -6.190  1.00  0.00    -0.000 C 
BRANCH   7   8
ATOM      8  C   UNL     1     -10.006   1.229  -6.560  1.00  0.00    -0.000 C 
BRANCH   8   9
ATOM      9  C   UNL     1      -9.396   1.356  -7.965  1.00  0.00    -0.000 C 
BRANCH   9  10
ATOM     10  C   UNL     1     -10.250   2.222  -8.906  1.00  0.00    -0.000 C 
BRANCH  10  11
ATOM     11  C   UNL     1      -9.498   3.466  -9.406  1.00  0.00    -0.003 C 
ATOM     12  C   UNL     1     -10.437   4.556  -9.921  1.00  0.00     0.004 C 
ENDBRANCH  10  11
ENDBRANCH   9  10
ENDBRANCH   8   9
ENDBRANCH   7   8
ENDBRANCH   6   7
ENDBRANCH   5   6
ENDBRANCH   4   5
ENDBRANCH   3   4
ENDBRANCH   2   3
ENDBRANCH   1   2
BRANCH   1  13
ATOM     13  C   UNL     1      -7.582   6.508  -8.313  1.00  0.00     0.000 C 
BRANCH  13  14
ATOM     14  C   UNL     1      -7.803   7.529  -9.439  1.00  0.00     0.000 C 
BRANCH  14  15
ATOM     15  C   UNL     1      -6.628   7.523 -10.425  1.00  0.00     0.000 C 
BRANCH  15  16
ATOM     16  C   UNL     1      -6.611   8.758 -11.343  1.00  0.00     0.000 C 
BRANCH  16  17
ATOM     17  C   UNL     1      -6.816  10.092 -10.594  1.00  0.00     0.000 C 
BRANCH  17  18
ATOM     18  C   UNL     1      -5.555  10.534  -9.830  1.00  0.00     0.000 C 
BRANCH  18  19
ATOM     19  C   UNL     1      -5.866  10.930  -8.371  1.00  0.00     0.000 C 
BRANCH  19  20
ATOM     20  C   UNL     1      -5.517   9.836  -7.349  1.00  0.00     0.006 C 
BRANCH  20  21
ATOM     21  C   UNL     1      -4.017   9.529  -7.296  1.00  0.00     0.053 C 
BRANCH  21  22
ATOM     22  C   UNL     1      -3.769   8.080  -7.576  1.00  0.00     0.041 C 
ATOM     23  O   UNL     1      -3.676   7.670  -8.762  1.00  0.00    -0.550 OA
ATOM     24  O   UNL     1      -3.592   7.190  -6.524  1.00  0.00    -0.550 OA
ENDBRANCH  21  22
ENDBRANCH  20  21
ENDBRANCH  19  20
ENDBRANCH  18  19
ENDBRANCH  17  18
ENDBRANCH  16  17
ENDBRANCH  15  16
ENDBRANCH  14  15
ENDBRANCH  13  14
ENDBRANCH   1  13
TORSDOF 20
ENDMDL
MODEL 2
REMARK VINA RESULT:    -5.010      1.468      3.333
REMARK INTER + INTRA:         -13.714
REMARK INTER:                 -10.711
REMARK INTRA:                  -3.003
REMARK UNBOUND:                -2.846
REMARK SMILES CCCCCCCCCCCCCCCCCCCCCC(=O)[O-]
REMARK SMILES IDX 12 1 11 2 10 3 9 4 8 5 7 6 6 7 5 8 4 9 3 10 2 11 1 12 13 13
REMARK SMILES IDX 14 14 15 15 16 16 17 17 18 18 19 19 20 20 21 21 22 22 23 23
REMARK SMILES IDX 24 24
REMARK H PARENT
REMARK Flexibility Score: inf
ROOT
ATOM      1  C   UNL     1      -6.506   7.872 -10.945  1.00  0.00     0.000 C 
ENDROOT
BRANCH   1   2
ATOM      2  C   UNL     1      -7.391   7.366  -9.789  1.00  0.00     0.000 C 
BRANCH   2   3
ATOM      3  C   UNL     1      -6.703   6.321  -8.883  1.00  0.00     0.000 C 
BRANCH   3   4
ATOM      4  C   UNL     1      -6.784   6.694  -7.391  1.00  0.00    -0.000 C 
BRANCH   4   5
ATOM      5  C   UNL     1      -8.133   7.322  -7.009  1.00  0.00    -0.000 C 
BRANCH   5   6
ATOM      6  C   UNL     1      -8.995   6.392  -6.141  1.00  0.00    -0.000 C 
BRANCH   6   7
ATOM      7  C   UNL     1     -10.422   6.291  -6.694  1.00  0.00    -0.000 C 
BRANCH   7   8
ATOM      8  C   UNL     1     -10.649   4.937  -7.386  1.00  0.00    -0.000 C 
BRANCH   8   9
ATOM      9  C   UNL     1     -10.377   4.987  -8.897  1.00  0.00    -0.000 C 
BRANCH   9  10
ATOM     10  C   UNL     1      -9.345   3.941  -9.349  1.00  0.00    -0.000 C 
BRANCH  10  11
ATOM     11  C   UNL     1      -9.920   2.514  -9.358  1.00  0.00    -0.003 C 
ATOM     12  C   UNL     1      -9.193   1.579  -8.392  1.00  0.00     0.004 C 
ENDBRANCH  10  11
ENDBRANCH   9  10
ENDBRANCH   8   9
ENDBRANCH   7   8
ENDBRANCH   6   7
ENDBRANCH   5   6
ENDBRANCH   4   5
ENDBRANCH   3   4
ENDBRANCH   2   3
ENDBRANCH   1   2
BRANCH   1  13
ATOM     13  C   UNL     1      -6.806   9.305 -11.414  1.00  0.00     0.000 C 
BRANCH  13  14
ATOM     14  C   UNL     1      -8.191   9.798 -10.972  1.00  0.00     0.000 C 
BRANCH  14  15
ATOM     15  C   UNL     1      -8.070  10.920  -9.931  1.00  0.00     0.000 C 
BRANCH  15  16
ATOM     16  C   UNL     1      -6.622  11.152  -9.468  1.00  0.00     0.000 C 
BRANCH  16  17
ATOM     17  C   UNL     1      -6.378  10.794  -7.986  1.00  0.00     0.000 C 
BRANCH  17  18
ATOM     18  C   UNL     1      -4.902  10.463  -7.699  1.00  0.00     0.000 C 
BRANCH  18  19
ATOM     19  C   UNL     1      -4.373   9.329  -8.603  1.00  0.00     0.000 C 
BRANCH  19  20
ATOM     20  C   UNL     1      -3.718   8.177  -7.826  1.00  0.00     0.006 C 
BRANCH  20  21
ATOM     21  C   UNL     1      -2.628   8.655  -6.861  1.00  0.00     0.053 C 
BRANCH  21  22
ATOM     22  C   UNL     1      -2.040   7.496  -6.119  1.00  0.00     0.041 C 
ATOM     23  O   UNL     1      -2.522   6.342  -6.260  1.00  0.00    -0.550 OA
ATOM     24  O   UNL     1      -0.928   7.683  -5.308  1.00  0.00    -0.550 OA
ENDBRANCH  21  22
ENDBRANCH  20  21
ENDBRANCH  19  20
ENDBRANCH  18  19
ENDBRANCH  17  18
ENDBRANCH  16  17
ENDBRANCH  15  16
ENDBRANCH  14  15
ENDBRANCH  13  14
ENDBRANCH   1  13
TORSDOF 20
ENDMDL
MODEL 3
REMARK VINA RESULT:    -4.937      2.335      3.950
REMARK INTER + INTRA:         -13.554
REMARK INTER:                 -11.033
REMARK INTRA:                  -2.521
REMARK UNBOUND:                -2.846
REMARK SMILES CCCCCCCCCCCCCCCCCCCCCC(=O)[O-]
REMARK SMILES IDX 12 1 11 2 10 3 9 4 8 5 7 6 6 7 5 8 4 9 3 10 2 11 1 12 13 13
REMARK SMILES IDX 14 14 15 15 16 16 17 17 18 18 19 19 20 20 21 21 22 22 23 23
REMARK SMILES IDX 24 24
REMARK H PARENT
REMARK Flexibility Score: inf
ROOT
ATOM      1  C   UNL     1      -7.024   5.785  -8.939  1.00  0.00     0.000 C 
ENDROOT
BRANCH   1   2
ATOM      2  C   UNL     1      -7.911   6.758  -8.139  1.00  0.00     0.000 C 
BRANCH   2   3
ATOM      3  C   UNL     1      -9.372   6.286  -7.976  1.00  0.00     0.000 C 
BRANCH   3   4
ATOM      4  C   UNL     1     -10.066   6.045  -9.329  1.00  0.00    -0.000 C 
BRANCH   4   5
ATOM      5  C   UNL     1     -10.925   4.771  -9.337  1.00  0.00    -0.000 C 
BRANCH   5   6
ATOM      6  C   UNL     1     -10.166   3.547  -9.873  1.00  0.00    -0.000 C 
BRANCH   6   7
ATOM      7  C   UNL     1      -9.656   2.670  -8.722  1.00  0.00    -0.000 C 
BRANCH   7   8
ATOM      8  C   UNL     1     -10.654   2.663  -7.554  1.00  0.00    -0.000 C 
BRANCH   8   9
ATOM      9  C   UNL     1     -10.458   1.466  -6.610  1.00  0.00    -0.000 C 
BRANCH   9  10
ATOM     10  C   UNL     1      -9.470   0.428  -7.167  1.00  0.00    -0.000 C 
BRANCH  10  11
ATOM     11  C   UNL     1     -10.178  -0.819  -7.723  1.00  0.00    -0.003 C 
ATOM     12  C   UNL     1      -9.981  -0.986  -9.229  1.00  0.00     0.004 C 
ENDBRANCH  10  11
ENDBRANCH   9  10
ENDBRANCH   8   9
ENDBRANCH   7   8
ENDBRANCH   6   7
ENDBRANCH   5   6
ENDBRANCH   4   5
ENDBRANCH   3   4
ENDBRANCH   2   3
ENDBRANCH   1   2
BRANCH   1  13
ATOM     13  C   UNL     1      -5.522   6.116  -8.929  1.00  0.00     0.000 C 
BRANCH  13  14
ATOM     14  C   UNL     1      -5.029   6.598  -7.557  1.00  0.00     0.000 C 
BRANCH  14  15
ATOM     15  C   UNL     1      -3.821   7.534  -7.705  1.00  0.00     0.000 C 
BRANCH  15  16
ATOM     16  C   UNL     1      -4.103   8.959  -7.198  1.00  0.00     0.000 C 
BRANCH  16  17
ATOM     17  C   UNL     1      -5.373   9.594  -7.804  1.00  0.00     0.000 C 
BRANCH  17  18
ATOM     18  C   UNL     1      -5.049  10.796  -8.711  1.00  0.00     0.000 C 
BRANCH  18  19
ATOM     19  C   UNL     1      -5.062  10.416 -10.208  1.00  0.00     0.000 C 
BRANCH  19  20
ATOM     20  C   UNL     1      -5.935   9.192 -10.524  1.00  0.00     0.006 C 
BRANCH  20  21
ATOM     21  C   UNL     1      -7.100   9.519 -11.464  1.00  0.00     0.053 C 
BRANCH  21  22
ATOM     22  C   UNL     1      -8.309   9.920 -10.679  1.00  0.00     0.041 C 
ATOM     23  O   UNL     1      -9.292   9.139 -10.583  1.00  0.00    -0.550 OA
ATOM     24  O   UNL     1      -8.332  11.139 -10.014  1.00  0.00    -0.550 OA
ENDBRANCH  21  22
ENDBRANCH  20  21
ENDBRANCH  19  20
ENDBRANCH  18  19
ENDBRANCH  17  18
ENDBRANCH  16  17
ENDBRANCH  15  16
ENDBRANCH  14  15
ENDBRANCH  13  14
ENDBRANCH   1  13
TORSDOF 20
ENDMDL
MODEL 4
REMARK VINA RESULT:    -4.859     12.830     16.292
REMARK INTER + INTRA:         -13.386
REMARK INTER:                 -10.407
REMARK INTRA:                  -2.979
REMARK UNBOUND:                -2.846
REMARK SMILES CCCCCCCCCCCCCCCCCCCCCC(=O)[O-]
REMARK SMILES IDX 12 1 11 2 10 3 9 4 8 5 7 6 6 7 5 8 4 9 3 10 2 11 1 12 13 13
REMARK SMILES IDX 14 14 15 15 16 16 17 17 18 18 19 19 20 20 21 21 22 22 23 23
REMARK SMILES IDX 24 24
REMARK H PARENT
REMARK Flexibility Score: inf
ROOT
ATOM      1  C   UNL     1       4.198  14.542 -16.233  1.00  0.00     0.000 C 
ENDROOT
BRANCH   1   2
ATOM      2  C   UNL     1       5.628  14.196 -16.692  1.00  0.00     0.000 C 
BRANCH   2   3
ATOM      3  C   UNL     1       5.780  12.761 -17.246  1.00  0.00     0.000 C 
BRANCH   3   4
ATOM      4  C   UNL     1       6.585  11.850 -16.301  1.00  0.00    -0.000 C 
BRANCH   4   5
ATOM      5  C   UNL     1       5.715  10.775 -15.631  1.00  0.00    -0.000 C 
BRANCH   5   6
ATOM      6  C   UNL     1       5.828  10.791 -14.099  1.00  0.00    -0.000 C 
BRANCH   6   7
ATOM      7  C   UNL     1       4.846  11.798 -13.487  1.00  0.00    -0.000 C 
BRANCH   7   8
ATOM      8  C   UNL     1       5.594  12.996 -12.881  1.00  0.00    -0.000 C 
BRANCH   8   9
ATOM      9  C   UNL     1       7.106  12.754 -12.759  1.00  0.00    -0.000 C 
BRANCH   9  10
ATOM     10  C   UNL     1       7.587  12.735 -11.298  1.00  0.00    -0.000 C 
BRANCH  10  11
ATOM     11  C   UNL     1       8.604  11.613 -11.029  1.00  0.00    -0.003 C 
ATOM     12  C   UNL     1       8.033  10.222 -11.300  1.00  0.00     0.004 C 
ENDBRANCH  10  11
ENDBRANCH   9  10
ENDBRANCH   8   9
ENDBRANCH   7   8
ENDBRANCH   6   7
ENDBRANCH   5   6
ENDBRANCH   4   5
ENDBRANCH   3   4
ENDBRANCH   2   3
ENDBRANCH   1   2
BRANCH   1  13
ATOM     13  C   UNL     1       3.130  14.485 -17.338  1.00  0.00     0.000 C 
BRANCH  13  14
ATOM     14  C   UNL     1       2.465  15.846 -17.592  1.00  0.00     0.000 C 
BRANCH  14  15
ATOM     15  C   UNL     1       0.967  15.681 -17.881  1.00  0.00     0.000 C 
BRANCH  15  16
ATOM     16  C   UNL     1       0.493  14.222 -17.766  1.00  0.00     0.000 C 
BRANCH  16  17
ATOM     17  C   UNL     1      -0.532  13.988 -16.636  1.00  0.00     0.000 C 
BRANCH  17  18
ATOM     18  C   UNL     1       0.108  14.080 -15.238  1.00  0.00     0.000 C 
BRANCH  18  19
ATOM     19  C   UNL     1       0.266  12.693 -14.577  1.00  0.00     0.000 C 
BRANCH  19  20
ATOM     20  C   UNL     1       1.624  12.030 -14.856  1.00  0.00     0.006 C 
BRANCH  20  21
ATOM     21  C   UNL     1       1.574  10.503 -14.746  1.00  0.00     0.053 C 
BRANCH  21  22
ATOM     22  C   UNL     1       1.359   9.887 -16.092  1.00  0.00     0.041 C 
ATOM     23  O   UNL     1       1.068   8.666 -16.193  1.00  0.00    -0.550 OA
ATOM     24  O   UNL     1       1.434  10.673 -17.235  1.00  0.00    -0.550 OA
ENDBRANCH  21  22
ENDBRANCH  20  21
ENDBRANCH  19  20
ENDBRANCH  18  19
ENDBRANCH  17  18
ENDBRANCH  16  17
ENDBRANCH  15  16
ENDBRANCH  14  15
ENDBRANCH  13  14
ENDBRANCH   1  13
TORSDOF 20
ENDMDL
MODEL 5
REMARK VINA RESULT:    -4.859      1.153      2.318
REMARK INTER + INTRA:         -13.386
REMARK INTER:                 -10.832
REMARK INTRA:                  -2.554
REMARK UNBOUND:                -2.846
REMARK SMILES CCCCCCCCCCCCCCCCCCCCCC(=O)[O-]
REMARK SMILES IDX 12 1 11 2 10 3 9 4 8 5 7 6 6 7 5 8 4 9 3 10 2 11 1 12 13 13
REMARK SMILES IDX 14 14 15 15 16 16 17 17 18 18 19 19 20 20 21 21 22 22 23 23
REMARK SMILES IDX 24 24
REMARK H PARENT
REMARK Flexibility Score: inf
ROOT
ATOM      1  C   UNL     1      -7.507   6.807  -8.986  1.00  0.00     0.000 C 
ENDROOT
BRANCH   1   2
ATOM      2  C   UNL     1      -8.452   5.595  -9.107  1.00  0.00     0.000 C 
BRANCH   2   3
ATOM      3  C   UNL     1      -9.924   5.973  -9.385  1.00  0.00     0.000 C 
BRANCH   3   4
ATOM      4  C   UNL     1     -10.891   5.362  -8.355  1.00  0.00    -0.000 C 
BRANCH   4   5
ATOM      5  C   UNL     1     -10.885   6.114  -7.015  1.00  0.00    -0.000 C 
BRANCH   5   6
ATOM      6  C   UNL     1     -10.041   5.408  -5.943  1.00  0.00    -0.000 C 
BRANCH   6   7
ATOM      7  C   UNL     1     -10.936   4.742  -4.890  1.00  0.00    -0.000 C 
BRANCH   7   8
ATOM      8  C   UNL     1     -10.570   3.259  -4.718  1.00  0.00    -0.000 C 
BRANCH   8   9
ATOM      9  C   UNL     1     -10.948   2.406  -5.938  1.00  0.00    -0.000 C 
BRANCH   9  10
ATOM     10  C   UNL     1     -10.000   1.214  -6.145  1.00  0.00    -0.000 C 
BRANCH  10  11
ATOM     11  C   UNL     1      -9.851   0.832  -7.627  1.00  0.00    -0.003 C 
ATOM     12  C   UNL     1      -9.267   1.964  -8.472  1.00  0.00     0.004 C 
ENDBRANCH  10  11
ENDBRANCH   9  10
ENDBRANCH   8   9
ENDBRANCH   7   8
ENDBRANCH   6   7
ENDBRANCH   5   6
ENDBRANCH   4   5
ENDBRANCH   3   4
ENDBRANCH   2   3
ENDBRANCH   1   2
BRANCH   1  13
ATOM     13  C   UNL     1      -6.542   6.998 -10.168  1.00  0.00     0.000 C 
BRANCH  13  14
ATOM     14  C   UNL     1      -6.719   8.354 -10.867  1.00  0.00     0.000 C 
BRANCH  14  15
ATOM     15  C   UNL     1      -7.952   9.093 -10.329  1.00  0.00     0.000 C 
BRANCH  15  16
ATOM     16  C   UNL     1      -7.756  10.618 -10.269  1.00  0.00     0.000 C 
BRANCH  16  17
ATOM     17  C   UNL     1      -7.011  11.099  -9.005  1.00  0.00     0.000 C 
BRANCH  17  18
ATOM     18  C   UNL     1      -5.507  11.312  -9.257  1.00  0.00     0.000 C 
BRANCH  18  19
ATOM     19  C   UNL     1      -4.640  10.765  -8.102  1.00  0.00     0.000 C 
BRANCH  19  20
ATOM     20  C   UNL     1      -4.973   9.315  -7.716  1.00  0.00     0.006 C 
BRANCH  20  21
ATOM     21  C   UNL     1      -3.900   8.319  -8.168  1.00  0.00     0.053 C 
BRANCH  21  22
ATOM     22  C   UNL     1      -3.680   7.275  -7.119  1.00  0.00     0.041 C 
ATOM     23  O   UNL     1      -2.636   7.290  -6.417  1.00  0.00    -0.550 OA
ATOM     24  O   UNL     1      -4.652   6.311  -6.884  1.00  0.00    -0.550 OA
ENDBRANCH  21  22
ENDBRANCH  20  21
ENDBRANCH  19  20
ENDBRANCH  18  19
ENDBRANCH  17  18
ENDBRANCH  16  17
ENDBRANCH  15  16
ENDBRANCH  14  15
ENDBRANCH  13  14
ENDBRANCH   1  13
TORSDOF 20
ENDMDL
MODEL 6
REMARK VINA RESULT:    -4.818      2.645      7.983
REMARK INTER + INTRA:         -13.297
REMARK INTER:                 -10.506
REMARK INTRA:                  -2.791
REMARK UNBOUND:                -2.846
REMARK SMILES CCCCCCCCCCCCCCCCCCCCCC(=O)[O-]
REMARK SMILES IDX 12 1 11 2 10 3 9 4 8 5 7 6 6 7 5 8 4 9 3 10 2 11 1 12 13 13
REMARK SMILES IDX 14 14 15 15 16 16 17 17 18 18 19 19 20 20 21 21 22 22 23 23
REMARK SMILES IDX 24 24
REMARK H PARENT
REMARK Flexibility Score: inf
ROOT
ATOM      1  C   UNL     1      -6.933   6.733  -8.965  1.00  0.00     0.000 C 
ENDROOT
BRANCH   1   2
ATOM      2  C   UNL     1      -7.143   7.595 -10.225  1.00  0.00     0.000 C 
BRANCH   2   3
ATOM      3  C   UNL     1      -8.249   8.664 -10.076  1.00  0.00     0.000 C 
BRANCH   3   4
ATOM      4  C   UNL     1      -7.897   9.977 -10.798  1.00  0.00    -0.000 C 
BRANCH   4   5
ATOM      5  C   UNL     1      -8.107  11.215  -9.913  1.00  0.00    -0.000 C 
BRANCH   5   6
ATOM      6  C   UNL     1      -6.992  11.395  -8.870  1.00  0.00    -0.000 C 
BRANCH   6   7
ATOM      7  C   UNL     1      -5.629  11.574  -9.550  1.00  0.00    -0.000 C 
BRANCH   7   8
ATOM      8  C   UNL     1      -4.729  10.352  -9.306  1.00  0.00    -0.000 C 
BRANCH   8   9
ATOM      9  C   UNL     1      -5.003   9.670  -7.957  1.00  0.00    -0.000 C 
BRANCH   9  10
ATOM     10  C   UNL     1      -3.716   9.212  -7.252  1.00  0.00    -0.000 C 
BRANCH  10  11
ATOM     11  C   UNL     1      -3.686   7.694  -7.011  1.00  0.00    -0.003 C 
ATOM     12  C   UNL     1      -2.427   7.239  -6.272  1.00  0.00     0.004 C 
ENDBRANCH  10  11
ENDBRANCH   9  10
ENDBRANCH   8   9
ENDBRANCH   7   8
ENDBRANCH   6   7
ENDBRANCH   5   6
ENDBRANCH   4   5
ENDBRANCH   3   4
ENDBRANCH   2   3
ENDBRANCH   1   2
BRANCH   1  13
ATOM     13  C   UNL     1      -7.876   7.052  -7.794  1.00  0.00     0.000 C 
BRANCH  13  14
ATOM     14  C   UNL     1      -8.877   5.923  -7.511  1.00  0.00     0.000 C 
BRANCH  14  15
ATOM     15  C   UNL     1     -10.297   6.328  -7.930  1.00  0.00     0.000 C 
BRANCH  15  16
ATOM     16  C   UNL     1     -10.657   5.865  -9.351  1.00  0.00     0.000 C 
BRANCH  16  17
ATOM     17  C   UNL     1      -9.836   4.651  -9.836  1.00  0.00     0.000 C 
BRANCH  17  18
ATOM     18  C   UNL     1     -10.588   3.321  -9.643  1.00  0.00     0.000 C 
BRANCH  18  19
ATOM     19  C   UNL     1      -9.934   2.433  -8.562  1.00  0.00     0.000 C 
BRANCH  19  20
ATOM     20  C   UNL     1     -10.887   2.051  -7.419  1.00  0.00     0.006 C 
BRANCH  20  21
ATOM     21  C   UNL     1     -10.148   1.589  -6.159  1.00  0.00     0.053 C 
BRANCH  21  22
ATOM     22  C   UNL     1     -10.313   2.589  -5.058  1.00  0.00     0.041 C 
ATOM     23  O   UNL     1     -10.035   2.278  -3.870  1.00  0.00    -0.550 OA
ATOM     24  O   UNL     1     -10.729   3.881  -5.351  1.00  0.00    -0.550 OA
ENDBRANCH  21  22
ENDBRANCH  20  21
ENDBRANCH  19  20
ENDBRANCH  18  19
ENDBRANCH  17  18
ENDBRANCH  16  17
ENDBRANCH  15  16
ENDBRANCH  14  15
ENDBRANCH  13  14
ENDBRANCH   1  13
TORSDOF 20
ENDMDL
MODEL 7
REMARK VINA RESULT:    -4.780      1.952      3.531
REMARK INTER + INTRA:         -13.214
REMARK INTER:                 -10.117
REMARK INTRA:                  -3.097
REMARK UNBOUND:                -2.846
REMARK SMILES CCCCCCCCCCCCCCCCCCCCCC(=O)[O-]
REMARK SMILES IDX 12 1 11 2 10 3 9 4 8 5 7 6 6 7 5 8 4 9 3 10 2 11 1 12 13 13
REMARK SMILES IDX 14 14 15 15 16 16 17 17 18 18 19 19 20 20 21 21 22 22 23 23
REMARK SMILES IDX 24 24
REMARK H PARENT
REMARK Flexibility Score: inf
ROOT
ATOM      1  C   UNL     1      -7.514   6.837  -7.356  1.00  0.00     0.000 C 
ENDROOT
BRANCH   1   2
ATOM      2  C   UNL     1      -8.956   6.973  -6.829  1.00  0.00     0.000 C 
BRANCH   2   3
ATOM      3  C   UNL     1      -9.562   5.650  -6.309  1.00  0.00     0.000 C 
BRANCH   3   4
ATOM      4  C   UNL     1     -10.871   5.282  -7.029  1.00  0.00    -0.000 C 
BRANCH   4   5
ATOM      5  C   UNL     1     -11.096   6.103  -8.309  1.00  0.00    -0.000 C 
BRANCH   5   6
ATOM      6  C   UNL     1     -10.714   5.333  -9.582  1.00  0.00    -0.000 C 
BRANCH   6   7
ATOM      7  C   UNL     1     -10.625   3.827  -9.308  1.00  0.00    -0.000 C 
BRANCH   7   8
ATOM      8  C   UNL     1      -9.180   3.327  -9.453  1.00  0.00    -0.000 C 
BRANCH   8   9
ATOM      9  C   UNL     1      -8.853   2.164  -8.503  1.00  0.00    -0.000 C 
BRANCH   9  10
ATOM     10  C   UNL     1      -9.802   0.967  -8.683  1.00  0.00    -0.000 C 
BRANCH  10  11
ATOM     11  C   UNL     1     -10.158   0.294  -7.347  1.00  0.00    -0.003 C 
ATOM     12  C   UNL     1     -10.084   1.257  -6.163  1.00  0.00     0.004 C 
ENDBRANCH  10  11
ENDBRANCH   9  10
ENDBRANCH   8   9
ENDBRANCH   7   8
ENDBRANCH   6   7
ENDBRANCH   5   6
ENDBRANCH   4   5
ENDBRANCH   3   4
ENDBRANCH   2   3
ENDBRANCH   1   2
BRANCH   1  13
ATOM     13  C   UNL     1      -7.397   6.565  -8.865  1.00  0.00     0.000 C 
BRANCH  13  14
ATOM     14  C   UNL     1      -5.945   6.593  -9.363  1.00  0.00     0.000 C 
BRANCH  14  15
ATOM     15  C   UNL     1      -4.961   6.658  -8.187  1.00  0.00     0.000 C 
BRANCH  15  16
ATOM     16  C   UNL     1      -3.928   7.788  -8.334  1.00  0.00     0.000 C 
BRANCH  16  17
ATOM     17  C   UNL     1      -4.026   8.867  -7.234  1.00  0.00     0.000 C 
BRANCH  17  18
ATOM     18  C   UNL     1      -5.213   9.823  -7.456  1.00  0.00     0.000 C 
BRANCH  18  19
ATOM     19  C   UNL     1      -4.895  10.912  -8.503  1.00  0.00     0.000 C 
BRANCH  19  20
ATOM     20  C   UNL     1      -5.708  10.777  -9.799  1.00  0.00     0.006 C 
BRANCH  20  21
ATOM     21  C   UNL     1      -7.124  10.242  -9.560  1.00  0.00     0.053 C 
BRANCH  21  22
ATOM     22  C   UNL     1      -7.692   9.677 -10.824  1.00  0.00     0.041 C 
ATOM     23  O   UNL     1      -6.927   9.260 -11.733  1.00  0.00    -0.550 OA
ATOM     24  O   UNL     1      -9.067   9.568 -10.979  1.00  0.00    -0.550 OA
ENDBRANCH  21  22
ENDBRANCH  20  21
ENDBRANCH  19  20
ENDBRANCH  18  19
ENDBRANCH  17  18
ENDBRANCH  16  17
ENDBRANCH  15  16
ENDBRANCH  14  15
ENDBRANCH  13  14
ENDBRANCH   1  13
TORSDOF 20
ENDMDL
MODEL 8
REMARK VINA RESULT:    -4.778      2.567      7.752
REMARK INTER + INTRA:         -13.210
REMARK INTER:                 -10.699
REMARK INTRA:                  -2.511
REMARK UNBOUND:                -2.846
REMARK SMILES CCCCCCCCCCCCCCCCCCCCCC(=O)[O-]
REMARK SMILES IDX 12 1 11 2 10 3 9 4 8 5 7 6 6 7 5 8 4 9 3 10 2 11 1 12 13 13
REMARK SMILES IDX 14 14 15 15 16 16 17 17 18 18 19 19 20 20 21 21 22 22 23 23
REMARK SMILES IDX 24 24
REMARK H PARENT
REMARK Flexibility Score: inf
ROOT
ATOM      1  C   UNL     1      -6.999   5.651  -9.096  1.00  0.00     0.000 C 
ENDROOT
BRANCH   1   2
ATOM      2  C   UNL     1      -5.530   6.091  -8.943  1.00  0.00     0.000 C 
BRANCH   2   3
ATOM      3  C   UNL     1      -5.242   6.872  -7.642  1.00  0.00     0.000 C 
BRANCH   3   4
ATOM      4  C   UNL     1      -3.889   7.605  -7.686  1.00  0.00    -0.000 C 
BRANCH   4   5
ATOM      5  C   UNL     1      -3.980   8.979  -8.367  1.00  0.00    -0.000 C 
BRANCH   5   6
ATOM      6  C   UNL     1      -5.074   9.871  -7.760  1.00  0.00    -0.000 C 
BRANCH   6   7
ATOM      7  C   UNL     1      -5.559  10.913  -8.775  1.00  0.00    -0.000 C 
BRANCH   7   8
ATOM      8  C   UNL     1      -7.093  11.010  -8.773  1.00  0.00    -0.000 C 
BRANCH   8   9
ATOM      9  C   UNL     1      -7.700  10.885 -10.178  1.00  0.00    -0.000 C 
BRANCH   9  10
ATOM     10  C   UNL     1      -8.213   9.467 -10.479  1.00  0.00    -0.000 C 
BRANCH  10  11
ATOM     11  C   UNL     1      -7.177   8.615 -11.231  1.00  0.00    -0.003 C 
ATOM     12  C   UNL     1      -6.226   9.457 -12.081  1.00  0.00     0.004 C 
ENDBRANCH  10  11
ENDBRANCH   9  10
ENDBRANCH   8   9
ENDBRANCH   7   8
ENDBRANCH   6   7
ENDBRANCH   5   6
ENDBRANCH   4   5
ENDBRANCH   3   4
ENDBRANCH   2   3
ENDBRANCH   1   2
BRANCH   1  13
ATOM     13  C   UNL     1      -8.032   6.607  -8.476  1.00  0.00     0.000 C 
BRANCH  13  14
ATOM     14  C   UNL     1      -9.404   5.949  -8.272  1.00  0.00     0.000 C 
BRANCH  14  15
ATOM     15  C   UNL     1     -10.363   6.308  -9.415  1.00  0.00     0.000 C 
BRANCH  15  16
ATOM     16  C   UNL     1     -10.974   5.071 -10.095  1.00  0.00     0.000 C 
BRANCH  16  17
ATOM     17  C   UNL     1     -10.163   3.776  -9.874  1.00  0.00     0.000 C 
BRANCH  17  18
ATOM     18  C   UNL     1     -11.033   2.512  -9.999  1.00  0.00     0.000 C 
BRANCH  18  19
ATOM     19  C   UNL     1     -10.936   1.612  -8.749  1.00  0.00     0.000 C 
BRANCH  19  20
ATOM     20  C   UNL     1     -10.264   2.296  -7.549  1.00  0.00     0.006 C 
BRANCH  20  21
ATOM     21  C   UNL     1     -11.125   2.255  -6.282  1.00  0.00     0.053 C 
BRANCH  21  22
ATOM     22  C   UNL     1     -10.501   3.076  -5.197  1.00  0.00     0.041 C 
ATOM     23  O   UNL     1     -10.004   2.517  -4.185  1.00  0.00    -0.550 OA
ATOM     24  O   UNL     1     -10.425   4.457  -5.328  1.00  0.00    -0.550 OA
ENDBRANCH  21  22
ENDBRANCH  20  21
ENDBRANCH  19  20
ENDBRANCH  18  19
ENDBRANCH  17  18
ENDBRANCH  16  17
ENDBRANCH  15  16
ENDBRANCH  14  15
ENDBRANCH  13  14
ENDBRANCH   1  13
TORSDOF 20
ENDMDL
MODEL 9
REMARK VINA RESULT:    -4.754      2.986      7.937
REMARK INTER + INTRA:         -13.158
REMARK INTER:                 -10.824
REMARK INTRA:                  -2.334
REMARK UNBOUND:                -2.846
REMARK SMILES CCCCCCCCCCCCCCCCCCCCCC(=O)[O-]
REMARK SMILES IDX 12 1 11 2 10 3 9 4 8 5 7 6 6 7 5 8 4 9 3 10 2 11 1 12 13 13
REMARK SMILES IDX 14 14 15 15 16 16 17 17 18 18 19 19 20 20 21 21 22 22 23 23
REMARK SMILES IDX 24 24
REMARK H PARENT
REMARK Flexibility Score: inf
ROOT
ATOM      1  C   UNL     1      -7.620   7.162  -9.006  1.00  0.00     0.000 C 
ENDROOT
BRANCH   1   2
ATOM      2  C   UNL     1      -6.358   6.459  -9.544  1.00  0.00     0.000 C 
BRANCH   2   3
ATOM      3  C   UNL     1      -5.494   5.796  -8.448  1.00  0.00     0.000 C 
BRANCH   3   4
ATOM      4  C   UNL     1      -5.233   6.736  -7.257  1.00  0.00    -0.000 C 
BRANCH   4   5
ATOM      5  C   UNL     1      -3.778   7.226  -7.196  1.00  0.00    -0.000 C 
BRANCH   5   6
ATOM      6  C   UNL     1      -3.670   8.756  -7.103  1.00  0.00    -0.000 C 
BRANCH   6   7
ATOM      7  C   UNL     1      -4.775   9.434  -7.923  1.00  0.00    -0.000 C 
BRANCH   7   8
ATOM      8  C   UNL     1      -4.368   9.555  -9.400  1.00  0.00    -0.000 C 
BRANCH   8   9
ATOM      9  C   UNL     1      -5.270  10.515 -10.190  1.00  0.00    -0.000 C 
BRANCH   9  10
ATOM     10  C   UNL     1      -6.318   9.778 -11.040  1.00  0.00    -0.000 C 
BRANCH  10  11
ATOM     11  C   UNL     1      -7.754  10.227 -10.723  1.00  0.00    -0.003 C 
ATOM     12  C   UNL     1      -7.816  11.241  -9.581  1.00  0.00     0.004 C 
ENDBRANCH  10  11
ENDBRANCH   9  10
ENDBRANCH   8   9
ENDBRANCH   7   8
ENDBRANCH   6   7
ENDBRANCH   5   6
ENDBRANCH   4   5
ENDBRANCH   3   4
ENDBRANCH   2   3
ENDBRANCH   1   2
BRANCH   1  13
ATOM     13  C   UNL     1      -8.951   6.591  -9.522  1.00  0.00     0.000 C 
BRANCH  13  14
ATOM     14  C   UNL     1      -9.171   5.128  -9.110  1.00  0.00     0.000 C 
BRANCH  14  15
ATOM     15  C   UNL     1     -10.420   4.986  -8.230  1.00  0.00     0.000 C 
BRANCH  15  16
ATOM     16  C   UNL     1     -10.327   5.792  -6.923  1.00  0.00     0.000 C 
BRANCH  16  17
ATOM     17  C   UNL     1     -11.125   5.176  -5.754  1.00  0.00     0.000 C 
BRANCH  17  18
ATOM     18  C   UNL     1     -10.209   4.545  -4.689  1.00  0.00     0.000 C 
BRANCH  18  19
ATOM     19  C   UNL     1     -10.394   3.015  -4.595  1.00  0.00     0.000 C 
BRANCH  19  20
ATOM     20  C   UNL     1     -10.666   2.344  -5.951  1.00  0.00     0.006 C 
BRANCH  20  21
ATOM     21  C   UNL     1      -9.947   0.999  -6.103  1.00  0.00     0.053 C 
BRANCH  21  22
ATOM     22  C   UNL     1      -9.971   0.551  -7.531  1.00  0.00     0.041 C 
ATOM     23  O   UNL     1      -9.877  -0.671  -7.814  1.00  0.00    -0.550 OA
ATOM     24  O   UNL     1     -10.146   1.482  -8.548  1.00  0.00    -0.550 OA
ENDBRANCH  21  22
ENDBRANCH  20  21
ENDBRANCH  19  20
ENDBRANCH  18  19
ENDBRANCH  17  18
ENDBRANCH  16  17
ENDBRANCH  15  16
ENDBRANCH  14  15
ENDBRANCH  13  14
ENDBRANCH   1  13
TORSDOF 20
ENDMDL
