MODEL 1
REMARK VINA RESULT:    -4.234      0.000      0.000
REMARK INTER + INTRA:         -12.338
REMARK INTER:                  -9.185
REMARK INTRA:                  -3.153
REMARK UNBOUND:                -3.153
REMARK SMILES CCCCCCCCCCCCCCCCCCCCCC(=O)[O-]
REMARK SMILES IDX 12 1 11 2 10 3 9 4 8 5 7 6 6 7 5 8 4 9 3 10 2 11 1 12 13 13
REMARK SMILES IDX 14 14 15 15 16 16 17 17 18 18 19 19 20 20 21 21 22 22 23 23
REMARK SMILES IDX 24 24
REMARK H PARENT
REMARK Flexibility Score: inf
ROOT
ATOM      1  C   UNL     1       9.907  -8.378  33.317  1.00  0.00     0.000 C 
ENDROOT
BRANCH   1   2
ATOM      2  C   UNL     1      10.508  -8.592  34.721  1.00  0.00     0.000 C 
BRANCH   2   3
ATOM      3  C   UNL     1      10.074  -9.893  35.422  1.00  0.00     0.000 C 
BRANCH   3   4
ATOM      4  C   UNL     1       8.947  -9.722  36.458  1.00  0.00    -0.000 C 
BRANCH   4   5
ATOM      5  C   UNL     1       9.408  -9.934  37.916  1.00  0.00    -0.000 C 
BRANCH   5   6
ATOM      6  C   UNL     1      10.917 -10.214  38.017  1.00  0.00    -0.000 C 
BRANCH   6   7
ATOM      7  C   UNL     1      11.644  -9.223  38.941  1.00  0.00    -0.000 C 
BRANCH   7   8
ATOM      8  C   UNL     1      13.175  -9.283  38.788  1.00  0.00    -0.000 C 
BRANCH   8   9
ATOM      9  C   UNL     1      13.839  -7.907  38.949  1.00  0.00    -0.000 C 
BRANCH   9  10
ATOM     10  C   UNL     1      15.301  -7.897  38.471  1.00  0.00    -0.000 C 
BRANCH  10  11
ATOM     11  C   UNL     1      15.969  -9.276  38.588  1.00  0.00    -0.003 C 
ATOM     12  C   UNL     1      16.881  -9.594  37.404  1.00  0.00     0.004 C 
ENDBRANCH  10  11
ENDBRANCH   9  10
ENDBRANCH   8   9
ENDBRANCH   7   8
ENDBRANCH   6   7
ENDBRANCH   5   6
ENDBRANCH   4   5
ENDBRANCH   3   4
ENDBRANCH   2   3
ENDBRANCH   1   2
BRANCH   1  13
ATOM     13  C   UNL     1       8.589  -7.579  33.279  1.00  0.00     0.000 C 
BRANCH  13  14
ATOM     14  C   UNL     1       8.735  -6.063  33.502  1.00  0.00     0.000 C 
BRANCH  14  15
ATOM     15  C   UNL     1       7.843  -5.539  34.640  1.00  0.00     0.000 C 
BRANCH  15  16
ATOM     16  C   UNL     1       8.395  -4.253  35.278  1.00  0.00     0.000 C 
BRANCH  16  17
ATOM     17  C   UNL     1       8.655  -4.407  36.787  1.00  0.00     0.000 C 
BRANCH  17  18
ATOM     18  C   UNL     1       8.912  -5.866  37.195  1.00  0.00     0.000 C 
BRANCH  18  19
ATOM     19  C   UNL     1      10.246  -6.050  37.934  1.00  0.00     0.000 C 
BRANCH  19  20
ATOM     20  C   UNL     1      11.430  -5.969  36.957  1.00  0.00     0.006 C 
BRANCH  20  21
ATOM     21  C   UNL     1      12.268  -4.699  37.163  1.00  0.00     0.053 C 
BRANCH  21  22
ATOM     22  C   UNL     1      12.273  -3.832  35.942  1.00  0.00     0.041 C 
ATOM     23  O   UNL     1      11.890  -4.292  34.835  1.00  0.00    -0.550 OA
ATOM     24  O   UNL     1      12.736  -2.524  36.020  1.00  0.00    -0.550 OA
ENDBRANCH  21  22
ENDBRANCH  20  21
ENDBRANCH  19  20
ENDBRANCH  18  19
ENDBRANCH  17  18
ENDBRANCH  16  17
ENDBRANCH  15  16
ENDBRANCH  14  15
ENDBRANCH  13  14
ENDBRANCH   1  13
TORSDOF 20
ENDMDL
MODEL 2
REMARK VINA RESULT:    -4.205      1.340      2.040
REMARK INTER + INTRA:         -12.275
REMARK INTER:                  -9.713
REMARK INTRA:                  -2.562
REMARK UNBOUND:                -3.153
REMARK SMILES CCCCCCCCCCCCCCCCCCCCCC(=O)[O-]
REMARK SMILES IDX 12 1 11 2 10 3 9 4 8 5 7 6 6 7 5 8 4 9 3 10 2 11 1 12 13 13
REMARK SMILES IDX 14 14 15 15 16 16 17 17 18 18 19 19 20 20 21 21 22 22 23 23
REMARK SMILES IDX 24 24
REMARK H PARENT
REMARK Flexibility Score: inf
ROOT
ATOM      1  C   UNL     1      10.535  -8.596  34.052  1.00  0.00     0.000 C 
ENDROOT
BRANCH   1   2
ATOM      2  C   UNL     1      10.845  -7.660  35.237  1.00  0.00     0.000 C 
BRANCH   2   3
ATOM      3  C   UNL     1      10.443  -8.206  36.620  1.00  0.00     0.000 C 
BRANCH   3   4
ATOM      4  C   UNL     1      11.422  -7.864  37.758  1.00  0.00    -0.000 C 
BRANCH   4   5
ATOM      5  C   UNL     1      11.604  -9.005  38.782  1.00  0.00    -0.000 C 
BRANCH   5   6
ATOM      6  C   UNL     1      11.859 -10.363  38.106  1.00  0.00    -0.000 C 
BRANCH   6   7
ATOM      7  C   UNL     1      12.950 -11.183  38.813  1.00  0.00    -0.000 C 
BRANCH   7   8
ATOM      8  C   UNL     1      13.866 -11.929  37.826  1.00  0.00    -0.000 C 
BRANCH   8   9
ATOM      9  C   UNL     1      15.338 -11.922  38.264  1.00  0.00    -0.000 C 
BRANCH   9  10
ATOM     10  C   UNL     1      16.120 -10.729  37.687  1.00  0.00    -0.000 C 
BRANCH  10  11
ATOM     11  C   UNL     1      16.297  -9.592  38.705  1.00  0.00    -0.003 C 
ATOM     12  C   UNL     1      15.326  -8.435  38.473  1.00  0.00     0.004 C 
ENDBRANCH  10  11
ENDBRANCH   9  10
ENDBRANCH   8   9
ENDBRANCH   7   8
ENDBRANCH   6   7
ENDBRANCH   5   6
ENDBRANCH   4   5
ENDBRANCH   3   4
ENDBRANCH   2   3
ENDBRANCH   1   2
BRANCH   1  13
ATOM     13  C   UNL     1       9.363  -8.154  33.151  1.00  0.00     0.000 C 
BRANCH  13  14
ATOM     14  C   UNL     1       8.525  -6.984  33.696  1.00  0.00     0.000 C 
BRANCH  14  15
ATOM     15  C   UNL     1       8.817  -5.655  32.978  1.00  0.00     0.000 C 
BRANCH  15  16
ATOM     16  C   UNL     1       8.470  -4.430  33.839  1.00  0.00     0.000 C 
BRANCH  16  17
ATOM     17  C   UNL     1       7.773  -4.814  35.157  1.00  0.00     0.000 C 
BRANCH  17  18
ATOM     18  C   UNL     1       8.242  -3.956  36.344  1.00  0.00     0.000 C 
BRANCH  18  19
ATOM     19  C   UNL     1       9.339  -4.640  37.173  1.00  0.00     0.000 C 
BRANCH  19  20
ATOM     20  C   UNL     1      10.582  -3.743  37.285  1.00  0.00     0.006 C 
BRANCH  20  21
ATOM     21  C   UNL     1      11.871  -4.484  36.901  1.00  0.00     0.053 C 
BRANCH  21  22
ATOM     22  C   UNL     1      12.449  -3.966  35.621  1.00  0.00     0.041 C 
ATOM     23  O   UNL     1      11.862  -4.176  34.527  1.00  0.00    -0.550 OA
ATOM     24  O   UNL     1      13.659  -3.281  35.631  1.00  0.00    -0.550 OA
ENDBRANCH  21  22
ENDBRANCH  20  21
ENDBRANCH  19  20
ENDBRANCH  18  19
ENDBRANCH  17  18
ENDBRANCH  16  17
ENDBRANCH  15  16
ENDBRANCH  14  15
ENDBRANCH  13  14
ENDBRANCH   1  13
TORSDOF 20
ENDMDL
MODEL 3
REMARK VINA RESULT:    -4.154      2.114      5.910
REMARK INTER + INTRA:         -12.163
REMARK INTER:                  -8.495
REMARK INTRA:                  -3.668
REMARK UNBOUND:                -3.153
REMARK SMILES CCCCCCCCCCCCCCCCCCCCCC(=O)[O-]
REMARK SMILES IDX 12 1 11 2 10 3 9 4 8 5 7 6 6 7 5 8 4 9 3 10 2 11 1 12 13 13
REMARK SMILES IDX 14 14 15 15 16 16 17 17 18 18 19 19 20 20 21 21 22 22 23 23
REMARK SMILES IDX 24 24
REMARK H PARENT
REMARK Flexibility Score: inf
ROOT
ATOM      1  C   UNL     1       9.184  -8.242  33.434  1.00  0.00     0.000 C 
ENDROOT
BRANCH   1   2
ATOM      2  C   UNL     1       8.247  -7.018  33.480  1.00  0.00     0.000 C 
BRANCH   2   3
ATOM      3  C   UNL     1       8.897  -5.685  33.062  1.00  0.00     0.000 C 
BRANCH   3   4
ATOM      4  C   UNL     1       9.050  -4.658  34.199  1.00  0.00    -0.000 C 
BRANCH   4   5
ATOM      5  C   UNL     1       7.720  -4.312  34.904  1.00  0.00    -0.000 C 
BRANCH   5   6
ATOM      6  C   UNL     1       7.843  -4.355  36.437  1.00  0.00    -0.000 C 
BRANCH   6   7
ATOM      7  C   UNL     1       8.185  -5.758  36.965  1.00  0.00    -0.000 C 
BRANCH   7   8
ATOM      8  C   UNL     1       6.942  -6.530  37.443  1.00  0.00    -0.000 C 
BRANCH   8   9
ATOM      9  C   UNL     1       6.266  -7.322  36.314  1.00  0.00    -0.000 C 
BRANCH   9  10
ATOM     10  C   UNL     1       4.946  -6.681  35.850  1.00  0.00    -0.000 C 
BRANCH  10  11
ATOM     11  C   UNL     1       4.089  -7.640  35.009  1.00  0.00    -0.003 C 
ATOM     12  C   UNL     1       4.924  -8.680  34.264  1.00  0.00     0.004 C 
ENDBRANCH  10  11
ENDBRANCH   9  10
ENDBRANCH   8   9
ENDBRANCH   7   8
ENDBRANCH   6   7
ENDBRANCH   5   6
ENDBRANCH   4   5
ENDBRANCH   3   4
ENDBRANCH   2   3
ENDBRANCH   1   2
BRANCH   1  13
ATOM     13  C   UNL     1      10.630  -7.983  33.907  1.00  0.00     0.000 C 
BRANCH  13  14
ATOM     14  C   UNL     1      10.798  -7.793  35.425  1.00  0.00     0.000 C 
BRANCH  14  15
ATOM     15  C   UNL     1      10.012  -8.829  36.247  1.00  0.00     0.000 C 
BRANCH  15  16
ATOM     16  C   UNL     1      10.282  -8.711  37.756  1.00  0.00     0.000 C 
BRANCH  16  17
ATOM     17  C   UNL     1      11.594  -7.968  38.066  1.00  0.00     0.000 C 
BRANCH  17  18
ATOM     18  C   UNL     1      11.370  -6.702  38.909  1.00  0.00     0.000 C 
BRANCH  18  19
ATOM     19  C   UNL     1      12.264  -5.532  38.473  1.00  0.00     0.000 C 
BRANCH  19  20
ATOM     20  C   UNL     1      11.487  -4.552  37.580  1.00  0.00     0.006 C 
BRANCH  20  21
ATOM     21  C   UNL     1      12.101  -4.432  36.178  1.00  0.00     0.053 C 
BRANCH  21  22
ATOM     22  C   UNL     1      13.160  -3.374  36.123  1.00  0.00     0.041 C 
ATOM     23  O   UNL     1      12.840  -2.157  36.068  1.00  0.00    -0.550 OA
ATOM     24  O   UNL     1      14.502  -3.734  36.097  1.00  0.00    -0.550 OA
ENDBRANCH  21  22
ENDBRANCH  20  21
ENDBRANCH  19  20
ENDBRANCH  18  19
ENDBRANCH  17  18
ENDBRANCH  16  17
ENDBRANCH  15  16
ENDBRANCH  14  15
ENDBRANCH  13  14
ENDBRANCH   1  13
TORSDOF 20
ENDMDL
MODEL 4
REMARK VINA RESULT:    -4.097      3.755      6.302
REMARK INTER + INTRA:         -12.040
REMARK INTER:                  -8.137
REMARK INTRA:                  -3.903
REMARK UNBOUND:                -3.153
REMARK SMILES CCCCCCCCCCCCCCCCCCCCCC(=O)[O-]
REMARK SMILES IDX 12 1 11 2 10 3 9 4 8 5 7 6 6 7 5 8 4 9 3 10 2 11 1 12 13 13
REMARK SMILES IDX 14 14 15 15 16 16 17 17 18 18 19 19 20 20 21 21 22 22 23 23
REMARK SMILES IDX 24 24
REMARK H PARENT
REMARK Flexibility Score: inf
ROOT
ATOM      1  C   UNL     1      10.516  -8.517  33.986  1.00  0.00     0.000 C 
ENDROOT
BRANCH   1   2
ATOM      2  C   UNL     1       9.307  -8.199  33.083  1.00  0.00     0.000 C 
BRANCH   2   3
ATOM      3  C   UNL     1       8.428  -7.028  33.561  1.00  0.00     0.000 C 
BRANCH   3   4
ATOM      4  C   UNL     1       8.693  -5.690  32.846  1.00  0.00    -0.000 C 
BRANCH   4   5
ATOM      5  C   UNL     1       8.444  -4.452  33.735  1.00  0.00    -0.000 C 
BRANCH   5   6
ATOM      6  C   UNL     1       8.157  -4.831  35.198  1.00  0.00    -0.000 C 
BRANCH   6   7
ATOM      7  C   UNL     1       7.515  -3.683  35.993  1.00  0.00    -0.000 C 
BRANCH   7   8
ATOM      8  C   UNL     1       8.331  -3.297  37.240  1.00  0.00    -0.000 C 
BRANCH   8   9
ATOM      9  C   UNL     1       9.484  -4.272  37.518  1.00  0.00    -0.000 C 
BRANCH   9  10
ATOM     10  C   UNL     1      10.855  -3.575  37.541  1.00  0.00    -0.000 C 
BRANCH  10  11
ATOM     11  C   UNL     1      11.883  -4.267  36.632  1.00  0.00    -0.003 C 
ATOM     12  C   UNL     1      11.760  -3.840  35.169  1.00  0.00     0.004 C 
ENDBRANCH  10  11
ENDBRANCH   9  10
ENDBRANCH   8   9
ENDBRANCH   7   8
ENDBRANCH   6   7
ENDBRANCH   5   6
ENDBRANCH   4   5
ENDBRANCH   3   4
ENDBRANCH   2   3
ENDBRANCH   1   2
BRANCH   1  13
ATOM     13  C   UNL     1      10.870  -7.429  35.021  1.00  0.00     0.000 C 
BRANCH  13  14
ATOM     14  C   UNL     1      10.685  -7.840  36.492  1.00  0.00     0.000 C 
BRANCH  14  15
ATOM     15  C   UNL     1       9.952  -9.183  36.650  1.00  0.00     0.000 C 
BRANCH  15  16
ATOM     16  C   UNL     1       8.510  -9.012  37.157  1.00  0.00     0.000 C 
BRANCH  16  17
ATOM     17  C   UNL     1       8.345  -7.774  38.058  1.00  0.00     0.000 C 
BRANCH  17  18
ATOM     18  C   UNL     1       6.985  -7.083  37.866  1.00  0.00     0.000 C 
BRANCH  18  19
ATOM     19  C   UNL     1       6.286  -7.499  36.563  1.00  0.00     0.000 C 
BRANCH  19  20
ATOM     20  C   UNL     1       4.985  -6.707  36.361  1.00  0.00     0.006 C 
BRANCH  20  21
ATOM     21  C   UNL     1       4.254  -7.109  35.071  1.00  0.00     0.053 C 
BRANCH  21  22
ATOM     22  C   UNL     1       4.390  -8.573  34.789  1.00  0.00     0.041 C 
ATOM     23  O   UNL     1       3.837  -9.419  35.540  1.00  0.00    -0.550 OA
ATOM     24  O   UNL     1       5.159  -9.006  33.714  1.00  0.00    -0.550 OA
ENDBRANCH  21  22
ENDBRANCH  20  21
ENDBRANCH  19  20
ENDBRANCH  18  19
ENDBRANCH  17  18
ENDBRANCH  16  17
ENDBRANCH  15  16
ENDBRANCH  14  15
ENDBRANCH  13  14
ENDBRANCH   1  13
TORSDOF 20
ENDMDL
MODEL 5
REMARK VINA RESULT:    -4.094      1.668      6.136
REMARK INTER + INTRA:         -12.033
REMARK INTER:                  -8.322
REMARK INTRA:                  -3.711
REMARK UNBOUND:                -3.153
REMARK SMILES CCCCCCCCCCCCCCCCCCCCCC(=O)[O-]
REMARK SMILES IDX 12 1 11 2 10 3 9 4 8 5 7 6 6 7 5 8 4 9 3 10 2 11 1 12 13 13
REMARK SMILES IDX 14 14 15 15 16 16 17 17 18 18 19 19 20 20 21 21 22 22 23 23
REMARK SMILES IDX 24 24
REMARK H PARENT
REMARK Flexibility Score: inf
ROOT
ATOM      1  C   UNL     1      10.467  -9.172  34.810  1.00  0.00     0.000 C 
ENDROOT
BRANCH   1   2
ATOM      2  C   UNL     1      10.252  -8.392  33.497  1.00  0.00     0.000 C 
BRANCH   2   3
ATOM      3  C   UNL     1       8.799  -7.960  33.227  1.00  0.00     0.000 C 
BRANCH   3   4
ATOM      4  C   UNL     1       8.615  -6.459  32.937  1.00  0.00    -0.000 C 
BRANCH   4   5
ATOM      5  C   UNL     1       9.165  -5.541  34.050  1.00  0.00    -0.000 C 
BRANCH   5   6
ATOM      6  C   UNL     1       8.356  -4.240  34.187  1.00  0.00    -0.000 C 
BRANCH   6   7
ATOM      7  C   UNL     1       7.580  -4.161  35.512  1.00  0.00    -0.000 C 
BRANCH   7   8
ATOM      8  C   UNL     1       7.453  -5.529  36.207  1.00  0.00    -0.000 C 
BRANCH   8   9
ATOM      9  C   UNL     1       6.037  -6.116  36.101  1.00  0.00    -0.000 C 
BRANCH   9  10
ATOM     10  C   UNL     1       6.039  -7.586  35.647  1.00  0.00    -0.000 C 
BRANCH  10  11
ATOM     11  C   UNL     1       4.809  -7.942  34.797  1.00  0.00    -0.003 C 
ATOM     12  C   UNL     1       5.123  -8.959  33.700  1.00  0.00     0.004 C 
ENDBRANCH  10  11
ENDBRANCH   9  10
ENDBRANCH   8   9
ENDBRANCH   7   8
ENDBRANCH   6   7
ENDBRANCH   5   6
ENDBRANCH   4   5
ENDBRANCH   3   4
ENDBRANCH   2   3
ENDBRANCH   1   2
BRANCH   1  13
ATOM     13  C   UNL     1       9.540  -8.769  35.976  1.00  0.00     0.000 C 
BRANCH  13  14
ATOM     14  C   UNL     1       9.644  -9.653  37.231  1.00  0.00     0.000 C 
BRANCH  14  15
ATOM     15  C   UNL     1      11.067 -10.187  37.469  1.00  0.00     0.000 C 
BRANCH  15  16
ATOM     16  C   UNL     1      11.624  -9.788  38.846  1.00  0.00     0.000 C 
BRANCH  16  17
ATOM     17  C   UNL     1      12.863  -8.881  38.741  1.00  0.00     0.000 C 
BRANCH  17  18
ATOM     18  C   UNL     1      12.514  -7.458  38.278  1.00  0.00     0.000 C 
BRANCH  18  19
ATOM     19  C   UNL     1      11.332  -6.854  39.051  1.00  0.00     0.000 C 
BRANCH  19  20
ATOM     20  C   UNL     1      10.586  -5.819  38.194  1.00  0.00     0.006 C 
BRANCH  20  21
ATOM     21  C   UNL     1      11.298  -5.546  36.862  1.00  0.00     0.053 C 
BRANCH  21  22
ATOM     22  C   UNL     1      11.383  -4.080  36.568  1.00  0.00     0.041 C 
ATOM     23  O   UNL     1      10.781  -3.250  37.298  1.00  0.00    -0.550 OA
ATOM     24  O   UNL     1      12.098  -3.632  35.463  1.00  0.00    -0.550 OA
ENDBRANCH  21  22
ENDBRANCH  20  21
ENDBRANCH  19  20
ENDBRANCH  18  19
ENDBRANCH  17  18
ENDBRANCH  16  17
ENDBRANCH  15  16
ENDBRANCH  14  15
ENDBRANCH  13  14
ENDBRANCH   1  13
TORSDOF 20
ENDMDL
MODEL 6
REMARK VINA RESULT:    -4.092      2.642      4.942
REMARK INTER + INTRA:         -12.030
REMARK INTER:                  -8.336
REMARK INTRA:                  -3.694
REMARK UNBOUND:                -3.153
REMARK SMILES CCCCCCCCCCCCCCCCCCCCCC(=O)[O-]
REMARK SMILES IDX 12 1 11 2 10 3 9 4 8 5 7 6 6 7 5 8 4 9 3 10 2 11 1 12 13 13
REMARK SMILES IDX 14 14 15 15 16 16 17 17 18 18 19 19 20 20 21 21 22 22 23 23
REMARK SMILES IDX 24 24
REMARK H PARENT
REMARK Flexibility Score: inf
ROOT
ATOM      1  C   UNL     1       9.100  -6.429  33.198  1.00  0.00     0.000 C 
ENDROOT
BRANCH   1   2
ATOM      2  C   UNL     1       9.354  -7.943  33.344  1.00  0.00     0.000 C 
BRANCH   2   3
ATOM      3  C   UNL     1      10.292  -8.337  34.501  1.00  0.00     0.000 C 
BRANCH   3   4
ATOM      4  C   UNL     1      10.145  -9.791  34.984  1.00  0.00    -0.000 C 
BRANCH   4   5
ATOM      5  C   UNL     1      10.433  -9.976  36.490  1.00  0.00    -0.000 C 
BRANCH   5   6
ATOM      6  C   UNL     1       9.532  -9.093  37.370  1.00  0.00    -0.000 C 
BRANCH   6   7
ATOM      7  C   UNL     1       8.045  -9.470  37.261  1.00  0.00    -0.000 C 
BRANCH   7   8
ATOM      8  C   UNL     1       7.111  -8.331  37.709  1.00  0.00    -0.000 C 
BRANCH   8   9
ATOM      9  C   UNL     1       6.258  -7.778  36.557  1.00  0.00    -0.000 C 
BRANCH   9  10
ATOM     10  C   UNL     1       6.187  -8.741  35.359  1.00  0.00    -0.000 C 
BRANCH  10  11
ATOM     11  C   UNL     1       5.072  -8.370  34.369  1.00  0.00    -0.003 C 
ATOM     12  C   UNL     1       3.973  -7.521  35.008  1.00  0.00     0.004 C 
ENDBRANCH  10  11
ENDBRANCH   9  10
ENDBRANCH   8   9
ENDBRANCH   7   8
ENDBRANCH   6   7
ENDBRANCH   5   6
ENDBRANCH   4   5
ENDBRANCH   3   4
ENDBRANCH   2   3
ENDBRANCH   1   2
BRANCH   1  13
ATOM     13  C   UNL     1       8.212  -5.801  34.293  1.00  0.00     0.000 C 
BRANCH  13  14
ATOM     14  C   UNL     1       8.345  -4.276  34.448  1.00  0.00     0.000 C 
BRANCH  14  15
ATOM     15  C   UNL     1       7.505  -3.718  35.610  1.00  0.00     0.000 C 
BRANCH  15  16
ATOM     16  C   UNL     1       8.319  -3.562  36.905  1.00  0.00     0.000 C 
BRANCH  16  17
ATOM     17  C   UNL     1       8.257  -4.815  37.796  1.00  0.00     0.000 C 
BRANCH  17  18
ATOM     18  C   UNL     1       9.623  -5.506  37.938  1.00  0.00     0.000 C 
BRANCH  18  19
ATOM     19  C   UNL     1      10.792  -4.601  37.520  1.00  0.00     0.000 C 
BRANCH  19  20
ATOM     20  C   UNL     1      11.504  -5.163  36.279  1.00  0.00     0.006 C 
BRANCH  20  21
ATOM     21  C   UNL     1      11.989  -4.054  35.335  1.00  0.00     0.053 C 
BRANCH  21  22
ATOM     22  C   UNL     1      13.032  -3.194  35.978  1.00  0.00     0.041 C 
ATOM     23  O   UNL     1      12.835  -1.959  36.125  1.00  0.00    -0.550 OA
ATOM     24  O   UNL     1      14.240  -3.751  36.384  1.00  0.00    -0.550 OA
ENDBRANCH  21  22
ENDBRANCH  20  21
ENDBRANCH  19  20
ENDBRANCH  18  19
ENDBRANCH  17  18
ENDBRANCH  16  17
ENDBRANCH  15  16
ENDBRANCH  14  15
ENDBRANCH  13  14
ENDBRANCH   1  13
TORSDOF 20
ENDMDL
MODEL 7
REMARK VINA RESULT:    -4.061      3.735      5.997
REMARK INTER + INTRA:         -11.962
REMARK INTER:                  -7.934
REMARK INTRA:                  -4.028
REMARK UNBOUND:                -3.153
REMARK SMILES CCCCCCCCCCCCCCCCCCCCCC(=O)[O-]
REMARK SMILES IDX 12 1 11 2 10 3 9 4 8 5 7 6 6 7 5 8 4 9 3 10 2 11 1 12 13 13
REMARK SMILES IDX 14 14 15 15 16 16 17 17 18 18 19 19 20 20 21 21 22 22 23 23
REMARK SMILES IDX 24 24
REMARK H PARENT
REMARK Flexibility Score: inf
ROOT
ATOM      1  C   UNL     1       8.460  -6.957  33.814  1.00  0.00     0.000 C 
ENDROOT
BRANCH   1   2
ATOM      2  C   UNL     1       8.886  -5.645  33.124  1.00  0.00     0.000 C 
BRANCH   2   3
ATOM      3  C   UNL     1       8.501  -4.359  33.878  1.00  0.00     0.000 C 
BRANCH   3   4
ATOM      4  C   UNL     1       7.715  -4.588  35.182  1.00  0.00    -0.000 C 
BRANCH   4   5
ATOM      5  C   UNL     1       7.795  -3.404  36.170  1.00  0.00    -0.000 C 
BRANCH   5   6
ATOM      6  C   UNL     1       8.261  -3.840  37.570  1.00  0.00    -0.000 C 
BRANCH   6   7
ATOM      7  C   UNL     1       8.300  -5.369  37.731  1.00  0.00    -0.000 C 
BRANCH   7   8
ATOM      8  C   UNL     1       9.681  -5.883  38.177  1.00  0.00    -0.000 C 
BRANCH   8   9
ATOM      9  C   UNL     1      10.664  -6.028  37.006  1.00  0.00    -0.000 C 
BRANCH   9  10
ATOM     10  C   UNL     1      11.836  -5.035  37.092  1.00  0.00    -0.000 C 
BRANCH  10  11
ATOM     11  C   UNL     1      11.720  -3.895  36.068  1.00  0.00    -0.003 C 
ATOM     12  C   UNL     1      12.044  -4.344  34.644  1.00  0.00     0.004 C 
ENDBRANCH  10  11
ENDBRANCH   9  10
ENDBRANCH   8   9
ENDBRANCH   7   8
ENDBRANCH   6   7
ENDBRANCH   5   6
ENDBRANCH   4   5
ENDBRANCH   3   4
ENDBRANCH   2   3
ENDBRANCH   1   2
BRANCH   1  13
ATOM     13  C   UNL     1       9.041  -8.246  33.196  1.00  0.00     0.000 C 
BRANCH  13  14
ATOM     14  C   UNL     1      10.457  -8.618  33.668  1.00  0.00     0.000 C 
BRANCH  14  15
ATOM     15  C   UNL     1      10.501  -9.046  35.146  1.00  0.00     0.000 C 
BRANCH  15  16
ATOM     16  C   UNL     1      10.056 -10.503  35.351  1.00  0.00     0.000 C 
BRANCH  16  17
ATOM     17  C   UNL     1       9.068 -10.659  36.521  1.00  0.00     0.000 C 
BRANCH  17  18
ATOM     18  C   UNL     1       8.894  -9.360  37.324  1.00  0.00     0.000 C 
BRANCH  18  19
ATOM     19  C   UNL     1       7.420  -8.994  37.549  1.00  0.00     0.000 C 
BRANCH  19  20
ATOM     20  C   UNL     1       6.648  -8.982  36.220  1.00  0.00     0.006 C 
BRANCH  20  21
ATOM     21  C   UNL     1       5.766  -7.734  36.071  1.00  0.00     0.053 C 
BRANCH  21  22
ATOM     22  C   UNL     1       4.667  -7.946  35.076  1.00  0.00     0.041 C 
ATOM     23  O   UNL     1       4.908  -8.505  33.974  1.00  0.00    -0.550 OA
ATOM     24  O   UNL     1       3.382  -7.492  35.351  1.00  0.00    -0.550 OA
ENDBRANCH  21  22
ENDBRANCH  20  21
ENDBRANCH  19  20
ENDBRANCH  18  19
ENDBRANCH  17  18
ENDBRANCH  16  17
ENDBRANCH  15  16
ENDBRANCH  14  15
ENDBRANCH  13  14
ENDBRANCH   1  13
TORSDOF 20
ENDMDL
MODEL 8
REMARK VINA RESULT:    -4.058      2.123      5.776
REMARK INTER + INTRA:         -11.955
REMARK INTER:                  -8.311
REMARK INTRA:                  -3.643
REMARK UNBOUND:                -3.153
REMARK SMILES CCCCCCCCCCCCCCCCCCCCCC(=O)[O-]
REMARK SMILES IDX 12 1 11 2 10 3 9 4 8 5 7 6 6 7 5 8 4 9 3 10 2 11 1 12 13 13
REMARK SMILES IDX 14 14 15 15 16 16 17 17 18 18 19 19 20 20 21 21 22 22 23 23
REMARK SMILES IDX 24 24
REMARK H PARENT
REMARK Flexibility Score: inf
ROOT
ATOM      1  C   UNL     1       8.539  -7.079  33.625  1.00  0.00     0.000 C 
ENDROOT
BRANCH   1   2
ATOM      2  C   UNL     1       8.877  -5.613  33.284  1.00  0.00     0.000 C 
BRANCH   2   3
ATOM      3  C   UNL     1       9.541  -4.817  34.423  1.00  0.00     0.000 C 
BRANCH   3   4
ATOM      4  C   UNL     1      11.051  -5.068  34.591  1.00  0.00    -0.000 C 
BRANCH   4   5
ATOM      5  C   UNL     1      11.567  -4.805  36.023  1.00  0.00    -0.000 C 
BRANCH   5   6
ATOM      6  C   UNL     1      11.213  -5.946  36.991  1.00  0.00    -0.000 C 
BRANCH   6   7
ATOM      7  C   UNL     1      10.142  -5.541  38.018  1.00  0.00    -0.000 C 
BRANCH   7   8
ATOM      8  C   UNL     1       9.513  -6.754  38.728  1.00  0.00    -0.000 C 
BRANCH   8   9
ATOM      9  C   UNL     1       7.981  -6.771  38.623  1.00  0.00    -0.000 C 
BRANCH   9  10
ATOM     10  C   UNL     1       7.475  -6.232  37.274  1.00  0.00    -0.000 C 
BRANCH  10  11
ATOM     11  C   UNL     1       6.512  -7.204  36.575  1.00  0.00    -0.003 C 
ATOM     12  C   UNL     1       5.448  -6.487  35.744  1.00  0.00     0.004 C 
ENDBRANCH  10  11
ENDBRANCH   9  10
ENDBRANCH   8   9
ENDBRANCH   7   8
ENDBRANCH   6   7
ENDBRANCH   5   6
ENDBRANCH   4   5
ENDBRANCH   3   4
ENDBRANCH   2   3
ENDBRANCH   1   2
BRANCH   1  13
ATOM     13  C   UNL     1       9.545  -8.126  33.105  1.00  0.00     0.000 C 
BRANCH  13  14
ATOM     14  C   UNL     1      10.487  -8.716  34.170  1.00  0.00     0.000 C 
BRANCH  14  15
ATOM     15  C   UNL     1       9.797  -8.917  35.531  1.00  0.00     0.000 C 
BRANCH  15  16
ATOM     16  C   UNL     1      10.448 -10.035  36.362  1.00  0.00     0.000 C 
BRANCH  16  17
ATOM     17  C   UNL     1       9.846 -10.147  37.774  1.00  0.00     0.000 C 
BRANCH  17  18
ATOM     18  C   UNL     1      10.920 -10.157  38.874  1.00  0.00     0.000 C 
BRANCH  18  19
ATOM     19  C   UNL     1      12.229 -10.820  38.419  1.00  0.00     0.000 C 
BRANCH  19  20
ATOM     20  C   UNL     1      13.441  -9.951  38.790  1.00  0.00     0.006 C 
BRANCH  20  21
ATOM     21  C   UNL     1      13.092  -8.457  38.842  1.00  0.00     0.053 C 
BRANCH  21  22
ATOM     22  C   UNL     1      14.317  -7.598  38.795  1.00  0.00     0.041 C 
ATOM     23  O   UNL     1      14.227  -6.352  38.954  1.00  0.00    -0.550 OA
ATOM     24  O   UNL     1      15.558  -8.170  38.539  1.00  0.00    -0.550 OA
ENDBRANCH  21  22
ENDBRANCH  20  21
ENDBRANCH  19  20
ENDBRANCH  18  19
ENDBRANCH  17  18
ENDBRANCH  16  17
ENDBRANCH  15  16
ENDBRANCH  14  15
ENDBRANCH  13  14
ENDBRANCH   1  13
TORSDOF 20
ENDMDL
MODEL 9
REMARK VINA RESULT:    -4.056      2.833      6.313
REMARK INTER + INTRA:         -11.950
REMARK INTER:                  -7.695
REMARK INTRA:                  -4.255
REMARK UNBOUND:                -3.153
REMARK SMILES CCCCCCCCCCCCCCCCCCCCCC(=O)[O-]
REMARK SMILES IDX 12 1 11 2 10 3 9 4 8 5 7 6 6 7 5 8 4 9 3 10 2 11 1 12 13 13
REMARK SMILES IDX 14 14 15 15 16 16 17 17 18 18 19 19 20 20 21 21 22 22 23 23
REMARK SMILES IDX 24 24
REMARK H PARENT
REMARK Flexibility Score: inf
ROOT
ATOM      1  C   UNL     1      10.588  -7.939  36.825  1.00  0.00     0.000 C 
ENDROOT
BRANCH   1   2
ATOM      2  C   UNL     1       9.689  -7.412  37.963  1.00  0.00     0.000 C 
BRANCH   2   3
ATOM      3  C   UNL     1       8.549  -6.480  37.512  1.00  0.00     0.000 C 
BRANCH   3   4
ATOM      4  C   UNL     1       7.241  -7.199  37.133  1.00  0.00    -0.000 C 
BRANCH   4   5
ATOM      5  C   UNL     1       7.040  -8.545  37.861  1.00  0.00    -0.000 C 
BRANCH   5   6
ATOM      6  C   UNL     1       6.527  -9.648  36.920  1.00  0.00    -0.000 C 
BRANCH   6   7
ATOM      7  C   UNL     1       6.295  -9.144  35.487  1.00  0.00    -0.000 C 
BRANCH   7   8
ATOM      8  C   UNL     1       5.011  -9.714  34.857  1.00  0.00    -0.000 C 
BRANCH   8   9
ATOM      9  C   UNL     1       3.736  -9.108  35.463  1.00  0.00    -0.000 C 
BRANCH   9  10
ATOM     10  C   UNL     1       3.752  -7.569  35.454  1.00  0.00    -0.000 C 
BRANCH  10  11
ATOM     11  C   UNL     1       3.466  -6.969  36.839  1.00  0.00    -0.003 C 
ATOM     12  C   UNL     1       3.279  -8.034  37.918  1.00  0.00     0.004 C 
ENDBRANCH  10  11
ENDBRANCH   9  10
ENDBRANCH   8   9
ENDBRANCH   7   8
ENDBRANCH   6   7
ENDBRANCH   5   6
ENDBRANCH   4   5
ENDBRANCH   3   4
ENDBRANCH   2   3
ENDBRANCH   1   2
BRANCH   1  13
ATOM     13  C   UNL     1      10.378  -9.421  36.451  1.00  0.00     0.000 C 
BRANCH  13  14
ATOM     14  C   UNL     1      10.064  -9.684  34.968  1.00  0.00     0.000 C 
BRANCH  14  15
ATOM     15  C   UNL     1      10.379  -8.477  34.068  1.00  0.00     0.000 C 
BRANCH  15  16
ATOM     16  C   UNL     1       9.197  -8.091  33.163  1.00  0.00     0.000 C 
BRANCH  16  17
ATOM     17  C   UNL     1       8.410  -6.884  33.703  1.00  0.00     0.000 C 
BRANCH  17  18
ATOM     18  C   UNL     1       9.078  -5.543  33.361  1.00  0.00     0.000 C 
BRANCH  18  19
ATOM     19  C   UNL     1       9.605  -4.809  34.603  1.00  0.00     0.000 C 
BRANCH  19  20
ATOM     20  C   UNL     1      11.136  -4.914  34.695  1.00  0.00     0.006 C 
BRANCH  20  21
ATOM     21  C   UNL     1      11.744  -3.799  35.557  1.00  0.00     0.053 C 
BRANCH  21  22
ATOM     22  C   UNL     1      11.509  -4.036  37.017  1.00  0.00     0.041 C 
ATOM     23  O   UNL     1      12.181  -4.902  37.636  1.00  0.00    -0.550 OA
ATOM     24  O   UNL     1      10.521  -3.324  37.687  1.00  0.00    -0.550 OA
ENDBRANCH  21  22
ENDBRANCH  20  21
ENDBRANCH  19  20
ENDBRANCH  18  19
ENDBRANCH  17  18
ENDBRANCH  16  17
ENDBRANCH  15  16
ENDBRANCH  14  15
ENDBRANCH  13  14
ENDBRANCH   1  13
TORSDOF 20
ENDMDL
