MODEL 1
REMARK VINA RESULT:    -3.233      0.000      0.000
REMARK INTER + INTRA:          -8.654
REMARK INTER:                  -6.258
REMARK INTRA:                  -2.396
REMARK UNBOUND:                -2.396
REMARK SMILES CCCCCCCCCCCCCCCCCC(=O)[O-]
REMARK SMILES IDX 10 1 11 2 12 3 13 4 14 5 15 6 16 7 17 8 18 9 19 10 20 11
REMARK SMILES IDX 9 12 8 13 7 14 6 15 5 16 4 17 3 18 2 19 1 20
REMARK H PARENT
REMARK Flexibility Score: inf
ROOT
ATOM      1  C   UNL     1     -97.477 -46.040 -68.895  1.00  0.00     0.000 C 
ENDROOT
BRANCH   1   2
ATOM      2  C   UNL     1     -96.062 -45.481 -69.148  1.00  0.00     0.000 C 
BRANCH   2   3
ATOM      3  C   UNL     1     -94.972 -46.122 -68.262  1.00  0.00     0.000 C 
BRANCH   3   4
ATOM      4  C   UNL     1     -93.829 -46.728 -69.097  1.00  0.00     0.000 C 
BRANCH   4   5
ATOM      5  C   UNL     1     -94.333 -47.471 -70.346  1.00  0.00     0.000 C 
BRANCH   5   6
ATOM      6  C   UNL     1     -93.787 -46.870 -71.653  1.00  0.00     0.000 C 
BRANCH   6   7
ATOM      7  C   UNL     1     -93.792 -47.880 -72.812  1.00  0.00     0.006 C 
BRANCH   7   8
ATOM      8  C   UNL     1     -94.798 -49.018 -72.604  1.00  0.00     0.053 C 
BRANCH   8   9
ATOM      9  C   UNL     1     -94.319 -50.271 -73.267  1.00  0.00     0.041 C 
ATOM     10  O   UNL     1     -93.203 -50.295 -73.849  1.00  0.00    -0.550 OA
ATOM     11  O   UNL     1     -95.100 -51.420 -73.227  1.00  0.00    -0.550 OA
ENDBRANCH   8   9
ENDBRANCH   7   8
ENDBRANCH   6   7
ENDBRANCH   5   6
ENDBRANCH   4   5
ENDBRANCH   3   4
ENDBRANCH   2   3
ENDBRANCH   1   2
BRANCH   1  12
ATOM     12  C   UNL     1     -98.086 -46.824 -70.071  1.00  0.00     0.000 C 
BRANCH  12  13
ATOM     13  C   UNL     1     -97.551 -46.360 -71.437  1.00  0.00    -0.000 C 
BRANCH  13  14
ATOM     14  C   UNL     1     -98.029 -47.250 -72.600  1.00  0.00    -0.000 C 
BRANCH  14  15
ATOM     15  C   UNL     1     -99.341 -48.012 -72.343  1.00  0.00    -0.000 C 
BRANCH  15  16
ATOM     16  C   UNL     1    -100.407 -47.748 -73.417  1.00  0.00    -0.000 C 
BRANCH  16  17
ATOM     17  C   UNL     1    -101.552 -46.893 -72.851  1.00  0.00    -0.000 C 
BRANCH  17  18
ATOM     18  C   UNL     1    -101.511 -46.776 -71.316  1.00  0.00    -0.000 C 
BRANCH  18  19
ATOM     19  C   UNL     1    -101.456 -45.334 -70.781  1.00  0.00    -0.003 C 
ATOM     20  C   UNL     1    -100.672 -44.387 -71.690  1.00  0.00     0.004 C 
ENDBRANCH  18  19
ENDBRANCH  17  18
ENDBRANCH  16  17
ENDBRANCH  15  16
ENDBRANCH  14  15
ENDBRANCH  13  14
ENDBRANCH  12  13
ENDBRANCH   1  12
TORSDOF 16
ENDMDL
MODEL 2
REMARK VINA RESULT:    -3.198      3.591      7.377
REMARK INTER + INTRA:          -8.585
REMARK INTER:                  -6.612
REMARK INTRA:                  -1.973
REMARK UNBOUND:                -2.396
REMARK SMILES CCCCCCCCCCCCCCCCCC(=O)[O-]
REMARK SMILES IDX 10 1 11 2 12 3 13 4 14 5 15 6 16 7 17 8 18 9 19 10 20 11
REMARK SMILES IDX 9 12 8 13 7 14 6 15 5 16 4 17 3 18 2 19 1 20
REMARK H PARENT
REMARK Flexibility Score: inf
ROOT
ATOM      1  C   UNL     1     -98.417 -46.914 -69.567  1.00  0.00     0.000 C 
ENDROOT
BRANCH   1   2
ATOM      2  C   UNL     1     -98.098 -46.875 -71.075  1.00  0.00     0.000 C 
BRANCH   2   3
ATOM      3  C   UNL     1     -98.706 -48.050 -71.871  1.00  0.00     0.000 C 
BRANCH   3   4
ATOM      4  C   UNL     1     -99.956 -47.627 -72.665  1.00  0.00     0.000 C 
BRANCH   4   5
ATOM      5  C   UNL     1    -100.155 -46.103 -72.694  1.00  0.00     0.000 C 
BRANCH   5   6
ATOM      6  C   UNL     1    -101.522 -45.673 -72.133  1.00  0.00     0.000 C 
BRANCH   6   7
ATOM      7  C   UNL     1    -102.074 -46.670 -71.101  1.00  0.00     0.006 C 
BRANCH   7   8
ATOM      8  C   UNL     1    -103.593 -46.851 -71.204  1.00  0.00     0.053 C 
BRANCH   8   9
ATOM      9  C   UNL     1    -104.040 -48.020 -70.384  1.00  0.00     0.041 C 
ATOM     10  O   UNL     1    -104.024 -47.956 -69.126  1.00  0.00    -0.550 OA
ATOM     11  O   UNL     1    -104.491 -49.175 -71.010  1.00  0.00    -0.550 OA
ENDBRANCH   8   9
ENDBRANCH   7   8
ENDBRANCH   6   7
ENDBRANCH   5   6
ENDBRANCH   4   5
ENDBRANCH   3   4
ENDBRANCH   2   3
ENDBRANCH   1   2
BRANCH   1  12
ATOM     12  C   UNL     1     -97.822 -45.757 -68.746  1.00  0.00     0.000 C 
BRANCH  12  13
ATOM     13  C   UNL     1     -96.934 -44.824 -69.589  1.00  0.00    -0.000 C 
BRANCH  13  14
ATOM     14  C   UNL     1     -95.480 -44.765 -69.084  1.00  0.00    -0.000 C 
BRANCH  14  15
ATOM     15  C   UNL     1     -95.053 -45.938 -68.183  1.00  0.00    -0.000 C 
BRANCH  15  16
ATOM     16  C   UNL     1     -94.105 -46.920 -68.887  1.00  0.00    -0.000 C 
BRANCH  16  17
ATOM     17  C   UNL     1     -93.269 -46.201 -69.957  1.00  0.00    -0.000 C 
BRANCH  17  18
ATOM     18  C   UNL     1     -93.277 -46.928 -71.314  1.00  0.00    -0.000 C 
BRANCH  18  19
ATOM     19  C   UNL     1     -94.336 -48.038 -71.444  1.00  0.00    -0.003 C 
ATOM     20  C   UNL     1     -95.087 -47.997 -72.774  1.00  0.00     0.004 C 
ENDBRANCH  18  19
ENDBRANCH  17  18
ENDBRANCH  16  17
ENDBRANCH  15  16
ENDBRANCH  14  15
ENDBRANCH  13  14
ENDBRANCH  12  13
ENDBRANCH   1  12
TORSDOF 16
ENDMDL
MODEL 3
REMARK VINA RESULT:    -3.185      3.260      6.716
REMARK INTER + INTRA:          -8.560
REMARK INTER:                  -5.496
REMARK INTRA:                  -3.065
REMARK UNBOUND:                -2.396
REMARK SMILES CCCCCCCCCCCCCCCCCC(=O)[O-]
REMARK SMILES IDX 10 1 11 2 12 3 13 4 14 5 15 6 16 7 17 8 18 9 19 10 20 11
REMARK SMILES IDX 9 12 8 13 7 14 6 15 5 16 4 17 3 18 2 19 1 20
REMARK H PARENT
REMARK Flexibility Score: inf
ROOT
ATOM      1  C   UNL     1     -98.457 -46.884 -69.579  1.00  0.00     0.000 C 
ENDROOT
BRANCH   1   2
ATOM      2  C   UNL     1     -98.024 -47.006 -71.054  1.00  0.00     0.000 C 
BRANCH   2   3
ATOM      3  C   UNL     1     -98.876 -47.999 -71.873  1.00  0.00     0.000 C 
BRANCH   3   4
ATOM      4  C   UNL     1     -99.319 -47.406 -73.223  1.00  0.00     0.000 C 
BRANCH   4   5
ATOM      5  C   UNL     1     -98.412 -46.258 -73.695  1.00  0.00     0.000 C 
BRANCH   5   6
ATOM      6  C   UNL     1     -99.186 -44.949 -73.929  1.00  0.00     0.000 C 
BRANCH   6   7
ATOM      7  C   UNL     1    -100.440 -44.840 -73.046  1.00  0.00     0.006 C 
BRANCH   7   8
ATOM      8  C   UNL     1    -100.199 -44.023 -71.771  1.00  0.00     0.053 C 
BRANCH   8   9
ATOM      9  C   UNL     1    -100.983 -44.589 -70.628  1.00  0.00     0.041 C 
ATOM     10  O   UNL     1    -101.574 -45.694 -70.750  1.00  0.00    -0.550 OA
ATOM     11  O   UNL     1    -101.046 -43.902 -69.422  1.00  0.00    -0.550 OA
ENDBRANCH   8   9
ENDBRANCH   7   8
ENDBRANCH   6   7
ENDBRANCH   5   6
ENDBRANCH   4   5
ENDBRANCH   3   4
ENDBRANCH   2   3
ENDBRANCH   1   2
BRANCH   1  12
ATOM     12  C   UNL     1     -97.854 -45.688 -68.821  1.00  0.00     0.000 C 
BRANCH  12  13
ATOM     13  C   UNL     1     -96.976 -44.797 -69.717  1.00  0.00    -0.000 C 
BRANCH  13  14
ATOM     14  C   UNL     1     -95.482 -44.865 -69.347  1.00  0.00    -0.000 C 
BRANCH  14  15
ATOM     15  C   UNL     1     -95.116 -45.929 -68.297  1.00  0.00    -0.000 C 
BRANCH  15  16
ATOM     16  C   UNL     1     -94.001 -46.875 -68.766  1.00  0.00    -0.000 C 
BRANCH  16  17
ATOM     17  C   UNL     1     -93.809 -46.781 -70.288  1.00  0.00    -0.000 C 
BRANCH  17  18
ATOM     18  C   UNL     1     -94.375 -48.000 -71.040  1.00  0.00    -0.000 C 
BRANCH  18  19
ATOM     19  C   UNL     1     -94.802 -47.719 -72.492  1.00  0.00    -0.003 C 
ATOM     20  C   UNL     1     -94.819 -46.229 -72.834  1.00  0.00     0.004 C 
ENDBRANCH  18  19
ENDBRANCH  17  18
ENDBRANCH  16  17
ENDBRANCH  15  16
ENDBRANCH  14  15
ENDBRANCH  13  14
ENDBRANCH  12  13
ENDBRANCH   1  12
TORSDOF 16
ENDMDL
MODEL 4
REMARK VINA RESULT:    -3.166      3.563      6.812
REMARK INTER + INTRA:          -8.523
REMARK INTER:                  -5.970
REMARK INTRA:                  -2.553
REMARK UNBOUND:                -2.396
REMARK SMILES CCCCCCCCCCCCCCCCCC(=O)[O-]
REMARK SMILES IDX 10 1 11 2 12 3 13 4 14 5 15 6 16 7 17 8 18 9 19 10 20 11
REMARK SMILES IDX 9 12 8 13 7 14 6 15 5 16 4 17 3 18 2 19 1 20
REMARK H PARENT
REMARK Flexibility Score: inf
ROOT
ATOM      1  C   UNL     1     -97.716 -45.944 -68.632  1.00  0.00     0.000 C 
ENDROOT
BRANCH   1   2
ATOM      2  C   UNL     1     -98.495 -46.915 -69.542  1.00  0.00     0.000 C 
BRANCH   2   3
ATOM      3  C   UNL     1     -98.329 -46.626 -71.049  1.00  0.00     0.000 C 
BRANCH   3   4
ATOM      4  C   UNL     1     -98.437 -47.904 -71.900  1.00  0.00     0.000 C 
BRANCH   4   5
ATOM      5  C   UNL     1     -99.471 -47.780 -73.031  1.00  0.00     0.000 C 
BRANCH   5   6
ATOM      6  C   UNL     1    -100.531 -46.702 -72.749  1.00  0.00     0.000 C 
BRANCH   6   7
ATOM      7  C   UNL     1    -101.855 -47.296 -72.243  1.00  0.00     0.006 C 
BRANCH   7   8
ATOM      8  C   UNL     1    -102.240 -46.786 -70.849  1.00  0.00     0.053 C 
BRANCH   8   9
ATOM      9  C   UNL     1    -103.518 -47.418 -70.392  1.00  0.00     0.041 C 
ATOM     10  O   UNL     1    -104.170 -46.915 -69.440  1.00  0.00    -0.550 OA
ATOM     11  O   UNL     1    -103.997 -48.555 -71.032  1.00  0.00    -0.550 OA
ENDBRANCH   8   9
ENDBRANCH   7   8
ENDBRANCH   6   7
ENDBRANCH   5   6
ENDBRANCH   4   5
ENDBRANCH   3   4
ENDBRANCH   2   3
ENDBRANCH   1   2
BRANCH   1  12
ATOM     12  C   UNL     1     -97.021 -44.783 -69.365  1.00  0.00     0.000 C 
BRANCH  12  13
ATOM     13  C   UNL     1     -95.506 -44.733 -69.100  1.00  0.00    -0.000 C 
BRANCH  13  14
ATOM     14  C   UNL     1     -94.981 -45.997 -68.393  1.00  0.00    -0.000 C 
BRANCH  14  15
ATOM     15  C   UNL     1     -94.007 -46.853 -69.222  1.00  0.00    -0.000 C 
BRANCH  15  16
ATOM     16  C   UNL     1     -94.682 -47.543 -70.416  1.00  0.00    -0.000 C 
BRANCH  16  17
ATOM     17  C   UNL     1     -93.950 -47.208 -71.725  1.00  0.00    -0.000 C 
BRANCH  17  18
ATOM     18  C   UNL     1     -94.903 -46.765 -72.850  1.00  0.00    -0.000 C 
BRANCH  18  19
ATOM     19  C   UNL     1     -95.386 -45.307 -72.748  1.00  0.00    -0.003 C 
ATOM     20  C   UNL     1     -94.241 -44.307 -72.589  1.00  0.00     0.004 C 
ENDBRANCH  18  19
ENDBRANCH  17  18
ENDBRANCH  16  17
ENDBRANCH  15  16
ENDBRANCH  14  15
ENDBRANCH  13  14
ENDBRANCH  12  13
ENDBRANCH   1  12
TORSDOF 16
ENDMDL
MODEL 5
REMARK VINA RESULT:    -3.090      3.626      7.044
REMARK INTER + INTRA:          -8.376
REMARK INTER:                  -6.207
REMARK INTRA:                  -2.168
REMARK UNBOUND:                -2.396
REMARK SMILES CCCCCCCCCCCCCCCCCC(=O)[O-]
REMARK SMILES IDX 10 1 11 2 12 3 13 4 14 5 15 6 16 7 17 8 18 9 19 10 20 11
REMARK SMILES IDX 9 12 8 13 7 14 6 15 5 16 4 17 3 18 2 19 1 20
REMARK H PARENT
REMARK Flexibility Score: inf
ROOT
ATOM      1  C   UNL     1     -96.496 -47.529 -72.415  1.00  0.00     0.000 C 
ENDROOT
BRANCH   1   2
ATOM      2  C   UNL     1     -97.176 -46.234 -72.904  1.00  0.00     0.000 C 
BRANCH   2   3
ATOM      3  C   UNL     1     -98.594 -46.452 -73.474  1.00  0.00     0.000 C 
BRANCH   3   4
ATOM      4  C   UNL     1     -99.179 -47.817 -73.068  1.00  0.00     0.000 C 
BRANCH   4   5
ATOM      5  C   UNL     1    -100.679 -47.746 -72.739  1.00  0.00     0.000 C 
BRANCH   5   6
ATOM      6  C   UNL     1    -101.101 -46.373 -72.188  1.00  0.00     0.000 C 
BRANCH   6   7
ATOM      7  C   UNL     1    -102.219 -46.479 -71.137  1.00  0.00     0.006 C 
BRANCH   7   8
ATOM      8  C   UNL     1    -103.476 -47.172 -71.676  1.00  0.00     0.053 C 
BRANCH   8   9
ATOM      9  C   UNL     1    -103.985 -48.177 -70.690  1.00  0.00     0.041 C 
ATOM     10  O   UNL     1    -104.472 -49.268 -71.089  1.00  0.00    -0.550 OA
ATOM     11  O   UNL     1    -103.905 -47.915 -69.328  1.00  0.00    -0.550 OA
ENDBRANCH   8   9
ENDBRANCH   7   8
ENDBRANCH   6   7
ENDBRANCH   5   6
ENDBRANCH   4   5
ENDBRANCH   3   4
ENDBRANCH   2   3
ENDBRANCH   1   2
BRANCH   1  12
ATOM     12  C   UNL     1     -94.958 -47.492 -72.403  1.00  0.00     0.000 C 
BRANCH  12  13
ATOM     13  C   UNL     1     -94.361 -47.959 -71.063  1.00  0.00    -0.000 C 
BRANCH  13  14
ATOM     14  C   UNL     1     -93.752 -46.804 -70.246  1.00  0.00    -0.000 C 
BRANCH  14  15
ATOM     15  C   UNL     1     -93.903 -46.933 -68.719  1.00  0.00    -0.000 C 
BRANCH  15  16
ATOM     16  C   UNL     1     -94.970 -45.991 -68.141  1.00  0.00    -0.000 C 
BRANCH  16  17
ATOM     17  C   UNL     1     -95.402 -44.949 -69.185  1.00  0.00    -0.000 C 
BRANCH  17  18
ATOM     18  C   UNL     1     -96.914 -44.983 -69.477  1.00  0.00    -0.000 C 
BRANCH  18  19
ATOM     19  C   UNL     1     -97.706 -46.010 -68.648  1.00  0.00    -0.003 C 
ATOM     20  C   UNL     1     -98.578 -46.926 -69.506  1.00  0.00     0.004 C 
ENDBRANCH  18  19
ENDBRANCH  17  18
ENDBRANCH  16  17
ENDBRANCH  15  16
ENDBRANCH  14  15
ENDBRANCH  13  14
ENDBRANCH  12  13
ENDBRANCH   1  12
TORSDOF 16
ENDMDL
MODEL 6
REMARK VINA RESULT:    -3.046      3.423      6.965
REMARK INTER + INTRA:          -8.290
REMARK INTER:                  -6.448
REMARK INTRA:                  -1.842
REMARK UNBOUND:                -2.396
REMARK SMILES CCCCCCCCCCCCCCCCCC(=O)[O-]
REMARK SMILES IDX 10 1 11 2 12 3 13 4 14 5 15 6 16 7 17 8 18 9 19 10 20 11
REMARK SMILES IDX 9 12 8 13 7 14 6 15 5 16 4 17 3 18 2 19 1 20
REMARK H PARENT
REMARK Flexibility Score: inf
ROOT
ATOM      1  C   UNL     1     -97.381 -45.775 -68.687  1.00  0.00     0.000 C 
ENDROOT
BRANCH   1   2
ATOM      2  C   UNL     1     -97.948 -46.548 -69.894  1.00  0.00     0.000 C 
BRANCH   2   3
ATOM      3  C   UNL     1     -97.171 -46.312 -71.207  1.00  0.00     0.000 C 
BRANCH   3   4
ATOM      4  C   UNL     1     -97.670 -47.218 -72.348  1.00  0.00     0.000 C 
BRANCH   4   5
ATOM      5  C   UNL     1     -98.950 -47.986 -71.981  1.00  0.00     0.000 C 
BRANCH   5   6
ATOM      6  C   UNL     1     -99.997 -47.965 -73.107  1.00  0.00     0.000 C 
BRANCH   6   7
ATOM      7  C   UNL     1    -101.288 -47.236 -72.699  1.00  0.00     0.006 C 
BRANCH   7   8
ATOM      8  C   UNL     1    -101.300 -46.837 -71.218  1.00  0.00     0.053 C 
BRANCH   8   9
ATOM      9  C   UNL     1    -102.696 -46.546 -70.764  1.00  0.00     0.041 C 
ATOM     10  O   UNL     1    -103.615 -47.385 -70.961  1.00  0.00    -0.550 OA
ATOM     11  O   UNL     1    -102.979 -45.355 -70.108  1.00  0.00    -0.550 OA
ENDBRANCH   8   9
ENDBRANCH   7   8
ENDBRANCH   6   7
ENDBRANCH   5   6
ENDBRANCH   4   5
ENDBRANCH   3   4
ENDBRANCH   2   3
ENDBRANCH   1   2
BRANCH   1  12
ATOM     12  C   UNL     1     -95.930 -45.289 -68.850  1.00  0.00     0.000 C 
BRANCH  12  13
ATOM     13  C   UNL     1     -94.915 -46.185 -68.118  1.00  0.00    -0.000 C 
BRANCH  13  14
ATOM     14  C   UNL     1     -93.996 -46.958 -69.083  1.00  0.00    -0.000 C 
BRANCH  14  15
ATOM     15  C   UNL     1     -93.171 -46.082 -70.042  1.00  0.00    -0.000 C 
BRANCH  15  16
ATOM     16  C   UNL     1     -93.099 -46.654 -71.466  1.00  0.00    -0.000 C 
BRANCH  16  17
ATOM     17  C   UNL     1     -93.962 -47.919 -71.589  1.00  0.00    -0.000 C 
BRANCH  17  18
ATOM     18  C   UNL     1     -93.916 -48.542 -72.997  1.00  0.00    -0.000 C 
BRANCH  18  19
ATOM     19  C   UNL     1     -95.104 -49.460 -73.334  1.00  0.00    -0.003 C 
ATOM     20  C   UNL     1     -94.718 -50.937 -73.407  1.00  0.00     0.004 C 
ENDBRANCH  18  19
ENDBRANCH  17  18
ENDBRANCH  16  17
ENDBRANCH  15  16
ENDBRANCH  14  15
ENDBRANCH  13  14
ENDBRANCH  12  13
ENDBRANCH   1  12
TORSDOF 16
ENDMDL
MODEL 7
REMARK VINA RESULT:    -2.978     14.515     17.271
REMARK INTER + INTRA:          -8.160
REMARK INTER:                  -5.662
REMARK INTRA:                  -2.498
REMARK UNBOUND:                -2.396
REMARK SMILES CCCCCCCCCCCCCCCCCC(=O)[O-]
REMARK SMILES IDX 10 1 11 2 12 3 13 4 14 5 15 6 16 7 17 8 18 9 19 10 20 11
REMARK SMILES IDX 9 12 8 13 7 14 6 15 5 16 4 17 3 18 2 19 1 20
REMARK H PARENT
REMARK Flexibility Score: inf
ROOT
ATOM      1  C   UNL     1    -110.449 -45.851 -57.223  1.00  0.00     0.000 C 
ENDROOT
BRANCH   1   2
ATOM      2  C   UNL     1    -109.720 -45.635 -58.564  1.00  0.00     0.000 C 
BRANCH   2   3
ATOM      3  C   UNL     1    -110.281 -46.488 -59.722  1.00  0.00     0.000 C 
BRANCH   3   4
ATOM      4  C   UNL     1    -109.802 -45.986 -61.097  1.00  0.00     0.000 C 
BRANCH   4   5
ATOM      5  C   UNL     1    -109.311 -47.124 -62.007  1.00  0.00     0.000 C 
BRANCH   5   6
ATOM      6  C   UNL     1    -108.162 -47.931 -61.379  1.00  0.00     0.000 C 
BRANCH   6   7
ATOM      7  C   UNL     1    -107.874 -49.235 -62.141  1.00  0.00     0.006 C 
BRANCH   7   8
ATOM      8  C   UNL     1    -108.180 -49.128 -63.639  1.00  0.00     0.053 C 
BRANCH   8   9
ATOM      9  C   UNL     1    -107.249 -49.994 -64.429  1.00  0.00     0.041 C 
ATOM     10  O   UNL     1    -106.719 -51.005 -63.899  1.00  0.00    -0.550 OA
ATOM     11  O   UNL     1    -106.981 -49.692 -65.759  1.00  0.00    -0.550 OA
ENDBRANCH   8   9
ENDBRANCH   7   8
ENDBRANCH   6   7
ENDBRANCH   5   6
ENDBRANCH   4   5
ENDBRANCH   3   4
ENDBRANCH   2   3
ENDBRANCH   1   2
BRANCH   1  12
ATOM     12  C   UNL     1    -109.621 -45.514 -55.970  1.00  0.00     0.000 C 
BRANCH  12  13
ATOM     13  C   UNL     1    -108.979 -46.756 -55.328  1.00  0.00    -0.000 C 
BRANCH  13  14
ATOM     14  C   UNL     1    -107.491 -46.916 -55.692  1.00  0.00    -0.000 C 
BRANCH  14  15
ATOM     15  C   UNL     1    -107.211 -47.758 -56.949  1.00  0.00    -0.000 C 
BRANCH  15  16
ATOM     16  C   UNL     1    -107.811 -49.170 -56.870  1.00  0.00    -0.000 C 
BRANCH  16  17
ATOM     17  C   UNL     1    -108.839 -49.390 -57.990  1.00  0.00    -0.000 C 
BRANCH  17  18
ATOM     18  C   UNL     1    -110.281 -49.519 -57.464  1.00  0.00    -0.000 C 
BRANCH  18  19
ATOM     19  C   UNL     1    -111.323 -49.908 -58.529  1.00  0.00    -0.003 C 
ATOM     20  C   UNL     1    -110.702 -50.206 -59.893  1.00  0.00     0.004 C 
ENDBRANCH  18  19
ENDBRANCH  17  18
ENDBRANCH  16  17
ENDBRANCH  15  16
ENDBRANCH  14  15
ENDBRANCH  13  14
ENDBRANCH  12  13
ENDBRANCH   1  12
TORSDOF 16
ENDMDL
MODEL 8
REMARK VINA RESULT:    -2.955      3.600      6.864
REMARK INTER + INTRA:          -8.115
REMARK INTER:                  -5.636
REMARK INTRA:                  -2.479
REMARK UNBOUND:                -2.396
REMARK SMILES CCCCCCCCCCCCCCCCCC(=O)[O-]
REMARK SMILES IDX 10 1 11 2 12 3 13 4 14 5 15 6 16 7 17 8 18 9 19 10 20 11
REMARK SMILES IDX 9 12 8 13 7 14 6 15 5 16 4 17 3 18 2 19 1 20
REMARK H PARENT
REMARK Flexibility Score: inf
ROOT
ATOM      1  C   UNL     1     -98.038 -46.857 -69.742  1.00  0.00     0.000 C 
ENDROOT
BRANCH   1   2
ATOM      2  C   UNL     1     -98.341 -45.756 -68.705  1.00  0.00     0.000 C 
BRANCH   2   3
ATOM      3  C   UNL     1     -98.680 -44.387 -69.332  1.00  0.00     0.000 C 
BRANCH   3   4
ATOM      4  C   UNL     1    -100.186 -44.232 -69.611  1.00  0.00     0.000 C 
BRANCH   4   5
ATOM      5  C   UNL     1    -100.493 -43.973 -71.095  1.00  0.00     0.000 C 
BRANCH   5   6
ATOM      6  C   UNL     1    -100.774 -45.268 -71.877  1.00  0.00     0.000 C 
BRANCH   6   7
ATOM      7  C   UNL     1    -101.405 -46.361 -70.999  1.00  0.00     0.006 C 
BRANCH   7   8
ATOM      8  C   UNL     1    -102.463 -47.183 -71.745  1.00  0.00     0.053 C 
BRANCH   8   9
ATOM      9  C   UNL     1    -103.543 -47.625 -70.807  1.00  0.00     0.041 C 
ATOM     10  O   UNL     1    -103.824 -46.934 -69.792  1.00  0.00    -0.550 OA
ATOM     11  O   UNL     1    -104.251 -48.793 -71.064  1.00  0.00    -0.550 OA
ENDBRANCH   8   9
ENDBRANCH   7   8
ENDBRANCH   6   7
ENDBRANCH   5   6
ENDBRANCH   4   5
ENDBRANCH   3   4
ENDBRANCH   2   3
ENDBRANCH   1   2
BRANCH   1  12
ATOM     12  C   UNL     1     -97.349 -46.366 -71.028  1.00  0.00     0.000 C 
BRANCH  12  13
ATOM     13  C   UNL     1     -97.275 -47.453 -72.115  1.00  0.00    -0.000 C 
BRANCH  13  14
ATOM     14  C   UNL     1     -95.876 -47.570 -72.749  1.00  0.00    -0.000 C 
BRANCH  14  15
ATOM     15  C   UNL     1     -94.785 -48.140 -71.825  1.00  0.00    -0.000 C 
BRANCH  15  16
ATOM     16  C   UNL     1     -93.485 -47.322 -71.857  1.00  0.00    -0.000 C 
BRANCH  16  17
ATOM     17  C   UNL     1     -93.308 -46.528 -70.554  1.00  0.00    -0.000 C 
BRANCH  17  18
ATOM     18  C   UNL     1     -94.057 -47.155 -69.363  1.00  0.00    -0.000 C 
BRANCH  18  19
ATOM     19  C   UNL     1     -94.662 -46.140 -68.376  1.00  0.00    -0.003 C 
ATOM     20  C   UNL     1     -94.761 -44.729 -68.954  1.00  0.00     0.004 C 
ENDBRANCH  18  19
ENDBRANCH  17  18
ENDBRANCH  16  17
ENDBRANCH  15  16
ENDBRANCH  14  15
ENDBRANCH  13  14
ENDBRANCH  12  13
ENDBRANCH   1  12
TORSDOF 16
ENDMDL
MODEL 9
REMARK VINA RESULT:    -2.954     14.543     17.236
REMARK INTER + INTRA:          -8.113
REMARK INTER:                  -5.458
REMARK INTRA:                  -2.655
REMARK UNBOUND:                -2.396
REMARK SMILES CCCCCCCCCCCCCCCCCC(=O)[O-]
REMARK SMILES IDX 10 1 11 2 12 3 13 4 14 5 15 6 16 7 17 8 18 9 19 10 20 11
REMARK SMILES IDX 9 12 8 13 7 14 6 15 5 16 4 17 3 18 2 19 1 20
REMARK H PARENT
REMARK Flexibility Score: inf
ROOT
ATOM      1  C   UNL     1    -111.235 -47.708 -59.055  1.00  0.00     0.000 C 
ENDROOT
BRANCH   1   2
ATOM      2  C   UNL     1    -110.124 -46.640 -59.018  1.00  0.00     0.000 C 
BRANCH   2   3
ATOM      3  C   UNL     1    -109.264 -46.590 -60.299  1.00  0.00     0.000 C 
BRANCH   3   4
ATOM      4  C   UNL     1    -108.278 -47.770 -60.382  1.00  0.00     0.000 C 
BRANCH   4   5
ATOM      5  C   UNL     1    -108.181 -48.364 -61.797  1.00  0.00     0.000 C 
BRANCH   5   6
ATOM      6  C   UNL     1    -108.488 -49.872 -61.829  1.00  0.00     0.000 C 
BRANCH   6   7
ATOM      7  C   UNL     1    -109.188 -50.303 -63.128  1.00  0.00     0.006 C 
BRANCH   7   8
ATOM      8  C   UNL     1    -108.381 -51.336 -63.922  1.00  0.00     0.053 C 
BRANCH   8   9
ATOM      9  C   UNL     1    -107.066 -50.762 -64.347  1.00  0.00     0.041 C 
ATOM     10  O   UNL     1    -105.995 -51.376 -64.099  1.00  0.00    -0.550 OA
ATOM     11  O   UNL     1    -107.025 -49.554 -65.033  1.00  0.00    -0.550 OA
ENDBRANCH   8   9
ENDBRANCH   7   8
ENDBRANCH   6   7
ENDBRANCH   5   6
ENDBRANCH   4   5
ENDBRANCH   3   4
ENDBRANCH   2   3
ENDBRANCH   1   2
BRANCH   1  12
ATOM     12  C   UNL     1    -111.110 -48.814 -57.992  1.00  0.00     0.000 C 
BRANCH  12  13
ATOM     13  C   UNL     1    -110.550 -50.129 -58.563  1.00  0.00    -0.000 C 
BRANCH  13  14
ATOM     14  C   UNL     1    -109.152 -50.472 -58.014  1.00  0.00    -0.000 C 
BRANCH  14  15
ATOM     15  C   UNL     1    -108.719 -49.663 -56.778  1.00  0.00    -0.000 C 
BRANCH  15  16
ATOM     16  C   UNL     1    -107.273 -49.154 -56.872  1.00  0.00    -0.000 C 
BRANCH  16  17
ATOM     17  C   UNL     1    -107.239 -47.620 -56.950  1.00  0.00    -0.000 C 
BRANCH  17  18
ATOM     18  C   UNL     1    -107.632 -46.943 -55.624  1.00  0.00    -0.000 C 
BRANCH  18  19
ATOM     19  C   UNL     1    -108.871 -46.034 -55.707  1.00  0.00    -0.003 C 
ATOM     20  C   UNL     1    -110.115 -46.658 -55.078  1.00  0.00     0.004 C 
ENDBRANCH  18  19
ENDBRANCH  17  18
ENDBRANCH  16  17
ENDBRANCH  15  16
ENDBRANCH  14  15
ENDBRANCH  13  14
ENDBRANCH  12  13
ENDBRANCH   1  12
TORSDOF 16
ENDMDL
