MODEL 1
REMARK VINA RESULT:    -3.285      0.000      0.000
REMARK INTER + INTRA:          -6.390
REMARK INTER:                  -5.590
REMARK INTRA:                  -0.800
REMARK UNBOUND:                -0.800
REMARK SMILES CCCCCCCCCCCCCC(=O)[O-]
REMARK SMILES IDX 8 1 9 2 10 3 11 4 12 5 13 6 14 7 15 8 16 9 7 10 6 11 5 12
REMARK SMILES IDX 4 13 3 14 2 15 1 16
REMARK H PARENT
REMARK Flexibility Score: inf
ROOT
ATOM      1  C   UNL     1     -20.949   1.749   7.217  1.00  0.00     0.000 C 
ENDROOT
BRANCH   1   2
ATOM      2  C   UNL     1     -21.865   2.155   8.386  1.00  0.00     0.000 C 
BRANCH   2   3
ATOM      3  C   UNL     1     -21.789   1.175   9.567  1.00  0.00     0.000 C 
BRANCH   3   4
ATOM      4  C   UNL     1     -22.594   1.659  10.786  1.00  0.00     0.000 C 
BRANCH   4   5
ATOM      5  C   UNL     1     -21.849   1.442  12.116  1.00  0.00     0.006 C 
BRANCH   5   6
ATOM      6  C   UNL     1     -21.448  -0.017  12.388  1.00  0.00     0.053 C 
BRANCH   6   7
ATOM      7  C   UNL     1     -21.561  -0.367  13.840  1.00  0.00     0.041 C 
ATOM      8  O   UNL     1     -20.540  -0.348  14.577  1.00  0.00    -0.550 OA
ATOM      9  O   UNL     1     -22.799  -0.684  14.386  1.00  0.00    -0.550 OA
ENDBRANCH   6   7
ENDBRANCH   5   6
ENDBRANCH   4   5
ENDBRANCH   3   4
ENDBRANCH   2   3
ENDBRANCH   1   2
BRANCH   1  10
ATOM     10  C   UNL     1     -21.505   0.560   6.413  1.00  0.00     0.000 C 
BRANCH  10  11
ATOM     11  C   UNL     1     -20.561  -0.655   6.310  1.00  0.00    -0.000 C 
BRANCH  11  12
ATOM     12  C   UNL     1     -21.004  -1.897   7.105  1.00  0.00    -0.000 C 
BRANCH  12  13
ATOM     13  C   UNL     1     -20.617  -1.826   8.589  1.00  0.00    -0.000 C 
BRANCH  13  14
ATOM     14  C   UNL     1     -20.252  -3.214   9.127  1.00  0.00    -0.000 C 
BRANCH  14  15
ATOM     15  C   UNL     1     -19.870  -4.164   7.986  1.00  0.00    -0.003 C 
ATOM     16  C   UNL     1     -20.385  -5.576   8.248  1.00  0.00     0.004 C 
ENDBRANCH  14  15
ENDBRANCH  13  14
ENDBRANCH  12  13
ENDBRANCH  11  12
ENDBRANCH  10  11
ENDBRANCH   1  10
TORSDOF 12
ENDMDL
MODEL 2
REMARK VINA RESULT:    -3.173      1.547      4.834
REMARK INTER + INTRA:          -6.199
REMARK INTER:                  -5.432
REMARK INTRA:                  -0.768
REMARK UNBOUND:                -0.800
REMARK SMILES CCCCCCCCCCCCCC(=O)[O-]
REMARK SMILES IDX 8 1 9 2 10 3 11 4 12 5 13 6 14 7 15 8 16 9 7 10 6 11 5 12
REMARK SMILES IDX 4 13 3 14 2 15 1 16
REMARK H PARENT
REMARK Flexibility Score: inf
ROOT
ATOM      1  C   UNL     1     -20.997  -1.520   6.866  1.00  0.00     0.000 C 
ENDROOT
BRANCH   1   2
ATOM      2  C   UNL     1     -20.987  -1.413   8.401  1.00  0.00     0.000 C 
BRANCH   2   3
ATOM      3  C   UNL     1     -20.234  -2.573   9.071  1.00  0.00     0.000 C 
BRANCH   3   4
ATOM      4  C   UNL     1     -19.875  -2.272  10.537  1.00  0.00     0.000 C 
BRANCH   4   5
ATOM      5  C   UNL     1     -20.954  -1.444  11.257  1.00  0.00     0.006 C 
BRANCH   5   6
ATOM      6  C   UNL     1     -21.082  -1.739  12.761  1.00  0.00     0.053 C 
BRANCH   6   7
ATOM      7  C   UNL     1     -21.697  -0.594  13.506  1.00  0.00     0.041 C 
ATOM      8  O   UNL     1     -22.125  -0.758  14.679  1.00  0.00    -0.550 OA
ATOM      9  O   UNL     1     -21.769   0.662  12.916  1.00  0.00    -0.550 OA
ENDBRANCH   6   7
ENDBRANCH   5   6
ENDBRANCH   4   5
ENDBRANCH   3   4
ENDBRANCH   2   3
ENDBRANCH   1   2
BRANCH   1  10
ATOM     10  C   UNL     1     -21.208  -0.159   6.178  1.00  0.00     0.000 C 
BRANCH  10  11
ATOM     11  C   UNL     1     -20.471   1.025   6.835  1.00  0.00    -0.000 C 
BRANCH  11  12
ATOM     12  C   UNL     1     -21.379   2.160   7.342  1.00  0.00    -0.000 C 
BRANCH  12  13
ATOM     13  C   UNL     1     -21.919   1.906   8.757  1.00  0.00    -0.000 C 
BRANCH  13  14
ATOM     14  C   UNL     1     -22.487   3.192   9.366  1.00  0.00    -0.000 C 
BRANCH  14  15
ATOM     15  C   UNL     1     -22.535   4.319   8.328  1.00  0.00    -0.003 C 
ATOM     16  C   UNL     1     -21.903   5.597   8.872  1.00  0.00     0.004 C 
ENDBRANCH  14  15
ENDBRANCH  13  14
ENDBRANCH  12  13
ENDBRANCH  11  12
ENDBRANCH  10  11
ENDBRANCH   1  10
TORSDOF 12
ENDMDL
MODEL 3
REMARK VINA RESULT:    -2.535      3.315      6.743
REMARK INTER + INTRA:          -5.114
REMARK INTER:                  -4.322
REMARK INTRA:                  -0.792
REMARK UNBOUND:                -0.800
REMARK SMILES CCCCCCCCCCCCCC(=O)[O-]
REMARK SMILES IDX 8 1 9 2 10 3 11 4 12 5 13 6 14 7 15 8 16 9 7 10 6 11 5 12
REMARK SMILES IDX 4 13 3 14 2 15 1 16
REMARK H PARENT
REMARK Flexibility Score: inf
ROOT
ATOM      1  C   UNL     1     -21.005  -0.821  13.338  1.00  0.00     0.000 C 
ENDROOT
BRANCH   1   2
ATOM      2  C   UNL     1     -21.165  -1.933  12.286  1.00  0.00     0.000 C 
BRANCH   2   3
ATOM      3  C   UNL     1     -20.163  -1.802  11.129  1.00  0.00     0.000 C 
BRANCH   3   4
ATOM      4  C   UNL     1     -20.801  -2.107   9.761  1.00  0.00     0.000 C 
BRANCH   4   5
ATOM      5  C   UNL     1     -21.026  -0.842   8.914  1.00  0.00     0.006 C 
BRANCH   5   6
ATOM      6  C   UNL     1     -21.018  -1.085   7.396  1.00  0.00     0.053 C 
BRANCH   6   7
ATOM      7  C   UNL     1     -21.016   0.198   6.623  1.00  0.00     0.041 C 
ATOM      8  O   UNL     1     -20.193   1.107   6.907  1.00  0.00    -0.550 OA
ATOM      9  O   UNL     1     -21.902   0.377   5.568  1.00  0.00    -0.550 OA
ENDBRANCH   6   7
ENDBRANCH   5   6
ENDBRANCH   4   5
ENDBRANCH   3   4
ENDBRANCH   2   3
ENDBRANCH   1   2
BRANCH   1  10
ATOM     10  C   UNL     1     -22.068   0.283  13.200  1.00  0.00     0.000 C 
BRANCH  10  11
ATOM     11  C   UNL     1     -21.742   1.376  12.162  1.00  0.00    -0.000 C 
BRANCH  11  12
ATOM     12  C   UNL     1     -22.688   1.429  10.948  1.00  0.00    -0.000 C 
BRANCH  12  13
ATOM     13  C   UNL     1     -22.031   2.049   9.706  1.00  0.00    -0.000 C 
BRANCH  13  14
ATOM     14  C   UNL     1     -22.885   3.193   9.149  1.00  0.00    -0.000 C 
BRANCH  14  15
ATOM     15  C   UNL     1     -22.043   4.138   8.284  1.00  0.00    -0.003 C 
ATOM     16  C   UNL     1     -22.145   5.578   8.780  1.00  0.00     0.004 C 
ENDBRANCH  14  15
ENDBRANCH  13  14
ENDBRANCH  12  13
ENDBRANCH  11  12
ENDBRANCH  10  11
ENDBRANCH   1  10
TORSDOF 12
ENDMDL
MODEL 4
REMARK VINA RESULT:    -2.515      3.018      5.737
REMARK INTER + INTRA:          -5.081
REMARK INTER:                  -4.302
REMARK INTRA:                  -0.779
REMARK UNBOUND:                -0.800
REMARK SMILES CCCCCCCCCCCCCC(=O)[O-]
REMARK SMILES IDX 8 1 9 2 10 3 11 4 12 5 13 6 14 7 15 8 16 9 7 10 6 11 5 12
REMARK SMILES IDX 4 13 3 14 2 15 1 16
REMARK H PARENT
REMARK Flexibility Score: inf
ROOT
ATOM      1  C   UNL     1     -20.700   0.906   7.464  1.00  0.00     0.000 C 
ENDROOT
BRANCH   1   2
ATOM      2  C   UNL     1     -21.159  -0.156   6.450  1.00  0.00     0.000 C 
BRANCH   2   3
ATOM      3  C   UNL     1     -20.987  -1.591   6.974  1.00  0.00     0.000 C 
BRANCH   3   4
ATOM      4  C   UNL     1     -20.739  -1.637   8.492  1.00  0.00     0.000 C 
BRANCH   4   5
ATOM      5  C   UNL     1     -20.463  -3.061   9.008  1.00  0.00     0.006 C 
BRANCH   5   6
ATOM      6  C   UNL     1     -19.938  -4.032   7.938  1.00  0.00     0.053 C 
BRANCH   6   7
ATOM      7  C   UNL     1     -20.397  -5.437   8.183  1.00  0.00     0.041 C 
ATOM      8  O   UNL     1     -19.762  -6.406   7.689  1.00  0.00    -0.550 OA
ATOM      9  O   UNL     1     -21.508  -5.677   8.981  1.00  0.00    -0.550 OA
ENDBRANCH   6   7
ENDBRANCH   5   6
ENDBRANCH   4   5
ENDBRANCH   3   4
ENDBRANCH   2   3
ENDBRANCH   1   2
BRANCH   1  10
ATOM     10  C   UNL     1     -21.697   2.070   7.598  1.00  0.00     0.000 C 
BRANCH  10  11
ATOM     11  C   UNL     1     -22.123   2.401   9.043  1.00  0.00    -0.000 C 
BRANCH  11  12
ATOM     12  C   UNL     1     -21.757   1.336  10.093  1.00  0.00    -0.000 C 
BRANCH  12  13
ATOM     13  C   UNL     1     -22.566   1.474  11.390  1.00  0.00    -0.000 C 
BRANCH  13  14
ATOM     14  C   UNL     1     -21.671   1.278  12.619  1.00  0.00    -0.000 C 
BRANCH  14  15
ATOM     15  C   UNL     1     -21.665  -0.187  13.068  1.00  0.00    -0.003 C 
ATOM     16  C   UNL     1     -21.144  -0.325  14.496  1.00  0.00     0.004 C 
ENDBRANCH  14  15
ENDBRANCH  13  14
ENDBRANCH  12  13
ENDBRANCH  11  12
ENDBRANCH  10  11
ENDBRANCH   1  10
TORSDOF 12
ENDMDL
MODEL 5
REMARK VINA RESULT:    -2.447      1.825      4.864
REMARK INTER + INTRA:          -4.965
REMARK INTER:                  -4.122
REMARK INTRA:                  -0.843
REMARK UNBOUND:                -0.800
REMARK SMILES CCCCCCCCCCCCCC(=O)[O-]
REMARK SMILES IDX 8 1 9 2 10 3 11 4 12 5 13 6 14 7 15 8 16 9 7 10 6 11 5 12
REMARK SMILES IDX 4 13 3 14 2 15 1 16
REMARK H PARENT
REMARK Flexibility Score: inf
ROOT
ATOM      1  C   UNL     1     -20.992   1.649   7.566  1.00  0.00     0.000 C 
ENDROOT
BRANCH   1   2
ATOM      2  C   UNL     1     -21.459   0.832   6.348  1.00  0.00     0.000 C 
BRANCH   2   3
ATOM      3  C   UNL     1     -20.632  -0.446   6.139  1.00  0.00     0.000 C 
BRANCH   3   4
ATOM      4  C   UNL     1     -21.295  -1.685   6.768  1.00  0.00     0.000 C 
BRANCH   4   5
ATOM      5  C   UNL     1     -20.568  -2.170   8.035  1.00  0.00     0.006 C 
BRANCH   5   6
ATOM      6  C   UNL     1     -20.880  -1.351   9.299  1.00  0.00     0.053 C 
BRANCH   6   7
ATOM      7  C   UNL     1     -20.385  -2.027  10.541  1.00  0.00     0.041 C 
ATOM      8  O   UNL     1     -19.149  -2.143  10.749  1.00  0.00    -0.550 OA
ATOM      9  O   UNL     1     -21.289  -2.500  11.483  1.00  0.00    -0.550 OA
ENDBRANCH   6   7
ENDBRANCH   5   6
ENDBRANCH   4   5
ENDBRANCH   3   4
ENDBRANCH   2   3
ENDBRANCH   1   2
BRANCH   1  10
ATOM     10  C   UNL     1     -22.011   2.722   7.988  1.00  0.00     0.000 C 
BRANCH  10  11
ATOM     11  C   UNL     1     -22.623   2.525   9.390  1.00  0.00    -0.000 C 
BRANCH  11  12
ATOM     12  C   UNL     1     -21.685   1.879  10.427  1.00  0.00    -0.000 C 
BRANCH  12  13
ATOM     13  C   UNL     1     -22.444   1.147  11.543  1.00  0.00    -0.000 C 
BRANCH  13  14
ATOM     14  C   UNL     1     -21.636   1.145  12.845  1.00  0.00    -0.000 C 
BRANCH  14  15
ATOM     15  C   UNL     1     -21.865  -0.150  13.633  1.00  0.00    -0.003 C 
ATOM     16  C   UNL     1     -20.873  -0.277  14.786  1.00  0.00     0.004 C 
ENDBRANCH  14  15
ENDBRANCH  13  14
ENDBRANCH  12  13
ENDBRANCH  11  12
ENDBRANCH  10  11
ENDBRANCH   1  10
TORSDOF 12
ENDMDL
MODEL 6
REMARK VINA RESULT:    -2.433      3.129      5.034
REMARK INTER + INTRA:          -4.941
REMARK INTER:                  -4.042
REMARK INTRA:                  -0.899
REMARK UNBOUND:                -0.800
REMARK SMILES CCCCCCCCCCCCCC(=O)[O-]
REMARK SMILES IDX 8 1 9 2 10 3 11 4 12 5 13 6 14 7 15 8 16 9 7 10 6 11 5 12
REMARK SMILES IDX 4 13 3 14 2 15 1 16
REMARK H PARENT
REMARK Flexibility Score: inf
ROOT
ATOM      1  C   UNL     1     -22.121   0.360  13.278  1.00  0.00     0.000 C 
ENDROOT
BRANCH   1   2
ATOM      2  C   UNL     1     -21.694   1.414  12.241  1.00  0.00     0.000 C 
BRANCH   2   3
ATOM      3  C   UNL     1     -22.634   1.464  11.026  1.00  0.00     0.000 C 
BRANCH   3   4
ATOM      4  C   UNL     1     -21.915   1.928   9.746  1.00  0.00     0.000 C 
BRANCH   4   5
ATOM      5  C   UNL     1     -21.441   0.754   8.870  1.00  0.00     0.006 C 
BRANCH   5   6
ATOM      6  C   UNL     1     -21.491   1.030   7.358  1.00  0.00     0.053 C 
BRANCH   6   7
ATOM      7  C   UNL     1     -21.102  -0.174   6.556  1.00  0.00     0.041 C 
ATOM      8  O   UNL     1     -21.787  -1.229   6.625  1.00  0.00    -0.550 OA
ATOM      9  O   UNL     1     -20.002  -0.121   5.710  1.00  0.00    -0.550 OA
ENDBRANCH   6   7
ENDBRANCH   5   6
ENDBRANCH   4   5
ENDBRANCH   3   4
ENDBRANCH   2   3
ENDBRANCH   1   2
BRANCH   1  10
ATOM     10  C   UNL     1     -21.143  -0.826  13.355  1.00  0.00     0.000 C 
BRANCH  10  11
ATOM     11  C   UNL     1     -21.299  -1.873  12.234  1.00  0.00    -0.000 C 
BRANCH  11  12
ATOM     12  C   UNL     1     -20.327  -1.713  11.050  1.00  0.00    -0.000 C 
BRANCH  12  13
ATOM     13  C   UNL     1     -20.845  -2.365   9.760  1.00  0.00    -0.000 C 
BRANCH  13  14
ATOM     14  C   UNL     1     -19.741  -3.179   9.076  1.00  0.00    -0.000 C 
BRANCH  14  15
ATOM     15  C   UNL     1     -20.314  -4.048   7.951  1.00  0.00    -0.003 C 
ATOM     16  C   UNL     1     -20.172  -5.533   8.273  1.00  0.00     0.004 C 
ENDBRANCH  14  15
ENDBRANCH  13  14
ENDBRANCH  12  13
ENDBRANCH  11  12
ENDBRANCH  10  11
ENDBRANCH   1  10
TORSDOF 12
ENDMDL
MODEL 7
REMARK VINA RESULT:    -2.412      3.293      5.041
REMARK INTER + INTRA:          -4.905
REMARK INTER:                  -4.201
REMARK INTRA:                  -0.705
REMARK UNBOUND:                -0.800
REMARK SMILES CCCCCCCCCCCCCC(=O)[O-]
REMARK SMILES IDX 8 1 9 2 10 3 11 4 12 5 13 6 14 7 15 8 16 9 7 10 6 11 5 12
REMARK SMILES IDX 4 13 3 14 2 15 1 16
REMARK H PARENT
REMARK Flexibility Score: inf
ROOT
ATOM      1  C   UNL     1     -20.528  -0.601   6.417  1.00  0.00     0.000 C 
ENDROOT
BRANCH   1   2
ATOM      2  C   UNL     1     -21.578   0.524   6.415  1.00  0.00     0.000 C 
BRANCH   2   3
ATOM      3  C   UNL     1     -21.202   1.688   7.345  1.00  0.00     0.000 C 
BRANCH   3   4
ATOM      4  C   UNL     1     -21.742   1.498   8.773  1.00  0.00     0.000 C 
BRANCH   4   5
ATOM      5  C   UNL     1     -22.169   2.824   9.429  1.00  0.00     0.006 C 
BRANCH   5   6
ATOM      6  C   UNL     1     -22.592   3.917   8.434  1.00  0.00     0.053 C 
BRANCH   6   7
ATOM      7  C   UNL     1     -22.002   5.249   8.782  1.00  0.00     0.041 C 
ATOM      8  O   UNL     1     -21.113   5.336   9.669  1.00  0.00    -0.550 OA
ATOM      9  O   UNL     1     -22.412   6.390   8.104  1.00  0.00    -0.550 OA
ENDBRANCH   6   7
ENDBRANCH   5   6
ENDBRANCH   4   5
ENDBRANCH   3   4
ENDBRANCH   2   3
ENDBRANCH   1   2
BRANCH   1  10
ATOM     10  C   UNL     1     -21.039  -1.888   7.090  1.00  0.00     0.000 C 
BRANCH  10  11
ATOM     11  C   UNL     1     -20.350  -2.243   8.424  1.00  0.00    -0.000 C 
BRANCH  11  12
ATOM     12  C   UNL     1     -20.938  -1.552   9.668  1.00  0.00    -0.000 C 
BRANCH  12  13
ATOM     13  C   UNL     1     -20.214  -1.940  10.965  1.00  0.00    -0.000 C 
BRANCH  13  14
ATOM     14  C   UNL     1     -21.183  -1.953  12.151  1.00  0.00    -0.000 C 
BRANCH  14  15
ATOM     15  C   UNL     1     -21.214  -0.589  12.852  1.00  0.00    -0.003 C 
ATOM     16  C   UNL     1     -21.610  -0.731  14.318  1.00  0.00     0.004 C 
ENDBRANCH  14  15
ENDBRANCH  13  14
ENDBRANCH  12  13
ENDBRANCH  11  12
ENDBRANCH  10  11
ENDBRANCH   1  10
TORSDOF 12
ENDMDL
MODEL 8
REMARK VINA RESULT:    -2.307      1.093      4.182
REMARK INTER + INTRA:          -4.726
REMARK INTER:                  -3.918
REMARK INTRA:                  -0.808
REMARK UNBOUND:                -0.800
REMARK SMILES CCCCCCCCCCCCCC(=O)[O-]
REMARK SMILES IDX 8 1 9 2 10 3 11 4 12 5 13 6 14 7 15 8 16 9 7 10 6 11 5 12
REMARK SMILES IDX 4 13 3 14 2 15 1 16
REMARK H PARENT
REMARK Flexibility Score: inf
ROOT
ATOM      1  C   UNL     1     -21.285  -1.818   7.484  1.00  0.00     0.000 C 
ENDROOT
BRANCH   1   2
ATOM      2  C   UNL     1     -20.297  -2.825   8.099  1.00  0.00     0.000 C 
BRANCH   2   3
ATOM      3  C   UNL     1     -19.828  -2.414   9.504  1.00  0.00     0.000 C 
BRANCH   3   4
ATOM      4  C   UNL     1     -21.001  -2.193  10.475  1.00  0.00     0.000 C 
BRANCH   4   5
ATOM      5  C   UNL     1     -20.538  -1.813  11.893  1.00  0.00     0.006 C 
BRANCH   5   6
ATOM      6  C   UNL     1     -21.599  -2.023  12.985  1.00  0.00     0.053 C 
BRANCH   6   7
ATOM      7  C   UNL     1     -21.623  -0.893  13.967  1.00  0.00     0.041 C 
ATOM      8  O   UNL     1     -22.716  -0.353  14.285  1.00  0.00    -0.550 OA
ATOM      9  O   UNL     1     -20.443  -0.457  14.556  1.00  0.00    -0.550 OA
ENDBRANCH   6   7
ENDBRANCH   5   6
ENDBRANCH   4   5
ENDBRANCH   3   4
ENDBRANCH   2   3
ENDBRANCH   1   2
BRANCH   1  10
ATOM     10  C   UNL     1     -20.632  -0.924   6.415  1.00  0.00     0.000 C 
BRANCH  10  11
ATOM     11  C   UNL     1     -21.364   0.406   6.143  1.00  0.00    -0.000 C 
BRANCH  11  12
ATOM     12  C   UNL     1     -20.985   1.566   7.083  1.00  0.00    -0.000 C 
BRANCH  12  13
ATOM     13  C   UNL     1     -21.378   1.303   8.544  1.00  0.00    -0.000 C 
BRANCH  13  14
ATOM     14  C   UNL     1     -22.300   2.409   9.070  1.00  0.00    -0.000 C 
BRANCH  14  15
ATOM     15  C   UNL     1     -23.026   1.960  10.343  1.00  0.00    -0.003 C 
ATOM     16  C   UNL     1     -22.040   1.449  11.390  1.00  0.00     0.004 C 
ENDBRANCH  14  15
ENDBRANCH  13  14
ENDBRANCH  12  13
ENDBRANCH  11  12
ENDBRANCH  10  11
ENDBRANCH   1  10
TORSDOF 12
ENDMDL
MODEL 9
REMARK VINA RESULT:    -2.255      2.464      5.471
REMARK INTER + INTRA:          -4.638
REMARK INTER:                  -3.794
REMARK INTRA:                  -0.844
REMARK UNBOUND:                -0.800
REMARK SMILES CCCCCCCCCCCCCC(=O)[O-]
REMARK SMILES IDX 8 1 9 2 10 3 11 4 12 5 13 6 14 7 15 8 16 9 7 10 6 11 5 12
REMARK SMILES IDX 4 13 3 14 2 15 1 16
REMARK H PARENT
REMARK Flexibility Score: inf
ROOT
ATOM      1  C   UNL     1     -20.599  -2.625   8.089  1.00  0.00     0.000 C 
ENDROOT
BRANCH   1   2
ATOM      2  C   UNL     1     -20.584  -1.798   6.792  1.00  0.00     0.000 C 
BRANCH   2   3
ATOM      3  C   UNL     1     -21.739  -0.787   6.720  1.00  0.00     0.000 C 
BRANCH   3   4
ATOM      4  C   UNL     1     -21.310   0.553   6.095  1.00  0.00     0.000 C 
BRANCH   4   5
ATOM      5  C   UNL     1     -21.087   1.656   7.145  1.00  0.00     0.006 C 
BRANCH   5   6
ATOM      6  C   UNL     1     -21.589   1.301   8.554  1.00  0.00     0.053 C 
BRANCH   6   7
ATOM      7  C   UNL     1     -22.464   2.374   9.125  1.00  0.00     0.041 C 
ATOM      8  O   UNL     1     -23.213   2.126  10.106  1.00  0.00    -0.550 OA
ATOM      9  O   UNL     1     -22.430   3.657   8.592  1.00  0.00    -0.550 OA
ENDBRANCH   6   7
ENDBRANCH   5   6
ENDBRANCH   4   5
ENDBRANCH   3   4
ENDBRANCH   2   3
ENDBRANCH   1   2
BRANCH   1  10
ATOM     10  C   UNL     1     -20.529  -1.749   9.353  1.00  0.00     0.000 C 
BRANCH  10  11
ATOM     11  C   UNL     1     -21.003  -2.435  10.650  1.00  0.00    -0.000 C 
BRANCH  11  12
ATOM     12  C   UNL     1     -20.457  -1.821  11.952  1.00  0.00    -0.000 C 
BRANCH  12  13
ATOM     13  C   UNL     1     -21.485  -1.831  13.093  1.00  0.00    -0.000 C 
BRANCH  13  14
ATOM     14  C   UNL     1     -21.555  -0.463  13.780  1.00  0.00    -0.000 C 
BRANCH  14  15
ATOM     15  C   UNL     1     -22.092   0.607  12.821  1.00  0.00    -0.003 C 
ATOM     16  C   UNL     1     -21.366   1.935  13.013  1.00  0.00     0.004 C 
ENDBRANCH  14  15
ENDBRANCH  13  14
ENDBRANCH  12  13
ENDBRANCH  11  12
ENDBRANCH  10  11
ENDBRANCH   1  10
TORSDOF 12
ENDMDL
