MODEL 1
REMARK VINA RESULT:    -4.454      0.000      0.000
REMARK INTER + INTRA:          -4.584
REMARK INTER:                  -4.584
REMARK INTRA:                   0.000
REMARK UNBOUND:                 0.000
REMARK SMILES O=c1ccc2ccc(O)cc2o1
REMARK SMILES IDX 6 1 7 2 8 3 10 4 11 5 5 6 4 7 3 8 2 9 1 10 12 11 9 12
REMARK H PARENT 9 13
REMARK Flexibility Score: inf
ROOT
ATOM      1  C   UNL     1      32.128  31.743  25.771  1.00  0.00     0.016 A 
ATOM      2  C   UNL     1      31.188  32.363  24.939  1.00  0.00     0.047 A 
ATOM      3  C   UNL     1      29.847  31.954  24.960  1.00  0.00     0.119 A 
ATOM      4  C   UNL     1      29.444  30.922  25.815  1.00  0.00     0.094 A 
ATOM      5  C   UNL     1      30.375  30.296  26.650  1.00  0.00     0.142 A 
ATOM      6  C   UNL     1      31.726  30.710  26.628  1.00  0.00     0.018 A 
ATOM      7  C   UNL     1      32.634  30.066  27.474  1.00  0.00     0.019 A 
ATOM      8  C   UNL     1      32.185  29.043  28.308  1.00  0.00     0.094 A 
ATOM      9  C   UNL     1      30.833  28.686  28.277  1.00  0.00     0.336 A 
ATOM     10  O   UNL     1      30.408  27.765  29.023  1.00  0.00    -0.246 OA
ATOM     11  O   UNL     1      29.989  29.316  27.462  1.00  0.00    -0.423 OA
ENDROOT
BRANCH   3  12
ATOM     12  O   UNL     1      28.907  32.567  24.134  1.00  0.00    -0.508 OA
ATOM     13  H   UNL     1      28.426  32.052  23.406  1.00  0.00     0.293 HD
ENDBRANCH   3  12
TORSDOF 1
ENDMDL
MODEL 2
REMARK VINA RESULT:    -4.358     13.700     15.047
REMARK INTER + INTRA:          -4.485
REMARK INTER:                  -4.485
REMARK INTRA:                   0.000
REMARK UNBOUND:                 0.000
REMARK SMILES O=c1ccc2ccc(O)cc2o1
REMARK SMILES IDX 6 1 7 2 8 3 10 4 11 5 5 6 4 7 3 8 2 9 1 10 12 11 9 12
REMARK H PARENT 9 13
REMARK Flexibility Score: inf
ROOT
ATOM      1  C   UNL     1      44.905  30.124  29.489  1.00  0.00     0.016 A 
ATOM      2  C   UNL     1      43.565  30.221  29.099  1.00  0.00     0.047 A 
ATOM      3  C   UNL     1      43.119  29.580  27.934  1.00  0.00     0.119 A 
ATOM      4  C   UNL     1      44.017  28.840  27.157  1.00  0.00     0.094 A 
ATOM      5  C   UNL     1      45.359  28.736  27.537  1.00  0.00     0.142 A 
ATOM      6  C   UNL     1      45.806  29.382  28.711  1.00  0.00     0.018 A 
ATOM      7  C   UNL     1      47.152  29.262  29.068  1.00  0.00     0.019 A 
ATOM      8  C   UNL     1      48.009  28.513  28.261  1.00  0.00     0.094 A 
ATOM      9  C   UNL     1      47.496  27.900  27.112  1.00  0.00     0.336 A 
ATOM     10  O   UNL     1      48.252  27.220  26.371  1.00  0.00    -0.246 OA
ATOM     11  O   UNL     1      46.209  28.031  26.796  1.00  0.00    -0.423 OA
ENDROOT
BRANCH   3  12
ATOM     12  O   UNL     1      41.785  29.673  27.540  1.00  0.00    -0.508 OA
ATOM     13  H   UNL     1      41.279  30.549  27.590  1.00  0.00     0.293 HD
ENDBRANCH   3  12
TORSDOF 1
ENDMDL
MODEL 3
REMARK VINA RESULT:    -4.332     14.380     15.961
REMARK INTER + INTRA:          -4.458
REMARK INTER:                  -4.458
REMARK INTRA:                   0.000
REMARK UNBOUND:                 0.000
REMARK SMILES O=c1ccc2ccc(O)cc2o1
REMARK SMILES IDX 6 1 7 2 8 3 10 4 11 5 5 6 4 7 3 8 2 9 1 10 12 11 9 12
REMARK H PARENT 9 13
REMARK Flexibility Score: inf
ROOT
ATOM      1  C   UNL     1      44.557  28.871  28.653  1.00  0.00     0.016 A 
ATOM      2  C   UNL     1      45.396  28.055  29.421  1.00  0.00     0.047 A 
ATOM      3  C   UNL     1      46.755  27.932  29.094  1.00  0.00     0.119 A 
ATOM      4  C   UNL     1      47.274  28.625  27.995  1.00  0.00     0.094 A 
ATOM      5  C   UNL     1      46.444  29.442  27.220  1.00  0.00     0.142 A 
ATOM      6  C   UNL     1      45.076  29.566  27.553  1.00  0.00     0.018 A 
ATOM      7  C   UNL     1      44.270  30.390  26.761  1.00  0.00     0.019 A 
ATOM      8  C   UNL     1      44.834  31.061  25.676  1.00  0.00     0.094 A 
ATOM      9  C   UNL     1      46.197  30.891  25.407  1.00  0.00     0.336 A 
ATOM     10  O   UNL     1      46.725  31.487  24.433  1.00  0.00    -0.246 OA
ATOM     11  O   UNL     1      46.942  30.100  26.177  1.00  0.00    -0.423 OA
ENDROOT
BRANCH   3  12
ATOM     12  O   UNL     1      47.595  27.121  29.854  1.00  0.00    -0.508 OA
ATOM     13  H   UNL     1      47.557  26.111  29.789  1.00  0.00     0.293 HD
ENDBRANCH   3  12
TORSDOF 1
ENDMDL
MODEL 4
REMARK VINA RESULT:    -4.229      3.244      3.902
REMARK INTER + INTRA:          -4.352
REMARK INTER:                  -4.352
REMARK INTRA:                   0.000
REMARK UNBOUND:                 0.000
REMARK SMILES O=c1ccc2ccc(O)cc2o1
REMARK SMILES IDX 6 1 7 2 8 3 10 4 11 5 5 6 4 7 3 8 2 9 1 10 12 11 9 12
REMARK H PARENT 9 13
REMARK Flexibility Score: inf
ROOT
ATOM      1  C   UNL     1      30.073  31.979  26.088  1.00  0.00     0.016 A 
ATOM      2  C   UNL     1      29.313  31.882  24.917  1.00  0.00     0.047 A 
ATOM      3  C   UNL     1      29.930  32.004  23.663  1.00  0.00     0.119 A 
ATOM      4  C   UNL     1      31.309  32.225  23.581  1.00  0.00     0.094 A 
ATOM      5  C   UNL     1      32.078  32.323  24.746  1.00  0.00     0.142 A 
ATOM      6  C   UNL     1      31.455  32.199  26.008  1.00  0.00     0.018 A 
ATOM      7  C   UNL     1      32.247  32.302  27.155  1.00  0.00     0.019 A 
ATOM      8  C   UNL     1      33.618  32.522  27.022  1.00  0.00     0.094 A 
ATOM      9  C   UNL     1      34.166  32.634  25.740  1.00  0.00     0.336 A 
ATOM     10  O   UNL     1      35.401  32.832  25.599  1.00  0.00    -0.246 OA
ATOM     11  O   UNL     1      33.388  32.532  24.664  1.00  0.00    -0.423 OA
ENDROOT
BRANCH   3  12
ATOM     12  O   UNL     1      29.179  31.910  22.493  1.00  0.00    -0.508 OA
ATOM     13  H   UNL     1      29.444  32.408  21.652  1.00  0.00     0.293 HD
ENDBRANCH   3  12
TORSDOF 1
ENDMDL
MODEL 5
REMARK VINA RESULT:    -4.181     13.970     14.903
REMARK INTER + INTRA:          -4.303
REMARK INTER:                  -4.303
REMARK INTRA:                   0.000
REMARK UNBOUND:                 0.000
REMARK SMILES O=c1ccc2ccc(O)cc2o1
REMARK SMILES IDX 6 1 7 2 8 3 10 4 11 5 5 6 4 7 3 8 2 9 1 10 12 11 9 12
REMARK H PARENT 9 13
REMARK Flexibility Score: inf
ROOT
ATOM      1  C   UNL     1      44.095  30.498  26.528  1.00  0.00     0.016 A 
ATOM      2  C   UNL     1      44.998  31.051  25.613  1.00  0.00     0.047 A 
ATOM      3  C   UNL     1      46.350  30.678  25.641  1.00  0.00     0.119 A 
ATOM      4  C   UNL     1      46.799  29.749  26.587  1.00  0.00     0.094 A 
ATOM      5  C   UNL     1      45.904  29.191  27.506  1.00  0.00     0.142 A 
ATOM      6  C   UNL     1      44.543  29.567  27.475  1.00  0.00     0.018 A 
ATOM      7  C   UNL     1      43.671  28.993  28.405  1.00  0.00     0.019 A 
ATOM      8  C   UNL     1      44.167  28.072  29.329  1.00  0.00     0.094 A 
ATOM      9  C   UNL     1      45.527  27.746  29.299  1.00  0.00     0.336 A 
ATOM     10  O   UNL     1      45.993  26.917  30.124  1.00  0.00    -0.246 OA
ATOM     11  O   UNL     1      46.335  28.308  28.403  1.00  0.00    -0.423 OA
ENDROOT
BRANCH   3  12
ATOM     12  O   UNL     1      47.254  31.226  24.734  1.00  0.00    -0.508 OA
ATOM     13  H   UNL     1      47.726  30.652  24.045  1.00  0.00     0.293 HD
ENDBRANCH   3  12
TORSDOF 1
ENDMDL
MODEL 6
REMARK VINA RESULT:    -4.025     13.340     14.741
REMARK INTER + INTRA:          -4.142
REMARK INTER:                  -4.142
REMARK INTRA:                   0.000
REMARK UNBOUND:                 0.000
REMARK SMILES O=c1ccc2ccc(O)cc2o1
REMARK SMILES IDX 6 1 7 2 8 3 10 4 11 5 5 6 4 7 3 8 2 9 1 10 12 11 9 12
REMARK H PARENT 9 13
REMARK Flexibility Score: inf
ROOT
ATOM      1  C   UNL     1      46.995  28.183  29.170  1.00  0.00     0.016 A 
ATOM      2  C   UNL     1      47.405  29.155  28.251  1.00  0.00     0.047 A 
ATOM      3  C   UNL     1      46.478  29.734  27.372  1.00  0.00     0.119 A 
ATOM      4  C   UNL     1      45.136  29.338  27.413  1.00  0.00     0.094 A 
ATOM      5  C   UNL     1      44.715  28.367  28.328  1.00  0.00     0.142 A 
ATOM      6  C   UNL     1      45.651  27.786  29.213  1.00  0.00     0.018 A 
ATOM      7  C   UNL     1      45.203  26.818  30.117  1.00  0.00     0.019 A 
ATOM      8  C   UNL     1      43.856  26.457  30.119  1.00  0.00     0.094 A 
ATOM      9  C   UNL     1      42.986  27.075  29.215  1.00  0.00     0.336 A 
ATOM     10  O   UNL     1      41.766  26.763  29.201  1.00  0.00    -0.246 OA
ATOM     11  O   UNL     1      43.439  27.994  28.364  1.00  0.00    -0.423 OA
ENDROOT
BRANCH   3  12
ATOM     12  O   UNL     1      46.880  30.701  26.454  1.00  0.00    -0.508 OA
ATOM     13  H   UNL     1      47.666  31.314  26.640  1.00  0.00     0.293 HD
ENDBRANCH   3  12
TORSDOF 1
ENDMDL
MODEL 7
REMARK VINA RESULT:    -3.974     13.718     15.330
REMARK INTER + INTRA:          -4.090
REMARK INTER:                  -4.090
REMARK INTRA:                   0.000
REMARK UNBOUND:                 0.000
REMARK SMILES O=c1ccc2ccc(O)cc2o1
REMARK SMILES IDX 6 1 7 2 8 3 10 4 11 5 5 6 4 7 3 8 2 9 1 10 12 11 9 12
REMARK H PARENT 9 13
REMARK Flexibility Score: inf
ROOT
ATOM      1  C   UNL     1      46.895  29.392  29.385  1.00  0.00     0.016 A 
ATOM      2  C   UNL     1      47.929  28.618  28.848  1.00  0.00     0.047 A 
ATOM      3  C   UNL     1      47.701  27.823  27.715  1.00  0.00     0.119 A 
ATOM      4  C   UNL     1      46.436  27.804  27.118  1.00  0.00     0.094 A 
ATOM      5  C   UNL     1      45.395  28.575  27.647  1.00  0.00     0.142 A 
ATOM      6  C   UNL     1      45.627  29.375  28.788  1.00  0.00     0.018 A 
ATOM      7  C   UNL     1      44.568  30.135  29.296  1.00  0.00     0.019 A 
ATOM      8  C   UNL     1      43.325  30.082  28.666  1.00  0.00     0.094 A 
ATOM      9  C   UNL     1      43.169  29.268  27.539  1.00  0.00     0.336 A 
ATOM     10  O   UNL     1      42.055  29.206  26.956  1.00  0.00    -0.246 OA
ATOM     11  O   UNL     1      44.194  28.554  27.077  1.00  0.00    -0.423 OA
ENDROOT
BRANCH   3  12
ATOM     12  O   UNL     1      48.726  27.049  27.175  1.00  0.00    -0.508 OA
ATOM     13  H   UNL     1      48.533  26.272  26.555  1.00  0.00     0.293 HD
ENDBRANCH   3  12
TORSDOF 1
ENDMDL
MODEL 8
REMARK VINA RESULT:    -3.878      3.215      4.466
REMARK INTER + INTRA:          -3.991
REMARK INTER:                  -3.991
REMARK INTRA:                   0.000
REMARK UNBOUND:                 0.000
REMARK SMILES O=c1ccc2ccc(O)cc2o1
REMARK SMILES IDX 6 1 7 2 8 3 10 4 11 5 5 6 4 7 3 8 2 9 1 10 12 11 9 12
REMARK H PARENT 9 13
REMARK Flexibility Score: inf
ROOT
ATOM      1  C   UNL     1      31.395  31.994  24.355  1.00  0.00     0.016 A 
ATOM      2  C   UNL     1      30.327  31.775  25.232  1.00  0.00     0.047 A 
ATOM      3  C   UNL     1      30.525  31.852  26.619  1.00  0.00     0.119 A 
ATOM      4  C   UNL     1      31.794  32.146  27.129  1.00  0.00     0.094 A 
ATOM      5  C   UNL     1      32.869  32.366  26.260  1.00  0.00     0.142 A 
ATOM      6  C   UNL     1      32.667  32.289  24.864  1.00  0.00     0.018 A 
ATOM      7  C   UNL     1      33.759  32.514  24.020  1.00  0.00     0.019 A 
ATOM      8  C   UNL     1      35.005  32.804  24.575  1.00  0.00     0.094 A 
ATOM      9  C   UNL     1      35.130  32.864  25.967  1.00  0.00     0.336 A 
ATOM     10  O   UNL     1      36.245  33.125  26.488  1.00  0.00    -0.246 OA
ATOM     11  O   UNL     1      34.074  32.646  26.748  1.00  0.00    -0.423 OA
ENDROOT
BRANCH   3  12
ATOM     12  O   UNL     1      29.466  31.635  27.498  1.00  0.00    -0.508 OA
ATOM     13  H   UNL     1      28.679  31.049  27.245  1.00  0.00     0.293 HD
ENDBRANCH   3  12
TORSDOF 1
ENDMDL
MODEL 9
REMARK VINA RESULT:    -3.835      1.377      4.199
REMARK INTER + INTRA:          -3.947
REMARK INTER:                  -3.947
REMARK INTRA:                   0.000
REMARK UNBOUND:                 0.000
REMARK SMILES O=c1ccc2ccc(O)cc2o1
REMARK SMILES IDX 6 1 7 2 8 3 10 4 11 5 5 6 4 7 3 8 2 9 1 10 12 11 9 12
REMARK H PARENT 9 13
REMARK Flexibility Score: inf
ROOT
ATOM      1  C   UNL     1      32.651  29.080  28.239  1.00  0.00     0.016 A 
ATOM      2  C   UNL     1      31.667  28.203  28.710  1.00  0.00     0.047 A 
ATOM      3  C   UNL     1      30.361  28.269  28.205  1.00  0.00     0.119 A 
ATOM      4  C   UNL     1      30.037  29.215  27.226  1.00  0.00     0.094 A 
ATOM      5  C   UNL     1      31.013  30.097  26.748  1.00  0.00     0.142 A 
ATOM      6  C   UNL     1      32.328  30.028  27.258  1.00  0.00     0.018 A 
ATOM      7  C   UNL     1      33.283  30.922  26.763  1.00  0.00     0.019 A 
ATOM      8  C   UNL     1      32.912  31.847  25.787  1.00  0.00     0.094 A 
ATOM      9  C   UNL     1      31.591  31.857  25.329  1.00  0.00     0.336 A 
ATOM     10  O   UNL     1      31.236  32.684  24.449  1.00  0.00    -0.246 OA
ATOM     11  O   UNL     1      30.701  30.994  25.818  1.00  0.00    -0.423 OA
ENDROOT
BRANCH   3  12
ATOM     12  O   UNL     1      29.377  27.399  28.670  1.00  0.00    -0.508 OA
ATOM     13  H   UNL     1      29.379  27.059  29.624  1.00  0.00     0.293 HD
ENDBRANCH   3  12
TORSDOF 1
ENDMDL
