MODEL 1
REMARK VINA RESULT:    -7.715      0.000      0.000
REMARK INTER + INTRA:         -12.715
REMARK INTER:                 -10.196
REMARK INTRA:                  -2.519
REMARK UNBOUND:                -2.519
REMARK SMILES CC[C@@H](C=C[C@H](C)[C@@H]1CC[C@H]2[C@H]3CC=C4C[C@H](O)CC[C@@]4(C)[C@H]3CC[C@@]21C)C(C)C
REMARK SMILES IDX 6 1 7 2 5 3 4 4 3 5 2 6 1 7 28 8 29 9 30 10 8 11 9 12 26 13
REMARK SMILES IDX 10 14 11 15 25 16 27 17 12 18 24 19 23 20 13 21 21 22 14 23
REMARK SMILES IDX 15 24 20 25 22 26 16 27 19 28 17 29 18 30
REMARK H PARENT 18 31
REMARK Flexibility Score: inf
ROOT
ATOM      1  C   UNL     1     114.310 122.779 128.456  1.00  0.00     0.012 C 
ATOM      2  C   UNL     1     113.370 122.616 127.248  1.00  0.00     0.012 C 
ENDROOT
BRANCH   1   3
ATOM      3  C   UNL     1     114.821 124.203 128.690  1.00  0.00    -0.028 C 
ATOM      4  C   UNL     1     116.080 124.700 128.741  1.00  0.00    -0.027 C 
BRANCH   4   5
ATOM      5  C   UNL     1     117.402 123.955 128.676  1.00  0.00     0.014 C 
BRANCH   5   6
ATOM      6  C   UNL     1     118.122 124.144 130.038  1.00  0.00     0.004 C 
ATOM      7  C   UNL     1     117.430 125.128 130.980  1.00  0.00     0.004 C 
ENDBRANCH   5   6
BRANCH   5   8
ATOM      8  C   UNL     1     118.197 124.431 127.412  1.00  0.00    -0.011 C 
ATOM      9  C   UNL     1     119.302 123.445 126.998  1.00  0.00     0.008 C 
ATOM     10  C   UNL     1     118.758 125.858 127.519  1.00  0.00     0.008 C 
ENDBRANCH   5   8
ENDBRANCH   4   5
ENDBRANCH   1   3
BRANCH   1  11
ATOM     11  C   UNL     1     113.782 122.021 129.727  1.00  0.00     0.002 C 
ATOM     12  C   UNL     1     113.008 122.923 130.725  1.00  0.00     0.005 C 
ATOM     13  C   UNL     1     114.835 121.283 130.625  1.00  0.00    -0.026 C 
ATOM     14  C   UNL     1     113.839 123.020 132.016  1.00  0.00     0.005 C 
ATOM     15  C   UNL     1     115.166 122.359 131.664  1.00  0.00    -0.001 C 
ATOM     16  C   UNL     1     116.163 120.839 129.973  1.00  0.00     0.007 C 
ATOM     17  C   UNL     1     114.127 120.022 131.213  1.00  0.00     0.012 C 
ATOM     18  C   UNL     1     116.133 121.938 132.796  1.00  0.00     0.000 C 
ATOM     19  C   UNL     1     117.186 120.343 131.021  1.00  0.00     0.005 C 
ATOM     20  C   UNL     1     117.455 121.350 132.192  1.00  0.00     0.003 C 
ATOM     21  C   UNL     1     115.502 121.094 133.940  1.00  0.00     0.031 C 
ATOM     22  C   UNL     1     118.390 120.777 133.331  1.00  0.00    -0.008 C 
ATOM     23  C   UNL     1     116.303 119.898 134.388  1.00  0.00    -0.027 C 
ATOM     24  C   UNL     1     117.622 119.740 134.150  1.00  0.00    -0.065 C 
ATOM     25  C   UNL     1     119.693 120.153 132.726  1.00  0.00     0.014 C 
ATOM     26  C   UNL     1     118.812 121.929 134.286  1.00  0.00     0.016 C 
ATOM     27  C   UNL     1     118.370 118.702 134.968  1.00  0.00     0.063 C 
ATOM     28  C   UNL     1     120.489 119.296 133.718  1.00  0.00     0.033 C 
ATOM     29  C   UNL     1     119.606 118.157 134.242  1.00  0.00     0.118 C 
BRANCH  29  30
ATOM     30  O   UNL     1     120.342 117.306 135.086  1.00  0.00    -0.393 OA
ATOM     31  H   UNL     1     119.777 117.106 135.879  1.00  0.00     0.210 HD
ENDBRANCH  29  30
ENDBRANCH   1  11
TORSDOF 6
ENDMDL
MODEL 2
REMARK VINA RESULT:    -6.875      2.879      5.597
REMARK INTER + INTRA:         -11.604
REMARK INTER:                  -8.839
REMARK INTRA:                  -2.765
REMARK UNBOUND:                -2.519
REMARK SMILES CC[C@@H](C=C[C@H](C)[C@@H]1CC[C@H]2[C@H]3CC=C4C[C@H](O)CC[C@@]4(C)[C@H]3CC[C@@]21C)C(C)C
REMARK SMILES IDX 6 1 7 2 5 3 4 4 3 5 2 6 1 7 28 8 29 9 30 10 8 11 9 12 26 13
REMARK SMILES IDX 10 14 11 15 25 16 27 17 12 18 24 19 23 20 13 21 21 22 14 23
REMARK SMILES IDX 15 24 20 25 22 26 16 27 19 28 17 29 18 30
REMARK H PARENT 18 31
REMARK Flexibility Score: inf
ROOT
ATOM      1  C   UNL     1     114.510 120.829 131.671  1.00  0.00     0.012 C 
ATOM      2  C   UNL     1     113.680 119.982 132.653  1.00  0.00     0.012 C 
ENDROOT
BRANCH   1   3
ATOM      3  C   UNL     1     113.848 122.136 131.225  1.00  0.00    -0.028 C 
ATOM      4  C   UNL     1     113.777 122.728 130.009  1.00  0.00    -0.027 C 
BRANCH   4   5
ATOM      5  C   UNL     1     114.435 122.311 128.706  1.00  0.00     0.014 C 
BRANCH   5   6
ATOM      6  C   UNL     1     115.131 123.559 128.103  1.00  0.00     0.004 C 
ATOM      7  C   UNL     1     115.227 124.746 129.061  1.00  0.00     0.004 C 
ENDBRANCH   5   6
BRANCH   5   8
ATOM      8  C   UNL     1     113.368 121.617 127.792  1.00  0.00    -0.011 C 
ATOM      9  C   UNL     1     113.807 120.221 127.318  1.00  0.00     0.008 C 
ATOM     10  C   UNL     1     112.904 122.471 126.601  1.00  0.00     0.008 C 
ENDBRANCH   5   8
ENDBRANCH   4   5
ENDBRANCH   1   3
BRANCH   1  11
ATOM     11  C   UNL     1     116.016 120.935 132.104  1.00  0.00     0.002 C 
ATOM     12  C   UNL     1     116.410 122.318 132.690  1.00  0.00     0.005 C 
ATOM     13  C   UNL     1     117.109 120.664 131.012  1.00  0.00    -0.026 C 
ATOM     14  C   UNL     1     117.393 122.982 131.711  1.00  0.00     0.005 C 
ATOM     15  C   UNL     1     117.380 122.078 130.485  1.00  0.00    -0.001 C 
ATOM     16  C   UNL     1     116.726 119.781 129.804  1.00  0.00     0.007 C 
ATOM     17  C   UNL     1     118.325 120.008 131.738  1.00  0.00     0.012 C 
ATOM     18  C   UNL     1     118.502 122.206 129.428  1.00  0.00     0.000 C 
ATOM     19  C   UNL     1     117.815 119.796 128.706  1.00  0.00     0.005 C 
ATOM     20  C   UNL     1     118.238 121.229 128.231  1.00  0.00     0.003 C 
ATOM     21  C   UNL     1     119.955 122.186 129.984  1.00  0.00     0.031 C 
ATOM     22  C   UNL     1     119.450 121.239 127.216  1.00  0.00    -0.008 C 
ATOM     23  C   UNL     1     120.932 121.322 129.227  1.00  0.00    -0.027 C 
ATOM     24  C   UNL     1     120.742 120.900 127.959  1.00  0.00    -0.065 C 
ATOM     25  C   UNL     1     119.205 120.232 126.041  1.00  0.00     0.014 C 
ATOM     26  C   UNL     1     119.604 122.659 126.603  1.00  0.00     0.016 C 
ATOM     27  C   UNL     1     121.947 120.373 127.201  1.00  0.00     0.063 C 
ATOM     28  C   UNL     1     120.456 119.944 125.202  1.00  0.00     0.033 C 
ATOM     29  C   UNL     1     121.562 119.376 126.099  1.00  0.00     0.118 C 
BRANCH  29  30
ATOM     30  O   UNL     1     122.688 119.022 125.336  1.00  0.00    -0.393 OA
ATOM     31  H   UNL     1     122.801 119.709 124.628  1.00  0.00     0.210 HD
ENDBRANCH  29  30
ENDBRANCH   1  11
TORSDOF 6
ENDMDL
MODEL 3
REMARK VINA RESULT:    -6.758      2.816      5.959
REMARK INTER + INTRA:         -11.450
REMARK INTER:                  -8.989
REMARK INTRA:                  -2.461
REMARK UNBOUND:                -2.519
REMARK SMILES CC[C@@H](C=C[C@H](C)[C@@H]1CC[C@H]2[C@H]3CC=C4C[C@H](O)CC[C@@]4(C)[C@H]3CC[C@@]21C)C(C)C
REMARK SMILES IDX 6 1 7 2 5 3 4 4 3 5 2 6 1 7 28 8 29 9 30 10 8 11 9 12 26 13
REMARK SMILES IDX 10 14 11 15 25 16 27 17 12 18 24 19 23 20 13 21 21 22 14 23
REMARK SMILES IDX 15 24 20 25 22 26 16 27 19 28 17 29 18 30
REMARK H PARENT 18 31
REMARK Flexibility Score: inf
ROOT
ATOM      1  C   UNL     1     115.190 121.955 132.121  1.00  0.00     0.012 C 
ATOM      2  C   UNL     1     115.180 121.331 133.529  1.00  0.00     0.012 C 
ENDROOT
BRANCH   1   3
ATOM      3  C   UNL     1     113.806 122.195 131.512  1.00  0.00    -0.028 C 
ATOM      4  C   UNL     1     113.372 122.120 130.232  1.00  0.00    -0.027 C 
BRANCH   4   5
ATOM      5  C   UNL     1     114.173 121.861 128.967  1.00  0.00     0.014 C 
BRANCH   5   6
ATOM      6  C   UNL     1     113.621 122.791 127.855  1.00  0.00     0.004 C 
ATOM      7  C   UNL     1     112.581 123.799 128.342  1.00  0.00     0.004 C 
ENDBRANCH   5   6
BRANCH   5   8
ATOM      8  C   UNL     1     114.146 120.326 128.649  1.00  0.00    -0.011 C 
ATOM      9  C   UNL     1     115.445 119.611 129.058  1.00  0.00     0.008 C 
ATOM     10  C   UNL     1     113.778 119.989 127.195  1.00  0.00     0.008 C 
ENDBRANCH   5   8
ENDBRANCH   4   5
ENDBRANCH   1   3
BRANCH   1  11
ATOM     11  C   UNL     1     116.208 123.145 132.005  1.00  0.00     0.002 C 
ATOM     12  C   UNL     1     115.597 124.446 131.420  1.00  0.00     0.005 C 
ATOM     13  C   UNL     1     117.500 122.916 131.146  1.00  0.00    -0.026 C 
ATOM     14  C   UNL     1     116.251 124.700 130.051  1.00  0.00     0.005 C 
ATOM     15  C   UNL     1     117.058 123.438 129.775  1.00  0.00    -0.001 C 
ATOM     16  C   UNL     1     118.000 121.467 130.955  1.00  0.00     0.007 C 
ATOM     17  C   UNL     1     118.641 123.749 131.810  1.00  0.00     0.012 C 
ATOM     18  C   UNL     1     118.141 123.450 128.670  1.00  0.00     0.000 C 
ATOM     19  C   UNL     1     119.131 121.377 129.904  1.00  0.00     0.005 C 
ATOM     20  C   UNL     1     118.784 122.029 128.521  1.00  0.00     0.003 C 
ATOM     21  C   UNL     1     119.157 124.627 128.737  1.00  0.00     0.031 C 
ATOM     22  C   UNL     1     119.994 122.060 127.503  1.00  0.00    -0.008 C 
ATOM     23  C   UNL     1     120.603 124.253 128.534  1.00  0.00    -0.027 C 
ATOM     24  C   UNL     1     121.013 123.107 127.952  1.00  0.00    -0.065 C 
ATOM     25  C   UNL     1     120.663 120.648 127.384  1.00  0.00     0.014 C 
ATOM     26  C   UNL     1     119.477 122.463 126.093  1.00  0.00     0.016 C 
ATOM     27  C   UNL     1     122.451 123.031 127.473  1.00  0.00     0.063 C 
ATOM     28  C   UNL     1     122.025 120.666 126.680  1.00  0.00     0.033 C 
ATOM     29  C   UNL     1     122.986 121.593 127.434  1.00  0.00     0.118 C 
BRANCH  29  30
ATOM     30  O   UNL     1     124.267 121.556 126.856  1.00  0.00    -0.393 OA
ATOM     31  H   UNL     1     124.874 121.101 127.498  1.00  0.00     0.210 HD
ENDBRANCH  29  30
ENDBRANCH   1  11
TORSDOF 6
ENDMDL
MODEL 4
REMARK VINA RESULT:    -6.591      3.424      6.304
REMARK INTER + INTRA:         -11.230
REMARK INTER:                  -8.937
REMARK INTRA:                  -2.293
REMARK UNBOUND:                -2.519
REMARK SMILES CC[C@@H](C=C[C@H](C)[C@@H]1CC[C@H]2[C@H]3CC=C4C[C@H](O)CC[C@@]4(C)[C@H]3CC[C@@]21C)C(C)C
REMARK SMILES IDX 6 1 7 2 5 3 4 4 3 5 2 6 1 7 28 8 29 9 30 10 8 11 9 12 26 13
REMARK SMILES IDX 10 14 11 15 25 16 27 17 12 18 24 19 23 20 13 21 21 22 14 23
REMARK SMILES IDX 15 24 20 25 22 26 16 27 19 28 17 29 18 30
REMARK H PARENT 18 31
REMARK Flexibility Score: inf
ROOT
ATOM      1  C   UNL     1     118.994 119.740 128.975  1.00  0.00     0.012 C 
ATOM      2  C   UNL     1     119.794 118.563 129.563  1.00  0.00     0.012 C 
ENDROOT
BRANCH   1   3
ATOM      3  C   UNL     1     118.669 119.619 127.483  1.00  0.00    -0.028 C 
ATOM      4  C   UNL     1     119.158 120.282 126.409  1.00  0.00    -0.027 C 
BRANCH   4   5
ATOM      5  C   UNL     1     120.132 121.447 126.371  1.00  0.00     0.014 C 
BRANCH   5   6
ATOM      6  C   UNL     1     119.330 122.748 126.635  1.00  0.00     0.004 C 
ATOM      7  C   UNL     1     120.176 123.911 127.149  1.00  0.00     0.004 C 
ENDBRANCH   5   6
BRANCH   5   8
ATOM      8  C   UNL     1     120.933 121.401 125.024  1.00  0.00    -0.011 C 
ATOM      9  C   UNL     1     120.100 121.873 123.820  1.00  0.00     0.008 C 
ATOM     10  C   UNL     1     121.592 120.044 124.726  1.00  0.00     0.008 C 
ENDBRANCH   5   8
ENDBRANCH   4   5
ENDBRANCH   1   3
BRANCH   1  11
ATOM     11  C   UNL     1     117.804 120.173 129.904  1.00  0.00     0.002 C 
ATOM     12  C   UNL     1     116.400 119.857 129.323  1.00  0.00     0.005 C 
ATOM     13  C   UNL     1     117.712 121.685 130.311  1.00  0.00    -0.026 C 
ATOM     14  C   UNL     1     115.703 121.194 129.020  1.00  0.00     0.005 C 
ATOM     15  C   UNL     1     116.788 122.244 129.223  1.00  0.00    -0.001 C 
ATOM     16  C   UNL     1     119.010 122.523 130.297  1.00  0.00     0.007 C 
ATOM     17  C   UNL     1     117.108 121.733 131.749  1.00  0.00     0.012 C 
ATOM     18  C   UNL     1     116.394 123.733 129.364  1.00  0.00     0.000 C 
ATOM     19  C   UNL     1     118.728 124.031 130.489  1.00  0.00     0.005 C 
ATOM     20  C   UNL     1     117.676 124.627 129.491  1.00  0.00     0.003 C 
ATOM     21  C   UNL     1     115.276 124.037 130.403  1.00  0.00     0.031 C 
ATOM     22  C   UNL     1     117.289 126.131 129.786  1.00  0.00    -0.008 C 
ATOM     23  C   UNL     1     115.528 125.217 131.307  1.00  0.00    -0.027 C 
ATOM     24  C   UNL     1     116.416 126.198 131.039  1.00  0.00    -0.065 C 
ATOM     25  C   UNL     1     118.569 127.018 129.954  1.00  0.00     0.014 C 
ATOM     26  C   UNL     1     116.467 126.700 128.595  1.00  0.00     0.016 C 
ATOM     27  C   UNL     1     116.298 127.493 131.823  1.00  0.00     0.063 C 
ATOM     28  C   UNL     1     118.292 128.400 130.556  1.00  0.00     0.033 C 
ATOM     29  C   UNL     1     117.632 128.242 131.931  1.00  0.00     0.118 C 
BRANCH  29  30
ATOM     30  O   UNL     1     117.449 129.495 132.541  1.00  0.00    -0.393 OA
ATOM     31  H   UNL     1     116.483 129.720 132.483  1.00  0.00     0.210 HD
ENDBRANCH  29  30
ENDBRANCH   1  11
TORSDOF 6
ENDMDL
MODEL 5
REMARK VINA RESULT:    -6.483      3.144      4.820
REMARK INTER + INTRA:         -11.086
REMARK INTER:                  -8.394
REMARK INTRA:                  -2.693
REMARK UNBOUND:                -2.519
REMARK SMILES CC[C@@H](C=C[C@H](C)[C@@H]1CC[C@H]2[C@H]3CC=C4C[C@H](O)CC[C@@]4(C)[C@H]3CC[C@@]21C)C(C)C
REMARK SMILES IDX 6 1 7 2 5 3 4 4 3 5 2 6 1 7 28 8 29 9 30 10 8 11 9 12 26 13
REMARK SMILES IDX 10 14 11 15 25 16 27 17 12 18 24 19 23 20 13 21 21 22 14 23
REMARK SMILES IDX 15 24 20 25 22 26 16 27 19 28 17 29 18 30
REMARK H PARENT 18 31
REMARK Flexibility Score: inf
ROOT
ATOM      1  C   UNL     1     116.164 125.878 130.130  1.00  0.00     0.012 C 
ATOM      2  C   UNL     1     115.569 127.094 129.397  1.00  0.00     0.012 C 
ENDROOT
BRANCH   1   3
ATOM      3  C   UNL     1     116.793 126.188 131.492  1.00  0.00    -0.028 C 
ATOM      4  C   UNL     1     118.089 126.264 131.877  1.00  0.00    -0.027 C 
BRANCH   4   5
ATOM      5  C   UNL     1     119.341 125.959 131.074  1.00  0.00     0.014 C 
BRANCH   5   6
ATOM      6  C   UNL     1     119.371 126.920 129.856  1.00  0.00     0.004 C 
ATOM      7  C   UNL     1     119.405 128.401 130.229  1.00  0.00     0.004 C 
ENDBRANCH   5   6
BRANCH   5   8
ATOM      8  C   UNL     1     119.375 124.429 130.737  1.00  0.00    -0.011 C 
ATOM      9  C   UNL     1     119.645 123.553 131.973  1.00  0.00     0.008 C 
ATOM     10  C   UNL     1     120.328 124.055 129.591  1.00  0.00     0.008 C 
ENDBRANCH   5   8
ENDBRANCH   4   5
ENDBRANCH   1   3
BRANCH   1  11
ATOM     11  C   UNL     1     115.212 124.630 130.082  1.00  0.00     0.002 C 
ATOM     12  C   UNL     1     114.778 124.110 131.479  1.00  0.00     0.005 C 
ATOM     13  C   UNL     1     115.732 123.345 129.348  1.00  0.00    -0.026 C 
ATOM     14  C   UNL     1     115.405 122.721 131.681  1.00  0.00     0.005 C 
ATOM     15  C   UNL     1     116.358 122.558 130.504  1.00  0.00    -0.001 C 
ATOM     16  C   UNL     1     116.814 123.517 128.259  1.00  0.00     0.007 C 
ATOM     17  C   UNL     1     114.489 122.655 128.703  1.00  0.00     0.012 C 
ATOM     18  C   UNL     1     116.907 121.154 130.153  1.00  0.00     0.000 C 
ATOM     19  C   UNL     1     117.392 122.160 127.796  1.00  0.00     0.005 C 
ATOM     20  C   UNL     1     117.917 121.247 128.958  1.00  0.00     0.003 C 
ATOM     21  C   UNL     1     115.841 120.028 130.026  1.00  0.00     0.031 C 
ATOM     22  C   UNL     1     118.371 119.807 128.489  1.00  0.00    -0.008 C 
ATOM     23  C   UNL     1     115.996 119.114 128.838  1.00  0.00    -0.027 C 
ATOM     24  C   UNL     1     117.141 118.971 128.137  1.00  0.00    -0.065 C 
ATOM     25  C   UNL     1     119.349 119.897 127.268  1.00  0.00     0.014 C 
ATOM     26  C   UNL     1     119.122 119.095 129.650  1.00  0.00     0.016 C 
ATOM     27  C   UNL     1     117.269 117.763 127.228  1.00  0.00     0.063 C 
ATOM     28  C   UNL     1     119.576 118.558 126.556  1.00  0.00     0.033 C 
ATOM     29  C   UNL     1     118.236 118.002 126.061  1.00  0.00     0.118 C 
BRANCH  29  30
ATOM     30  O   UNL     1     118.429 116.818 125.328  1.00  0.00    -0.393 OA
ATOM     31  H   UNL     1     118.359 116.056 125.961  1.00  0.00     0.210 HD
ENDBRANCH  29  30
ENDBRANCH   1  11
TORSDOF 6
ENDMDL
MODEL 6
REMARK VINA RESULT:    -6.420      3.246      5.114
REMARK INTER + INTRA:         -11.004
REMARK INTER:                  -8.364
REMARK INTRA:                  -2.639
REMARK UNBOUND:                -2.519
REMARK SMILES CC[C@@H](C=C[C@H](C)[C@@H]1CC[C@H]2[C@H]3CC=C4C[C@H](O)CC[C@@]4(C)[C@H]3CC[C@@]21C)C(C)C
REMARK SMILES IDX 6 1 7 2 5 3 4 4 3 5 2 6 1 7 28 8 29 9 30 10 8 11 9 12 26 13
REMARK SMILES IDX 10 14 11 15 25 16 27 17 12 18 24 19 23 20 13 21 21 22 14 23
REMARK SMILES IDX 15 24 20 25 22 26 16 27 19 28 17 29 18 30
REMARK H PARENT 18 31
REMARK Flexibility Score: inf
ROOT
ATOM      1  C   UNL     1     113.544 123.179 130.858  1.00  0.00     0.012 C 
ATOM      2  C   UNL     1     112.047 123.480 131.051  1.00  0.00     0.012 C 
ENDROOT
BRANCH   1   3
ATOM      3  C   UNL     1     114.464 123.763 131.934  1.00  0.00    -0.028 C 
ATOM      4  C   UNL     1     115.650 124.410 131.835  1.00  0.00    -0.027 C 
BRANCH   4   5
ATOM      5  C   UNL     1     116.493 124.672 130.600  1.00  0.00     0.014 C 
BRANCH   5   6
ATOM      6  C   UNL     1     117.976 124.761 131.046  1.00  0.00     0.004 C 
ATOM      7  C   UNL     1     118.520 123.475 131.666  1.00  0.00     0.004 C 
ENDBRANCH   5   6
BRANCH   5   8
ATOM      8  C   UNL     1     115.929 125.929 129.852  1.00  0.00    -0.011 C 
ATOM      9  C   UNL     1     116.559 126.127 128.463  1.00  0.00     0.008 C 
ATOM     10  C   UNL     1     115.994 127.231 130.666  1.00  0.00     0.008 C 
ENDBRANCH   5   8
ENDBRANCH   4   5
ENDBRANCH   1   3
BRANCH   1  11
ATOM     11  C   UNL     1     113.804 121.678 130.473  1.00  0.00     0.002 C 
ATOM     12  C   UNL     1     114.125 120.761 131.682  1.00  0.00     0.005 C 
ATOM     13  C   UNL     1     114.958 121.377 129.455  1.00  0.00    -0.026 C 
ATOM     14  C   UNL     1     115.585 120.297 131.548  1.00  0.00     0.005 C 
ATOM     15  C   UNL     1     116.142 121.121 130.394  1.00  0.00    -0.001 C 
ATOM     16  C   UNL     1     115.374 122.496 128.474  1.00  0.00     0.007 C 
ATOM     17  C   UNL     1     114.519 120.131 128.624  1.00  0.00     0.012 C 
ATOM     18  C   UNL     1     117.466 120.693 129.718  1.00  0.00     0.000 C 
ATOM     19  C   UNL     1     116.666 122.141 127.702  1.00  0.00     0.005 C 
ATOM     20  C   UNL     1     117.873 121.727 128.613  1.00  0.00     0.003 C 
ATOM     21  C   UNL     1     117.548 119.202 129.284  1.00  0.00     0.031 C 
ATOM     22  C   UNL     1     119.142 121.228 127.811  1.00  0.00    -0.008 C 
ATOM     23  C   UNL     1     118.115 118.952 127.909  1.00  0.00    -0.027 C 
ATOM     24  C   UNL     1     118.865 119.843 127.228  1.00  0.00    -0.065 C 
ATOM     25  C   UNL     1     119.524 122.241 126.679  1.00  0.00     0.014 C 
ATOM     26  C   UNL     1     120.354 121.112 128.777  1.00  0.00     0.016 C 
ATOM     27  C   UNL     1     119.674 119.332 126.049  1.00  0.00     0.063 C 
ATOM     28  C   UNL     1     120.526 121.684 125.662  1.00  0.00     0.033 C 
ATOM     29  C   UNL     1     119.950 120.423 125.006  1.00  0.00     0.118 C 
BRANCH  29  30
ATOM     30  O   UNL     1     120.814 119.944 124.005  1.00  0.00    -0.393 OA
ATOM     31  H   UNL     1     120.362 119.183 123.555  1.00  0.00     0.210 HD
ENDBRANCH  29  30
ENDBRANCH   1  11
TORSDOF 6
ENDMDL
MODEL 7
REMARK VINA RESULT:    -6.360      1.600      2.442
REMARK INTER + INTRA:         -10.924
REMARK INTER:                  -8.831
REMARK INTRA:                  -2.094
REMARK UNBOUND:                -2.519
REMARK SMILES CC[C@@H](C=C[C@H](C)[C@@H]1CC[C@H]2[C@H]3CC=C4C[C@H](O)CC[C@@]4(C)[C@H]3CC[C@@]21C)C(C)C
REMARK SMILES IDX 6 1 7 2 5 3 4 4 3 5 2 6 1 7 28 8 29 9 30 10 8 11 9 12 26 13
REMARK SMILES IDX 10 14 11 15 25 16 27 17 12 18 24 19 23 20 13 21 21 22 14 23
REMARK SMILES IDX 15 24 20 25 22 26 16 27 19 28 17 29 18 30
REMARK H PARENT 18 31
REMARK Flexibility Score: inf
ROOT
ATOM      1  C   UNL     1     116.501 124.393 128.899  1.00  0.00     0.012 C 
ATOM      2  C   UNL     1     117.077 124.074 127.507  1.00  0.00     0.012 C 
ENDROOT
BRANCH   1   3
ATOM      3  C   UNL     1     115.928 125.804 129.053  1.00  0.00    -0.028 C 
ATOM      4  C   UNL     1     116.066 126.718 130.043  1.00  0.00    -0.027 C 
BRANCH   4   5
ATOM      5  C   UNL     1     116.773 126.575 131.380  1.00  0.00     0.014 C 
BRANCH   5   6
ATOM      6  C   UNL     1     116.115 127.568 132.374  1.00  0.00     0.004 C 
ATOM      7  C   UNL     1     117.111 128.441 133.137  1.00  0.00     0.004 C 
ENDBRANCH   5   6
BRANCH   5   8
ATOM      8  C   UNL     1     118.316 126.746 131.165  1.00  0.00    -0.011 C 
ATOM      9  C   UNL     1     118.656 127.529 129.886  1.00  0.00     0.008 C 
ATOM     10  C   UNL     1     119.111 125.431 131.222  1.00  0.00     0.008 C 
ENDBRANCH   5   8
ENDBRANCH   4   5
ENDBRANCH   1   3
BRANCH   1  11
ATOM     11  C   UNL     1     115.611 123.225 129.456  1.00  0.00     0.002 C 
ATOM     12  C   UNL     1     114.308 123.700 130.154  1.00  0.00     0.005 C 
ATOM     13  C   UNL     1     116.259 122.247 130.496  1.00  0.00    -0.026 C 
ATOM     14  C   UNL     1     114.424 123.360 131.649  1.00  0.00     0.005 C 
ATOM     15  C   UNL     1     115.864 122.899 131.825  1.00  0.00    -0.001 C 
ATOM     16  C   UNL     1     117.797 122.093 130.489  1.00  0.00     0.007 C 
ATOM     17  C   UNL     1     115.622 120.842 130.258  1.00  0.00     0.012 C 
ATOM     18  C   UNL     1     116.271 122.133 133.106  1.00  0.00     0.000 C 
ATOM     19  C   UNL     1     118.304 121.288 131.708  1.00  0.00     0.005 C 
ATOM     20  C   UNL     1     117.809 121.828 133.094  1.00  0.00     0.003 C 
ATOM     21  C   UNL     1     115.365 120.926 133.484  1.00  0.00     0.031 C 
ATOM     22  C   UNL     1     118.214 120.916 134.321  1.00  0.00    -0.008 C 
ATOM     23  C   UNL     1     116.089 119.670 133.897  1.00  0.00    -0.027 C 
ATOM     24  C   UNL     1     117.374 119.639 134.308  1.00  0.00    -0.065 C 
ATOM     25  C   UNL     1     119.742 120.577 134.288  1.00  0.00     0.014 C 
ATOM     26  C   UNL     1     117.922 121.671 135.648  1.00  0.00     0.016 C 
ATOM     27  C   UNL     1     117.853 118.400 135.044  1.00  0.00     0.063 C 
ATOM     28  C   UNL     1     120.148 119.448 135.243  1.00  0.00     0.033 C 
ATOM     29  C   UNL     1     119.364 118.175 134.901  1.00  0.00     0.118 C 
BRANCH  29  30
ATOM     30  O   UNL     1     119.783 117.102 135.707  1.00  0.00    -0.393 OA
ATOM     31  H   UNL     1     119.765 116.280 135.149  1.00  0.00     0.210 HD
ENDBRANCH  29  30
ENDBRANCH   1  11
TORSDOF 6
ENDMDL
MODEL 8
REMARK VINA RESULT:    -6.272      2.849      5.788
REMARK INTER + INTRA:         -10.808
REMARK INTER:                  -8.196
REMARK INTRA:                  -2.612
REMARK UNBOUND:                -2.519
REMARK SMILES CC[C@@H](C=C[C@H](C)[C@@H]1CC[C@H]2[C@H]3CC=C4C[C@H](O)CC[C@@]4(C)[C@H]3CC[C@@]21C)C(C)C
REMARK SMILES IDX 6 1 7 2 5 3 4 4 3 5 2 6 1 7 28 8 29 9 30 10 8 11 9 12 26 13
REMARK SMILES IDX 10 14 11 15 25 16 27 17 12 18 24 19 23 20 13 21 21 22 14 23
REMARK SMILES IDX 15 24 20 25 22 26 16 27 19 28 17 29 18 30
REMARK H PARENT 18 31
REMARK Flexibility Score: inf
ROOT
ATOM      1  C   UNL     1     116.286 124.803 130.483  1.00  0.00     0.012 C 
ATOM      2  C   UNL     1     116.111 125.999 131.437  1.00  0.00     0.012 C 
ENDROOT
BRANCH   1   3
ATOM      3  C   UNL     1     115.145 124.602 129.483  1.00  0.00    -0.028 C 
ATOM      4  C   UNL     1     114.401 123.509 129.189  1.00  0.00    -0.027 C 
BRANCH   4   5
ATOM      5  C   UNL     1     114.545 122.090 129.711  1.00  0.00     0.014 C 
BRANCH   5   6
ATOM      6  C   UNL     1     114.128 121.120 128.574  1.00  0.00     0.004 C 
ATOM      7  C   UNL     1     114.512 119.663 128.823  1.00  0.00     0.004 C 
ENDBRANCH   5   6
BRANCH   5   8
ATOM      8  C   UNL     1     113.744 121.954 131.051  1.00  0.00    -0.011 C 
ATOM      9  C   UNL     1     112.625 123.000 131.185  1.00  0.00     0.008 C 
ATOM     10  C   UNL     1     114.622 121.936 132.313  1.00  0.00     0.008 C 
ENDBRANCH   5   8
ENDBRANCH   4   5
ENDBRANCH   1   3
BRANCH   1  11
ATOM     11  C   UNL     1     117.740 124.722 129.894  1.00  0.00     0.002 C 
ATOM     12  C   UNL     1     117.906 125.426 128.521  1.00  0.00     0.005 C 
ATOM     13  C   UNL     1     118.353 123.297 129.662  1.00  0.00    -0.026 C 
ATOM     14  C   UNL     1     118.194 124.344 127.467  1.00  0.00     0.005 C 
ATOM     15  C   UNL     1     117.973 123.029 128.202  1.00  0.00    -0.001 C 
ATOM     16  C   UNL     1     117.811 122.125 130.510  1.00  0.00     0.007 C 
ATOM     17  C   UNL     1     119.890 123.417 129.912  1.00  0.00     0.012 C 
ATOM     18  C   UNL     1     118.509 121.712 127.591  1.00  0.00     0.000 C 
ATOM     19  C   UNL     1     118.335 120.758 130.012  1.00  0.00     0.005 C 
ATOM     20  C   UNL     1     118.102 120.490 128.485  1.00  0.00     0.003 C 
ATOM     21  C   UNL     1     120.000 121.734 127.149  1.00  0.00     0.031 C 
ATOM     22  C   UNL     1     118.767 119.157 127.957  1.00  0.00    -0.008 C 
ATOM     23  C   UNL     1     120.815 120.528 127.540  1.00  0.00    -0.027 C 
ATOM     24  C   UNL     1     120.284 119.336 127.885  1.00  0.00    -0.065 C 
ATOM     25  C   UNL     1     118.394 117.942 128.873  1.00  0.00     0.014 C 
ATOM     26  C   UNL     1     118.249 118.850 126.523  1.00  0.00     0.016 C 
ATOM     27  C   UNL     1     121.199 118.125 127.882  1.00  0.00     0.063 C 
ATOM     28  C   UNL     1     119.248 116.694 128.625  1.00  0.00     0.033 C 
ATOM     29  C   UNL     1     120.729 117.027 128.846  1.00  0.00     0.118 C 
BRANCH  29  30
ATOM     30  O   UNL     1     121.523 115.875 128.710  1.00  0.00    -0.393 OA
ATOM     31  H   UNL     1     122.432 116.166 128.435  1.00  0.00     0.210 HD
ENDBRANCH  29  30
ENDBRANCH   1  11
TORSDOF 6
ENDMDL
MODEL 9
REMARK VINA RESULT:    -6.113      1.703      4.656
REMARK INTER + INTRA:         -10.597
REMARK INTER:                  -7.968
REMARK INTRA:                  -2.629
REMARK UNBOUND:                -2.519
REMARK SMILES CC[C@@H](C=C[C@H](C)[C@@H]1CC[C@H]2[C@H]3CC=C4C[C@H](O)CC[C@@]4(C)[C@H]3CC[C@@]21C)C(C)C
REMARK SMILES IDX 6 1 7 2 5 3 4 4 3 5 2 6 1 7 28 8 29 9 30 10 8 11 9 12 26 13
REMARK SMILES IDX 10 14 11 15 25 16 27 17 12 18 24 19 23 20 13 21 21 22 14 23
REMARK SMILES IDX 15 24 20 25 22 26 16 27 19 28 17 29 18 30
REMARK H PARENT 18 31
REMARK Flexibility Score: inf
ROOT
ATOM      1  C   UNL     1     116.012 124.948 129.102  1.00  0.00     0.012 C 
ATOM      2  C   UNL     1     115.597 126.426 128.977  1.00  0.00     0.012 C 
ENDROOT
BRANCH   1   3
ATOM      3  C   UNL     1     115.085 123.955 128.397  1.00  0.00    -0.028 C 
ATOM      4  C   UNL     1     114.655 122.724 128.764  1.00  0.00    -0.027 C 
BRANCH   4   5
ATOM      5  C   UNL     1     115.053 121.897 129.975  1.00  0.00     0.014 C 
BRANCH   5   6
ATOM      6  C   UNL     1     114.577 120.441 129.733  1.00  0.00     0.004 C 
ATOM      7  C   UNL     1     114.050 120.181 128.322  1.00  0.00     0.004 C 
ENDBRANCH   5   6
BRANCH   5   8
ATOM      8  C   UNL     1     114.503 122.589 131.270  1.00  0.00    -0.011 C 
ATOM      9  C   UNL     1     114.951 121.879 132.559  1.00  0.00     0.008 C 
ATOM     10  C   UNL     1     112.982 122.806 131.273  1.00  0.00     0.008 C 
ENDBRANCH   5   8
ENDBRANCH   4   5
ENDBRANCH   1   3
BRANCH   1  11
ATOM     11  C   UNL     1     117.551 124.741 128.864  1.00  0.00     0.002 C 
ATOM     12  C   UNL     1     117.890 123.948 127.573  1.00  0.00     0.005 C 
ATOM     13  C   UNL     1     118.369 124.007 129.982  1.00  0.00    -0.026 C 
ATOM     14  C   UNL     1     118.507 122.603 127.994  1.00  0.00     0.005 C 
ATOM     15  C   UNL     1     118.313 122.552 129.504  1.00  0.00    -0.001 C 
ATOM     16  C   UNL     1     117.823 124.045 131.427  1.00  0.00     0.007 C 
ATOM     17  C   UNL     1     119.801 124.627 129.980  1.00  0.00     0.012 C 
ATOM     18  C   UNL     1     119.115 121.529 130.343  1.00  0.00     0.000 C 
ATOM     19  C   UNL     1     118.598 123.092 132.366  1.00  0.00     0.005 C 
ATOM     20  C   UNL     1     118.698 121.614 131.852  1.00  0.00     0.003 C 
ATOM     21  C   UNL     1     120.649 121.505 130.087  1.00  0.00     0.031 C 
ATOM     22  C   UNL     1     119.613 120.683 132.745  1.00  0.00    -0.008 C 
ATOM     23  C   UNL     1     121.517 121.450 131.319  1.00  0.00    -0.027 C 
ATOM     24  C   UNL     1     121.080 121.054 132.533  1.00  0.00    -0.065 C 
ATOM     25  C   UNL     1     119.223 120.799 134.258  1.00  0.00     0.014 C 
ATOM     26  C   UNL     1     119.422 119.202 132.315  1.00  0.00     0.016 C 
ATOM     27  C   UNL     1     122.122 120.685 133.574  1.00  0.00     0.063 C 
ATOM     28  C   UNL     1     120.257 120.190 135.212  1.00  0.00     0.033 C 
ATOM     29  C   UNL     1     121.614 120.874 135.010  1.00  0.00     0.118 C 
BRANCH  29  30
ATOM     30  O   UNL     1     122.556 120.392 135.936  1.00  0.00    -0.393 OA
ATOM     31  H   UNL     1     123.450 120.724 135.657  1.00  0.00     0.210 HD
ENDBRANCH  29  30
ENDBRANCH   1  11
TORSDOF 6
ENDMDL
