MODEL 1
REMARK VINA RESULT:    -6.707      0.000      0.000
REMARK INTER + INTRA:         -11.513
REMARK INTER:                  -9.844
REMARK INTRA:                  -1.669
REMARK UNBOUND:                -1.669
REMARK SMILES O=c1c(O[C@@H]2O[C@@H](CO)[C@@H](O)[C@H](O)[C@H]2O)c(-c2ccc(O)c(O)c2)oc2cc(O)cc(O)c12
REMARK SMILES IDX 4 1 3 2 16 3 25 4 2 5 26 6 1 7 33 8 27 9 31 10 28 11 30 12
REMARK SMILES IDX 17 13 18 14 19 15 20 16 24 17 22 18 21 19 23 21 32 23 29 25
REMARK SMILES IDX 5 27 14 28 6 29 12 30 7 31 10 32 15 33 13 35 8 37 9 38 11 40
REMARK H PARENT 21 20 23 22 32 24 29 26 15 34 13 36 9 39 11 41
REMARK Flexibility Score: inf
ROOT
ATOM      1  O   UNL     1     -37.080   5.354  81.207  1.00  0.00    -0.454 OA
ENDROOT
BRANCH   1   2
ATOM      2  C   UNL     1     -36.536   6.104  80.152  1.00  0.00     0.214 A 
ATOM      3  C   UNL     1     -37.025   5.944  78.842  1.00  0.00     0.180 A 
ATOM      4  O   UNL     1     -36.571   6.715  77.860  1.00  0.00    -0.452 OA
ATOM      5  C   UNL     1     -35.557   7.080  80.389  1.00  0.00     0.239 A 
ATOM      6  C   UNL     1     -35.639   7.643  78.037  1.00  0.00     0.146 A 
ATOM      7  O   UNL     1     -35.135   7.265  81.561  1.00  0.00    -0.285 OA
ATOM      8  C   UNL     1     -35.079   7.865  79.318  1.00  0.00     0.111 A 
ATOM      9  C   UNL     1     -35.216   8.401  76.940  1.00  0.00     0.094 A 
ATOM     10  C   UNL     1     -34.082   8.860  79.470  1.00  0.00     0.134 A 
ATOM     11  C   UNL     1     -34.235   9.381  77.095  1.00  0.00     0.123 A 
ATOM     12  C   UNL     1     -33.669   9.609  78.354  1.00  0.00     0.093 A 
BRANCH   3  13
ATOM     13  C   UNL     1     -38.041   4.931  78.516  1.00  0.00     0.025 A 
ATOM     14  C   UNL     1     -39.405   5.212  78.675  1.00  0.00     0.016 A 
ATOM     15  C   UNL     1     -40.360   4.222  78.435  1.00  0.00     0.051 A 
ATOM     16  C   UNL     1     -39.963   2.941  78.027  1.00  0.00     0.157 A 
ATOM     17  C   UNL     1     -37.641   3.643  78.131  1.00  0.00     0.062 A 
ATOM     18  C   UNL     1     -38.595   2.652  77.878  1.00  0.00     0.158 A 
BRANCH  16  19
ATOM     19  O   UNL     1     -40.918   1.958  77.772  1.00  0.00    -0.504 OA
ATOM     20  H   UNL     1     -41.377   1.887  76.871  1.00  0.00     0.293 HD
ENDBRANCH  16  19
BRANCH  18  21
ATOM     21  O   UNL     1     -38.164   1.383  77.484  1.00  0.00    -0.504 OA
ATOM     22  H   UNL     1     -37.807   1.199  76.554  1.00  0.00     0.293 HD
ENDBRANCH  18  21
ENDBRANCH   3  13
BRANCH  10  23
ATOM     23  O   UNL     1     -33.500   9.110  80.713  1.00  0.00    -0.507 OA
ATOM     24  H   UNL     1     -33.531   8.429  81.463  1.00  0.00     0.293 HD
ENDBRANCH  10  23
BRANCH  11  25
ATOM     25  O   UNL     1     -33.829  10.125  75.989  1.00  0.00    -0.508 OA
ATOM     26  H   UNL     1     -34.383  10.897  75.637  1.00  0.00     0.293 HD
ENDBRANCH  11  25
ENDBRANCH   1   2
BRANCH   1  27
ATOM     27  C   UNL     1     -36.556   4.091  81.632  1.00  0.00     0.339 C 
ATOM     28  C   UNL     1     -36.060   4.139  83.096  1.00  0.00     0.214 C 
ATOM     29  O   UNL     1     -37.527   3.066  81.461  1.00  0.00    -0.332 OA
ATOM     30  C   UNL     1     -37.245   4.294  84.071  1.00  0.00     0.180 C 
ATOM     31  C   UNL     1     -38.684   3.311  82.249  1.00  0.00     0.179 C 
ATOM     32  C   UNL     1     -38.342   3.264  83.757  1.00  0.00     0.177 C 
BRANCH  28  33
ATOM     33  O   UNL     1     -35.348   2.959  83.370  1.00  0.00    -0.384 OA
ATOM     34  H   UNL     1     -34.397   3.216  83.504  1.00  0.00     0.211 HD
ENDBRANCH  28  33
BRANCH  30  35
ATOM     35  O   UNL     1     -37.762   5.598  83.973  1.00  0.00    -0.387 OA
ATOM     36  H   UNL     1     -36.988   6.209  83.875  1.00  0.00     0.211 HD
ENDBRANCH  30  35
BRANCH  31  37
ATOM     37  C   UNL     1     -39.764   2.280  81.899  1.00  0.00     0.191 C 
BRANCH  37  38
ATOM     38  O   UNL     1     -40.634   2.120  82.985  1.00  0.00    -0.394 OA
ATOM     39  H   UNL     1     -40.560   2.943  83.533  1.00  0.00     0.210 HD
ENDBRANCH  37  38
ENDBRANCH  31  37
BRANCH  32  40
ATOM     40  O   UNL     1     -37.889   1.984  84.123  1.00  0.00    -0.387 OA
ATOM     41  H   UNL     1     -38.481   1.322  83.677  1.00  0.00     0.211 HD
ENDBRANCH  32  40
ENDBRANCH   1  27
TORSDOF 12
ENDMDL
MODEL 2
REMARK VINA RESULT:    -6.690      2.069      6.507
REMARK INTER + INTRA:         -11.487
REMARK INTER:                  -9.819
REMARK INTRA:                  -1.668
REMARK UNBOUND:                -1.669
REMARK SMILES O=c1c(O[C@@H]2O[C@@H](CO)[C@@H](O)[C@H](O)[C@H]2O)c(-c2ccc(O)c(O)c2)oc2cc(O)cc(O)c12
REMARK SMILES IDX 4 1 3 2 16 3 25 4 2 5 26 6 1 7 33 8 27 9 31 10 28 11 30 12
REMARK SMILES IDX 17 13 18 14 19 15 20 16 24 17 22 18 21 19 23 21 32 23 29 25
REMARK SMILES IDX 5 27 14 28 6 29 12 30 7 31 10 32 15 33 13 35 8 37 9 38 11 40
REMARK H PARENT 21 20 23 22 32 24 29 26 15 34 13 36 9 39 11 41
REMARK Flexibility Score: inf
ROOT
ATOM      1  O   UNL     1     -37.610   5.170  81.422  1.00  0.00    -0.454 OA
ENDROOT
BRANCH   1   2
ATOM      2  C   UNL     1     -38.403   4.678  80.374  1.00  0.00     0.214 A 
ATOM      3  C   UNL     1     -37.894   4.625  79.063  1.00  0.00     0.180 A 
ATOM      4  O   UNL     1     -38.612   4.079  78.088  1.00  0.00    -0.452 OA
ATOM      5  C   UNL     1     -39.681   4.156  80.619  1.00  0.00     0.239 A 
ATOM      6  C   UNL     1     -39.829   3.582  78.273  1.00  0.00     0.146 A 
ATOM      7  O   UNL     1     -40.140   4.159  81.793  1.00  0.00    -0.285 OA
ATOM      8  C   UNL     1     -40.428   3.605  79.555  1.00  0.00     0.111 A 
ATOM      9  C   UNL     1     -40.514   3.036  77.183  1.00  0.00     0.094 A 
ATOM     10  C   UNL     1     -41.731   3.072  79.716  1.00  0.00     0.134 A 
ATOM     11  C   UNL     1     -41.796   2.509  77.346  1.00  0.00     0.123 A 
ATOM     12  C   UNL     1     -42.403   2.529  78.607  1.00  0.00     0.093 A 
BRANCH   3  13
ATOM     13  C   UNL     1     -36.568   5.166  78.728  1.00  0.00     0.025 A 
ATOM     14  C   UNL     1     -35.406   4.437  79.019  1.00  0.00     0.016 A 
ATOM     15  C   UNL     1     -34.149   4.988  78.767  1.00  0.00     0.051 A 
ATOM     16  C   UNL     1     -34.037   6.273  78.215  1.00  0.00     0.157 A 
ATOM     17  C   UNL     1     -36.457   6.460  78.199  1.00  0.00     0.062 A 
ATOM     18  C   UNL     1     -35.199   7.012  77.933  1.00  0.00     0.158 A 
BRANCH  16  19
ATOM     19  O   UNL     1     -32.780   6.815  77.949  1.00  0.00    -0.504 OA
ATOM     20  H   UNL     1     -32.160   6.402  77.262  1.00  0.00     0.293 HD
ENDBRANCH  16  19
BRANCH  18  21
ATOM     21  O   UNL     1     -35.124   8.298  77.395  1.00  0.00    -0.504 OA
ATOM     22  H   UNL     1     -35.825   8.658  76.758  1.00  0.00     0.293 HD
ENDBRANCH  18  21
ENDBRANCH   3  13
BRANCH  10  23
ATOM     23  O   UNL     1     -42.361   3.076  80.960  1.00  0.00    -0.507 OA
ATOM     24  H   UNL     1     -43.347   3.288  81.058  1.00  0.00     0.293 HD
ENDBRANCH  10  23
BRANCH  11  25
ATOM     25  O   UNL     1     -42.461   1.969  76.247  1.00  0.00    -0.508 OA
ATOM     26  H   UNL     1     -43.289   2.406  75.861  1.00  0.00     0.293 HD
ENDBRANCH  11  25
ENDBRANCH   1   2
BRANCH   1  27
ATOM     27  C   UNL     1     -37.792   6.463  82.012  1.00  0.00     0.339 C 
ATOM     28  C   UNL     1     -37.833   6.388  83.556  1.00  0.00     0.214 C 
ATOM     29  O   UNL     1     -36.775   7.357  81.575  1.00  0.00    -0.332 OA
ATOM     30  C   UNL     1     -36.448   6.013  84.123  1.00  0.00     0.180 C 
ATOM     31  C   UNL     1     -35.486   6.908  81.971  1.00  0.00     0.179 C 
ATOM     32  C   UNL     1     -35.354   6.904  83.513  1.00  0.00     0.177 C 
BRANCH  28  33
ATOM     33  O   UNL     1     -38.249   7.633  84.057  1.00  0.00    -0.384 OA
ATOM     34  H   UNL     1     -37.622   7.877  84.789  1.00  0.00     0.211 HD
ENDBRANCH  28  33
BRANCH  30  35
ATOM     35  O   UNL     1     -36.182   4.660  83.846  1.00  0.00    -0.387 OA
ATOM     36  H   UNL     1     -37.011   4.156  84.048  1.00  0.00     0.211 HD
ENDBRANCH  30  35
BRANCH  31  37
ATOM     37  C   UNL     1     -34.418   7.805  81.332  1.00  0.00     0.191 C 
BRANCH  37  38
ATOM     38  O   UNL     1     -33.236   7.739  82.080  1.00  0.00    -0.394 OA
ATOM     39  H   UNL     1     -33.323   6.956  82.682  1.00  0.00     0.210 HD
ENDBRANCH  37  38
ENDBRANCH  31  37
BRANCH  32  40
ATOM     40  O   UNL     1     -35.484   8.207  84.025  1.00  0.00    -0.387 OA
ATOM     41  H   UNL     1     -34.705   8.371  84.618  1.00  0.00     0.211 HD
ENDBRANCH  32  40
ENDBRANCH   1  27
TORSDOF 12
ENDMDL
MODEL 3
REMARK VINA RESULT:    -6.424      2.315      5.974
REMARK INTER + INTRA:         -11.098
REMARK INTER:                 -10.038
REMARK INTRA:                  -1.060
REMARK UNBOUND:                -1.669
REMARK SMILES O=c1c(O[C@@H]2O[C@@H](CO)[C@@H](O)[C@H](O)[C@H]2O)c(-c2ccc(O)c(O)c2)oc2cc(O)cc(O)c12
REMARK SMILES IDX 4 1 3 2 16 3 25 4 2 5 26 6 1 7 33 8 27 9 31 10 28 11 30 12
REMARK SMILES IDX 17 13 18 14 19 15 20 16 24 17 22 18 21 19 23 21 32 23 29 25
REMARK SMILES IDX 5 27 14 28 6 29 12 30 7 31 10 32 15 33 13 35 8 37 9 38 11 40
REMARK H PARENT 21 20 23 22 32 24 29 26 15 34 13 36 9 39 11 41
REMARK Flexibility Score: inf
ROOT
ATOM      1  O   UNL     1     -38.004   7.083  78.798  1.00  0.00    -0.454 OA
ENDROOT
BRANCH   1   2
ATOM      2  C   UNL     1     -37.175   6.426  79.721  1.00  0.00     0.214 A 
ATOM      3  C   UNL     1     -37.258   5.030  79.883  1.00  0.00     0.180 A 
ATOM      4  O   UNL     1     -36.415   4.399  80.692  1.00  0.00    -0.452 OA
ATOM      5  C   UNL     1     -36.197   7.128  80.440  1.00  0.00     0.239 A 
ATOM      6  C   UNL     1     -35.481   5.025  81.398  1.00  0.00     0.146 A 
ATOM      7  O   UNL     1     -36.082   8.373  80.280  1.00  0.00    -0.285 OA
ATOM      8  C   UNL     1     -35.333   6.430  81.310  1.00  0.00     0.111 A 
ATOM      9  C   UNL     1     -34.644   4.277  82.233  1.00  0.00     0.094 A 
ATOM     10  C   UNL     1     -34.330   7.065  82.083  1.00  0.00     0.134 A 
ATOM     11  C   UNL     1     -33.656   4.907  82.991  1.00  0.00     0.123 A 
ATOM     12  C   UNL     1     -33.501   6.296  82.917  1.00  0.00     0.093 A 
BRANCH   3  13
ATOM     13  C   UNL     1     -38.268   4.230  79.173  1.00  0.00     0.025 A 
ATOM     14  C   UNL     1     -39.627   4.560  79.257  1.00  0.00     0.016 A 
ATOM     15  C   UNL     1     -40.586   3.753  78.642  1.00  0.00     0.051 A 
ATOM     16  C   UNL     1     -40.197   2.609  77.929  1.00  0.00     0.157 A 
ATOM     17  C   UNL     1     -37.879   3.073  78.482  1.00  0.00     0.062 A 
ATOM     18  C   UNL     1     -38.835   2.268  77.853  1.00  0.00     0.158 A 
BRANCH  16  19
ATOM     19  O   UNL     1     -41.154   1.813  77.303  1.00  0.00    -0.504 OA
ATOM     20  H   UNL     1     -41.089   1.582  76.318  1.00  0.00     0.293 HD
ENDBRANCH  16  19
BRANCH  18  21
ATOM     21  O   UNL     1     -38.413   1.131  77.162  1.00  0.00    -0.504 OA
ATOM     22  H   UNL     1     -39.050   0.382  76.916  1.00  0.00     0.293 HD
ENDBRANCH  18  21
ENDBRANCH   3  13
BRANCH  10  23
ATOM     23  O   UNL     1     -34.151   8.448  82.031  1.00  0.00    -0.507 OA
ATOM     24  H   UNL     1     -34.245   8.965  81.165  1.00  0.00     0.293 HD
ENDBRANCH  10  23
BRANCH  11  25
ATOM     25  O   UNL     1     -32.832   4.143  83.815  1.00  0.00    -0.508 OA
ATOM     26  H   UNL     1     -32.143   3.507  83.432  1.00  0.00     0.293 HD
ENDBRANCH  11  25
ENDBRANCH   1   2
BRANCH   1  27
ATOM     27  C   UNL     1     -37.810   7.028  77.380  1.00  0.00     0.339 C 
ATOM     28  C   UNL     1     -39.110   7.355  76.611  1.00  0.00     0.214 C 
ATOM     29  O   UNL     1     -36.756   7.899  76.988  1.00  0.00    -0.332 OA
ATOM     30  C   UNL     1     -39.491   8.839  76.784  1.00  0.00     0.180 C 
ATOM     31  C   UNL     1     -37.058   9.251  77.303  1.00  0.00     0.179 C 
ATOM     32  C   UNL     1     -38.282   9.745  76.495  1.00  0.00     0.177 C 
BRANCH  28  33
ATOM     33  O   UNL     1     -38.919   7.052  75.252  1.00  0.00    -0.384 OA
ATOM     34  H   UNL     1     -38.464   6.169  75.211  1.00  0.00     0.211 HD
ENDBRANCH  28  33
BRANCH  30  35
ATOM     35  O   UNL     1     -39.954   9.052  78.095  1.00  0.00    -0.387 OA
ATOM     36  H   UNL     1     -40.753   9.635  78.027  1.00  0.00     0.211 HD
ENDBRANCH  30  35
BRANCH  31  37
ATOM     37  C   UNL     1     -35.828  10.124  77.023  1.00  0.00     0.191 C 
BRANCH  37  38
ATOM     38  O   UNL     1     -34.754   9.696  77.814  1.00  0.00    -0.394 OA
ATOM     39  H   UNL     1     -33.953  10.183  77.493  1.00  0.00     0.210 HD
ENDBRANCH  37  38
ENDBRANCH  31  37
BRANCH  32  40
ATOM     40  O   UNL     1     -38.009   9.722  75.116  1.00  0.00    -0.387 OA
ATOM     41  H   UNL     1     -38.863   9.898  74.642  1.00  0.00     0.211 HD
ENDBRANCH  32  40
ENDBRANCH   1  27
TORSDOF 12
ENDMDL
MODEL 4
REMARK VINA RESULT:    -6.404      2.686      4.405
REMARK INTER + INTRA:         -11.067
REMARK INTER:                  -9.602
REMARK INTRA:                  -1.465
REMARK UNBOUND:                -1.669
REMARK SMILES O=c1c(O[C@@H]2O[C@@H](CO)[C@@H](O)[C@H](O)[C@H]2O)c(-c2ccc(O)c(O)c2)oc2cc(O)cc(O)c12
REMARK SMILES IDX 4 1 3 2 16 3 25 4 2 5 26 6 1 7 33 8 27 9 31 10 28 11 30 12
REMARK SMILES IDX 17 13 18 14 19 15 20 16 24 17 22 18 21 19 23 21 32 23 29 25
REMARK SMILES IDX 5 27 14 28 6 29 12 30 7 31 10 32 15 33 13 35 8 37 9 38 11 40
REMARK H PARENT 21 20 23 22 32 24 29 26 15 34 13 36 9 39 11 41
REMARK Flexibility Score: inf
ROOT
ATOM      1  O   UNL     1     -36.742   6.282  79.665  1.00  0.00    -0.454 OA
ENDROOT
BRANCH   1   2
ATOM      2  C   UNL     1     -37.671   6.844  78.777  1.00  0.00     0.214 A 
ATOM      3  C   UNL     1     -39.018   6.436  78.805  1.00  0.00     0.180 A 
ATOM      4  O   UNL     1     -39.914   7.029  78.024  1.00  0.00    -0.452 OA
ATOM      5  C   UNL     1     -37.301   7.875  77.901  1.00  0.00     0.239 A 
ATOM      6  C   UNL     1     -39.605   8.001  77.174  1.00  0.00     0.146 A 
ATOM      7  O   UNL     1     -36.108   8.281  77.888  1.00  0.00    -0.285 OA
ATOM      8  C   UNL     1     -38.273   8.467  77.067  1.00  0.00     0.111 A 
ATOM      9  C   UNL     1     -40.615   8.560  76.384  1.00  0.00     0.094 A 
ATOM     10  C   UNL     1     -37.979   9.502  76.145  1.00  0.00     0.134 A 
ATOM     11  C   UNL     1     -40.321   9.580  75.479  1.00  0.00     0.123 A 
ATOM     12  C   UNL     1     -39.008  10.048  75.359  1.00  0.00     0.093 A 
BRANCH   3  13
ATOM     13  C   UNL     1     -39.476   5.351  79.687  1.00  0.00     0.025 A 
ATOM     14  C   UNL     1     -40.067   4.198  79.152  1.00  0.00     0.016 A 
ATOM     15  C   UNL     1     -40.568   3.207  79.998  1.00  0.00     0.051 A 
ATOM     16  C   UNL     1     -40.478   3.354  81.390  1.00  0.00     0.157 A 
ATOM     17  C   UNL     1     -39.408   5.511  81.079  1.00  0.00     0.062 A 
ATOM     18  C   UNL     1     -39.897   4.514  81.930  1.00  0.00     0.158 A 
BRANCH  16  19
ATOM     19  O   UNL     1     -40.964   2.356  82.233  1.00  0.00    -0.504 OA
ATOM     20  H   UNL     1     -41.792   2.498  82.800  1.00  0.00     0.293 HD
ENDBRANCH  16  19
BRANCH  18  21
ATOM     21  O   UNL     1     -39.802   4.698  83.311  1.00  0.00    -0.504 OA
ATOM     22  H   UNL     1     -39.041   5.214  83.736  1.00  0.00     0.293 HD
ENDBRANCH  18  21
ENDBRANCH   3  13
BRANCH  10  23
ATOM     23  O   UNL     1     -36.679   9.989  76.003  1.00  0.00    -0.507 OA
ATOM     24  H   UNL     1     -35.972   9.835  76.711  1.00  0.00     0.293 HD
ENDBRANCH  10  23
BRANCH  11  25
ATOM     25  O   UNL     1     -41.342  10.124  74.702  1.00  0.00    -0.508 OA
ATOM     26  H   UNL     1     -41.463  11.125  74.611  1.00  0.00     0.293 HD
ENDBRANCH  11  25
ENDBRANCH   1   2
BRANCH   1  27
ATOM     27  C   UNL     1     -36.044   5.057  79.411  1.00  0.00     0.339 C 
ATOM     28  C   UNL     1     -34.528   5.291  79.218  1.00  0.00     0.214 C 
ATOM     29  O   UNL     1     -36.283   4.121  80.456  1.00  0.00    -0.332 OA
ATOM     30  C   UNL     1     -33.866   5.721  80.544  1.00  0.00     0.180 C 
ATOM     31  C   UNL     1     -35.809   4.607  81.704  1.00  0.00     0.179 C 
ATOM     32  C   UNL     1     -34.270   4.769  81.682  1.00  0.00     0.177 C 
BRANCH  28  33
ATOM     33  O   UNL     1     -33.946   4.105  78.740  1.00  0.00    -0.384 OA
ATOM     34  H   UNL     1     -33.252   3.833  79.399  1.00  0.00     0.211 HD
ENDBRANCH  28  33
BRANCH  30  35
ATOM     35  O   UNL     1     -34.253   7.037  80.853  1.00  0.00    -0.387 OA
ATOM     36  H   UNL     1     -33.950   7.216  81.779  1.00  0.00     0.211 HD
ENDBRANCH  30  35
BRANCH  31  37
ATOM     37  C   UNL     1     -36.243   3.647  82.819  1.00  0.00     0.191 C 
BRANCH  37  38
ATOM     38  O   UNL     1     -35.398   3.797  83.927  1.00  0.00    -0.394 OA
ATOM     39  H   UNL     1     -35.854   3.363  84.693  1.00  0.00     0.210 HD
ENDBRANCH  37  38
ENDBRANCH  31  37
BRANCH  32  40
ATOM     40  O   UNL     1     -33.643   3.526  81.488  1.00  0.00    -0.387 OA
ATOM     41  H   UNL     1     -32.784   3.698  81.020  1.00  0.00     0.211 HD
ENDBRANCH  32  40
ENDBRANCH   1  27
TORSDOF 12
ENDMDL
MODEL 5
REMARK VINA RESULT:    -6.375      2.090      7.025
REMARK INTER + INTRA:         -11.026
REMARK INTER:                  -9.290
REMARK INTRA:                  -1.736
REMARK UNBOUND:                -1.669
REMARK SMILES O=c1c(O[C@@H]2O[C@@H](CO)[C@@H](O)[C@H](O)[C@H]2O)c(-c2ccc(O)c(O)c2)oc2cc(O)cc(O)c12
REMARK SMILES IDX 4 1 3 2 16 3 25 4 2 5 26 6 1 7 33 8 27 9 31 10 28 11 30 12
REMARK SMILES IDX 17 13 18 14 19 15 20 16 24 17 22 18 21 19 23 21 32 23 29 25
REMARK SMILES IDX 5 27 14 28 6 29 12 30 7 31 10 32 15 33 13 35 8 37 9 38 11 40
REMARK H PARENT 21 20 23 22 32 24 29 26 15 34 13 36 9 39 11 41
REMARK Flexibility Score: inf
ROOT
ATOM      1  O   UNL     1     -35.746   6.387  79.424  1.00  0.00    -0.454 OA
ENDROOT
BRANCH   1   2
ATOM      2  C   UNL     1     -36.691   5.561  80.052  1.00  0.00     0.214 A 
ATOM      3  C   UNL     1     -38.012   5.499  79.571  1.00  0.00     0.180 A 
ATOM      4  O   UNL     1     -38.882   4.653  80.111  1.00  0.00    -0.452 OA
ATOM      5  C   UNL     1     -36.325   4.724  81.116  1.00  0.00     0.239 A 
ATOM      6  C   UNL     1     -38.581   3.851  81.125  1.00  0.00     0.146 A 
ATOM      7  O   UNL     1     -35.137   4.737  81.537  1.00  0.00    -0.285 OA
ATOM      8  C   UNL     1     -37.281   3.855  81.684  1.00  0.00     0.111 A 
ATOM      9  C   UNL     1     -39.567   3.000  81.635  1.00  0.00     0.094 A 
ATOM     10  C   UNL     1     -36.996   2.989  82.769  1.00  0.00     0.134 A 
ATOM     11  C   UNL     1     -39.281   2.148  82.703  1.00  0.00     0.123 A 
ATOM     12  C   UNL     1     -38.001   2.144  83.268  1.00  0.00     0.093 A 
BRANCH   3  13
ATOM     13  C   UNL     1     -38.472   6.357  78.468  1.00  0.00     0.025 A 
ATOM     14  C   UNL     1     -38.193   6.019  77.137  1.00  0.00     0.016 A 
ATOM     15  C   UNL     1     -38.567   6.875  76.100  1.00  0.00     0.051 A 
ATOM     16  C   UNL     1     -39.231   8.078  76.381  1.00  0.00     0.157 A 
ATOM     17  C   UNL     1     -39.113   7.571  78.753  1.00  0.00     0.062 A 
ATOM     18  C   UNL     1     -39.502   8.427  77.716  1.00  0.00     0.158 A 
BRANCH  16  19
ATOM     19  O   UNL     1     -39.618   8.925  75.343  1.00  0.00    -0.504 OA
ATOM     20  H   UNL     1     -38.958   9.549  74.895  1.00  0.00     0.293 HD
ENDBRANCH  16  19
BRANCH  18  21
ATOM     21  O   UNL     1     -40.150   9.622  78.032  1.00  0.00    -0.504 OA
ATOM     22  H   UNL     1     -40.070  10.450  77.453  1.00  0.00     0.293 HD
ENDBRANCH  18  21
ENDBRANCH   3  13
BRANCH  10  23
ATOM     23  O   UNL     1     -35.729   2.962  83.353  1.00  0.00    -0.507 OA
ATOM     24  H   UNL     1     -34.889   3.129  82.812  1.00  0.00     0.293 HD
ENDBRANCH  10  23
BRANCH  11  25
ATOM     25  O   UNL     1     -40.278   1.308  83.195  1.00  0.00    -0.508 OA
ATOM     26  H   UNL     1     -40.089   0.636  83.930  1.00  0.00     0.293 HD
ENDBRANCH  11  25
ENDBRANCH   1   2
BRANCH   1  27
ATOM     27  C   UNL     1     -35.344   7.662  79.937  1.00  0.00     0.339 C 
ATOM     28  C   UNL     1     -33.808   7.762  80.083  1.00  0.00     0.214 C 
ATOM     29  O   UNL     1     -35.843   8.710  79.114  1.00  0.00    -0.332 OA
ATOM     30  C   UNL     1     -33.125   7.788  78.700  1.00  0.00     0.180 C 
ATOM     31  C   UNL     1     -35.326   8.622  77.793  1.00  0.00     0.179 C 
ATOM     32  C   UNL     1     -33.793   8.831  77.788  1.00  0.00     0.177 C 
BRANCH  28  33
ATOM     33  O   UNL     1     -33.498   8.927  80.806  1.00  0.00    -0.384 OA
ATOM     34  H   UNL     1     -32.527   9.098  80.682  1.00  0.00     0.211 HD
ENDBRANCH  28  33
BRANCH  30  35
ATOM     35  O   UNL     1     -33.207   6.512  78.116  1.00  0.00    -0.387 OA
ATOM     36  H   UNL     1     -33.165   5.853  78.856  1.00  0.00     0.211 HD
ENDBRANCH  30  35
BRANCH  31  37
ATOM     37  C   UNL     1     -36.024   9.661  76.906  1.00  0.00     0.191 C 
BRANCH  37  38
ATOM     38  O   UNL     1     -35.132  10.125  75.931  1.00  0.00    -0.394 OA
ATOM     39  H   UNL     1     -35.043   9.401  75.258  1.00  0.00     0.210 HD
ENDBRANCH  37  38
ENDBRANCH  31  37
BRANCH  32  40
ATOM     40  O   UNL     1     -33.466  10.120  78.246  1.00  0.00    -0.387 OA
ATOM     41  H   UNL     1     -33.725  10.761  77.535  1.00  0.00     0.211 HD
ENDBRANCH  32  40
ENDBRANCH   1  27
TORSDOF 12
ENDMDL
MODEL 6
REMARK VINA RESULT:    -6.352      2.197      7.868
REMARK INTER + INTRA:         -10.991
REMARK INTER:                  -9.440
REMARK INTRA:                  -1.551
REMARK UNBOUND:                -1.669
REMARK SMILES O=c1c(O[C@@H]2O[C@@H](CO)[C@@H](O)[C@H](O)[C@H]2O)c(-c2ccc(O)c(O)c2)oc2cc(O)cc(O)c12
REMARK SMILES IDX 4 1 3 2 16 3 25 4 2 5 26 6 1 7 33 8 27 9 31 10 28 11 30 12
REMARK SMILES IDX 17 13 18 14 19 15 20 16 24 17 22 18 21 19 23 21 32 23 29 25
REMARK SMILES IDX 5 27 14 28 6 29 12 30 7 31 10 32 15 33 13 35 8 37 9 38 11 40
REMARK H PARENT 21 20 23 22 32 24 29 26 15 34 13 36 9 39 11 41
REMARK Flexibility Score: inf
ROOT
ATOM      1  O   UNL     1     -38.397   6.669  79.194  1.00  0.00    -0.454 OA
ENDROOT
BRANCH   1   2
ATOM      2  C   UNL     1     -38.327   5.553  80.042  1.00  0.00     0.214 A 
ATOM      3  C   UNL     1     -37.088   5.132  80.561  1.00  0.00     0.180 A 
ATOM      4  O   UNL     1     -37.032   4.130  81.431  1.00  0.00    -0.452 OA
ATOM      5  C   UNL     1     -39.488   4.883  80.453  1.00  0.00     0.239 A 
ATOM      6  C   UNL     1     -38.105   3.463  81.839  1.00  0.00     0.146 A 
ATOM      7  O   UNL     1     -40.611   5.268  80.029  1.00  0.00    -0.285 OA
ATOM      8  C   UNL     1     -39.391   3.806  81.359  1.00  0.00     0.111 A 
ATOM      9  C   UNL     1     -37.947   2.414  82.751  1.00  0.00     0.094 A 
ATOM     10  C   UNL     1     -40.513   3.068  81.812  1.00  0.00     0.134 A 
ATOM     11  C   UNL     1     -39.056   1.692  83.196  1.00  0.00     0.123 A 
ATOM     12  C   UNL     1     -40.333   2.017  82.726  1.00  0.00     0.093 A 
BRANCH   3  13
ATOM     13  C   UNL     1     -35.826   5.777  80.165  1.00  0.00     0.025 A 
ATOM     14  C   UNL     1     -34.956   5.149  79.265  1.00  0.00     0.016 A 
ATOM     15  C   UNL     1     -33.727   5.732  78.951  1.00  0.00     0.051 A 
ATOM     16  C   UNL     1     -33.356   6.955  79.528  1.00  0.00     0.157 A 
ATOM     17  C   UNL     1     -35.446   6.988  80.763  1.00  0.00     0.062 A 
ATOM     18  C   UNL     1     -34.221   7.582  80.442  1.00  0.00     0.158 A 
BRANCH  16  19
ATOM     19  O   UNL     1     -32.135   7.543  79.202  1.00  0.00    -0.504 OA
ATOM     20  H   UNL     1     -31.773   8.334  79.722  1.00  0.00     0.293 HD
ENDBRANCH  16  19
BRANCH  18  21
ATOM     21  O   UNL     1     -33.878   8.794  81.045  1.00  0.00    -0.504 OA
ATOM     22  H   UNL     1     -34.111   9.689  80.629  1.00  0.00     0.293 HD
ENDBRANCH  18  21
ENDBRANCH   3  13
BRANCH  10  23
ATOM     23  O   UNL     1     -41.799   3.369  81.362  1.00  0.00    -0.507 OA
ATOM     24  H   UNL     1     -42.619   3.180  81.927  1.00  0.00     0.293 HD
ENDBRANCH  10  23
BRANCH  11  25
ATOM     25  O   UNL     1     -38.877   0.651  84.105  1.00  0.00    -0.508 OA
ATOM     26  H   UNL     1     -37.990   0.504  84.573  1.00  0.00     0.293 HD
ENDBRANCH  11  25
ENDBRANCH   1   2
BRANCH   1  27
ATOM     27  C   UNL     1     -38.029   6.637  77.810  1.00  0.00     0.339 C 
ATOM     28  C   UNL     1     -39.206   7.049  76.896  1.00  0.00     0.214 C 
ATOM     29  O   UNL     1     -36.894   7.461  77.577  1.00  0.00    -0.332 OA
ATOM     30  C   UNL     1     -39.533   8.547  77.064  1.00  0.00     0.180 C 
ATOM     31  C   UNL     1     -37.167   8.820  77.893  1.00  0.00     0.179 C 
ATOM     32  C   UNL     1     -38.255   9.395  76.955  1.00  0.00     0.177 C 
BRANCH  28  33
ATOM     33  O   UNL     1     -38.861   6.768  75.563  1.00  0.00    -0.384 OA
ATOM     34  H   UNL     1     -39.015   5.797  75.420  1.00  0.00     0.211 HD
ENDBRANCH  28  33
BRANCH  30  35
ATOM     35  O   UNL     1     -40.145   8.753  78.313  1.00  0.00    -0.387 OA
ATOM     36  H   UNL     1     -40.082   7.897  78.810  1.00  0.00     0.211 HD
ENDBRANCH  30  35
BRANCH  31  37
ATOM     37  C   UNL     1     -35.871   9.634  77.793  1.00  0.00     0.191 C 
BRANCH  37  38
ATOM     38  O   UNL     1     -34.952   8.961  76.978  1.00  0.00    -0.394 OA
ATOM     39  H   UNL     1     -35.004   9.382  76.082  1.00  0.00     0.210 HD
ENDBRANCH  37  38
ENDBRANCH  31  37
BRANCH  32  40
ATOM     40  O   UNL     1     -37.812   9.390  75.620  1.00  0.00    -0.387 OA
ATOM     41  H   UNL     1     -37.856   8.452  75.297  1.00  0.00     0.211 HD
ENDBRANCH  32  40
ENDBRANCH   1  27
TORSDOF 12
ENDMDL
MODEL 7
REMARK VINA RESULT:    -6.140      2.900      4.758
REMARK INTER + INTRA:         -10.680
REMARK INTER:                  -9.872
REMARK INTRA:                  -0.808
REMARK UNBOUND:                -1.669
REMARK SMILES O=c1c(O[C@@H]2O[C@@H](CO)[C@@H](O)[C@H](O)[C@H]2O)c(-c2ccc(O)c(O)c2)oc2cc(O)cc(O)c12
REMARK SMILES IDX 4 1 3 2 16 3 25 4 2 5 26 6 1 7 33 8 27 9 31 10 28 11 30 12
REMARK SMILES IDX 17 13 18 14 19 15 20 16 24 17 22 18 21 19 23 21 32 23 29 25
REMARK SMILES IDX 5 27 14 28 6 29 12 30 7 31 10 32 15 33 13 35 8 37 9 38 11 40
REMARK H PARENT 21 20 23 22 32 24 29 26 15 34 13 36 9 39 11 41
REMARK Flexibility Score: inf
ROOT
ATOM      1  O   UNL     1     -38.142   5.405  77.360  1.00  0.00    -0.454 OA
ENDROOT
BRANCH   1   2
ATOM      2  C   UNL     1     -37.146   6.332  77.703  1.00  0.00     0.214 A 
ATOM      3  C   UNL     1     -37.417   7.712  77.666  1.00  0.00     0.180 A 
ATOM      4  O   UNL     1     -36.502   8.586  78.073  1.00  0.00    -0.452 OA
ATOM      5  C   UNL     1     -35.891   5.907  78.162  1.00  0.00     0.239 A 
ATOM      6  C   UNL     1     -35.300   8.228  78.506  1.00  0.00     0.146 A 
ATOM      7  O   UNL     1     -35.642   4.674  78.238  1.00  0.00    -0.285 OA
ATOM      8  C   UNL     1     -34.933   6.862  78.564  1.00  0.00     0.111 A 
ATOM      9  C   UNL     1     -34.398   9.220  78.905  1.00  0.00     0.094 A 
ATOM     10  C   UNL     1     -33.638   6.517  79.025  1.00  0.00     0.134 A 
ATOM     11  C   UNL     1     -33.125   8.874  79.361  1.00  0.00     0.123 A 
ATOM     12  C   UNL     1     -32.746   7.529  79.420  1.00  0.00     0.093 A 
BRANCH   3  13
ATOM     13  C   UNL     1     -38.706   8.233  77.183  1.00  0.00     0.025 A 
ATOM     14  C   UNL     1     -38.975   8.305  75.809  1.00  0.00     0.016 A 
ATOM     15  C   UNL     1     -40.169   8.869  75.355  1.00  0.00     0.051 A 
ATOM     16  C   UNL     1     -41.112   9.361  76.270  1.00  0.00     0.157 A 
ATOM     17  C   UNL     1     -39.636   8.747  78.098  1.00  0.00     0.062 A 
ATOM     18  C   UNL     1     -40.840   9.301  77.648  1.00  0.00     0.158 A 
BRANCH  16  19
ATOM     19  O   UNL     1     -42.310   9.909  75.816  1.00  0.00    -0.504 OA
ATOM     20  H   UNL     1     -43.205   9.502  76.062  1.00  0.00     0.293 HD
ENDBRANCH  16  19
BRANCH  18  21
ATOM     21  O   UNL     1     -41.750   9.792  78.585  1.00  0.00    -0.504 OA
ATOM     22  H   UNL     1     -42.474   9.211  78.991  1.00  0.00     0.293 HD
ENDBRANCH  18  21
ENDBRANCH   3  13
BRANCH  10  23
ATOM     23  O   UNL     1     -33.233   5.184  79.095  1.00  0.00    -0.507 OA
ATOM     24  H   UNL     1     -33.306   4.562  78.299  1.00  0.00     0.293 HD
ENDBRANCH  10  23
BRANCH  11  25
ATOM     25  O   UNL     1     -32.242   9.878  79.754  1.00  0.00    -0.508 OA
ATOM     26  H   UNL     1     -31.932   9.964  80.715  1.00  0.00     0.293 HD
ENDBRANCH  11  25
ENDBRANCH   1   2
BRANCH   1  27
ATOM     27  C   UNL     1     -39.378   5.272  78.071  1.00  0.00     0.339 C 
ATOM     28  C   UNL     1     -40.046   3.902  77.808  1.00  0.00     0.214 C 
ATOM     29  O   UNL     1     -39.176   5.478  79.464  1.00  0.00    -0.332 OA
ATOM     30  C   UNL     1     -39.229   2.762  78.450  1.00  0.00     0.180 C 
ATOM     31  C   UNL     1     -38.290   4.509  80.008  1.00  0.00     0.179 C 
ATOM     32  C   UNL     1     -38.902   3.090  79.916  1.00  0.00     0.177 C 
BRANCH  28  33
ATOM     33  O   UNL     1     -41.350   3.928  78.332  1.00  0.00    -0.384 OA
ATOM     34  H   UNL     1     -41.272   3.815  79.316  1.00  0.00     0.211 HD
ENDBRANCH  28  33
BRANCH  30  35
ATOM     35  O   UNL     1     -38.043   2.570  77.720  1.00  0.00    -0.387 OA
ATOM     36  H   UNL     1     -38.282   2.044  76.915  1.00  0.00     0.211 HD
ENDBRANCH  30  35
BRANCH  31  37
ATOM     37  C   UNL     1     -37.969   4.875  81.462  1.00  0.00     0.191 C 
BRANCH  37  38
ATOM     38  O   UNL     1     -39.129   5.329  82.103  1.00  0.00    -0.394 OA
ATOM     39  H   UNL     1     -38.975   5.228  83.077  1.00  0.00     0.210 HD
ENDBRANCH  37  38
ENDBRANCH  31  37
BRANCH  32  40
ATOM     40  O   UNL     1     -40.079   3.008  80.680  1.00  0.00    -0.387 OA
ATOM     41  H   UNL     1     -39.826   2.671  81.579  1.00  0.00     0.211 HD
ENDBRANCH  32  40
ENDBRANCH   1  27
TORSDOF 12
ENDMDL
MODEL 8
REMARK VINA RESULT:    -6.095      2.400      6.499
REMARK INTER + INTRA:         -10.614
REMARK INTER:                  -9.967
REMARK INTRA:                  -0.647
REMARK UNBOUND:                -1.669
REMARK SMILES O=c1c(O[C@@H]2O[C@@H](CO)[C@@H](O)[C@H](O)[C@H]2O)c(-c2ccc(O)c(O)c2)oc2cc(O)cc(O)c12
REMARK SMILES IDX 4 1 3 2 16 3 25 4 2 5 26 6 1 7 33 8 27 9 31 10 28 11 30 12
REMARK SMILES IDX 17 13 18 14 19 15 20 16 24 17 22 18 21 19 23 21 32 23 29 25
REMARK SMILES IDX 5 27 14 28 6 29 12 30 7 31 10 32 15 33 13 35 8 37 9 38 11 40
REMARK H PARENT 21 20 23 22 32 24 29 26 15 34 13 36 9 39 11 41
REMARK Flexibility Score: inf
ROOT
ATOM      1  O   UNL     1     -36.843   7.309  79.965  1.00  0.00    -0.454 OA
ENDROOT
BRANCH   1   2
ATOM      2  C   UNL     1     -37.755   6.347  80.425  1.00  0.00     0.214 A 
ATOM      3  C   UNL     1     -38.989   6.169  79.770  1.00  0.00     0.180 A 
ATOM      4  O   UNL     1     -39.815   5.200  80.152  1.00  0.00    -0.452 OA
ATOM      5  C   UNL     1     -37.430   5.493  81.489  1.00  0.00     0.239 A 
ATOM      6  C   UNL     1     -39.551   4.376  81.159  1.00  0.00     0.146 A 
ATOM      7  O   UNL     1     -36.315   5.612  82.063  1.00  0.00    -0.285 OA
ATOM      8  C   UNL     1     -38.342   4.491  81.884  1.00  0.00     0.111 A 
ATOM      9  C   UNL     1     -40.487   3.393  81.495  1.00  0.00     0.094 A 
ATOM     10  C   UNL     1     -38.096   3.598  82.957  1.00  0.00     0.134 A 
ATOM     11  C   UNL     1     -40.240   2.514  82.551  1.00  0.00     0.123 A 
ATOM     12  C   UNL     1     -39.050   2.618  83.280  1.00  0.00     0.093 A 
BRANCH   3  13
ATOM     13  C   UNL     1     -39.403   7.035  78.656  1.00  0.00     0.025 A 
ATOM     14  C   UNL     1     -40.278   8.108  78.875  1.00  0.00     0.016 A 
ATOM     15  C   UNL     1     -40.726   8.881  77.802  1.00  0.00     0.051 A 
ATOM     16  C   UNL     1     -40.300   8.594  76.497  1.00  0.00     0.157 A 
ATOM     17  C   UNL     1     -38.996   6.731  77.349  1.00  0.00     0.062 A 
ATOM     18  C   UNL     1     -39.432   7.511  76.272  1.00  0.00     0.158 A 
BRANCH  16  19
ATOM     19  O   UNL     1     -40.736   9.376  75.429  1.00  0.00    -0.504 OA
ATOM     20  H   UNL     1     -40.081   9.838  74.808  1.00  0.00     0.293 HD
ENDBRANCH  16  19
BRANCH  18  21
ATOM     21  O   UNL     1     -38.997   7.189  74.985  1.00  0.00    -0.504 OA
ATOM     22  H   UNL     1     -39.611   6.769  74.297  1.00  0.00     0.293 HD
ENDBRANCH  18  21
ENDBRANCH   3  13
BRANCH  10  23
ATOM     23  O   UNL     1     -36.919   3.677  83.702  1.00  0.00    -0.507 OA
ATOM     24  H   UNL     1     -36.587   2.898  84.258  1.00  0.00     0.293 HD
ENDBRANCH  10  23
BRANCH  11  25
ATOM     25  O   UNL     1     -41.185   1.541  82.869  1.00  0.00    -0.508 OA
ATOM     26  H   UNL     1     -41.509   1.408  83.819  1.00  0.00     0.293 HD
ENDBRANCH  11  25
ENDBRANCH   1   2
BRANCH   1  27
ATOM     27  C   UNL     1     -36.187   7.235  78.694  1.00  0.00     0.339 C 
ATOM     28  C   UNL     1     -35.254   8.445  78.459  1.00  0.00     0.214 C 
ATOM     29  O   UNL     1     -35.470   6.012  78.574  1.00  0.00    -0.332 OA
ATOM     30  C   UNL     1     -34.037   8.392  79.406  1.00  0.00     0.180 C 
ATOM     31  C   UNL     1     -34.453   5.909  79.561  1.00  0.00     0.179 C 
ATOM     32  C   UNL     1     -33.378   7.003  79.360  1.00  0.00     0.177 C 
BRANCH  28  33
ATOM     33  O   UNL     1     -34.834   8.438  77.118  1.00  0.00    -0.384 OA
ATOM     34  H   UNL     1     -34.329   9.281  76.965  1.00  0.00     0.211 HD
ENDBRANCH  28  33
BRANCH  30  35
ATOM     35  O   UNL     1     -34.453   8.687  80.716  1.00  0.00    -0.387 OA
ATOM     36  H   UNL     1     -34.527   9.673  80.779  1.00  0.00     0.211 HD
ENDBRANCH  30  35
BRANCH  31  37
ATOM     37  C   UNL     1     -33.829   4.509  79.502  1.00  0.00     0.191 C 
BRANCH  37  38
ATOM     38  O   UNL     1     -33.849   3.928  80.776  1.00  0.00    -0.394 OA
ATOM     39  H   UNL     1     -33.518   3.000  80.671  1.00  0.00     0.210 HD
ENDBRANCH  37  38
ENDBRANCH  31  37
BRANCH  32  40
ATOM     40  O   UNL     1     -32.732   6.842  78.121  1.00  0.00    -0.387 OA
ATOM     41  H   UNL     1     -31.855   7.303  78.182  1.00  0.00     0.211 HD
ENDBRANCH  32  40
ENDBRANCH   1  27
TORSDOF 12
ENDMDL
MODEL 9
REMARK VINA RESULT:    -6.035      2.787      6.038
REMARK INTER + INTRA:         -10.525
REMARK INTER:                 -10.219
REMARK INTRA:                  -0.307
REMARK UNBOUND:                -1.669
REMARK SMILES O=c1c(O[C@@H]2O[C@@H](CO)[C@@H](O)[C@H](O)[C@H]2O)c(-c2ccc(O)c(O)c2)oc2cc(O)cc(O)c12
REMARK SMILES IDX 4 1 3 2 16 3 25 4 2 5 26 6 1 7 33 8 27 9 31 10 28 11 30 12
REMARK SMILES IDX 17 13 18 14 19 15 20 16 24 17 22 18 21 19 23 21 32 23 29 25
REMARK SMILES IDX 5 27 14 28 6 29 12 30 7 31 10 32 15 33 13 35 8 37 9 38 11 40
REMARK H PARENT 21 20 23 22 32 24 29 26 15 34 13 36 9 39 11 41
REMARK Flexibility Score: inf
ROOT
ATOM      1  O   UNL     1     -38.280   6.954  78.314  1.00  0.00    -0.454 OA
ENDROOT
BRANCH   1   2
ATOM      2  C   UNL     1     -37.480   6.319  79.276  1.00  0.00     0.214 A 
ATOM      3  C   UNL     1     -37.757   4.997  79.671  1.00  0.00     0.180 A 
ATOM      4  O   UNL     1     -36.949   4.367  80.517  1.00  0.00    -0.452 OA
ATOM      5  C   UNL     1     -36.345   6.953  79.804  1.00  0.00     0.239 A 
ATOM      6  C   UNL     1     -35.871   4.932  81.047  1.00  0.00     0.146 A 
ATOM      7  O   UNL     1     -36.058   8.123  79.434  1.00  0.00    -0.285 OA
ATOM      8  C   UNL     1     -35.522   6.263  80.719  1.00  0.00     0.111 A 
ATOM      9  C   UNL     1     -35.084   4.193  81.937  1.00  0.00     0.094 A 
ATOM     10  C   UNL     1     -34.367   6.837  81.309  1.00  0.00     0.134 A 
ATOM     11  C   UNL     1     -33.948   4.761  82.514  1.00  0.00     0.123 A 
ATOM     12  C   UNL     1     -33.592   6.078  82.202  1.00  0.00     0.093 A 
BRANCH   3  13
ATOM     13  C   UNL     1     -38.937   4.274  79.171  1.00  0.00     0.025 A 
ATOM     14  C   UNL     1     -39.082   4.007  77.803  1.00  0.00     0.016 A 
ATOM     15  C   UNL     1     -40.238   3.387  77.326  1.00  0.00     0.051 A 
ATOM     16  C   UNL     1     -41.261   3.021  78.212  1.00  0.00     0.157 A 
ATOM     17  C   UNL     1     -39.969   3.931  80.055  1.00  0.00     0.062 A 
ATOM     18  C   UNL     1     -41.125   3.298  79.584  1.00  0.00     0.158 A 
BRANCH  16  19
ATOM     19  O   UNL     1     -42.409   2.388  77.736  1.00  0.00    -0.504 OA
ATOM     20  H   UNL     1     -43.328   2.798  77.856  1.00  0.00     0.293 HD
ENDBRANCH  16  19
BRANCH  18  21
ATOM     21  O   UNL     1     -42.129   2.958  80.492  1.00  0.00    -0.504 OA
ATOM     22  H   UNL     1     -42.800   2.222  80.305  1.00  0.00     0.293 HD
ENDBRANCH  18  21
ENDBRANCH   3  13
BRANCH  10  23
ATOM     23  O   UNL     1     -33.987   8.147  81.018  1.00  0.00    -0.507 OA
ATOM     24  H   UNL     1     -34.348   8.640  80.210  1.00  0.00     0.293 HD
ENDBRANCH  10  23
BRANCH  11  25
ATOM     25  O   UNL     1     -33.177   4.007  83.397  1.00  0.00    -0.508 OA
ATOM     26  H   UNL     1     -32.854   3.078  83.157  1.00  0.00     0.293 HD
ENDBRANCH  11  25
ENDBRANCH   1   2
BRANCH   1  27
ATOM     27  C   UNL     1     -38.208   8.355  78.023  1.00  0.00     0.339 C 
ATOM     28  C   UNL     1     -37.709   8.615  76.583  1.00  0.00     0.214 C 
ATOM     29  O   UNL     1     -39.468   8.975  78.243  1.00  0.00    -0.332 OA
ATOM     30  C   UNL     1     -38.763   8.168  75.549  1.00  0.00     0.180 C 
ATOM     31  C   UNL     1     -40.467   8.435  77.389  1.00  0.00     0.179 C 
ATOM     32  C   UNL     1     -40.146   8.738  75.905  1.00  0.00     0.177 C 
BRANCH  28  33
ATOM     33  O   UNL     1     -37.433   9.985  76.442  1.00  0.00    -0.384 OA
ATOM     34  H   UNL     1     -38.190  10.386  75.937  1.00  0.00     0.211 HD
ENDBRANCH  28  33
BRANCH  30  35
ATOM     35  O   UNL     1     -38.814   6.763  75.512  1.00  0.00    -0.387 OA
ATOM     36  H   UNL     1     -37.877   6.443  75.462  1.00  0.00     0.211 HD
ENDBRANCH  30  35
BRANCH  31  37
ATOM     37  C   UNL     1     -41.835   9.008  77.781  1.00  0.00     0.191 C 
BRANCH  37  38
ATOM     38  O   UNL     1     -42.555   9.346  76.628  1.00  0.00    -0.394 OA
ATOM     39  H   UNL     1     -41.928   9.258  75.865  1.00  0.00     0.210 HD
ENDBRANCH  37  38
ENDBRANCH  31  37
BRANCH  32  40
ATOM     40  O   UNL     1     -40.146  10.125  75.672  1.00  0.00    -0.387 OA
ATOM     41  H   UNL     1     -40.113  10.574  76.556  1.00  0.00     0.211 HD
ENDBRANCH  32  40
ENDBRANCH   1  27
TORSDOF 12
ENDMDL
