MODEL 1
REMARK VINA RESULT:    -5.226      0.000      0.000
REMARK INTER + INTRA:         -10.784
REMARK INTER:                  -8.893
REMARK INTRA:                  -1.892
REMARK UNBOUND:                -1.892
REMARK SMILES CCCCCCCCCCCCCC(=O)[O-]
REMARK SMILES IDX 8 1 9 2 10 3 11 4 12 5 13 6 14 7 15 8 16 9 7 10 6 11 5 12
REMARK SMILES IDX 4 13 3 14 2 15 1 16
REMARK H PARENT
REMARK Flexibility Score: inf
ROOT
ATOM      1  C   UNL     1      55.129  17.556   1.626  1.00  0.00     0.000 C 
ENDROOT
BRANCH   1   2
ATOM      2  C   UNL     1      54.289  16.385   2.165  1.00  0.00     0.000 C 
BRANCH   2   3
ATOM      3  C   UNL     1      52.779  16.667   2.108  1.00  0.00     0.000 C 
BRANCH   3   4
ATOM      4  C   UNL     1      52.383  17.926   2.900  1.00  0.00     0.000 C 
BRANCH   4   5
ATOM      5  C   UNL     1      50.997  18.461   2.502  1.00  0.00     0.006 C 
BRANCH   5   6
ATOM      6  C   UNL     1      50.614  18.100   1.061  1.00  0.00     0.053 C 
BRANCH   6   7
ATOM      7  C   UNL     1      50.033  19.289   0.363  1.00  0.00     0.041 C 
ATOM      8  O   UNL     1      48.958  19.801   0.770  1.00  0.00    -0.550 OA
ATOM      9  O   UNL     1      50.654  19.801  -0.770  1.00  0.00    -0.550 OA
ENDBRANCH   6   7
ENDBRANCH   5   6
ENDBRANCH   4   5
ENDBRANCH   3   4
ENDBRANCH   2   3
ENDBRANCH   1   2
BRANCH   1  10
ATOM     10  C   UNL     1      56.084  17.134   0.495  1.00  0.00     0.000 C 
BRANCH  10  11
ATOM     11  C   UNL     1      55.501  17.234  -0.931  1.00  0.00    -0.000 C 
BRANCH  11  12
ATOM     12  C   UNL     1      54.152  17.966  -1.042  1.00  0.00    -0.000 C 
BRANCH  12  13
ATOM     13  C   UNL     1      53.018  17.057  -1.546  1.00  0.00    -0.000 C 
BRANCH  13  14
ATOM     14  C   UNL     1      53.500  15.639  -1.902  1.00  0.00    -0.000 C 
BRANCH  14  15
ATOM     15  C   UNL     1      53.082  14.540  -0.908  1.00  0.00    -0.003 C 
ATOM     16  C   UNL     1      54.259  13.702  -0.412  1.00  0.00     0.004 C 
ENDBRANCH  14  15
ENDBRANCH  13  14
ENDBRANCH  12  13
ENDBRANCH  11  12
ENDBRANCH  10  11
ENDBRANCH   1  10
TORSDOF 12
ENDMDL
MODEL 2
REMARK VINA RESULT:    -5.213      1.548      3.156
REMARK INTER + INTRA:         -10.762
REMARK INTER:                  -8.848
REMARK INTRA:                  -1.913
REMARK UNBOUND:                -1.892
REMARK SMILES CCCCCCCCCCCCCC(=O)[O-]
REMARK SMILES IDX 8 1 9 2 10 3 11 4 12 5 13 6 14 7 15 8 16 9 7 10 6 11 5 12
REMARK SMILES IDX 4 13 3 14 2 15 1 16
REMARK H PARENT
REMARK Flexibility Score: inf
ROOT
ATOM      1  C   UNL     1      56.083  17.142   0.316  1.00  0.00     0.000 C 
ENDROOT
BRANCH   1   2
ATOM      2  C   UNL     1      55.447  17.215  -1.083  1.00  0.00     0.000 C 
BRANCH   2   3
ATOM      3  C   UNL     1      54.102  17.958  -1.083  1.00  0.00     0.000 C 
BRANCH   3   4
ATOM      4  C   UNL     1      52.978  17.145  -1.749  1.00  0.00     0.000 C 
BRANCH   4   5
ATOM      5  C   UNL     1      51.577  17.637  -1.349  1.00  0.00     0.006 C 
BRANCH   5   6
ATOM      6  C   UNL     1      50.871  18.395  -2.481  1.00  0.00     0.053 C 
BRANCH   6   7
ATOM      7  C   UNL     1      49.470  18.738  -2.083  1.00  0.00     0.041 C 
ATOM      8  O   UNL     1      49.255  19.445  -1.064  1.00  0.00    -0.550 OA
ATOM      9  O   UNL     1      48.398  18.236  -2.811  1.00  0.00    -0.550 OA
ENDBRANCH   6   7
ENDBRANCH   5   6
ENDBRANCH   4   5
ENDBRANCH   3   4
ENDBRANCH   2   3
ENDBRANCH   1   2
BRANCH   1  10
ATOM     10  C   UNL     1      55.322  17.977   1.362  1.00  0.00     0.000 C 
BRANCH  10  11
ATOM     11  C   UNL     1      54.703  17.171   2.524  1.00  0.00    -0.000 C 
BRANCH  11  12
ATOM     12  C   UNL     1      53.166  17.085   2.521  1.00  0.00    -0.000 C 
BRANCH  12  13
ATOM     13  C   UNL     1      52.634  15.926   1.660  1.00  0.00    -0.000 C 
BRANCH  13  14
ATOM     14  C   UNL     1      53.583  14.714   1.634  1.00  0.00    -0.000 C 
BRANCH  14  15
ATOM     15  C   UNL     1      53.814  14.097   0.242  1.00  0.00    -0.003 C 
ATOM     16  C   UNL     1      55.207  13.491   0.080  1.00  0.00     0.004 C 
ENDBRANCH  14  15
ENDBRANCH  13  14
ENDBRANCH  12  13
ENDBRANCH  11  12
ENDBRANCH  10  11
ENDBRANCH   1  10
TORSDOF 12
ENDMDL
MODEL 3
REMARK VINA RESULT:    -5.186      4.514      6.819
REMARK INTER + INTRA:         -10.715
REMARK INTER:                  -9.192
REMARK INTRA:                  -1.523
REMARK UNBOUND:                -1.892
REMARK SMILES CCCCCCCCCCCCCC(=O)[O-]
REMARK SMILES IDX 8 1 9 2 10 3 11 4 12 5 13 6 14 7 15 8 16 9 7 10 6 11 5 12
REMARK SMILES IDX 4 13 3 14 2 15 1 16
REMARK H PARENT
REMARK Flexibility Score: inf
ROOT
ATOM      1  C   UNL     1      53.447  15.510  -1.788  1.00  0.00     0.000 C 
ENDROOT
BRANCH   1   2
ATOM      2  C   UNL     1      53.174  14.636  -0.551  1.00  0.00     0.000 C 
BRANCH   2   3
ATOM      3  C   UNL     1      54.175  13.477  -0.415  1.00  0.00     0.000 C 
BRANCH   3   4
ATOM      4  C   UNL     1      55.154  13.677   0.755  1.00  0.00     0.000 C 
BRANCH   4   5
ATOM      5  C   UNL     1      56.359  12.724   0.685  1.00  0.00     0.006 C 
BRANCH   5   6
ATOM      6  C   UNL     1      56.204  11.652  -0.401  1.00  0.00     0.053 C 
BRANCH   6   7
ATOM      7  C   UNL     1      57.543  11.116  -0.800  1.00  0.00     0.041 C 
ATOM      8  O   UNL     1      58.584  11.510  -0.212  1.00  0.00    -0.550 OA
ATOM      9  O   UNL     1      57.646  10.217  -1.855  1.00  0.00    -0.550 OA
ENDBRANCH   6   7
ENDBRANCH   5   6
ENDBRANCH   4   5
ENDBRANCH   3   4
ENDBRANCH   2   3
ENDBRANCH   1   2
BRANCH   1  10
ATOM     10  C   UNL     1      53.077  16.988  -1.568  1.00  0.00     0.000 C 
BRANCH  10  11
ATOM     11  C   UNL     1      54.195  17.865  -0.966  1.00  0.00    -0.000 C 
BRANCH  11  12
ATOM     12  C   UNL     1      55.574  17.189  -0.855  1.00  0.00    -0.000 C 
BRANCH  12  13
ATOM     13  C   UNL     1      56.111  17.159   0.586  1.00  0.00    -0.000 C 
BRANCH  13  14
ATOM     14  C   UNL     1      55.178  17.864   1.588  1.00  0.00    -0.000 C 
BRANCH  14  15
ATOM     15  C   UNL     1      54.296  16.924   2.429  1.00  0.00    -0.003 C 
ATOM     16  C   UNL     1      52.892  17.476   2.668  1.00  0.00     0.004 C 
ENDBRANCH  14  15
ENDBRANCH  13  14
ENDBRANCH  12  13
ENDBRANCH  11  12
ENDBRANCH  10  11
ENDBRANCH   1  10
TORSDOF 12
ENDMDL
MODEL 4
REMARK VINA RESULT:    -5.134      1.587      3.821
REMARK INTER + INTRA:         -10.627
REMARK INTER:                  -9.001
REMARK INTRA:                  -1.625
REMARK UNBOUND:                -1.892
REMARK SMILES CCCCCCCCCCCCCC(=O)[O-]
REMARK SMILES IDX 8 1 9 2 10 3 11 4 12 5 13 6 14 7 15 8 16 9 7 10 6 11 5 12
REMARK SMILES IDX 4 13 3 14 2 15 1 16
REMARK H PARENT
REMARK Flexibility Score: inf
ROOT
ATOM      1  C   UNL     1      53.233  14.467  -0.986  1.00  0.00     0.000 C 
ENDROOT
BRANCH   1   2
ATOM      2  C   UNL     1      53.618  15.693  -1.832  1.00  0.00     0.000 C 
BRANCH   2   3
ATOM      3  C   UNL     1      52.463  16.698  -1.974  1.00  0.00     0.000 C 
BRANCH   3   4
ATOM      4  C   UNL     1      52.733  18.016  -1.229  1.00  0.00     0.000 C 
BRANCH   4   5
ATOM      5  C   UNL     1      51.475  18.892  -1.106  1.00  0.00     0.006 C 
BRANCH   5   6
ATOM      6  C   UNL     1      50.239  18.247  -1.746  1.00  0.00     0.053 C 
BRANCH   6   7
ATOM      7  C   UNL     1      49.201  19.285  -2.038  1.00  0.00     0.041 C 
ATOM      8  O   UNL     1      48.074  18.945  -2.485  1.00  0.00    -0.550 OA
ATOM      9  O   UNL     1      49.496  20.631  -1.866  1.00  0.00    -0.550 OA
ENDBRANCH   6   7
ENDBRANCH   5   6
ENDBRANCH   4   5
ENDBRANCH   3   4
ENDBRANCH   2   3
ENDBRANCH   1   2
BRANCH   1  10
ATOM     10  C   UNL     1      54.316  14.083   0.038  1.00  0.00     0.000 C 
BRANCH  10  11
ATOM     11  C   UNL     1      54.010  14.472   1.500  1.00  0.00    -0.000 C 
BRANCH  11  12
ATOM     12  C   UNL     1      52.711  15.272   1.710  1.00  0.00    -0.000 C 
BRANCH  12  13
ATOM     13  C   UNL     1      52.964  16.768   1.958  1.00  0.00    -0.000 C 
BRANCH  13  14
ATOM     14  C   UNL     1      54.399  17.064   2.431  1.00  0.00    -0.000 C 
BRANCH  14  15
ATOM     15  C   UNL     1      55.257  17.874   1.442  1.00  0.00    -0.003 C 
ATOM     16  C   UNL     1      56.520  17.136   1.001  1.00  0.00     0.004 C 
ENDBRANCH  14  15
ENDBRANCH  13  14
ENDBRANCH  12  13
ENDBRANCH  11  12
ENDBRANCH  10  11
ENDBRANCH   1  10
TORSDOF 12
ENDMDL
MODEL 5
REMARK VINA RESULT:    -5.054      1.158      3.749
REMARK INTER + INTRA:         -10.491
REMARK INTER:                  -8.934
REMARK INTRA:                  -1.558
REMARK UNBOUND:                -1.892
REMARK SMILES CCCCCCCCCCCCCC(=O)[O-]
REMARK SMILES IDX 8 1 9 2 10 3 11 4 12 5 13 6 14 7 15 8 16 9 7 10 6 11 5 12
REMARK SMILES IDX 4 13 3 14 2 15 1 16
REMARK H PARENT
REMARK Flexibility Score: inf
ROOT
ATOM      1  C   UNL     1      52.996  14.610  -0.922  1.00  0.00     0.000 C 
ENDROOT
BRANCH   1   2
ATOM      2  C   UNL     1      53.309  15.695  -1.967  1.00  0.00     0.000 C 
BRANCH   2   3
ATOM      3  C   UNL     1      52.902  17.102  -1.498  1.00  0.00     0.000 C 
BRANCH   3   4
ATOM      4  C   UNL     1      51.677  17.644  -2.255  1.00  0.00     0.000 C 
BRANCH   4   5
ATOM      5  C   UNL     1      50.901  18.696  -1.444  1.00  0.00     0.006 C 
BRANCH   5   6
ATOM      6  C   UNL     1      50.841  18.364   0.052  1.00  0.00     0.053 C 
BRANCH   6   7
ATOM      7  C   UNL     1      49.950  19.331   0.766  1.00  0.00     0.041 C 
ATOM      8  O   UNL     1      48.919  19.779   0.200  1.00  0.00    -0.550 OA
ATOM      9  O   UNL     1      50.286  19.777   2.039  1.00  0.00    -0.550 OA
ENDBRANCH   6   7
ENDBRANCH   5   6
ENDBRANCH   4   5
ENDBRANCH   3   4
ENDBRANCH   2   3
ENDBRANCH   1   2
BRANCH   1  10
ATOM     10  C   UNL     1      54.147  14.392   0.076  1.00  0.00     0.000 C 
BRANCH  10  11
ATOM     11  C   UNL     1      53.799  14.664   1.555  1.00  0.00    -0.000 C 
BRANCH  11  12
ATOM     12  C   UNL     1      52.649  15.661   1.788  1.00  0.00    -0.000 C 
BRANCH  12  13
ATOM     13  C   UNL     1      53.127  16.996   2.382  1.00  0.00    -0.000 C 
BRANCH  13  14
ATOM     14  C   UNL     1      54.660  17.086   2.500  1.00  0.00    -0.000 C 
BRANCH  14  15
ATOM     15  C   UNL     1      55.358  17.847   1.359  1.00  0.00    -0.003 C 
ATOM     16  C   UNL     1      56.602  17.132   0.835  1.00  0.00     0.004 C 
ENDBRANCH  14  15
ENDBRANCH  13  14
ENDBRANCH  12  13
ENDBRANCH  11  12
ENDBRANCH  10  11
ENDBRANCH   1  10
TORSDOF 12
ENDMDL
MODEL 6
REMARK VINA RESULT:    -5.031      1.512      3.208
REMARK INTER + INTRA:         -10.452
REMARK INTER:                  -8.845
REMARK INTRA:                  -1.607
REMARK UNBOUND:                -1.892
REMARK SMILES CCCCCCCCCCCCCC(=O)[O-]
REMARK SMILES IDX 8 1 9 2 10 3 11 4 12 5 13 6 14 7 15 8 16 9 7 10 6 11 5 12
REMARK SMILES IDX 4 13 3 14 2 15 1 16
REMARK H PARENT
REMARK Flexibility Score: inf
ROOT
ATOM      1  C   UNL     1      53.838  17.916  -1.124  1.00  0.00     0.000 C 
ENDROOT
BRANCH   1   2
ATOM      2  C   UNL     1      55.151  17.373  -0.534  1.00  0.00     0.000 C 
BRANCH   2   3
ATOM      3  C   UNL     1      55.359  17.793   0.930  1.00  0.00     0.000 C 
BRANCH   3   4
ATOM      4  C   UNL     1      54.705  16.816   1.922  1.00  0.00     0.000 C 
BRANCH   4   5
ATOM      5  C   UNL     1      53.457  17.409   2.597  1.00  0.00     0.006 C 
BRANCH   5   6
ATOM      6  C   UNL     1      52.151  16.954   1.932  1.00  0.00     0.053 C 
BRANCH   6   7
ATOM      7  C   UNL     1      51.174  18.085   1.872  1.00  0.00     0.041 C 
ATOM      8  O   UNL     1      50.764  18.509   0.760  1.00  0.00    -0.550 OA
ATOM      9  O   UNL     1      50.754  18.704   3.043  1.00  0.00    -0.550 OA
ENDBRANCH   6   7
ENDBRANCH   5   6
ENDBRANCH   4   5
ENDBRANCH   3   4
ENDBRANCH   2   3
ENDBRANCH   1   2
BRANCH   1  10
ATOM     10  C   UNL     1      52.910  16.803  -1.642  1.00  0.00     0.000 C 
BRANCH  10  11
ATOM     11  C   UNL     1      53.556  15.406  -1.755  1.00  0.00    -0.000 C 
BRANCH  11  12
ATOM     12  C   UNL     1      53.212  14.427  -0.617  1.00  0.00    -0.000 C 
BRANCH  12  13
ATOM     13  C   UNL     1      54.242  13.294  -0.471  1.00  0.00    -0.000 C 
BRANCH  13  14
ATOM     14  C   UNL     1      55.540  13.749   0.221  1.00  0.00    -0.000 C 
BRANCH  14  15
ATOM     15  C   UNL     1      56.729  12.782   0.076  1.00  0.00    -0.003 C 
ATOM     16  C   UNL     1      56.315  11.392  -0.404  1.00  0.00     0.004 C 
ENDBRANCH  14  15
ENDBRANCH  13  14
ENDBRANCH  12  13
ENDBRANCH  11  12
ENDBRANCH  10  11
ENDBRANCH   1  10
TORSDOF 12
ENDMDL
MODEL 7
REMARK VINA RESULT:    -5.030      4.114      6.031
REMARK INTER + INTRA:         -10.451
REMARK INTER:                  -8.739
REMARK INTRA:                  -1.712
REMARK UNBOUND:                -1.892
REMARK SMILES CCCCCCCCCCCCCC(=O)[O-]
REMARK SMILES IDX 8 1 9 2 10 3 11 4 12 5 13 6 14 7 15 8 16 9 7 10 6 11 5 12
REMARK SMILES IDX 4 13 3 14 2 15 1 16
REMARK H PARENT
REMARK Flexibility Score: inf
ROOT
ATOM      1  C   UNL     1      53.230  17.057   2.174  1.00  0.00     0.000 C 
ENDROOT
BRANCH   1   2
ATOM      2  C   UNL     1      54.756  17.005   2.364  1.00  0.00     0.000 C 
BRANCH   2   3
ATOM      3  C   UNL     1      55.513  17.806   1.292  1.00  0.00     0.000 C 
BRANCH   3   4
ATOM      4  C   UNL     1      56.925  17.254   1.031  1.00  0.00     0.000 C 
BRANCH   4   5
ATOM      5  C   UNL     1      56.923  16.070   0.050  1.00  0.00     0.006 C 
BRANCH   5   6
ATOM      6  C   UNL     1      57.894  14.956   0.465  1.00  0.00     0.053 C 
BRANCH   6   7
ATOM      7  C   UNL     1      59.310  15.409   0.296  1.00  0.00     0.041 C 
ATOM      8  O   UNL     1      60.030  15.628   1.306  1.00  0.00    -0.550 OA
ATOM      9  O   UNL     1      59.820  15.639  -0.975  1.00  0.00    -0.550 OA
ENDBRANCH   6   7
ENDBRANCH   5   6
ENDBRANCH   4   5
ENDBRANCH   3   4
ENDBRANCH   2   3
ENDBRANCH   1   2
BRANCH   1  10
ATOM     10  C   UNL     1      52.639  15.713   1.715  1.00  0.00     0.000 C 
BRANCH  10  11
ATOM     11  C   UNL     1      53.621  14.778   0.978  1.00  0.00    -0.000 C 
BRANCH  11  12
ATOM     12  C   UNL     1      53.274  14.483  -0.492  1.00  0.00    -0.000 C 
BRANCH  12  13
ATOM     13  C   UNL     1      53.816  15.548  -1.460  1.00  0.00    -0.000 C 
BRANCH  13  14
ATOM     14  C   UNL     1      52.729  16.523  -1.949  1.00  0.00    -0.000 C 
BRANCH  14  15
ATOM     15  C   UNL     1      52.743  17.906  -1.273  1.00  0.00    -0.003 C 
ATOM     16  C   UNL     1      51.359  18.550  -1.198  1.00  0.00     0.004 C 
ENDBRANCH  14  15
ENDBRANCH  13  14
ENDBRANCH  12  13
ENDBRANCH  11  12
ENDBRANCH  10  11
ENDBRANCH   1  10
TORSDOF 12
ENDMDL
MODEL 8
REMARK VINA RESULT:    -4.995      3.916      6.183
REMARK INTER + INTRA:         -10.391
REMARK INTER:                  -8.968
REMARK INTRA:                  -1.423
REMARK UNBOUND:                -1.892
REMARK SMILES CCCCCCCCCCCCCC(=O)[O-]
REMARK SMILES IDX 8 1 9 2 10 3 11 4 12 5 13 6 14 7 15 8 16 9 7 10 6 11 5 12
REMARK SMILES IDX 4 13 3 14 2 15 1 16
REMARK H PARENT
REMARK Flexibility Score: inf
ROOT
ATOM      1  C   UNL     1      55.669  16.937  -0.998  1.00  0.00     0.000 C 
ENDROOT
BRANCH   1   2
ATOM      2  C   UNL     1      54.139  16.913  -1.156  1.00  0.00     0.000 C 
BRANCH   2   3
ATOM      3  C   UNL     1      53.603  15.515  -1.506  1.00  0.00     0.000 C 
BRANCH   3   4
ATOM      4  C   UNL     1      53.550  14.580  -0.285  1.00  0.00     0.000 C 
BRANCH   4   5
ATOM      5  C   UNL     1      54.498  13.377  -0.422  1.00  0.00     0.006 C 
BRANCH   5   6
ATOM      6  C   UNL     1      55.818  13.574   0.333  1.00  0.00     0.053 C 
BRANCH   6   7
ATOM      7  C   UNL     1      56.624  12.314   0.312  1.00  0.00     0.041 C 
ATOM      8  O   UNL     1      56.821  11.670   1.376  1.00  0.00    -0.550 OA
ATOM      9  O   UNL     1      57.202  11.877  -0.874  1.00  0.00    -0.550 OA
ENDBRANCH   6   7
ENDBRANCH   5   6
ENDBRANCH   4   5
ENDBRANCH   3   4
ENDBRANCH   2   3
ENDBRANCH   1   2
BRANCH   1  10
ATOM     10  C   UNL     1      56.116  17.196   0.451  1.00  0.00     0.000 C 
BRANCH  10  11
ATOM     11  C   UNL     1      55.084  17.925   1.339  1.00  0.00    -0.000 C 
BRANCH  11  12
ATOM     12  C   UNL     1      54.477  17.079   2.473  1.00  0.00    -0.000 C 
BRANCH  12  13
ATOM     13  C   UNL     1      53.035  17.488   2.816  1.00  0.00    -0.000 C 
BRANCH  13  14
ATOM     14  C   UNL     1      52.111  17.523   1.584  1.00  0.00    -0.000 C 
BRANCH  14  15
ATOM     15  C   UNL     1      50.733  18.166   1.822  1.00  0.00    -0.003 C 
ATOM     16  C   UNL     1      50.573  18.737   3.229  1.00  0.00     0.004 C 
ENDBRANCH  14  15
ENDBRANCH  13  14
ENDBRANCH  12  13
ENDBRANCH  11  12
ENDBRANCH  10  11
ENDBRANCH   1  10
TORSDOF 12
ENDMDL
MODEL 9
REMARK VINA RESULT:    -4.988      4.091      5.708
REMARK INTER + INTRA:         -10.378
REMARK INTER:                  -8.529
REMARK INTRA:                  -1.849
REMARK UNBOUND:                -1.892
REMARK SMILES CCCCCCCCCCCCCC(=O)[O-]
REMARK SMILES IDX 8 1 9 2 10 3 11 4 12 5 13 6 14 7 15 8 16 9 7 10 6 11 5 12
REMARK SMILES IDX 4 13 3 14 2 15 1 16
REMARK H PARENT
REMARK Flexibility Score: inf
ROOT
ATOM      1  C   UNL     1      54.142  17.005   2.599  1.00  0.00     0.000 C 
ENDROOT
BRANCH   1   2
ATOM      2  C   UNL     1      53.185  16.040   1.877  1.00  0.00     0.000 C 
BRANCH   2   3
ATOM      3  C   UNL     1      53.813  14.659   1.632  1.00  0.00     0.000 C 
BRANCH   3   4
ATOM      4  C   UNL     1      53.504  14.111   0.228  1.00  0.00     0.000 C 
BRANCH   4   5
ATOM      5  C   UNL     1      54.696  13.356  -0.386  1.00  0.00     0.006 C 
BRANCH   5   6
ATOM      6  C   UNL     1      55.958  13.437   0.482  1.00  0.00     0.053 C 
BRANCH   6   7
ATOM      7  C   UNL     1      56.750  12.172   0.370  1.00  0.00     0.041 C 
ATOM      8  O   UNL     1      57.004  11.490   1.397  1.00  0.00    -0.550 OA
ATOM      9  O   UNL     1      57.252  11.773  -0.863  1.00  0.00    -0.550 OA
ENDBRANCH   6   7
ENDBRANCH   5   6
ENDBRANCH   4   5
ENDBRANCH   3   4
ENDBRANCH   2   3
ENDBRANCH   1   2
BRANCH   1  10
ATOM     10  C   UNL     1      54.924  17.908   1.629  1.00  0.00     0.000 C 
BRANCH  10  11
ATOM     11  C   UNL     1      55.992  17.191   0.776  1.00  0.00    -0.000 C 
BRANCH  11  12
ATOM     12  C   UNL     1      55.695  17.127  -0.733  1.00  0.00    -0.000 C 
BRANCH  12  13
ATOM     13  C   UNL     1      54.409  17.875  -1.122  1.00  0.00    -0.000 C 
BRANCH  13  14
ATOM     14  C   UNL     1      53.328  16.945  -1.705  1.00  0.00    -0.000 C 
BRANCH  14  15
ATOM     15  C   UNL     1      51.921  17.562  -1.801  1.00  0.00    -0.003 C 
ATOM     16  C   UNL     1      51.399  18.073  -0.459  1.00  0.00     0.004 C 
ENDBRANCH  14  15
ENDBRANCH  13  14
ENDBRANCH  12  13
ENDBRANCH  11  12
ENDBRANCH  10  11
ENDBRANCH   1  10
TORSDOF 12
ENDMDL
