MODEL 1
REMARK VINA RESULT:    -6.102      0.000      0.000
REMARK INTER + INTRA:         -12.066
REMARK INTER:                 -10.026
REMARK INTRA:                  -2.039
REMARK UNBOUND:                -2.039
REMARK SMILES C[C@H]1O[C@@H](OC[C@@H]2O[C@@H](Oc3c(-c4ccc(O)c(O)c4)oc4cc(O)cc(O)c4c3=O)[C@@H](O)[C@@H](O)[C@H]2O)[C@H](O)[C@H](O)[C@@H]1O
REMARK SMILES IDX 7 1 36 2 34 3 32 4 9 5 8 6 6 7 5 8 4 9 1 10 2 11 42 12 3 13
REMARK SMILES IDX 40 14 38 15 43 16 41 18 39 20 37 22 35 24 10 26 11 27 12 28
REMARK SMILES IDX 30 29 21 30 29 31 31 32 22 33 27 34 23 35 26 36 24 37 13 38
REMARK SMILES IDX 20 39 14 40 18 41 15 42 16 43 19 44 17 46 28 48 25 50 33 52
REMARK H PARENT 43 17 41 19 39 21 37 23 35 25 19 45 17 47 28 49 25 51 33 53
REMARK Flexibility Score: inf
ROOT
ATOM      1  C   UNL     1      -1.097   8.206   6.427  1.00  0.00     0.180 C 
ATOM      2  C   UNL     1       0.289   8.291   7.154  1.00  0.00     0.177 C 
ATOM      3  C   UNL     1       0.414   9.648   7.876  1.00  0.00     0.180 C 
ATOM      4  C   UNL     1      -0.839  10.003   8.734  1.00  0.00     0.214 C 
ATOM      5  C   UNL     1      -2.037   9.058   8.449  1.00  0.00     0.339 C 
ATOM      6  O   UNL     1      -2.180   8.905   7.042  1.00  0.00    -0.332 OA
ENDROOT
BRANCH   1   7
ATOM      7  C   UNL     1      -0.986   8.703   4.973  1.00  0.00     0.198 C 
BRANCH   7   8
ATOM      8  O   UNL     1      -2.267   8.578   4.361  1.00  0.00    -0.347 OA
BRANCH   8   9
ATOM      9  C   UNL     1      -2.566   7.282   3.833  1.00  0.00     0.281 C 
ATOM     10  C   UNL     1      -5.009   9.409   3.707  1.00  0.00     0.041 C 
ATOM     11  C   UNL     1      -4.862   7.889   3.923  1.00  0.00     0.150 C 
ATOM     12  C   UNL     1      -4.749   7.538   5.437  1.00  0.00     0.174 C 
ATOM     13  O   UNL     1      -3.786   7.363   3.122  1.00  0.00    -0.344 OA
ATOM     14  C   UNL     1      -4.037   6.192   5.635  1.00  0.00     0.179 C 
ATOM     15  C   UNL     1      -2.688   6.119   4.859  1.00  0.00     0.202 C 
BRANCH  12  16
ATOM     16  O   UNL     1      -6.008   7.494   6.032  1.00  0.00    -0.388 OA
ATOM     17  H   UNL     1      -6.113   6.580   6.390  1.00  0.00     0.211 HD
ENDBRANCH  12  16
BRANCH  14  18
ATOM     18  O   UNL     1      -4.904   5.151   5.253  1.00  0.00    -0.387 OA
ATOM     19  H   UNL     1      -5.527   4.988   6.023  1.00  0.00     0.211 HD
ENDBRANCH  14  18
BRANCH  15  20
ATOM     20  O   UNL     1      -2.611   4.890   4.168  1.00  0.00    -0.385 OA
ATOM     21  H   UNL     1      -2.425   4.194   4.869  1.00  0.00     0.211 HD
ENDBRANCH  15  20
ENDBRANCH   8   9
ENDBRANCH   7   8
ENDBRANCH   1   7
BRANCH   2  22
ATOM     22  O   UNL     1       0.450   7.243   8.063  1.00  0.00    -0.387 OA
ATOM     23  H   UNL     1       0.397   7.637   8.969  1.00  0.00     0.211 HD
ENDBRANCH   2  22
BRANCH   3  24
ATOM     24  O   UNL     1       1.607   9.755   8.599  1.00  0.00    -0.387 OA
ATOM     25  H   UNL     1       2.336  10.009   7.980  1.00  0.00     0.211 HD
ENDBRANCH   3  24
BRANCH   5  26
ATOM     26  O   UNL     1      -1.944   7.760   9.065  1.00  0.00    -0.454 OA
BRANCH  26  27
ATOM     27  C   UNL     1      -2.992   6.839   9.159  1.00  0.00     0.214 A 
ATOM     28  C   UNL     1      -2.789   5.437   9.066  1.00  0.00     0.180 A 
ATOM     29  C   UNL     1      -4.291   7.291   9.455  1.00  0.00     0.239 A 
ATOM     30  O   UNL     1      -3.807   4.617   9.340  1.00  0.00    -0.452 OA
ATOM     31  C   UNL     1      -5.370   6.394   9.478  1.00  0.00     0.111 A 
ATOM     32  O   UNL     1      -4.468   8.490   9.765  1.00  0.00    -0.285 OA
ATOM     33  C   UNL     1      -5.053   5.025   9.542  1.00  0.00     0.146 A 
ATOM     34  C   UNL     1      -6.748   6.763   9.404  1.00  0.00     0.134 A 
ATOM     35  C   UNL     1      -6.042   4.068   9.815  1.00  0.00     0.094 A 
ATOM     36  C   UNL     1      -7.746   5.802   9.661  1.00  0.00     0.093 A 
ATOM     37  C   UNL     1      -7.392   4.455   9.874  1.00  0.00     0.123 A 
BRANCH  28  38
ATOM     38  C   UNL     1      -1.503   4.753   8.708  1.00  0.00     0.025 A 
ATOM     39  C   UNL     1      -1.070   4.505   7.386  1.00  0.00     0.062 A 
ATOM     40  C   UNL     1      -0.612   4.508   9.762  1.00  0.00     0.016 A 
ATOM     41  C   UNL     1       0.261   4.103   7.152  1.00  0.00     0.158 A 
ATOM     42  C   UNL     1       0.710   4.109   9.525  1.00  0.00     0.051 A 
ATOM     43  C   UNL     1       1.158   3.918   8.219  1.00  0.00     0.157 A 
BRANCH  41  44
ATOM     44  O   UNL     1       0.701   3.905   5.840  1.00  0.00    -0.504 OA
ATOM     45  H   UNL     1       0.114   3.451   5.139  1.00  0.00     0.293 HD
ENDBRANCH  41  44
BRANCH  43  46
ATOM     46  O   UNL     1       2.520   3.631   8.021  1.00  0.00    -0.504 OA
ATOM     47  H   UNL     1       3.183   4.293   7.612  1.00  0.00     0.293 HD
ENDBRANCH  43  46
ENDBRANCH  28  38
BRANCH  34  48
ATOM     48  O   UNL     1      -7.169   8.038   8.999  1.00  0.00    -0.507 OA
ATOM     49  H   UNL     1      -6.665   8.894   9.208  1.00  0.00     0.293 HD
ENDBRANCH  34  48
BRANCH  37  50
ATOM     50  O   UNL     1      -8.385   3.512  10.094  1.00  0.00    -0.508 OA
ATOM     51  H   UNL     1      -8.576   2.789   9.414  1.00  0.00     0.293 HD
ENDBRANCH  37  50
ENDBRANCH  26  27
ENDBRANCH   5  26
BRANCH   4  52
ATOM     52  O   UNL     1      -0.566  10.078  10.111  1.00  0.00    -0.384 OA
ATOM     53  H   UNL     1      -1.127  10.826  10.487  1.00  0.00     0.211 HD
ENDBRANCH   4  52
TORSDOF 16
ENDMDL
MODEL 2
REMARK VINA RESULT:    -4.895      3.596      7.483
REMARK INTER + INTRA:         -10.082
REMARK INTER:                  -8.398
REMARK INTRA:                  -1.684
REMARK UNBOUND:                -2.039
REMARK SMILES C[C@H]1O[C@@H](OC[C@@H]2O[C@@H](Oc3c(-c4ccc(O)c(O)c4)oc4cc(O)cc(O)c4c3=O)[C@@H](O)[C@@H](O)[C@H]2O)[C@H](O)[C@H](O)[C@@H]1O
REMARK SMILES IDX 7 1 36 2 34 3 32 4 9 5 8 6 6 7 5 8 4 9 1 10 2 11 42 12 3 13
REMARK SMILES IDX 40 14 38 15 43 16 41 18 39 20 37 22 35 24 10 26 11 27 12 28
REMARK SMILES IDX 30 29 21 30 29 31 31 32 22 33 27 34 23 35 26 36 24 37 13 38
REMARK SMILES IDX 20 39 14 40 18 41 15 42 16 43 19 44 17 46 28 48 25 50 33 52
REMARK H PARENT 43 17 41 19 39 21 37 23 35 25 19 45 17 47 28 49 25 51 33 53
REMARK Flexibility Score: inf
ROOT
ATOM      1  C   UNL     1      -4.743   2.320   9.100  1.00  0.00     0.180 C 
ATOM      2  C   UNL     1      -6.143   3.022   9.032  1.00  0.00     0.177 C 
ATOM      3  C   UNL     1      -6.176   4.211  10.015  1.00  0.00     0.180 C 
ATOM      4  C   UNL     1      -4.931   5.141   9.892  1.00  0.00     0.214 C 
ATOM      5  C   UNL     1      -3.811   4.516   9.018  1.00  0.00     0.339 C 
ATOM      6  O   UNL     1      -3.628   3.159   9.402  1.00  0.00    -0.332 OA
ENDROOT
BRANCH   1   7
ATOM      7  C   UNL     1      -4.754   1.170  10.124  1.00  0.00     0.198 C 
BRANCH   7   8
ATOM      8  O   UNL     1      -5.507   0.093   9.573  1.00  0.00    -0.347 OA
BRANCH   8   9
ATOM      9  C   UNL     1      -4.732  -0.943   8.960  1.00  0.00     0.281 C 
ATOM     10  C   UNL     1      -7.828  -0.810   8.012  1.00  0.00     0.041 C 
ATOM     11  C   UNL     1      -6.780  -1.916   8.251  1.00  0.00     0.150 C 
ATOM     12  C   UNL     1      -6.858  -2.468   9.705  1.00  0.00     0.174 C 
ATOM     13  O   UNL     1      -5.467  -1.462   7.869  1.00  0.00    -0.344 OA
ATOM     14  C   UNL     1      -5.519  -3.093  10.125  1.00  0.00     0.179 C 
ATOM     15  C   UNL     1      -4.316  -2.137   9.868  1.00  0.00     0.202 C 
BRANCH  12  16
ATOM     16  O   UNL     1      -7.873  -3.415   9.824  1.00  0.00    -0.388 OA
ATOM     17  H   UNL     1      -8.722  -2.911   9.840  1.00  0.00     0.211 HD
ENDBRANCH  12  16
BRANCH  14  18
ATOM     18  O   UNL     1      -5.350  -4.318   9.455  1.00  0.00    -0.387 OA
ATOM     19  H   UNL     1      -5.818  -5.019  10.000  1.00  0.00     0.211 HD
ENDBRANCH  14  18
BRANCH  15  20
ATOM     20  O   UNL     1      -3.276  -2.851   9.235  1.00  0.00    -0.385 OA
ATOM     21  H   UNL     1      -2.809  -2.186   8.643  1.00  0.00     0.211 HD
ENDBRANCH  15  20
ENDBRANCH   8   9
ENDBRANCH   7   8
ENDBRANCH   1   7
BRANCH   2  22
ATOM     22  O   UNL     1      -6.432   3.458   7.737  1.00  0.00    -0.387 OA
ATOM     23  H   UNL     1      -6.227   2.705   7.128  1.00  0.00     0.211 HD
ENDBRANCH   2  22
BRANCH   3  24
ATOM     24  O   UNL     1      -7.383   4.917   9.951  1.00  0.00    -0.387 OA
ATOM     25  H   UNL     1      -7.705   4.918   9.016  1.00  0.00     0.211 HD
ENDBRANCH   3  24
BRANCH   5  26
ATOM     26  O   UNL     1      -4.042   4.586   7.598  1.00  0.00    -0.454 OA
BRANCH  26  27
ATOM     27  C   UNL     1      -3.598   5.616   6.762  1.00  0.00     0.214 A 
ATOM     28  C   UNL     1      -2.245   6.042   6.724  1.00  0.00     0.180 A 
ATOM     29  C   UNL     1      -4.491   6.199   5.845  1.00  0.00     0.239 A 
ATOM     30  O   UNL     1      -1.865   6.905   5.779  1.00  0.00    -0.452 OA
ATOM     31  C   UNL     1      -4.089   7.284   5.050  1.00  0.00     0.111 A 
ATOM     32  O   UNL     1      -5.627   5.699   5.691  1.00  0.00    -0.285 OA
ATOM     33  C   UNL     1      -2.706   7.523   4.960  1.00  0.00     0.146 A 
ATOM     34  C   UNL     1      -4.972   8.175   4.367  1.00  0.00     0.134 A 
ATOM     35  C   UNL     1      -2.190   8.417   4.010  1.00  0.00     0.094 A 
ATOM     36  C   UNL     1      -4.458   9.086   3.424  1.00  0.00     0.093 A 
ATOM     37  C   UNL     1      -3.066   9.202   3.240  1.00  0.00     0.123 A 
BRANCH  28  38
ATOM     38  C   UNL     1      -1.151   5.590   7.647  1.00  0.00     0.025 A 
ATOM     39  C   UNL     1      -0.399   4.406   7.476  1.00  0.00     0.062 A 
ATOM     40  C   UNL     1      -0.756   6.500   8.637  1.00  0.00     0.016 A 
ATOM     41  C   UNL     1       0.772   4.209   8.237  1.00  0.00     0.158 A 
ATOM     42  C   UNL     1       0.409   6.300   9.391  1.00  0.00     0.051 A 
ATOM     43  C   UNL     1       1.186   5.161   9.185  1.00  0.00     0.157 A 
BRANCH  41  44
ATOM     44  O   UNL     1       1.542   3.061   8.032  1.00  0.00    -0.504 OA
ATOM     45  H   UNL     1       2.067   2.624   8.792  1.00  0.00     0.293 HD
ENDBRANCH  41  44
BRANCH  43  46
ATOM     46  O   UNL     1       2.404   5.056   9.880  1.00  0.00    -0.504 OA
ATOM     47  H   UNL     1       2.508   5.273  10.873  1.00  0.00     0.293 HD
ENDBRANCH  43  46
ENDBRANCH  28  38
BRANCH  34  48
ATOM     48  O   UNL     1      -6.344   8.248   4.654  1.00  0.00    -0.507 OA
ATOM     49  H   UNL     1      -6.738   8.823   5.391  1.00  0.00     0.293 HD
ENDBRANCH  34  48
BRANCH  37  50
ATOM     50  O   UNL     1      -2.569  10.125   2.331  1.00  0.00    -0.508 OA
ATOM     51  H   UNL     1      -2.785  10.053   1.346  1.00  0.00     0.293 HD
ENDBRANCH  37  50
ENDBRANCH  26  27
ENDBRANCH   5  26
BRANCH   4  52
ATOM     52  O   UNL     1      -5.249   6.440   9.460  1.00  0.00    -0.384 OA
ATOM     53  H   UNL     1      -6.015   6.766  10.029  1.00  0.00     0.211 HD
ENDBRANCH   4  52
TORSDOF 16
ENDMDL
MODEL 3
REMARK VINA RESULT:    -4.833      2.074      7.705
REMARK INTER + INTRA:          -9.980
REMARK INTER:                  -8.028
REMARK INTRA:                  -1.952
REMARK UNBOUND:                -2.039
REMARK SMILES C[C@H]1O[C@@H](OC[C@@H]2O[C@@H](Oc3c(-c4ccc(O)c(O)c4)oc4cc(O)cc(O)c4c3=O)[C@@H](O)[C@@H](O)[C@H]2O)[C@H](O)[C@H](O)[C@@H]1O
REMARK SMILES IDX 7 1 36 2 34 3 32 4 9 5 8 6 6 7 5 8 4 9 1 10 2 11 42 12 3 13
REMARK SMILES IDX 40 14 38 15 43 16 41 18 39 20 37 22 35 24 10 26 11 27 12 28
REMARK SMILES IDX 30 29 21 30 29 31 31 32 22 33 27 34 23 35 26 36 24 37 13 38
REMARK SMILES IDX 20 39 14 40 18 41 15 42 16 43 19 44 17 46 28 48 25 50 33 52
REMARK H PARENT 43 17 41 19 39 21 37 23 35 25 19 45 17 47 28 49 25 51 33 53
REMARK Flexibility Score: inf
ROOT
ATOM      1  C   UNL     1      -3.886   4.087   8.985  1.00  0.00     0.180 C 
ATOM      2  C   UNL     1      -5.059   3.068   8.781  1.00  0.00     0.177 C 
ATOM      3  C   UNL     1      -6.120   3.270   9.883  1.00  0.00     0.180 C 
ATOM      4  C   UNL     1      -6.528   4.762  10.074  1.00  0.00     0.214 C 
ATOM      5  C   UNL     1      -5.581   5.734   9.320  1.00  0.00     0.339 C 
ATOM      6  O   UNL     1      -4.234   5.347   9.561  1.00  0.00    -0.332 OA
ENDROOT
BRANCH   1   7
ATOM      7  C   UNL     1      -2.768   3.472   9.847  1.00  0.00     0.198 C 
BRANCH   7   8
ATOM      8  O   UNL     1      -1.701   4.413   9.928  1.00  0.00    -0.347 OA
BRANCH   8   9
ATOM      9  C   UNL     1      -0.427   3.931   9.489  1.00  0.00     0.281 C 
ATOM     10  C   UNL     1      -0.544   7.109  10.117  1.00  0.00     0.041 C 
ATOM     11  C   UNL     1       0.185   6.196   9.110  1.00  0.00     0.150 C 
ATOM     12  C   UNL     1      -0.625   6.046   7.789  1.00  0.00     0.174 C 
ATOM     13  O   UNL     1       0.535   4.940   9.724  1.00  0.00    -0.344 OA
ATOM     14  C   UNL     1      -0.247   4.748   7.060  1.00  0.00     0.179 C 
ATOM     15  C   UNL     1      -0.317   3.505   7.996  1.00  0.00     0.202 C 
BRANCH  12  16
ATOM     16  O   UNL     1      -0.409   7.135   6.947  1.00  0.00    -0.388 OA
ATOM     17  H   UNL     1      -1.141   7.773   7.124  1.00  0.00     0.211 HD
ENDBRANCH  12  16
BRANCH  14  18
ATOM     18  O   UNL     1       1.032   4.892   6.494  1.00  0.00    -0.387 OA
ATOM     19  H   UNL     1       0.903   5.130   5.528  1.00  0.00     0.211 HD
ENDBRANCH  14  18
BRANCH  15  20
ATOM     20  O   UNL     1       0.849   2.726   7.829  1.00  0.00    -0.385 OA
ATOM     21  H   UNL     1       0.533   1.828   7.507  1.00  0.00     0.211 HD
ENDBRANCH  15  20
ENDBRANCH   8   9
ENDBRANCH   7   8
ENDBRANCH   1   7
BRANCH   2  22
ATOM     22  O   UNL     1      -5.640   3.208   7.519  1.00  0.00    -0.387 OA
ATOM     23  H   UNL     1      -6.214   2.414   7.377  1.00  0.00     0.211 HD
ENDBRANCH   2  22
BRANCH   3  24
ATOM     24  O   UNL     1      -7.225   2.428   9.714  1.00  0.00    -0.387 OA
ATOM     25  H   UNL     1      -7.650   2.628   8.843  1.00  0.00     0.211 HD
ENDBRANCH   3  24
BRANCH   5  26
ATOM     26  O   UNL     1      -5.809   5.821   7.901  1.00  0.00    -0.454 OA
BRANCH  26  27
ATOM     27  C   UNL     1      -5.190   6.737   7.043  1.00  0.00     0.214 A 
ATOM     28  C   UNL     1      -5.534   8.114   7.017  1.00  0.00     0.180 A 
ATOM     29  C   UNL     1      -4.116   6.319   6.238  1.00  0.00     0.239 A 
ATOM     30  O   UNL     1      -4.783   8.955   6.303  1.00  0.00    -0.452 OA
ATOM     31  C   UNL     1      -3.530   7.200   5.316  1.00  0.00     0.111 A 
ATOM     32  O   UNL     1      -3.638   5.173   6.397  1.00  0.00    -0.285 OA
ATOM     33  C   UNL     1      -3.818   8.567   5.477  1.00  0.00     0.146 A 
ATOM     34  C   UNL     1      -2.705   6.812   4.216  1.00  0.00     0.134 A 
ATOM     35  C   UNL     1      -3.099   9.544   4.772  1.00  0.00     0.094 A 
ATOM     36  C   UNL     1      -1.994   7.790   3.493  1.00  0.00     0.093 A 
ATOM     37  C   UNL     1      -2.185   9.156   3.777  1.00  0.00     0.123 A 
BRANCH  28  38
ATOM     38  C   UNL     1      -6.675   8.753   7.754  1.00  0.00     0.025 A 
ATOM     39  C   UNL     1      -7.830   9.282   7.135  1.00  0.00     0.062 A 
ATOM     40  C   UNL     1      -6.648   8.654   9.152  1.00  0.00     0.016 A 
ATOM     41  C   UNL     1      -8.952   9.614   7.923  1.00  0.00     0.158 A 
ATOM     42  C   UNL     1      -7.765   8.984   9.930  1.00  0.00     0.051 A 
ATOM     43  C   UNL     1      -8.927   9.452   9.319  1.00  0.00     0.157 A 
BRANCH  41  44
ATOM     44  O   UNL     1     -10.111  10.090   7.305  1.00  0.00    -0.504 OA
ATOM     45  H   UNL     1     -10.965   9.532   7.263  1.00  0.00     0.293 HD
ENDBRANCH  41  44
BRANCH  43  46
ATOM     46  O   UNL     1     -10.061   9.663  10.125  1.00  0.00    -0.504 OA
ATOM     47  H   UNL     1     -10.035  10.164  11.016  1.00  0.00     0.293 HD
ENDBRANCH  43  46
ENDBRANCH  28  38
BRANCH  34  48
ATOM     48  O   UNL     1      -2.631   5.488   3.756  1.00  0.00    -0.507 OA
ATOM     49  H   UNL     1      -2.249   4.722   4.300  1.00  0.00     0.293 HD
ENDBRANCH  34  48
BRANCH  37  50
ATOM     50  O   UNL     1      -1.503  10.112   3.038  1.00  0.00    -0.508 OA
ATOM     51  H   UNL     1      -1.670  10.219   2.047  1.00  0.00     0.293 HD
ENDBRANCH  37  50
ENDBRANCH  26  27
ENDBRANCH   5  26
BRANCH   4  52
ATOM     52  O   UNL     1      -7.874   5.015   9.757  1.00  0.00    -0.384 OA
ATOM     53  H   UNL     1      -8.026   4.687   8.816  1.00  0.00     0.211 HD
ENDBRANCH   4  52
TORSDOF 16
ENDMDL
MODEL 4
REMARK VINA RESULT:    -4.483      1.974      6.012
REMARK INTER + INTRA:          -9.405
REMARK INTER:                  -8.704
REMARK INTRA:                  -0.702
REMARK UNBOUND:                -2.039
REMARK SMILES C[C@H]1O[C@@H](OC[C@@H]2O[C@@H](Oc3c(-c4ccc(O)c(O)c4)oc4cc(O)cc(O)c4c3=O)[C@@H](O)[C@@H](O)[C@H]2O)[C@H](O)[C@H](O)[C@@H]1O
REMARK SMILES IDX 7 1 36 2 34 3 32 4 9 5 8 6 6 7 5 8 4 9 1 10 2 11 42 12 3 13
REMARK SMILES IDX 40 14 38 15 43 16 41 18 39 20 37 22 35 24 10 26 11 27 12 28
REMARK SMILES IDX 30 29 21 30 29 31 31 32 22 33 27 34 23 35 26 36 24 37 13 38
REMARK SMILES IDX 20 39 14 40 18 41 15 42 16 43 19 44 17 46 28 48 25 50 33 52
REMARK H PARENT 43 17 41 19 39 21 37 23 35 25 19 45 17 47 28 49 25 51 33 53
REMARK Flexibility Score: inf
ROOT
ATOM      1  C   UNL     1      -5.193   6.516   6.436  1.00  0.00     0.180 C 
ATOM      2  C   UNL     1      -5.916   7.721   7.131  1.00  0.00     0.177 C 
ATOM      3  C   UNL     1      -7.326   7.290   7.584  1.00  0.00     0.180 C 
ATOM      4  C   UNL     1      -7.333   5.940   8.362  1.00  0.00     0.214 C 
ATOM      5  C   UNL     1      -5.975   5.194   8.264  1.00  0.00     0.339 C 
ATOM      6  O   UNL     1      -5.535   5.213   6.912  1.00  0.00    -0.332 OA
ENDROOT
BRANCH   1   7
ATOM      7  C   UNL     1      -5.432   6.536   4.915  1.00  0.00     0.198 C 
BRANCH   7   8
ATOM      8  O   UNL     1      -4.533   7.478   4.337  1.00  0.00    -0.347 OA
BRANCH   8   9
ATOM      9  C   UNL     1      -3.635   8.109   5.257  1.00  0.00     0.281 C 
ATOM     10  C   UNL     1      -5.093  10.118   3.172  1.00  0.00     0.041 C 
ATOM     11  C   UNL     1      -3.715  10.029   3.859  1.00  0.00     0.150 C 
ATOM     12  C   UNL     1      -2.690   9.254   2.977  1.00  0.00     0.174 C 
ATOM     13  O   UNL     1      -3.845   9.506   5.195  1.00  0.00    -0.344 OA
ATOM     14  C   UNL     1      -1.566   8.661   3.839  1.00  0.00     0.179 C 
ATOM     15  C   UNL     1      -2.116   7.844   5.045  1.00  0.00     0.202 C 
BRANCH  12  16
ATOM     16  O   UNL     1      -2.143  10.087   2.004  1.00  0.00    -0.388 OA
ATOM     17  H   UNL     1      -2.271   9.626   1.140  1.00  0.00     0.211 HD
ENDBRANCH  12  16
BRANCH  14  18
ATOM     18  O   UNL     1      -0.717   9.697   4.268  1.00  0.00    -0.387 OA
ATOM     19  H   UNL     1      -1.185  10.172   5.018  1.00  0.00     0.211 HD
ENDBRANCH  14  18
BRANCH  15  20
ATOM     20  O   UNL     1      -1.421   8.213   6.218  1.00  0.00    -0.385 OA
ATOM     21  H   UNL     1      -0.976   7.373   6.546  1.00  0.00     0.211 HD
ENDBRANCH  15  20
ENDBRANCH   8   9
ENDBRANCH   7   8
ENDBRANCH   1   7
BRANCH   2  22
ATOM     22  O   UNL     1      -5.181   8.194   8.221  1.00  0.00    -0.387 OA
ATOM     23  H   UNL     1      -4.756   9.041   7.936  1.00  0.00     0.211 HD
ENDBRANCH   2  22
BRANCH   3  24
ATOM     24  O   UNL     1      -7.996   8.309   8.270  1.00  0.00    -0.387 OA
ATOM     25  H   UNL     1      -8.530   8.835   7.624  1.00  0.00     0.211 HD
ENDBRANCH   3  24
BRANCH   5  26
ATOM     26  O   UNL     1      -4.936   5.715   9.114  1.00  0.00    -0.454 OA
BRANCH  26  27
ATOM     27  C   UNL     1      -3.655   5.168   9.244  1.00  0.00     0.214 A 
ATOM     28  C   UNL     1      -3.435   3.797   9.543  1.00  0.00     0.180 A 
ATOM     29  C   UNL     1      -2.528   5.965   8.975  1.00  0.00     0.239 A 
ATOM     30  O   UNL     1      -2.193   3.313   9.477  1.00  0.00    -0.452 OA
ATOM     31  C   UNL     1      -1.234   5.460   9.172  1.00  0.00     0.111 A 
ATOM     32  O   UNL     1      -2.686   7.109   8.493  1.00  0.00    -0.285 OA
ATOM     33  C   UNL     1      -1.113   4.065   9.303  1.00  0.00     0.146 A 
ATOM     34  C   UNL     1      -0.050   6.252   9.286  1.00  0.00     0.134 A 
ATOM     35  C   UNL     1       0.144   3.443   9.258  1.00  0.00     0.094 A 
ATOM     36  C   UNL     1       1.214   5.631   9.258  1.00  0.00     0.093 A 
ATOM     37  C   UNL     1       1.311   4.226   9.236  1.00  0.00     0.123 A 
BRANCH  28  38
ATOM     38  C   UNL     1      -4.488   2.794   9.911  1.00  0.00     0.025 A 
ATOM     39  C   UNL     1      -5.869   3.080   9.998  1.00  0.00     0.062 A 
ATOM     40  C   UNL     1      -4.072   1.459  10.003  1.00  0.00     0.016 A 
ATOM     41  C   UNL     1      -6.795   2.020  10.088  1.00  0.00     0.158 A 
ATOM     42  C   UNL     1      -4.996   0.409  10.092  1.00  0.00     0.051 A 
ATOM     43  C   UNL     1      -6.362   0.683  10.120  1.00  0.00     0.157 A 
BRANCH  41  44
ATOM     44  O   UNL     1      -8.164   2.302  10.124  1.00  0.00    -0.504 OA
ATOM     45  H   UNL     1      -8.836   1.647  10.527  1.00  0.00     0.293 HD
ENDBRANCH  41  44
BRANCH  43  46
ATOM     46  O   UNL     1      -7.256  -0.402  10.093  1.00  0.00    -0.504 OA
ATOM     47  H   UNL     1      -7.755  -0.703   9.253  1.00  0.00     0.293 HD
ENDBRANCH  43  46
ENDBRANCH  28  38
BRANCH  34  48
ATOM     48  O   UNL     1      -0.085   7.636   9.514  1.00  0.00    -0.507 OA
ATOM     49  H   UNL     1      -0.923   8.145   9.774  1.00  0.00     0.293 HD
ENDBRANCH  34  48
BRANCH  37  50
ATOM     50  O   UNL     1       2.561   3.625   9.240  1.00  0.00    -0.508 OA
ATOM     51  H   UNL     1       2.977   3.284   8.384  1.00  0.00     0.293 HD
ENDBRANCH  37  50
ENDBRANCH  26  27
ENDBRANCH   5  26
BRANCH   4  52
ATOM     52  O   UNL     1      -7.745   6.072   9.700  1.00  0.00    -0.384 OA
ATOM     53  H   UNL     1      -6.968   5.798  10.281  1.00  0.00     0.211 HD
ENDBRANCH   4  52
TORSDOF 16
ENDMDL
