MODEL 1
REMARK VINA RESULT:    -4.302      0.000      0.000
REMARK INTER + INTRA:         -10.941
REMARK INTER:                  -8.325
REMARK INTRA:                  -2.616
REMARK UNBOUND:                -2.616
REMARK SMILES CCCCCCCCCCCCCCCCCC(=O)[O-]
REMARK SMILES IDX 10 1 11 2 12 3 13 4 14 5 15 6 16 7 17 8 18 9 19 10 20 11
REMARK SMILES IDX 9 12 8 13 7 14 6 15 5 16 4 17 3 18 2 19 1 20
REMARK H PARENT
REMARK Flexibility Score: inf
ROOT
ATOM      1  C   UNL     1      12.477  -2.495   0.908  1.00  0.00     0.000 C 
ENDROOT
BRANCH   1   2
ATOM      2  C   UNL     1      12.473  -1.355  -0.125  1.00  0.00     0.000 C 
BRANCH   2   3
ATOM      3  C   UNL     1      13.641  -0.369   0.066  1.00  0.00     0.000 C 
BRANCH   3   4
ATOM      4  C   UNL     1      14.716  -0.410  -1.035  1.00  0.00     0.000 C 
BRANCH   4   5
ATOM      5  C   UNL     1      16.145  -0.463  -0.474  1.00  0.00     0.000 C 
BRANCH   5   6
ATOM      6  C   UNL     1      16.282   0.431   0.768  1.00  0.00     0.000 C 
BRANCH   6   7
ATOM      7  C   UNL     1      17.084  -0.236   1.895  1.00  0.00     0.006 C 
BRANCH   7   8
ATOM      8  C   UNL     1      16.529   0.088   3.289  1.00  0.00     0.053 C 
BRANCH   8   9
ATOM      9  C   UNL     1      16.897  -0.986   4.265  1.00  0.00     0.041 C 
ATOM     10  O   UNL     1      17.869  -1.750   4.028  1.00  0.00    -0.550 OA
ATOM     11  O   UNL     1      16.155  -1.155   5.427  1.00  0.00    -0.550 OA
ENDBRANCH   8   9
ENDBRANCH   7   8
ENDBRANCH   6   7
ENDBRANCH   5   6
ENDBRANCH   4   5
ENDBRANCH   3   4
ENDBRANCH   2   3
ENDBRANCH   1   2
BRANCH   1  12
ATOM     12  C   UNL     1      13.868  -2.726   1.523  1.00  0.00     0.000 C 
BRANCH  12  13
ATOM     13  C   UNL     1      13.870  -2.571   3.055  1.00  0.00    -0.000 C 
BRANCH  13  14
ATOM     14  C   UNL     1      12.620  -1.847   3.577  1.00  0.00    -0.000 C 
BRANCH  14  15
ATOM     15  C   UNL     1      12.910  -0.397   4.004  1.00  0.00    -0.000 C 
BRANCH  15  16
ATOM     16  C   UNL     1      11.647   0.489   3.947  1.00  0.00    -0.000 C 
BRANCH  16  17
ATOM     17  C   UNL     1      11.150   0.760   2.516  1.00  0.00    -0.000 C 
BRANCH  17  18
ATOM     18  C   UNL     1       9.678   0.366   2.312  1.00  0.00    -0.000 C 
BRANCH  18  19
ATOM     19  C   UNL     1       9.475  -1.157   2.277  1.00  0.00    -0.003 C 
ATOM     20  C   UNL     1       8.000  -1.560   2.306  1.00  0.00     0.004 C 
ENDBRANCH  18  19
ENDBRANCH  17  18
ENDBRANCH  16  17
ENDBRANCH  15  16
ENDBRANCH  14  15
ENDBRANCH  13  14
ENDBRANCH  12  13
ENDBRANCH   1  12
TORSDOF 16
ENDMDL
MODEL 2
REMARK VINA RESULT:    -4.297      3.729      6.517
REMARK INTER + INTRA:         -10.932
REMARK INTER:                  -8.918
REMARK INTRA:                  -2.014
REMARK UNBOUND:                -2.616
REMARK SMILES CCCCCCCCCCCCCCCCCC(=O)[O-]
REMARK SMILES IDX 10 1 11 2 12 3 13 4 14 5 15 6 16 7 17 8 18 9 19 10 20 11
REMARK SMILES IDX 9 12 8 13 7 14 6 15 5 16 4 17 3 18 2 19 1 20
REMARK H PARENT
REMARK Flexibility Score: inf
ROOT
ATOM      1  C   UNL     1      11.947   0.126   3.824  1.00  0.00     0.000 C 
ENDROOT
BRANCH   1   2
ATOM      2  C   UNL     1      11.925   0.638   2.374  1.00  0.00     0.000 C 
BRANCH   2   3
ATOM      3  C   UNL     1      10.626   0.277   1.630  1.00  0.00     0.000 C 
BRANCH   3   4
ATOM      4  C   UNL     1       9.747  -0.777   2.327  1.00  0.00     0.000 C 
BRANCH   4   5
ATOM      5  C   UNL     1       9.697  -2.111   1.568  1.00  0.00     0.000 C 
BRANCH   5   6
ATOM      6  C   UNL     1      10.928  -2.276   0.664  1.00  0.00     0.000 C 
BRANCH   6   7
ATOM      7  C   UNL     1      10.951  -3.626  -0.070  1.00  0.00     0.006 C 
BRANCH   7   8
ATOM      8  C   UNL     1       9.548  -4.209  -0.283  1.00  0.00     0.053 C 
BRANCH   8   9
ATOM      9  C   UNL     1       9.631  -5.578  -0.883  1.00  0.00     0.041 C 
ATOM     10  O   UNL     1      10.715  -6.217  -0.852  1.00  0.00    -0.550 OA
ATOM     11  O   UNL     1       8.518  -6.140  -1.494  1.00  0.00    -0.550 OA
ENDBRANCH   8   9
ENDBRANCH   7   8
ENDBRANCH   6   7
ENDBRANCH   5   6
ENDBRANCH   4   5
ENDBRANCH   3   4
ENDBRANCH   2   3
ENDBRANCH   1   2
BRANCH   1  12
ATOM     12  C   UNL     1      12.825  -1.125   3.994  1.00  0.00     0.000 C 
BRANCH  12  13
ATOM     13  C   UNL     1      13.768  -1.352   2.798  1.00  0.00    -0.000 C 
BRANCH  13  14
ATOM     14  C   UNL     1      15.250  -1.231   3.184  1.00  0.00    -0.000 C 
BRANCH  14  15
ATOM     15  C   UNL     1      15.809   0.184   2.953  1.00  0.00    -0.000 C 
BRANCH  15  16
ATOM     16  C   UNL     1      16.897   0.208   1.859  1.00  0.00    -0.000 C 
BRANCH  16  17
ATOM     17  C   UNL     1      16.361   0.580   0.465  1.00  0.00    -0.000 C 
BRANCH  17  18
ATOM     18  C   UNL     1      16.171  -0.644  -0.446  1.00  0.00    -0.000 C 
BRANCH  18  19
ATOM     19  C   UNL     1      15.049  -0.443  -1.477  1.00  0.00    -0.003 C 
ATOM     20  C   UNL     1      13.653  -0.527  -0.859  1.00  0.00     0.004 C 
ENDBRANCH  18  19
ENDBRANCH  17  18
ENDBRANCH  16  17
ENDBRANCH  15  16
ENDBRANCH  14  15
ENDBRANCH  13  14
ENDBRANCH  12  13
ENDBRANCH   1  12
TORSDOF 16
ENDMDL
MODEL 3
REMARK VINA RESULT:    -4.265      2.006      3.472
REMARK INTER + INTRA:         -10.871
REMARK INTER:                  -8.139
REMARK INTRA:                  -2.732
REMARK UNBOUND:                -2.616
REMARK SMILES CCCCCCCCCCCCCCCCCC(=O)[O-]
REMARK SMILES IDX 10 1 11 2 12 3 13 4 14 5 15 6 16 7 17 8 18 9 19 10 20 11
REMARK SMILES IDX 9 12 8 13 7 14 6 15 5 16 4 17 3 18 2 19 1 20
REMARK H PARENT
REMARK Flexibility Score: inf
ROOT
ATOM      1  C   UNL     1      11.639  -0.448   0.149  1.00  0.00     0.000 C 
ENDROOT
BRANCH   1   2
ATOM      2  C   UNL     1      13.152  -0.186   0.228  1.00  0.00     0.000 C 
BRANCH   2   3
ATOM      3  C   UNL     1      13.885  -0.500  -1.089  1.00  0.00     0.000 C 
BRANCH   3   4
ATOM      4  C   UNL     1      15.421  -0.494  -0.999  1.00  0.00     0.000 C 
BRANCH   4   5
ATOM      5  C   UNL     1      15.950   0.360   0.163  1.00  0.00     0.000 C 
BRANCH   5   6
ATOM      6  C   UNL     1      17.404  -0.005   0.496  1.00  0.00     0.000 C 
BRANCH   6   7
ATOM      7  C   UNL     1      17.767   0.274   1.962  1.00  0.00     0.006 C 
BRANCH   7   8
ATOM      8  C   UNL     1      16.873   1.346   2.600  1.00  0.00     0.053 C 
BRANCH   8   9
ATOM      9  C   UNL     1      17.647   2.607   2.833  1.00  0.00     0.041 C 
ATOM     10  O   UNL     1      18.304   2.759   3.895  1.00  0.00    -0.550 OA
ATOM     11  O   UNL     1      17.624   3.623   1.886  1.00  0.00    -0.550 OA
ENDBRANCH   8   9
ENDBRANCH   7   8
ENDBRANCH   6   7
ENDBRANCH   5   6
ENDBRANCH   4   5
ENDBRANCH   3   4
ENDBRANCH   2   3
ENDBRANCH   1   2
BRANCH   1  12
ATOM     12  C   UNL     1      11.223  -1.728   0.894  1.00  0.00     0.000 C 
BRANCH  12  13
ATOM     13  C   UNL     1      10.714  -1.444   2.319  1.00  0.00    -0.000 C 
BRANCH  13  14
ATOM     14  C   UNL     1      10.508   0.055   2.585  1.00  0.00    -0.000 C 
BRANCH  14  15
ATOM     15  C   UNL     1      11.526   0.624   3.589  1.00  0.00    -0.000 C 
BRANCH  15  16
ATOM     16  C   UNL     1      12.371  -0.485   4.251  1.00  0.00    -0.000 C 
BRANCH  16  17
ATOM     17  C   UNL     1      13.858  -0.444   3.856  1.00  0.00    -0.000 C 
BRANCH  17  18
ATOM     18  C   UNL     1      14.539  -1.819   3.953  1.00  0.00    -0.000 C 
BRANCH  18  19
ATOM     19  C   UNL     1      15.158  -2.267   2.620  1.00  0.00    -0.003 C 
ATOM     20  C   UNL     1      14.332  -3.343   1.914  1.00  0.00     0.004 C 
ENDBRANCH  18  19
ENDBRANCH  17  18
ENDBRANCH  16  17
ENDBRANCH  15  16
ENDBRANCH  14  15
ENDBRANCH  13  14
ENDBRANCH  12  13
ENDBRANCH   1  12
TORSDOF 16
ENDMDL
MODEL 4
REMARK VINA RESULT:    -4.090      3.085      6.033
REMARK INTER + INTRA:         -10.531
REMARK INTER:                  -8.183
REMARK INTRA:                  -2.348
REMARK UNBOUND:                -2.616
REMARK SMILES CCCCCCCCCCCCCCCCCC(=O)[O-]
REMARK SMILES IDX 10 1 11 2 12 3 13 4 14 5 15 6 16 7 17 8 18 9 19 10 20 11
REMARK SMILES IDX 9 12 8 13 7 14 6 15 5 16 4 17 3 18 2 19 1 20
REMARK H PARENT
REMARK Flexibility Score: inf
ROOT
ATOM      1  C   UNL     1      15.645  -2.652   3.964  1.00  0.00     0.000 C 
ENDROOT
BRANCH   1   2
ATOM      2  C   UNL     1      14.193  -2.537   3.469  1.00  0.00     0.000 C 
BRANCH   2   3
ATOM      3  C   UNL     1      13.373  -1.496   4.253  1.00  0.00     0.000 C 
BRANCH   3   4
ATOM      4  C   UNL     1      13.243  -0.122   3.574  1.00  0.00     0.000 C 
BRANCH   4   5
ATOM      5  C   UNL     1      11.789   0.252   3.249  1.00  0.00     0.000 C 
BRANCH   5   6
ATOM      6  C   UNL     1      11.635   0.621   1.766  1.00  0.00     0.000 C 
BRANCH   6   7
ATOM      7  C   UNL     1      10.873  -0.444   0.963  1.00  0.00     0.006 C 
BRANCH   7   8
ATOM      8  C   UNL     1      10.593  -1.713   1.780  1.00  0.00     0.053 C 
BRANCH   8   9
ATOM      9  C   UNL     1       9.121  -1.982   1.846  1.00  0.00     0.041 C 
ATOM     10  O   UNL     1       8.359  -1.187   2.457  1.00  0.00    -0.550 OA
ATOM     11  O   UNL     1       8.594  -3.120   1.251  1.00  0.00    -0.550 OA
ENDBRANCH   8   9
ENDBRANCH   7   8
ENDBRANCH   6   7
ENDBRANCH   5   6
ENDBRANCH   4   5
ENDBRANCH   3   4
ENDBRANCH   2   3
ENDBRANCH   1   2
BRANCH   1  12
ATOM     12  C   UNL     1      15.970  -1.639   5.075  1.00  0.00     0.000 C 
BRANCH  12  13
ATOM     13  C   UNL     1      17.087  -0.658   4.673  1.00  0.00    -0.000 C 
BRANCH  13  14
ATOM     14  C   UNL     1      16.556   0.752   4.376  1.00  0.00    -0.000 C 
BRANCH  14  15
ATOM     15  C   UNL     1      16.891   1.223   2.949  1.00  0.00    -0.000 C 
BRANCH  15  16
ATOM     16  C   UNL     1      17.064   0.040   1.972  1.00  0.00    -0.000 C 
BRANCH  16  17
ATOM     17  C   UNL     1      16.260   0.197   0.669  1.00  0.00    -0.000 C 
BRANCH  17  18
ATOM     18  C   UNL     1      15.077  -0.782   0.577  1.00  0.00    -0.000 C 
BRANCH  18  19
ATOM     19  C   UNL     1      14.199  -0.530  -0.659  1.00  0.00    -0.003 C 
ATOM     20  C   UNL     1      15.001  -0.498  -1.960  1.00  0.00     0.004 C 
ENDBRANCH  18  19
ENDBRANCH  17  18
ENDBRANCH  16  17
ENDBRANCH  15  16
ENDBRANCH  14  15
ENDBRANCH  13  14
ENDBRANCH  12  13
ENDBRANCH   1  12
TORSDOF 16
ENDMDL
MODEL 5
REMARK VINA RESULT:    -4.022      1.445      5.211
REMARK INTER + INTRA:         -10.400
REMARK INTER:                  -7.997
REMARK INTRA:                  -2.403
REMARK UNBOUND:                -2.616
REMARK SMILES CCCCCCCCCCCCCCCCCC(=O)[O-]
REMARK SMILES IDX 10 1 11 2 12 3 13 4 14 5 15 6 16 7 17 8 18 9 19 10 20 11
REMARK SMILES IDX 9 12 8 13 7 14 6 15 5 16 4 17 3 18 2 19 1 20
REMARK H PARENT
REMARK Flexibility Score: inf
ROOT
ATOM      1  C   UNL     1      10.204   0.618   1.540  1.00  0.00     0.000 C 
ENDROOT
BRANCH   1   2
ATOM      2  C   UNL     1      10.252   0.282   3.041  1.00  0.00     0.000 C 
BRANCH   2   3
ATOM      3  C   UNL     1      11.376   1.027   3.785  1.00  0.00     0.000 C 
BRANCH   3   4
ATOM      4  C   UNL     1      12.292   0.137   4.643  1.00  0.00     0.000 C 
BRANCH   4   5
ATOM      5  C   UNL     1      13.526  -0.365   3.878  1.00  0.00     0.000 C 
BRANCH   5   6
ATOM      6  C   UNL     1      13.295  -1.782   3.330  1.00  0.00     0.000 C 
BRANCH   6   7
ATOM      7  C   UNL     1      14.402  -2.766   3.738  1.00  0.00     0.006 C 
BRANCH   7   8
ATOM      8  C   UNL     1      15.609  -2.724   2.792  1.00  0.00     0.053 C 
BRANCH   8   9
ATOM      9  C   UNL     1      16.889  -2.801   3.567  1.00  0.00     0.041 C 
ATOM     10  O   UNL     1      17.681  -1.823   3.578  1.00  0.00    -0.550 OA
ATOM     11  O   UNL     1      17.215  -3.960   4.259  1.00  0.00    -0.550 OA
ENDBRANCH   8   9
ENDBRANCH   7   8
ENDBRANCH   6   7
ENDBRANCH   5   6
ENDBRANCH   4   5
ENDBRANCH   3   4
ENDBRANCH   2   3
ENDBRANCH   1   2
BRANCH   1  12
ATOM     12  C   UNL     1      11.563   0.419   0.849  1.00  0.00     0.000 C 
BRANCH  12  13
ATOM     13  C   UNL     1      11.656  -0.924   0.101  1.00  0.00    -0.000 C 
BRANCH  13  14
ATOM     14  C   UNL     1      13.105  -1.327  -0.210  1.00  0.00    -0.000 C 
BRANCH  14  15
ATOM     15  C   UNL     1      14.087  -0.148  -0.092  1.00  0.00    -0.000 C 
BRANCH  15  16
ATOM     16  C   UNL     1      15.457  -0.467  -0.728  1.00  0.00    -0.000 C 
BRANCH  16  17
ATOM     17  C   UNL     1      16.649  -0.186   0.204  1.00  0.00    -0.000 C 
BRANCH  17  18
ATOM     18  C   UNL     1      16.242   0.566   1.482  1.00  0.00    -0.000 C 
BRANCH  18  19
ATOM     19  C   UNL     1      17.407   1.358   2.096  1.00  0.00    -0.003 C 
ATOM     20  C   UNL     1      17.674   2.678   1.371  1.00  0.00     0.004 C 
ENDBRANCH  18  19
ENDBRANCH  17  18
ENDBRANCH  16  17
ENDBRANCH  15  16
ENDBRANCH  14  15
ENDBRANCH  13  14
ENDBRANCH  12  13
ENDBRANCH   1  12
TORSDOF 16
ENDMDL
MODEL 6
REMARK VINA RESULT:    -4.013      2.809      6.216
REMARK INTER + INTRA:         -10.382
REMARK INTER:                  -8.189
REMARK INTRA:                  -2.193
REMARK UNBOUND:                -2.616
REMARK SMILES CCCCCCCCCCCCCCCCCC(=O)[O-]
REMARK SMILES IDX 10 1 11 2 12 3 13 4 14 5 15 6 16 7 17 8 18 9 19 10 20 11
REMARK SMILES IDX 9 12 8 13 7 14 6 15 5 16 4 17 3 18 2 19 1 20
REMARK H PARENT
REMARK Flexibility Score: inf
ROOT
ATOM      1  C   UNL     1      15.294  -1.740   4.518  1.00  0.00     0.000 C 
ENDROOT
BRANCH   1   2
ATOM      2  C   UNL     1      14.443  -0.466   4.379  1.00  0.00     0.000 C 
BRANCH   2   3
ATOM      3  C   UNL     1      12.951  -0.765   4.142  1.00  0.00     0.000 C 
BRANCH   3   4
ATOM      4  C   UNL     1      11.987   0.363   4.548  1.00  0.00     0.000 C 
BRANCH   4   5
ATOM      5  C   UNL     1      11.044   0.784   3.412  1.00  0.00     0.000 C 
BRANCH   5   6
ATOM      6  C   UNL     1      11.801   0.891   2.079  1.00  0.00     0.000 C 
BRANCH   6   7
ATOM      7  C   UNL     1      10.977   0.389   0.884  1.00  0.00     0.006 C 
BRANCH   7   8
ATOM      8  C   UNL     1      11.662  -0.762   0.134  1.00  0.00     0.053 C 
BRANCH   8   9
ATOM      9  C   UNL     1      11.138  -2.083   0.605  1.00  0.00     0.041 C 
ATOM     10  O   UNL     1      11.589  -3.152   0.117  1.00  0.00    -0.550 OA
ATOM     11  O   UNL     1      10.137  -2.133   1.566  1.00  0.00    -0.550 OA
ENDBRANCH   8   9
ENDBRANCH   7   8
ENDBRANCH   6   7
ENDBRANCH   5   6
ENDBRANCH   4   5
ENDBRANCH   3   4
ENDBRANCH   2   3
ENDBRANCH   1   2
BRANCH   1  12
ATOM     12  C   UNL     1      16.046  -2.090   3.222  1.00  0.00     0.000 C 
BRANCH  12  13
ATOM     13  C   UNL     1      15.137  -2.755   2.172  1.00  0.00    -0.000 C 
BRANCH  13  14
ATOM     14  C   UNL     1      15.182  -2.039   0.814  1.00  0.00    -0.000 C 
BRANCH  14  15
ATOM     15  C   UNL     1      15.113  -0.507   0.949  1.00  0.00    -0.000 C 
BRANCH  15  16
ATOM     16  C   UNL     1      16.203   0.199   0.115  1.00  0.00    -0.000 C 
BRANCH  16  17
ATOM     17  C   UNL     1      17.402   0.681   0.952  1.00  0.00    -0.000 C 
BRANCH  17  18
ATOM     18  C   UNL     1      16.979   1.363   2.263  1.00  0.00    -0.000 C 
BRANCH  18  19
ATOM     19  C   UNL     1      17.697   2.703   2.489  1.00  0.00    -0.003 C 
ATOM     20  C   UNL     1      17.762   3.561   1.226  1.00  0.00     0.004 C 
ENDBRANCH  18  19
ENDBRANCH  17  18
ENDBRANCH  16  17
ENDBRANCH  15  16
ENDBRANCH  14  15
ENDBRANCH  13  14
ENDBRANCH  12  13
ENDBRANCH   1  12
TORSDOF 16
ENDMDL
MODEL 7
REMARK VINA RESULT:    -3.981      3.373      5.454
REMARK INTER + INTRA:         -10.319
REMARK INTER:                  -7.609
REMARK INTRA:                  -2.710
REMARK UNBOUND:                -2.616
REMARK SMILES CCCCCCCCCCCCCCCCCC(=O)[O-]
REMARK SMILES IDX 10 1 11 2 12 3 13 4 14 5 15 6 16 7 17 8 18 9 19 10 20 11
REMARK SMILES IDX 9 12 8 13 7 14 6 15 5 16 4 17 3 18 2 19 1 20
REMARK H PARENT
REMARK Flexibility Score: inf
ROOT
ATOM      1  C   UNL     1      16.171   0.031   3.083  1.00  0.00     0.000 C 
ENDROOT
BRANCH   1   2
ATOM      2  C   UNL     1      14.777  -0.261   3.664  1.00  0.00     0.000 C 
BRANCH   2   3
ATOM      3  C   UNL     1      14.298  -1.697   3.380  1.00  0.00     0.000 C 
BRANCH   3   4
ATOM      4  C   UNL     1      15.414  -2.754   3.302  1.00  0.00     0.000 C 
BRANCH   4   5
ATOM      5  C   UNL     1      15.359  -3.591   2.016  1.00  0.00     0.000 C 
BRANCH   5   6
ATOM      6  C   UNL     1      13.913  -3.989   1.681  1.00  0.00     0.000 C 
BRANCH   6   7
ATOM      7  C   UNL     1      13.777  -5.471   1.298  1.00  0.00     0.006 C 
BRANCH   7   8
ATOM      8  C   UNL     1      12.646  -5.721   0.292  1.00  0.00     0.053 C 
BRANCH   8   9
ATOM      9  C   UNL     1      12.764  -7.090  -0.304  1.00  0.00     0.041 C 
ATOM     10  O   UNL     1      13.467  -7.968   0.263  1.00  0.00    -0.550 OA
ATOM     11  O   UNL     1      12.117  -7.389  -1.495  1.00  0.00    -0.550 OA
ENDBRANCH   8   9
ENDBRANCH   7   8
ENDBRANCH   6   7
ENDBRANCH   5   6
ENDBRANCH   4   5
ENDBRANCH   3   4
ENDBRANCH   2   3
ENDBRANCH   1   2
BRANCH   1  12
ATOM     12  C   UNL     1      16.106   0.599   1.655  1.00  0.00     0.000 C 
BRANCH  12  13
ATOM     13  C   UNL     1      16.574  -0.414   0.594  1.00  0.00    -0.000 C 
BRANCH  13  14
ATOM     14  C   UNL     1      15.448  -0.825  -0.367  1.00  0.00    -0.000 C 
BRANCH  14  15
ATOM     15  C   UNL     1      14.114  -0.125  -0.050  1.00  0.00    -0.000 C 
BRANCH  15  16
ATOM     16  C   UNL     1      12.903  -1.060  -0.258  1.00  0.00    -0.000 C 
BRANCH  16  17
ATOM     17  C   UNL     1      11.677  -0.678   0.590  1.00  0.00    -0.000 C 
BRANCH  17  18
ATOM     18  C   UNL     1      11.900   0.597   1.419  1.00  0.00    -0.000 C 
BRANCH  18  19
ATOM     19  C   UNL     1      11.195   0.544   2.784  1.00  0.00    -0.003 C 
ATOM     20  C   UNL     1       9.893  -0.257   2.748  1.00  0.00     0.004 C 
ENDBRANCH  18  19
ENDBRANCH  17  18
ENDBRANCH  16  17
ENDBRANCH  15  16
ENDBRANCH  14  15
ENDBRANCH  13  14
ENDBRANCH  12  13
ENDBRANCH   1  12
TORSDOF 16
ENDMDL
MODEL 8
REMARK VINA RESULT:    -3.936      2.633      6.311
REMARK INTER + INTRA:         -10.232
REMARK INTER:                  -7.959
REMARK INTRA:                  -2.274
REMARK UNBOUND:                -2.616
REMARK SMILES CCCCCCCCCCCCCCCCCC(=O)[O-]
REMARK SMILES IDX 10 1 11 2 12 3 13 4 14 5 15 6 16 7 17 8 18 9 19 10 20 11
REMARK SMILES IDX 9 12 8 13 7 14 6 15 5 16 4 17 3 18 2 19 1 20
REMARK H PARENT
REMARK Flexibility Score: inf
ROOT
ATOM      1  C   UNL     1      14.430  -2.607   2.045  1.00  0.00     0.000 C 
ENDROOT
BRANCH   1   2
ATOM      2  C   UNL     1      14.137  -2.140   3.480  1.00  0.00     0.000 C 
BRANCH   2   3
ATOM      3  C   UNL     1      12.653  -1.798   3.709  1.00  0.00     0.000 C 
BRANCH   3   4
ATOM      4  C   UNL     1      12.396  -0.495   4.486  1.00  0.00     0.000 C 
BRANCH   4   5
ATOM      5  C   UNL     1      11.963   0.667   3.580  1.00  0.00     0.000 C 
BRANCH   5   6
ATOM      6  C   UNL     1      10.453   0.612   3.299  1.00  0.00     0.000 C 
BRANCH   6   7
ATOM      7  C   UNL     1      10.131   0.185   1.858  1.00  0.00     0.006 C 
BRANCH   7   8
ATOM      8  C   UNL     1      11.221   0.600   0.860  1.00  0.00     0.053 C 
BRANCH   8   9
ATOM      9  C   UNL     1      11.785  -0.602   0.168  1.00  0.00     0.041 C 
ATOM     10  O   UNL     1      11.305  -1.744   0.391  1.00  0.00    -0.550 OA
ATOM     11  O   UNL     1      12.853  -0.464  -0.709  1.00  0.00    -0.550 OA
ENDBRANCH   8   9
ENDBRANCH   7   8
ENDBRANCH   6   7
ENDBRANCH   5   6
ENDBRANCH   4   5
ENDBRANCH   3   4
ENDBRANCH   2   3
ENDBRANCH   1   2
BRANCH   1  12
ATOM     12  C   UNL     1      15.299  -1.606   1.265  1.00  0.00     0.000 C 
BRANCH  12  13
ATOM     13  C   UNL     1      15.332  -0.214   1.924  1.00  0.00    -0.000 C 
BRANCH  13  14
ATOM     14  C   UNL     1      16.668   0.511   1.704  1.00  0.00    -0.000 C 
BRANCH  14  15
ATOM     15  C   UNL     1      17.826  -0.130   2.490  1.00  0.00    -0.000 C 
BRANCH  15  16
ATOM     16  C   UNL     1      17.421  -0.485   3.936  1.00  0.00    -0.000 C 
BRANCH  16  17
ATOM     17  C   UNL     1      18.243  -1.637   4.541  1.00  0.00    -0.000 C 
BRANCH  17  18
ATOM     18  C   UNL     1      17.501  -2.984   4.502  1.00  0.00    -0.000 C 
BRANCH  18  19
ATOM     19  C   UNL     1      16.717  -3.262   5.794  1.00  0.00    -0.003 C 
ATOM     20  C   UNL     1      17.352  -2.615   7.025  1.00  0.00     0.004 C 
ENDBRANCH  18  19
ENDBRANCH  17  18
ENDBRANCH  16  17
ENDBRANCH  15  16
ENDBRANCH  14  15
ENDBRANCH  13  14
ENDBRANCH  12  13
ENDBRANCH   1  12
TORSDOF 16
ENDMDL
MODEL 9
REMARK VINA RESULT:    -3.924      2.067      3.920
REMARK INTER + INTRA:         -10.209
REMARK INTER:                  -7.689
REMARK INTRA:                  -2.521
REMARK UNBOUND:                -2.616
REMARK SMILES CCCCCCCCCCCCCCCCCC(=O)[O-]
REMARK SMILES IDX 10 1 11 2 12 3 13 4 14 5 15 6 16 7 17 8 18 9 19 10 20 11
REMARK SMILES IDX 9 12 8 13 7 14 6 15 5 16 4 17 3 18 2 19 1 20
REMARK H PARENT
REMARK Flexibility Score: inf
ROOT
ATOM      1  C   UNL     1      14.494  -2.005   3.716  1.00  0.00     0.000 C 
ENDROOT
BRANCH   1   2
ATOM      2  C   UNL     1      15.907  -2.582   3.526  1.00  0.00     0.000 C 
BRANCH   2   3
ATOM      3  C   UNL     1      16.982  -1.807   4.310  1.00  0.00     0.000 C 
BRANCH   3   4
ATOM      4  C   UNL     1      18.045  -1.109   3.444  1.00  0.00     0.000 C 
BRANCH   4   5
ATOM      5  C   UNL     1      18.115   0.406   3.686  1.00  0.00     0.000 C 
BRANCH   5   6
ATOM      6  C   UNL     1      17.655   1.183   2.443  1.00  0.00     0.000 C 
BRANCH   6   7
ATOM      7  C   UNL     1      17.447   0.278   1.219  1.00  0.00     0.006 C 
BRANCH   7   8
ATOM      8  C   UNL     1      16.217   0.676   0.391  1.00  0.00     0.053 C 
BRANCH   8   9
ATOM      9  C   UNL     1      15.735  -0.483  -0.426  1.00  0.00     0.041 C 
ATOM     10  O   UNL     1      15.342  -0.304  -1.608  1.00  0.00    -0.550 OA
ATOM     11  O   UNL     1      15.701  -1.757   0.126  1.00  0.00    -0.550 OA
ENDBRANCH   8   9
ENDBRANCH   7   8
ENDBRANCH   6   7
ENDBRANCH   5   6
ENDBRANCH   4   5
ENDBRANCH   3   4
ENDBRANCH   2   3
ENDBRANCH   1   2
BRANCH   1  12
ATOM     12  C   UNL     1      14.430  -0.496   3.422  1.00  0.00     0.000 C 
BRANCH  12  13
ATOM     13  C   UNL     1      13.296   0.208   4.189  1.00  0.00    -0.000 C 
BRANCH  13  14
ATOM     14  C   UNL     1      11.921  -0.423   3.922  1.00  0.00    -0.000 C 
BRANCH  14  15
ATOM     15  C   UNL     1      10.877   0.607   3.457  1.00  0.00    -0.000 C 
BRANCH  15  16
ATOM     16  C   UNL     1      10.215   0.202   2.122  1.00  0.00    -0.000 C 
BRANCH  16  17
ATOM     17  C   UNL     1      10.994   0.674   0.881  1.00  0.00    -0.000 C 
BRANCH  17  18
ATOM     18  C   UNL     1      12.116  -0.296   0.477  1.00  0.00    -0.000 C 
BRANCH  18  19
ATOM     19  C   UNL     1      11.598  -1.717   0.204  1.00  0.00    -0.003 C 
ATOM     20  C   UNL     1      12.413  -2.794   0.922  1.00  0.00     0.004 C 
ENDBRANCH  18  19
ENDBRANCH  17  18
ENDBRANCH  16  17
ENDBRANCH  15  16
ENDBRANCH  14  15
ENDBRANCH  13  14
ENDBRANCH  12  13
ENDBRANCH   1  12
TORSDOF 16
ENDMDL
