MODEL 1
REMARK VINA RESULT:    -4.581      0.000      0.000
REMARK INTER + INTRA:          -9.811
REMARK INTER:                  -8.330
REMARK INTRA:                  -1.482
REMARK UNBOUND:                -1.482
REMARK SMILES CCCCCCCCCCCCCCCC(=O)[O-]
REMARK SMILES IDX 9 1 10 2 11 3 12 4 13 5 14 6 15 7 16 8 17 9 18 10 8 11 7 12
REMARK SMILES IDX 6 13 5 14 4 15 3 16 2 17 1 18
REMARK H PARENT
REMARK Flexibility Score: inf
ROOT
ATOM      1  C   UNL     1       1.692 -42.256 -17.274  1.00  0.00     0.000 C 
ENDROOT
BRANCH   1   2
ATOM      2  C   UNL     1       0.627 -42.375 -18.374  1.00  0.00     0.000 C 
BRANCH   2   3
ATOM      3  C   UNL     1      -0.773 -42.075 -17.817  1.00  0.00     0.000 C 
BRANCH   3   4
ATOM      4  C   UNL     1      -1.615 -41.186 -18.751  1.00  0.00     0.000 C 
BRANCH   4   5
ATOM      5  C   UNL     1      -0.990 -40.919 -20.133  1.00  0.00     0.000 C 
BRANCH   5   6
ATOM      6  C   UNL     1      -1.572 -39.671 -20.820  1.00  0.00     0.006 C 
BRANCH   6   7
ATOM      7  C   UNL     1      -0.521 -38.926 -21.654  1.00  0.00     0.053 C 
BRANCH   7   8
ATOM      8  C   UNL     1      -0.754 -37.446 -21.655  1.00  0.00     0.041 C 
ATOM      9  O   UNL     1      -1.618 -36.942 -22.421  1.00  0.00    -0.550 OA
ATOM     10  O   UNL     1      -0.033 -36.626 -20.796  1.00  0.00    -0.550 OA
ENDBRANCH   7   8
ENDBRANCH   6   7
ENDBRANCH   5   6
ENDBRANCH   4   5
ENDBRANCH   3   4
ENDBRANCH   2   3
ENDBRANCH   1   2
BRANCH   1  11
ATOM     11  C   UNL     1       1.601 -43.382 -16.226  1.00  0.00     0.000 C 
BRANCH  11  12
ATOM     12  C   UNL     1       2.647 -44.501 -16.385  1.00  0.00    -0.000 C 
BRANCH  12  13
ATOM     13  C   UNL     1       2.069 -45.886 -16.735  1.00  0.00    -0.000 C 
BRANCH  13  14
ATOM     14  C   UNL     1       1.070 -45.862 -17.912  1.00  0.00    -0.000 C 
BRANCH  14  15
ATOM     15  C   UNL     1      -0.316 -46.397 -17.516  1.00  0.00    -0.000 C 
BRANCH  15  16
ATOM     16  C   UNL     1      -1.434 -45.351 -17.687  1.00  0.00    -0.000 C 
BRANCH  16  17
ATOM     17  C   UNL     1      -2.315 -45.137 -16.444  1.00  0.00    -0.003 C 
ATOM     18  C   UNL     1      -1.513 -44.743 -15.205  1.00  0.00     0.004 C 
ENDBRANCH  16  17
ENDBRANCH  15  16
ENDBRANCH  14  15
ENDBRANCH  13  14
ENDBRANCH  12  13
ENDBRANCH  11  12
ENDBRANCH   1  11
TORSDOF 14
ENDMDL
MODEL 2
REMARK VINA RESULT:    -4.502      9.119     13.047
REMARK INTER + INTRA:          -9.669
REMARK INTER:                  -8.653
REMARK INTRA:                  -1.015
REMARK UNBOUND:                -1.482
REMARK SMILES CCCCCCCCCCCCCCCC(=O)[O-]
REMARK SMILES IDX 9 1 10 2 11 3 12 4 13 5 14 6 15 7 16 8 17 9 18 10 8 11 7 12
REMARK SMILES IDX 6 13 5 14 4 15 3 16 2 17 1 18
REMARK H PARENT
REMARK Flexibility Score: inf
ROOT
ATOM      1  C   UNL     1       7.370 -32.808 -19.288  1.00  0.00     0.000 C 
ENDROOT
BRANCH   1   2
ATOM      2  C   UNL     1       6.597 -33.190 -20.559  1.00  0.00     0.000 C 
BRANCH   2   3
ATOM      3  C   UNL     1       6.452 -34.716 -20.675  1.00  0.00     0.000 C 
BRANCH   3   4
ATOM      4  C   UNL     1       6.566 -35.223 -22.124  1.00  0.00     0.000 C 
BRANCH   4   5
ATOM      5  C   UNL     1       5.845 -36.553 -22.408  1.00  0.00     0.000 C 
BRANCH   5   6
ATOM      6  C   UNL     1       4.627 -36.388 -23.333  1.00  0.00     0.006 C 
BRANCH   6   7
ATOM      7  C   UNL     1       3.315 -36.273 -22.547  1.00  0.00     0.053 C 
BRANCH   7   8
ATOM      8  C   UNL     1       2.173 -36.927 -23.265  1.00  0.00     0.041 C 
ATOM      9  O   UNL     1       1.340 -37.624 -22.628  1.00  0.00    -0.550 OA
ATOM     10  O   UNL     1       2.018 -36.748 -24.634  1.00  0.00    -0.550 OA
ENDBRANCH   7   8
ENDBRANCH   6   7
ENDBRANCH   5   6
ENDBRANCH   4   5
ENDBRANCH   3   4
ENDBRANCH   2   3
ENDBRANCH   1   2
BRANCH   1  11
ATOM     11  C   UNL     1       6.890 -31.482 -18.669  1.00  0.00     0.000 C 
BRANCH  11  12
ATOM     12  C   UNL     1       6.089 -31.630 -17.362  1.00  0.00    -0.000 C 
BRANCH  12  13
ATOM     13  C   UNL     1       5.295 -30.378 -16.941  1.00  0.00    -0.000 C 
BRANCH  13  14
ATOM     14  C   UNL     1       4.723 -29.577 -18.130  1.00  0.00    -0.000 C 
BRANCH  14  15
ATOM     15  C   UNL     1       4.856 -28.057 -17.933  1.00  0.00    -0.000 C 
BRANCH  15  16
ATOM     16  C   UNL     1       6.016 -27.674 -16.995  1.00  0.00    -0.000 C 
BRANCH  16  17
ATOM     17  C   UNL     1       7.348 -27.371 -17.703  1.00  0.00    -0.003 C 
ATOM     18  C   UNL     1       8.433 -28.403 -17.400  1.00  0.00     0.004 C 
ENDBRANCH  16  17
ENDBRANCH  15  16
ENDBRANCH  14  15
ENDBRANCH  13  14
ENDBRANCH  12  13
ENDBRANCH  11  12
ENDBRANCH   1  11
TORSDOF 14
ENDMDL
MODEL 3
REMARK VINA RESULT:    -4.477      9.766     13.481
REMARK INTER + INTRA:          -9.622
REMARK INTER:                  -8.729
REMARK INTRA:                  -0.893
REMARK UNBOUND:                -1.482
REMARK SMILES CCCCCCCCCCCCCCCC(=O)[O-]
REMARK SMILES IDX 9 1 10 2 11 3 12 4 13 5 14 6 15 7 16 8 17 9 18 10 8 11 7 12
REMARK SMILES IDX 6 13 5 14 4 15 3 16 2 17 1 18
REMARK H PARENT
REMARK Flexibility Score: inf
ROOT
ATOM      1  C   UNL     1       6.541 -32.657 -20.248  1.00  0.00     0.000 C 
ENDROOT
BRANCH   1   2
ATOM      2  C   UNL     1       6.959 -34.129 -20.376  1.00  0.00     0.000 C 
BRANCH   2   3
ATOM      3  C   UNL     1       6.202 -34.817 -21.523  1.00  0.00     0.000 C 
BRANCH   3   4
ATOM      4  C   UNL     1       6.847 -36.146 -21.957  1.00  0.00     0.000 C 
BRANCH   4   5
ATOM      5  C   UNL     1       6.215 -37.409 -21.344  1.00  0.00     0.000 C 
BRANCH   5   6
ATOM      6  C   UNL     1       6.747 -37.719 -19.934  1.00  0.00     0.006 C 
BRANCH   6   7
ATOM      7  C   UNL     1       7.025 -39.215 -19.737  1.00  0.00     0.053 C 
BRANCH   7   8
ATOM      8  C   UNL     1       7.859 -39.473 -18.519  1.00  0.00     0.041 C 
ATOM      9  O   UNL     1       8.421 -40.589 -18.361  1.00  0.00    -0.550 OA
ATOM     10  O   UNL     1       8.032 -38.474 -17.569  1.00  0.00    -0.550 OA
ENDBRANCH   7   8
ENDBRANCH   6   7
ENDBRANCH   5   6
ENDBRANCH   4   5
ENDBRANCH   3   4
ENDBRANCH   2   3
ENDBRANCH   1   2
BRANCH   1  11
ATOM     11  C   UNL     1       7.048 -31.998 -18.952  1.00  0.00     0.000 C 
BRANCH  11  12
ATOM     12  C   UNL     1       5.952 -31.364 -18.076  1.00  0.00    -0.000 C 
BRANCH  12  13
ATOM     13  C   UNL     1       6.248 -31.364 -16.563  1.00  0.00    -0.000 C 
BRANCH  13  14
ATOM     14  C   UNL     1       5.482 -30.276 -15.781  1.00  0.00    -0.000 C 
BRANCH  14  15
ATOM     15  C   UNL     1       5.176 -29.039 -16.643  1.00  0.00    -0.000 C 
BRANCH  15  16
ATOM     16  C   UNL     1       6.135 -27.865 -16.369  1.00  0.00    -0.000 C 
BRANCH  16  17
ATOM     17  C   UNL     1       7.119 -27.553 -17.510  1.00  0.00    -0.003 C 
ATOM     18  C   UNL     1       8.384 -28.409 -17.457  1.00  0.00     0.004 C 
ENDBRANCH  16  17
ENDBRANCH  15  16
ENDBRANCH  14  15
ENDBRANCH  13  14
ENDBRANCH  12  13
ENDBRANCH  11  12
ENDBRANCH   1  11
TORSDOF 14
ENDMDL
MODEL 4
REMARK VINA RESULT:    -4.410      9.623     12.676
REMARK INTER + INTRA:          -9.501
REMARK INTER:                  -8.529
REMARK INTRA:                  -0.972
REMARK UNBOUND:                -1.482
REMARK SMILES CCCCCCCCCCCCCCCC(=O)[O-]
REMARK SMILES IDX 9 1 10 2 11 3 12 4 13 5 14 6 15 7 16 8 17 9 18 10 8 11 7 12
REMARK SMILES IDX 6 13 5 14 4 15 3 16 2 17 1 18
REMARK H PARENT
REMARK Flexibility Score: inf
ROOT
ATOM      1  C   UNL     1       6.464 -32.127 -19.732  1.00  0.00     0.000 C 
ENDROOT
BRANCH   1   2
ATOM      2  C   UNL     1       6.760 -31.701 -18.286  1.00  0.00     0.000 C 
BRANCH   2   3
ATOM      3  C   UNL     1       5.486 -31.749 -17.428  1.00  0.00     0.000 C 
BRANCH   3   4
ATOM      4  C   UNL     1       5.003 -30.354 -16.991  1.00  0.00     0.000 C 
BRANCH   4   5
ATOM      5  C   UNL     1       5.005 -29.287 -18.101  1.00  0.00     0.000 C 
BRANCH   5   6
ATOM      6  C   UNL     1       5.218 -27.862 -17.560  1.00  0.00     0.006 C 
BRANCH   6   7
ATOM      7  C   UNL     1       6.418 -27.777 -16.608  1.00  0.00     0.053 C 
BRANCH   7   8
ATOM      8  C   UNL     1       7.721 -27.853 -17.343  1.00  0.00     0.041 C 
ATOM      9  O   UNL     1       8.511 -28.811 -17.135  1.00  0.00    -0.550 OA
ATOM     10  O   UNL     1       8.054 -26.876 -18.273  1.00  0.00    -0.550 OA
ENDBRANCH   7   8
ENDBRANCH   6   7
ENDBRANCH   5   6
ENDBRANCH   4   5
ENDBRANCH   3   4
ENDBRANCH   2   3
ENDBRANCH   1   2
BRANCH   1  11
ATOM     11  C   UNL     1       7.175 -33.433 -20.132  1.00  0.00     0.000 C 
BRANCH  11  12
ATOM     12  C   UNL     1       6.386 -34.331 -21.102  1.00  0.00    -0.000 C 
BRANCH  12  13
ATOM     13  C   UNL     1       6.338 -35.822 -20.715  1.00  0.00    -0.000 C 
BRANCH  13  14
ATOM     14  C   UNL     1       6.051 -36.763 -21.904  1.00  0.00    -0.000 C 
BRANCH  14  15
ATOM     15  C   UNL     1       5.985 -36.012 -23.244  1.00  0.00    -0.000 C 
BRANCH  15  16
ATOM     16  C   UNL     1       4.675 -36.269 -24.012  1.00  0.00    -0.000 C 
BRANCH  16  17
ATOM     17  C   UNL     1       3.392 -36.086 -23.183  1.00  0.00    -0.003 C 
ATOM     18  C   UNL     1       2.355 -37.179 -23.437  1.00  0.00     0.004 C 
ENDBRANCH  16  17
ENDBRANCH  15  16
ENDBRANCH  14  15
ENDBRANCH  13  14
ENDBRANCH  12  13
ENDBRANCH  11  12
ENDBRANCH   1  11
TORSDOF 14
ENDMDL
MODEL 5
REMARK VINA RESULT:    -4.407      3.623      6.066
REMARK INTER + INTRA:          -9.495
REMARK INTER:                  -8.974
REMARK INTRA:                  -0.521
REMARK UNBOUND:                -1.482
REMARK SMILES CCCCCCCCCCCCCCCC(=O)[O-]
REMARK SMILES IDX 9 1 10 2 11 3 12 4 13 5 14 6 15 7 16 8 17 9 18 10 8 11 7 12
REMARK SMILES IDX 6 13 5 14 4 15 3 16 2 17 1 18
REMARK H PARENT
REMARK Flexibility Score: inf
ROOT
ATOM      1  C   UNL     1      -1.124 -37.897 -22.097  1.00  0.00     0.000 C 
ENDROOT
BRANCH   1   2
ATOM      2  C   UNL     1      -0.373 -36.648 -21.613  1.00  0.00     0.000 C 
BRANCH   2   3
ATOM      3  C   UNL     1       1.147 -36.851 -21.708  1.00  0.00     0.000 C 
BRANCH   3   4
ATOM      4  C   UNL     1       1.640 -37.042 -23.154  1.00  0.00     0.000 C 
BRANCH   4   5
ATOM      5  C   UNL     1       3.111 -37.474 -23.289  1.00  0.00     0.000 C 
BRANCH   5   6
ATOM      6  C   UNL     1       4.054 -36.296 -23.590  1.00  0.00     0.006 C 
BRANCH   6   7
ATOM      7  C   UNL     1       4.836 -35.848 -22.349  1.00  0.00     0.053 C 
BRANCH   7   8
ATOM      8  C   UNL     1       6.028 -36.719 -22.093  1.00  0.00     0.041 C 
ATOM      9  O   UNL     1       7.033 -36.654 -22.848  1.00  0.00    -0.550 OA
ATOM     10  O   UNL     1       6.036 -37.587 -21.008  1.00  0.00    -0.550 OA
ENDBRANCH   7   8
ENDBRANCH   6   7
ENDBRANCH   5   6
ENDBRANCH   4   5
ENDBRANCH   3   4
ENDBRANCH   2   3
ENDBRANCH   1   2
BRANCH   1  11
ATOM     11  C   UNL     1      -0.534 -39.206 -21.542  1.00  0.00     0.000 C 
BRANCH  11  12
ATOM     12  C   UNL     1      -1.460 -39.981 -20.586  1.00  0.00    -0.000 C 
BRANCH  12  13
ATOM     13  C   UNL     1      -0.786 -41.139 -19.824  1.00  0.00    -0.000 C 
BRANCH  13  14
ATOM     14  C   UNL     1      -1.601 -41.643 -18.614  1.00  0.00    -0.000 C 
BRANCH  14  15
ATOM     15  C   UNL     1      -0.963 -42.874 -17.948  1.00  0.00    -0.000 C 
BRANCH  15  16
ATOM     16  C   UNL     1      -1.956 -44.035 -17.757  1.00  0.00    -0.000 C 
BRANCH  16  17
ATOM     17  C   UNL     1      -1.420 -45.216 -16.930  1.00  0.00    -0.003 C 
ATOM     18  C   UNL     1      -1.555 -44.999 -15.423  1.00  0.00     0.004 C 
ENDBRANCH  16  17
ENDBRANCH  15  16
ENDBRANCH  14  15
ENDBRANCH  13  14
ENDBRANCH  12  13
ENDBRANCH  11  12
ENDBRANCH   1  11
TORSDOF 14
ENDMDL
MODEL 6
REMARK VINA RESULT:    -4.362      2.390      3.908
REMARK INTER + INTRA:          -9.413
REMARK INTER:                  -8.601
REMARK INTRA:                  -0.812
REMARK UNBOUND:                -1.482
REMARK SMILES CCCCCCCCCCCCCCCC(=O)[O-]
REMARK SMILES IDX 9 1 10 2 11 3 12 4 13 5 14 6 15 7 16 8 17 9 18 10 8 11 7 12
REMARK SMILES IDX 6 13 5 14 4 15 3 16 2 17 1 18
REMARK H PARENT
REMARK Flexibility Score: inf
ROOT
ATOM      1  C   UNL     1      -0.677 -41.105 -19.743  1.00  0.00     0.000 C 
ENDROOT
BRANCH   1   2
ATOM      2  C   UNL     1      -1.521 -40.080 -20.515  1.00  0.00     0.000 C 
BRANCH   2   3
ATOM      3  C   UNL     1      -0.680 -39.380 -21.595  1.00  0.00     0.000 C 
BRANCH   3   4
ATOM      4  C   UNL     1      -1.108 -37.921 -21.838  1.00  0.00     0.000 C 
BRANCH   4   5
ATOM      5  C   UNL     1      -0.161 -37.105 -22.735  1.00  0.00     0.000 C 
BRANCH   5   6
ATOM      6  C   UNL     1       1.292 -37.611 -22.688  1.00  0.00     0.006 C 
BRANCH   6   7
ATOM      7  C   UNL     1       2.279 -36.504 -22.299  1.00  0.00     0.053 C 
BRANCH   7   8
ATOM      8  C   UNL     1       3.394 -36.374 -23.292  1.00  0.00     0.041 C 
ATOM      9  O   UNL     1       4.480 -35.831 -22.957  1.00  0.00    -0.550 OA
ATOM     10  O   UNL     1       3.242 -36.874 -24.579  1.00  0.00    -0.550 OA
ENDBRANCH   7   8
ENDBRANCH   6   7
ENDBRANCH   5   6
ENDBRANCH   4   5
ENDBRANCH   3   4
ENDBRANCH   2   3
ENDBRANCH   1   2
BRANCH   1  11
ATOM     11  C   UNL     1      -1.423 -41.716 -18.543  1.00  0.00     0.000 C 
BRANCH  11  12
ATOM     12  C   UNL     1      -0.540 -42.031 -17.322  1.00  0.00    -0.000 C 
BRANCH  12  13
ATOM     13  C   UNL     1       0.604 -43.029 -17.587  1.00  0.00    -0.000 C 
BRANCH  13  14
ATOM     14  C   UNL     1       0.123 -44.477 -17.820  1.00  0.00    -0.000 C 
BRANCH  14  15
ATOM     15  C   UNL     1      -0.354 -45.153 -16.523  1.00  0.00    -0.000 C 
BRANCH  15  16
ATOM     16  C   UNL     1      -1.884 -45.101 -16.348  1.00  0.00    -0.000 C 
BRANCH  16  17
ATOM     17  C   UNL     1      -2.689 -45.235 -17.652  1.00  0.00    -0.003 C 
ATOM     18  C   UNL     1      -2.684 -46.656 -18.213  1.00  0.00     0.004 C 
ENDBRANCH  16  17
ENDBRANCH  15  16
ENDBRANCH  14  15
ENDBRANCH  13  14
ENDBRANCH  12  13
ENDBRANCH  11  12
ENDBRANCH   1  11
TORSDOF 14
ENDMDL
MODEL 7
REMARK VINA RESULT:    -4.347      8.128     12.060
REMARK INTER + INTRA:          -9.387
REMARK INTER:                  -8.836
REMARK INTRA:                  -0.551
REMARK UNBOUND:                -1.482
REMARK SMILES CCCCCCCCCCCCCCCC(=O)[O-]
REMARK SMILES IDX 9 1 10 2 11 3 12 4 13 5 14 6 15 7 16 8 17 9 18 10 8 11 7 12
REMARK SMILES IDX 6 13 5 14 4 15 3 16 2 17 1 18
REMARK H PARENT
REMARK Flexibility Score: inf
ROOT
ATOM      1  C   UNL     1       6.369 -34.479 -21.583  1.00  0.00     0.000 C 
ENDROOT
BRANCH   1   2
ATOM      2  C   UNL     1       6.793 -35.925 -21.884  1.00  0.00     0.000 C 
BRANCH   2   3
ATOM      3  C   UNL     1       5.574 -36.861 -21.901  1.00  0.00     0.000 C 
BRANCH   3   4
ATOM      4  C   UNL     1       4.305 -36.186 -22.450  1.00  0.00     0.000 C 
BRANCH   4   5
ATOM      5  C   UNL     1       3.200 -37.153 -22.913  1.00  0.00     0.000 C 
BRANCH   5   6
ATOM      6  C   UNL     1       1.787 -36.671 -22.540  1.00  0.00     0.006 C 
BRANCH   6   7
ATOM      7  C   UNL     1       0.695 -37.446 -23.287  1.00  0.00     0.053 C 
BRANCH   7   8
ATOM      8  C   UNL     1      -0.424 -37.853 -22.377  1.00  0.00     0.041 C 
ATOM      9  O   UNL     1      -0.420 -38.991 -21.839  1.00  0.00    -0.550 OA
ATOM     10  O   UNL     1      -1.459 -36.967 -22.106  1.00  0.00    -0.550 OA
ENDBRANCH   7   8
ENDBRANCH   6   7
ENDBRANCH   5   6
ENDBRANCH   4   5
ENDBRANCH   3   4
ENDBRANCH   2   3
ENDBRANCH   1   2
BRANCH   1  11
ATOM     11  C   UNL     1       7.003 -33.923 -20.295  1.00  0.00     0.000 C 
BRANCH  11  12
ATOM     12  C   UNL     1       6.734 -32.429 -20.033  1.00  0.00    -0.000 C 
BRANCH  12  13
ATOM     13  C   UNL     1       6.386 -32.078 -18.573  1.00  0.00    -0.000 C 
BRANCH  13  14
ATOM     14  C   UNL     1       5.537 -30.797 -18.429  1.00  0.00    -0.000 C 
BRANCH  14  15
ATOM     15  C   UNL     1       6.003 -29.912 -17.260  1.00  0.00    -0.000 C 
BRANCH  15  16
ATOM     16  C   UNL     1       7.490 -29.525 -17.359  1.00  0.00    -0.000 C 
BRANCH  16  17
ATOM     17  C   UNL     1       7.753 -28.069 -17.783  1.00  0.00    -0.003 C 
ATOM     18  C   UNL     1       6.572 -27.142 -17.497  1.00  0.00     0.004 C 
ENDBRANCH  16  17
ENDBRANCH  15  16
ENDBRANCH  14  15
ENDBRANCH  13  14
ENDBRANCH  12  13
ENDBRANCH  11  12
ENDBRANCH   1  11
TORSDOF 14
ENDMDL
MODEL 8
REMARK VINA RESULT:    -4.233      2.065      3.980
REMARK INTER + INTRA:          -9.180
REMARK INTER:                  -8.232
REMARK INTRA:                  -0.947
REMARK UNBOUND:                -1.482
REMARK SMILES CCCCCCCCCCCCCCCC(=O)[O-]
REMARK SMILES IDX 9 1 10 2 11 3 12 4 13 5 14 6 15 7 16 8 17 9 18 10 8 11 7 12
REMARK SMILES IDX 6 13 5 14 4 15 3 16 2 17 1 18
REMARK H PARENT
REMARK Flexibility Score: inf
ROOT
ATOM      1  C   UNL     1      -0.806 -41.523 -19.486  1.00  0.00     0.000 C 
ENDROOT
BRANCH   1   2
ATOM      2  C   UNL     1      -1.614 -40.387 -20.133  1.00  0.00     0.000 C 
BRANCH   2   3
ATOM      3  C   UNL     1      -0.778 -39.654 -21.193  1.00  0.00     0.000 C 
BRANCH   3   4
ATOM      4  C   UNL     1      -1.168 -38.173 -21.348  1.00  0.00     0.000 C 
BRANCH   4   5
ATOM      5  C   UNL     1      -0.943 -37.583 -22.752  1.00  0.00     0.000 C 
BRANCH   5   6
ATOM      6  C   UNL     1       0.528 -37.647 -23.199  1.00  0.00     0.006 C 
BRANCH   6   7
ATOM      7  C   UNL     1       1.423 -36.710 -22.379  1.00  0.00     0.053 C 
BRANCH   7   8
ATOM      8  C   UNL     1       2.867 -36.843 -22.756  1.00  0.00     0.041 C 
ATOM      9  O   UNL     1       3.765 -36.399 -21.993  1.00  0.00    -0.550 OA
ATOM     10  O   UNL     1       3.222 -37.478 -23.939  1.00  0.00    -0.550 OA
ENDBRANCH   7   8
ENDBRANCH   6   7
ENDBRANCH   5   6
ENDBRANCH   4   5
ENDBRANCH   3   4
ENDBRANCH   2   3
ENDBRANCH   1   2
BRANCH   1  11
ATOM     11  C   UNL     1      -1.468 -42.082 -18.214  1.00  0.00     0.000 C 
BRANCH  11  12
ATOM     12  C   UNL     1      -1.484 -43.619 -18.113  1.00  0.00    -0.000 C 
BRANCH  12  13
ATOM     13  C   UNL     1      -1.236 -44.181 -16.700  1.00  0.00    -0.000 C 
BRANCH  13  14
ATOM     14  C   UNL     1      -0.665 -45.615 -16.694  1.00  0.00    -0.000 C 
BRANCH  14  15
ATOM     15  C   UNL     1       0.747 -45.687 -17.299  1.00  0.00    -0.000 C 
BRANCH  15  16
ATOM     16  C   UNL     1       1.809 -44.994 -16.425  1.00  0.00    -0.000 C 
BRANCH  16  17
ATOM     17  C   UNL     1       2.862 -44.188 -17.205  1.00  0.00    -0.003 C 
ATOM     18  C   UNL     1       2.265 -43.002 -17.962  1.00  0.00     0.004 C 
ENDBRANCH  16  17
ENDBRANCH  15  16
ENDBRANCH  14  15
ENDBRANCH  13  14
ENDBRANCH  12  13
ENDBRANCH  11  12
ENDBRANCH   1  11
TORSDOF 14
ENDMDL
MODEL 9
REMARK VINA RESULT:    -4.227      4.244      5.961
REMARK INTER + INTRA:          -9.169
REMARK INTER:                  -7.881
REMARK INTRA:                  -1.288
REMARK UNBOUND:                -1.482
REMARK SMILES CCCCCCCCCCCCCCCC(=O)[O-]
REMARK SMILES IDX 9 1 10 2 11 3 12 4 13 5 14 6 15 7 16 8 17 9 18 10 8 11 7 12
REMARK SMILES IDX 6 13 5 14 4 15 3 16 2 17 1 18
REMARK H PARENT
REMARK Flexibility Score: inf
ROOT
ATOM      1  C   UNL     1       2.438 -42.632 -17.308  1.00  0.00     0.000 C 
ENDROOT
BRANCH   1   2
ATOM      2  C   UNL     1       2.155 -41.987 -15.943  1.00  0.00     0.000 C 
BRANCH   2   3
ATOM      3  C   UNL     1       3.463 -41.715 -15.183  1.00  0.00     0.000 C 
BRANCH   3   4
ATOM      4  C   UNL     1       3.681 -40.222 -14.876  1.00  0.00     0.000 C 
BRANCH   4   5
ATOM      5  C   UNL     1       5.131 -39.729 -15.035  1.00  0.00     0.000 C 
BRANCH   5   6
ATOM      6  C   UNL     1       5.719 -40.040 -16.422  1.00  0.00     0.006 C 
BRANCH   6   7
ATOM      7  C   UNL     1       7.056 -39.325 -16.658  1.00  0.00     0.053 C 
BRANCH   7   8
ATOM      8  C   UNL     1       7.760 -39.841 -17.876  1.00  0.00     0.041 C 
ATOM      9  O   UNL     1       8.984 -40.130 -17.824  1.00  0.00    -0.550 OA
ATOM     10  O   UNL     1       7.058 -40.023 -19.061  1.00  0.00    -0.550 OA
ENDBRANCH   7   8
ENDBRANCH   6   7
ENDBRANCH   5   6
ENDBRANCH   4   5
ENDBRANCH   3   4
ENDBRANCH   2   3
ENDBRANCH   1   2
BRANCH   1  11
ATOM     11  C   UNL     1       2.490 -44.170 -17.247  1.00  0.00     0.000 C 
BRANCH  11  12
ATOM     12  C   UNL     1       1.581 -44.890 -18.260  1.00  0.00    -0.000 C 
BRANCH  12  13
ATOM     13  C   UNL     1       0.907 -46.172 -17.732  1.00  0.00    -0.000 C 
BRANCH  13  14
ATOM     14  C   UNL     1      -0.370 -45.906 -16.907  1.00  0.00    -0.000 C 
BRANCH  14  15
ATOM     15  C   UNL     1      -1.594 -45.624 -17.794  1.00  0.00    -0.000 C 
BRANCH  15  16
ATOM     16  C   UNL     1      -2.274 -44.281 -17.468  1.00  0.00    -0.000 C 
BRANCH  16  17
ATOM     17  C   UNL     1      -1.311 -43.093 -17.296  1.00  0.00    -0.003 C 
ATOM     18  C   UNL     1      -1.124 -42.286 -18.580  1.00  0.00     0.004 C 
ENDBRANCH  16  17
ENDBRANCH  15  16
ENDBRANCH  14  15
ENDBRANCH  13  14
ENDBRANCH  12  13
ENDBRANCH  11  12
ENDBRANCH   1  11
TORSDOF 14
ENDMDL
