MODEL 1
REMARK VINA RESULT:    -5.312      0.000      0.000
REMARK INTER + INTRA:         -11.426
REMARK INTER:                 -10.281
REMARK INTRA:                  -1.144
REMARK UNBOUND:                -1.144
REMARK SMILES CCCCCCCCCCCCCCCCCC(=O)[O-]
REMARK SMILES IDX 10 1 11 2 12 3 13 4 14 5 15 6 16 7 17 8 18 9 19 10 20 11
REMARK SMILES IDX 9 12 8 13 7 14 6 15 5 16 4 17 3 18 2 19 1 20
REMARK H PARENT
REMARK Flexibility Score: inf
ROOT
ATOM      1  C   UNL     1      -5.814  65.714  50.840  1.00  0.00     0.000 C 
ENDROOT
BRANCH   1   2
ATOM      2  C   UNL     1      -6.249  65.044  49.523  1.00  0.00     0.000 C 
BRANCH   2   3
ATOM      3  C   UNL     1      -7.398  64.023  49.655  1.00  0.00     0.000 C 
BRANCH   3   4
ATOM      4  C   UNL     1      -8.767  64.514  49.146  1.00  0.00     0.000 C 
BRANCH   4   5
ATOM      5  C   UNL     1      -9.195  63.948  47.777  1.00  0.00     0.000 C 
BRANCH   5   6
ATOM      6  C   UNL     1      -8.864  62.461  47.555  1.00  0.00     0.000 C 
BRANCH   6   7
ATOM      7  C   UNL     1      -9.238  61.970  46.148  1.00  0.00     0.006 C 
BRANCH   7   8
ATOM      8  C   UNL     1      -9.247  63.130  45.149  1.00  0.00     0.053 C 
BRANCH   8   9
ATOM      9  C   UNL     1      -9.817  62.689  43.839  1.00  0.00     0.041 C 
ATOM     10  O   UNL     1     -10.378  61.566  43.737  1.00  0.00    -0.550 OA
ATOM     11  O   UNL     1      -9.776  63.538  42.740  1.00  0.00    -0.550 OA
ENDBRANCH   8   9
ENDBRANCH   7   8
ENDBRANCH   6   7
ENDBRANCH   5   6
ENDBRANCH   4   5
ENDBRANCH   3   4
ENDBRANCH   2   3
ENDBRANCH   1   2
BRANCH   1  12
ATOM     12  C   UNL     1      -6.945  65.778  51.879  1.00  0.00     0.000 C 
BRANCH  12  13
ATOM     13  C   UNL     1      -6.664  64.917  53.123  1.00  0.00    -0.000 C 
BRANCH  13  14
ATOM     14  C   UNL     1      -7.839  64.036  53.597  1.00  0.00    -0.000 C 
BRANCH  14  15
ATOM     15  C   UNL     1      -7.502  62.548  53.798  1.00  0.00    -0.000 C 
BRANCH  15  16
ATOM     16  C   UNL     1      -6.047  62.211  53.441  1.00  0.00    -0.000 C 
BRANCH  16  17
ATOM     17  C   UNL     1      -5.501  61.100  54.349  1.00  0.00    -0.000 C 
BRANCH  17  18
ATOM     18  C   UNL     1      -6.604  60.402  55.161  1.00  0.00    -0.000 C 
BRANCH  18  19
ATOM     19  C   UNL     1      -6.063  59.258  56.031  1.00  0.00    -0.003 C 
ATOM     20  C   UNL     1      -4.570  59.430  56.297  1.00  0.00     0.004 C 
ENDBRANCH  18  19
ENDBRANCH  17  18
ENDBRANCH  16  17
ENDBRANCH  15  16
ENDBRANCH  14  15
ENDBRANCH  13  14
ENDBRANCH  12  13
ENDBRANCH   1  12
TORSDOF 16
ENDMDL
MODEL 2
REMARK VINA RESULT:    -5.294      4.351     11.172
REMARK INTER + INTRA:         -11.390
REMARK INTER:                 -10.354
REMARK INTRA:                  -1.037
REMARK UNBOUND:                -1.144
REMARK SMILES CCCCCCCCCCCCCCCCCC(=O)[O-]
REMARK SMILES IDX 10 1 11 2 12 3 13 4 14 5 15 6 16 7 17 8 18 9 19 10 20 11
REMARK SMILES IDX 9 12 8 13 7 14 6 15 5 16 4 17 3 18 2 19 1 20
REMARK H PARENT
REMARK Flexibility Score: inf
ROOT
ATOM      1  C   UNL     1      -9.848  61.469  44.557  1.00  0.00     0.000 C 
ENDROOT
BRANCH   1   2
ATOM      2  C   UNL     1      -9.244  62.632  45.365  1.00  0.00     0.000 C 
BRANCH   2   3
ATOM      3  C   UNL     1      -8.855  62.289  46.817  1.00  0.00     0.000 C 
BRANCH   3   4
ATOM      4  C   UNL     1      -9.210  63.368  47.859  1.00  0.00     0.000 C 
BRANCH   4   5
ATOM      5  C   UNL     1      -8.290  63.408  49.096  1.00  0.00     0.000 C 
BRANCH   5   6
ATOM      6  C   UNL     1      -7.947  64.819  49.607  1.00  0.00     0.000 C 
BRANCH   6   7
ATOM      7  C   UNL     1      -6.439  65.029  49.812  1.00  0.00     0.006 C 
BRANCH   7   8
ATOM      8  C   UNL     1      -6.149  65.591  51.207  1.00  0.00     0.053 C 
BRANCH   8   9
ATOM      9  C   UNL     1      -6.635  64.650  52.262  1.00  0.00     0.041 C 
ATOM     10  O   UNL     1      -6.137  63.497  52.362  1.00  0.00    -0.550 OA
ATOM     11  O   UNL     1      -7.603  65.061  53.170  1.00  0.00    -0.550 OA
ENDBRANCH   8   9
ENDBRANCH   7   8
ENDBRANCH   6   7
ENDBRANCH   5   6
ENDBRANCH   4   5
ENDBRANCH   3   4
ENDBRANCH   2   3
ENDBRANCH   1   2
BRANCH   1  12
ATOM     12  C   UNL     1     -10.213  61.867  43.118  1.00  0.00     0.000 C 
BRANCH  12  13
ATOM     13  C   UNL     1      -9.800  63.309  42.773  1.00  0.00    -0.000 C 
BRANCH  13  14
ATOM     14  C   UNL     1      -9.617  63.604  41.270  1.00  0.00    -0.000 C 
BRANCH  14  15
ATOM     15  C   UNL     1      -9.706  62.376  40.347  1.00  0.00    -0.000 C 
BRANCH  15  16
ATOM     16  C   UNL     1     -10.635  62.598  39.144  1.00  0.00    -0.000 C 
BRANCH  16  17
ATOM     17  C   UNL     1     -11.987  61.902  39.358  1.00  0.00    -0.000 C 
BRANCH  17  18
ATOM     18  C   UNL     1     -11.861  60.597  40.161  1.00  0.00    -0.000 C 
BRANCH  18  19
ATOM     19  C   UNL     1     -13.223  59.947  40.448  1.00  0.00    -0.003 C 
ATOM     20  C   UNL     1     -14.305  60.512  39.532  1.00  0.00     0.004 C 
ENDBRANCH  18  19
ENDBRANCH  17  18
ENDBRANCH  16  17
ENDBRANCH  15  16
ENDBRANCH  14  15
ENDBRANCH  13  14
ENDBRANCH  12  13
ENDBRANCH   1  12
TORSDOF 16
ENDMDL
MODEL 3
REMARK VINA RESULT:    -5.252      2.407      5.004
REMARK INTER + INTRA:         -11.309
REMARK INTER:                 -10.490
REMARK INTRA:                  -0.819
REMARK UNBOUND:                -1.144
REMARK SMILES CCCCCCCCCCCCCCCCCC(=O)[O-]
REMARK SMILES IDX 10 1 11 2 12 3 13 4 14 5 15 6 16 7 17 8 18 9 19 10 20 11
REMARK SMILES IDX 9 12 8 13 7 14 6 15 5 16 4 17 3 18 2 19 1 20
REMARK H PARENT
REMARK Flexibility Score: inf
ROOT
ATOM      1  C   UNL     1      -8.919  62.449  47.349  1.00  0.00     0.000 C 
ENDROOT
BRANCH   1   2
ATOM      2  C   UNL     1      -9.233  62.794  45.881  1.00  0.00     0.000 C 
BRANCH   2   3
ATOM      3  C   UNL     1      -9.353  61.582  44.935  1.00  0.00     0.000 C 
BRANCH   3   4
ATOM      4  C   UNL     1     -10.209  61.821  43.675  1.00  0.00     0.000 C 
BRANCH   4   5
ATOM      5  C   UNL     1      -9.769  63.015  42.804  1.00  0.00     0.000 C 
BRANCH   5   6
ATOM      6  C   UNL     1      -9.929  62.807  41.287  1.00  0.00     0.000 C 
BRANCH   6   7
ATOM      7  C   UNL     1     -10.372  61.382  40.924  1.00  0.00     0.006 C 
BRANCH   7   8
ATOM      8  C   UNL     1     -11.567  61.408  39.966  1.00  0.00     0.053 C 
BRANCH   8   9
ATOM      9  C   UNL     1     -12.533  60.317  40.303  1.00  0.00     0.041 C 
ATOM     10  O   UNL     1     -12.797  59.420  39.459  1.00  0.00    -0.550 OA
ATOM     11  O   UNL     1     -13.105  60.261  41.568  1.00  0.00    -0.550 OA
ENDBRANCH   8   9
ENDBRANCH   7   8
ENDBRANCH   6   7
ENDBRANCH   5   6
ENDBRANCH   4   5
ENDBRANCH   3   4
ENDBRANCH   2   3
ENDBRANCH   1   2
BRANCH   1  12
ATOM     12  C   UNL     1      -9.532  63.451  48.341  1.00  0.00     0.000 C 
BRANCH  12  13
ATOM     13  C   UNL     1      -8.493  64.422  48.930  1.00  0.00    -0.000 C 
BRANCH  13  14
ATOM     14  C   UNL     1      -7.250  63.758  49.560  1.00  0.00    -0.000 C 
BRANCH  14  15
ATOM     15  C   UNL     1      -6.171  64.733  50.062  1.00  0.00    -0.000 C 
BRANCH  15  16
ATOM     16  C   UNL     1      -6.225  64.954  51.581  1.00  0.00    -0.000 C 
BRANCH  16  17
ATOM     17  C   UNL     1      -6.739  63.698  52.300  1.00  0.00    -0.000 C 
BRANCH  17  18
ATOM     18  C   UNL     1      -7.465  64.024  53.615  1.00  0.00    -0.000 C 
BRANCH  18  19
ATOM     19  C   UNL     1      -8.049  62.776  54.293  1.00  0.00    -0.003 C 
ATOM     20  C   UNL     1      -7.473  61.500  53.683  1.00  0.00     0.004 C 
ENDBRANCH  18  19
ENDBRANCH  17  18
ENDBRANCH  16  17
ENDBRANCH  15  16
ENDBRANCH  14  15
ENDBRANCH  13  14
ENDBRANCH  12  13
ENDBRANCH   1  12
TORSDOF 16
ENDMDL
MODEL 4
REMARK VINA RESULT:    -5.200      2.195      4.127
REMARK INTER + INTRA:         -11.209
REMARK INTER:                  -9.631
REMARK INTRA:                  -1.578
REMARK UNBOUND:                -1.144
REMARK SMILES CCCCCCCCCCCCCCCCCC(=O)[O-]
REMARK SMILES IDX 10 1 11 2 12 3 13 4 14 5 15 6 16 7 17 8 18 9 19 10 20 11
REMARK SMILES IDX 9 12 8 13 7 14 6 15 5 16 4 17 3 18 2 19 1 20
REMARK H PARENT
REMARK Flexibility Score: inf
ROOT
ATOM      1  C   UNL     1      -7.828  62.988  54.343  1.00  0.00     0.000 C 
ENDROOT
BRANCH   1   2
ATOM      2  C   UNL     1      -7.905  64.103  53.284  1.00  0.00     0.000 C 
BRANCH   2   3
ATOM      3  C   UNL     1      -6.629  64.956  53.135  1.00  0.00     0.000 C 
BRANCH   3   4
ATOM      4  C   UNL     1      -6.654  65.969  51.974  1.00  0.00     0.000 C 
BRANCH   4   5
ATOM      5  C   UNL     1      -5.638  65.695  50.847  1.00  0.00     0.000 C 
BRANCH   5   6
ATOM      6  C   UNL     1      -6.253  65.215  49.519  1.00  0.00     0.000 C 
BRANCH   6   7
ATOM      7  C   UNL     1      -7.741  64.856  49.646  1.00  0.00     0.006 C 
BRANCH   7   8
ATOM      8  C   UNL     1      -7.955  63.347  49.494  1.00  0.00     0.053 C 
BRANCH   8   9
ATOM      9  C   UNL     1      -8.958  63.066  48.421  1.00  0.00     0.041 C 
ATOM     10  O   UNL     1      -9.239  63.949  47.569  1.00  0.00    -0.550 OA
ATOM     11  O   UNL     1      -9.547  61.811  48.331  1.00  0.00    -0.550 OA
ENDBRANCH   8   9
ENDBRANCH   7   8
ENDBRANCH   6   7
ENDBRANCH   5   6
ENDBRANCH   4   5
ENDBRANCH   3   4
ENDBRANCH   2   3
ENDBRANCH   1   2
BRANCH   1  12
ATOM     12  C   UNL     1      -7.726  61.584  53.727  1.00  0.00     0.000 C 
BRANCH  12  13
ATOM     13  C   UNL     1      -6.272  61.144  53.476  1.00  0.00    -0.000 C 
BRANCH  13  14
ATOM     14  C   UNL     1      -5.223  61.760  54.426  1.00  0.00    -0.000 C 
BRANCH  14  15
ATOM     15  C   UNL     1      -3.890  60.996  54.511  1.00  0.00    -0.000 C 
BRANCH  15  16
ATOM     16  C   UNL     1      -3.301  60.979  55.929  1.00  0.00    -0.000 C 
BRANCH  16  17
ATOM     17  C   UNL     1      -4.059  59.990  56.826  1.00  0.00    -0.000 C 
BRANCH  17  18
ATOM     18  C   UNL     1      -4.093  58.568  56.244  1.00  0.00    -0.000 C 
BRANCH  18  19
ATOM     19  C   UNL     1      -5.440  58.230  55.588  1.00  0.00    -0.003 C 
ATOM     20  C   UNL     1      -6.588  58.954  56.286  1.00  0.00     0.004 C 
ENDBRANCH  18  19
ENDBRANCH  17  18
ENDBRANCH  16  17
ENDBRANCH  15  16
ENDBRANCH  14  15
ENDBRANCH  13  14
ENDBRANCH  12  13
ENDBRANCH   1  12
TORSDOF 16
ENDMDL
MODEL 5
REMARK VINA RESULT:    -5.185      4.894     11.785
REMARK INTER + INTRA:         -11.179
REMARK INTER:                 -10.385
REMARK INTRA:                  -0.794
REMARK UNBOUND:                -1.144
REMARK SMILES CCCCCCCCCCCCCCCCCC(=O)[O-]
REMARK SMILES IDX 10 1 11 2 12 3 13 4 14 5 15 6 16 7 17 8 18 9 19 10 20 11
REMARK SMILES IDX 9 12 8 13 7 14 6 15 5 16 4 17 3 18 2 19 1 20
REMARK H PARENT
REMARK Flexibility Score: inf
ROOT
ATOM      1  C   UNL     1     -10.345  61.579  43.890  1.00  0.00     0.000 C 
ENDROOT
BRANCH   1   2
ATOM      2  C   UNL     1      -9.261  61.519  44.982  1.00  0.00     0.000 C 
BRANCH   2   3
ATOM      3  C   UNL     1      -9.116  62.796  45.835  1.00  0.00     0.000 C 
BRANCH   3   4
ATOM      4  C   UNL     1      -8.815  62.553  47.326  1.00  0.00     0.000 C 
BRANCH   4   5
ATOM      5  C   UNL     1      -9.535  63.505  48.301  1.00  0.00     0.000 C 
BRANCH   5   6
ATOM      6  C   UNL     1      -8.614  64.470  49.069  1.00  0.00     0.000 C 
BRANCH   6   7
ATOM      7  C   UNL     1      -7.407  63.764  49.705  1.00  0.00     0.006 C 
BRANCH   7   8
ATOM      8  C   UNL     1      -6.789  64.625  50.810  1.00  0.00     0.053 C 
BRANCH   8   9
ATOM      9  C   UNL     1      -6.875  63.926  52.129  1.00  0.00     0.041 C 
ATOM     10  O   UNL     1      -6.036  63.036  52.431  1.00  0.00    -0.550 OA
ATOM     11  O   UNL     1      -7.851  64.290  53.048  1.00  0.00    -0.550 OA
ENDBRANCH   8   9
ENDBRANCH   7   8
ENDBRANCH   6   7
ENDBRANCH   5   6
ENDBRANCH   4   5
ENDBRANCH   3   4
ENDBRANCH   2   3
ENDBRANCH   1   2
BRANCH   1  12
ATOM     12  C   UNL     1     -10.011  62.580  42.772  1.00  0.00     0.000 C 
BRANCH  12  13
ATOM     13  C   UNL     1      -9.798  61.902  41.406  1.00  0.00    -0.000 C 
BRANCH  13  14
ATOM     14  C   UNL     1     -10.462  62.611  40.207  1.00  0.00    -0.000 C 
BRANCH  14  15
ATOM     15  C   UNL     1     -11.701  61.901  39.631  1.00  0.00    -0.000 C 
BRANCH  15  16
ATOM     16  C   UNL     1     -11.851  60.459  40.135  1.00  0.00    -0.000 C 
BRANCH  16  17
ATOM     17  C   UNL     1     -13.324  60.123  40.408  1.00  0.00    -0.000 C 
BRANCH  17  18
ATOM     18  C   UNL     1     -14.292  61.065  39.676  1.00  0.00    -0.000 C 
BRANCH  18  19
ATOM     19  C   UNL     1     -15.007  60.381  38.501  1.00  0.00    -0.003 C 
ATOM     20  C   UNL     1     -16.471  60.105  38.835  1.00  0.00     0.004 C 
ENDBRANCH  18  19
ENDBRANCH  17  18
ENDBRANCH  16  17
ENDBRANCH  15  16
ENDBRANCH  14  15
ENDBRANCH  13  14
ENDBRANCH  12  13
ENDBRANCH   1  12
TORSDOF 16
ENDMDL
MODEL 6
REMARK VINA RESULT:    -5.141      5.193     12.229
REMARK INTER + INTRA:         -11.095
REMARK INTER:                 -10.365
REMARK INTRA:                  -0.730
REMARK UNBOUND:                -1.144
REMARK SMILES CCCCCCCCCCCCCCCCCC(=O)[O-]
REMARK SMILES IDX 10 1 11 2 12 3 13 4 14 5 15 6 16 7 17 8 18 9 19 10 20 11
REMARK SMILES IDX 9 12 8 13 7 14 6 15 5 16 4 17 3 18 2 19 1 20
REMARK H PARENT
REMARK Flexibility Score: inf
ROOT
ATOM      1  C   UNL     1      -9.663  63.189  42.903  1.00  0.00     0.000 C 
ENDROOT
BRANCH   1   2
ATOM      2  C   UNL     1     -10.131  61.885  43.575  1.00  0.00     0.000 C 
BRANCH   2   3
ATOM      3  C   UNL     1      -9.416  61.535  44.896  1.00  0.00     0.000 C 
BRANCH   3   4
ATOM      4  C   UNL     1      -9.237  62.714  45.873  1.00  0.00     0.000 C 
BRANCH   4   5
ATOM      5  C   UNL     1      -9.000  62.315  47.342  1.00  0.00     0.000 C 
BRANCH   5   6
ATOM      6  C   UNL     1      -9.012  63.483  48.345  1.00  0.00     0.000 C 
BRANCH   6   7
ATOM      7  C   UNL     1      -7.850  63.420  49.348  1.00  0.00     0.006 C 
BRANCH   7   8
ATOM      8  C   UNL     1      -7.504  64.816  49.873  1.00  0.00     0.053 C 
BRANCH   8   9
ATOM      9  C   UNL     1      -6.964  64.735  51.265  1.00  0.00     0.041 C 
ATOM     10  O   UNL     1      -7.292  65.596  52.123  1.00  0.00    -0.550 OA
ATOM     11  O   UNL     1      -6.139  63.679  51.631  1.00  0.00    -0.550 OA
ENDBRANCH   8   9
ENDBRANCH   7   8
ENDBRANCH   6   7
ENDBRANCH   5   6
ENDBRANCH   4   5
ENDBRANCH   3   4
ENDBRANCH   2   3
ENDBRANCH   1   2
BRANCH   1  12
ATOM     12  C   UNL     1     -10.014  63.249  41.407  1.00  0.00     0.000 C 
BRANCH  12  13
ATOM     13  C   UNL     1      -9.883  61.885  40.707  1.00  0.00    -0.000 C 
BRANCH  13  14
ATOM     14  C   UNL     1     -11.034  61.523  39.744  1.00  0.00    -0.000 C 
BRANCH  14  15
ATOM     15  C   UNL     1     -11.930  60.360  40.204  1.00  0.00    -0.000 C 
BRANCH  15  16
ATOM     16  C   UNL     1     -13.419  60.733  40.244  1.00  0.00    -0.000 C 
BRANCH  16  17
ATOM     17  C   UNL     1     -14.065  60.567  38.861  1.00  0.00    -0.000 C 
BRANCH  17  18
ATOM     18  C   UNL     1     -14.958  61.757  38.477  1.00  0.00    -0.000 C 
BRANCH  18  19
ATOM     19  C   UNL     1     -16.395  61.332  38.138  1.00  0.00    -0.003 C 
ATOM     20  C   UNL     1     -16.752  60.014  38.819  1.00  0.00     0.004 C 
ENDBRANCH  18  19
ENDBRANCH  17  18
ENDBRANCH  16  17
ENDBRANCH  15  16
ENDBRANCH  14  15
ENDBRANCH  13  14
ENDBRANCH  12  13
ENDBRANCH   1  12
TORSDOF 16
ENDMDL
MODEL 7
REMARK VINA RESULT:    -5.122      3.019      6.655
REMARK INTER + INTRA:         -11.057
REMARK INTER:                 -10.122
REMARK INTRA:                  -0.936
REMARK UNBOUND:                -1.144
REMARK SMILES CCCCCCCCCCCCCCCCCC(=O)[O-]
REMARK SMILES IDX 10 1 11 2 12 3 13 4 14 5 15 6 16 7 17 8 18 9 19 10 20 11
REMARK SMILES IDX 9 12 8 13 7 14 6 15 5 16 4 17 3 18 2 19 1 20
REMARK H PARENT
REMARK Flexibility Score: inf
ROOT
ATOM      1  C   UNL     1      -9.611  61.511  44.514  1.00  0.00     0.000 C 
ENDROOT
BRANCH   1   2
ATOM      2  C   UNL     1     -10.024  61.947  43.096  1.00  0.00     0.000 C 
BRANCH   2   3
ATOM      3  C   UNL     1      -9.957  63.465  42.831  1.00  0.00     0.000 C 
BRANCH   3   4
ATOM      4  C   UNL     1      -9.307  63.865  41.492  1.00  0.00     0.000 C 
BRANCH   4   5
ATOM      5  C   UNL     1      -9.409  62.807  40.375  1.00  0.00     0.000 C 
BRANCH   5   6
ATOM      6  C   UNL     1     -10.416  63.134  39.258  1.00  0.00     0.000 C 
BRANCH   6   7
ATOM      7  C   UNL     1     -11.731  62.353  39.393  1.00  0.00     0.006 C 
BRANCH   7   8
ATOM      8  C   UNL     1     -11.477  60.942  39.932  1.00  0.00     0.053 C 
BRANCH   8   9
ATOM      9  C   UNL     1     -12.730  60.128  39.882  1.00  0.00     0.041 C 
ATOM     10  O   UNL     1     -13.163  59.697  38.780  1.00  0.00    -0.550 OA
ATOM     11  O   UNL     1     -13.395  59.800  41.057  1.00  0.00    -0.550 OA
ENDBRANCH   8   9
ENDBRANCH   7   8
ENDBRANCH   6   7
ENDBRANCH   5   6
ENDBRANCH   4   5
ENDBRANCH   3   4
ENDBRANCH   2   3
ENDBRANCH   1   2
BRANCH   1  12
ATOM     12  C   UNL     1      -9.196  62.693  45.405  1.00  0.00     0.000 C 
BRANCH  12  13
ATOM     13  C   UNL     1      -9.165  62.332  46.901  1.00  0.00    -0.000 C 
BRANCH  13  14
ATOM     14  C   UNL     1      -9.096  63.533  47.869  1.00  0.00    -0.000 C 
BRANCH  14  15
ATOM     15  C   UNL     1      -8.155  63.350  49.072  1.00  0.00    -0.000 C 
BRANCH  15  16
ATOM     16  C   UNL     1      -7.985  64.633  49.898  1.00  0.00    -0.000 C 
BRANCH  16  17
ATOM     17  C   UNL     1      -6.563  64.736  50.468  1.00  0.00    -0.000 C 
BRANCH  17  18
ATOM     18  C   UNL     1      -6.511  65.500  51.800  1.00  0.00    -0.000 C 
BRANCH  18  19
ATOM     19  C   UNL     1      -6.567  64.568  53.019  1.00  0.00    -0.003 C 
ATOM     20  C   UNL     1      -6.230  63.132  52.627  1.00  0.00     0.004 C 
ENDBRANCH  18  19
ENDBRANCH  17  18
ENDBRANCH  16  17
ENDBRANCH  15  16
ENDBRANCH  14  15
ENDBRANCH  13  14
ENDBRANCH  12  13
ENDBRANCH   1  12
TORSDOF 16
ENDMDL
MODEL 8
REMARK VINA RESULT:    -5.097      1.318      2.064
REMARK INTER + INTRA:         -11.008
REMARK INTER:                 -10.351
REMARK INTRA:                  -0.657
REMARK UNBOUND:                -1.144
REMARK SMILES CCCCCCCCCCCCCCCCCC(=O)[O-]
REMARK SMILES IDX 10 1 11 2 12 3 13 4 14 5 15 6 16 7 17 8 18 9 19 10 20 11
REMARK SMILES IDX 9 12 8 13 7 14 6 15 5 16 4 17 3 18 2 19 1 20
REMARK H PARENT
REMARK Flexibility Score: inf
ROOT
ATOM      1  C   UNL     1      -7.287  63.577  49.585  1.00  0.00     0.000 C 
ENDROOT
BRANCH   1   2
ATOM      2  C   UNL     1      -8.443  64.472  49.098  1.00  0.00     0.000 C 
BRANCH   2   3
ATOM      3  C   UNL     1      -9.525  63.753  48.268  1.00  0.00     0.000 C 
BRANCH   3   4
ATOM      4  C   UNL     1      -9.013  62.584  47.403  1.00  0.00     0.000 C 
BRANCH   4   5
ATOM      5  C   UNL     1      -9.161  62.785  45.882  1.00  0.00     0.000 C 
BRANCH   5   6
ATOM      6  C   UNL     1      -9.235  61.486  45.058  1.00  0.00     0.000 C 
BRANCH   6   7
ATOM      7  C   UNL     1     -10.205  61.588  43.871  1.00  0.00     0.006 C 
BRANCH   7   8
ATOM      8  C   UNL     1      -9.880  62.807  43.002  1.00  0.00     0.053 C 
BRANCH   8   9
ATOM      9  C   UNL     1      -9.841  62.425  41.556  1.00  0.00     0.041 C 
ATOM     10  O   UNL     1     -10.628  61.548  41.111  1.00  0.00    -0.550 OA
ATOM     11  O   UNL     1      -8.972  63.073  40.688  1.00  0.00    -0.550 OA
ENDBRANCH   8   9
ENDBRANCH   7   8
ENDBRANCH   6   7
ENDBRANCH   5   6
ENDBRANCH   4   5
ENDBRANCH   3   4
ENDBRANCH   2   3
ENDBRANCH   1   2
BRANCH   1  12
ATOM     12  C   UNL     1      -6.385  64.275  50.615  1.00  0.00     0.000 C 
BRANCH  12  13
ATOM     13  C   UNL     1      -6.240  63.475  51.922  1.00  0.00    -0.000 C 
BRANCH  13  14
ATOM     14  C   UNL     1      -7.264  63.819  53.025  1.00  0.00    -0.000 C 
BRANCH  14  15
ATOM     15  C   UNL     1      -7.807  62.615  53.813  1.00  0.00    -0.000 C 
BRANCH  15  16
ATOM     16  C   UNL     1      -6.747  61.529  54.050  1.00  0.00    -0.000 C 
BRANCH  16  17
ATOM     17  C   UNL     1      -6.618  61.205  55.546  1.00  0.00    -0.000 C 
BRANCH  17  18
ATOM     18  C   UNL     1      -5.245  60.618  55.909  1.00  0.00    -0.000 C 
BRANCH  18  19
ATOM     19  C   UNL     1      -5.192  59.092  55.744  1.00  0.00    -0.003 C 
ATOM     20  C   UNL     1      -3.947  58.511  56.409  1.00  0.00     0.004 C 
ENDBRANCH  18  19
ENDBRANCH  17  18
ENDBRANCH  16  17
ENDBRANCH  15  16
ENDBRANCH  14  15
ENDBRANCH  13  14
ENDBRANCH  12  13
ENDBRANCH   1  12
TORSDOF 16
ENDMDL
MODEL 9
REMARK VINA RESULT:    -5.052      3.944      8.189
REMARK INTER + INTRA:         -10.921
REMARK INTER:                  -9.860
REMARK INTRA:                  -1.061
REMARK UNBOUND:                -1.144
REMARK SMILES CCCCCCCCCCCCCCCCCC(=O)[O-]
REMARK SMILES IDX 10 1 11 2 12 3 13 4 14 5 15 6 16 7 17 8 18 9 19 10 20 11
REMARK SMILES IDX 9 12 8 13 7 14 6 15 5 16 4 17 3 18 2 19 1 20
REMARK H PARENT
REMARK Flexibility Score: inf
ROOT
ATOM      1  C   UNL     1      -9.640  63.508  41.906  1.00  0.00     0.000 C 
ENDROOT
BRANCH   1   2
ATOM      2  C   UNL     1      -9.754  64.987  41.492  1.00  0.00     0.000 C 
BRANCH   2   3
ATOM      3  C   UNL     1      -8.829  65.417  40.336  1.00  0.00     0.000 C 
BRANCH   3   4
ATOM      4  C   UNL     1      -8.620  64.355  39.239  1.00  0.00     0.000 C 
BRANCH   4   5
ATOM      5  C   UNL     1      -9.847  64.091  38.344  1.00  0.00     0.000 C 
BRANCH   5   6
ATOM      6  C   UNL     1     -10.291  62.618  38.266  1.00  0.00     0.000 C 
BRANCH   6   7
ATOM      7  C   UNL     1     -11.573  62.339  39.065  1.00  0.00     0.006 C 
BRANCH   7   8
ATOM      8  C   UNL     1     -11.411  61.094  39.942  1.00  0.00     0.053 C 
BRANCH   8   9
ATOM      9  C   UNL     1     -12.658  60.269  39.917  1.00  0.00     0.041 C 
ATOM     10  O   UNL     1     -13.149  59.894  38.819  1.00  0.00    -0.550 OA
ATOM     11  O   UNL     1     -13.254  59.872  41.107  1.00  0.00    -0.550 OA
ENDBRANCH   8   9
ENDBRANCH   7   8
ENDBRANCH   6   7
ENDBRANCH   5   6
ENDBRANCH   4   5
ENDBRANCH   3   4
ENDBRANCH   2   3
ENDBRANCH   1   2
BRANCH   1  12
ATOM     12  C   UNL     1      -9.670  63.310  43.430  1.00  0.00     0.000 C 
BRANCH  12  13
ATOM     13  C   UNL     1      -9.982  61.859  43.839  1.00  0.00    -0.000 C 
BRANCH  13  14
ATOM     14  C   UNL     1      -9.471  61.442  45.235  1.00  0.00    -0.000 C 
BRANCH  14  15
ATOM     15  C   UNL     1      -8.910  62.586  46.096  1.00  0.00    -0.000 C 
BRANCH  15  16
ATOM     16  C   UNL     1      -9.227  62.421  47.589  1.00  0.00    -0.000 C 
BRANCH  16  17
ATOM     17  C   UNL     1      -8.925  63.714  48.361  1.00  0.00    -0.000 C 
BRANCH  17  18
ATOM     18  C   UNL     1      -7.683  63.593  49.258  1.00  0.00    -0.000 C 
BRANCH  18  19
ATOM     19  C   UNL     1      -7.717  64.564  50.448  1.00  0.00    -0.003 C 
ATOM     20  C   UNL     1      -6.516  65.507  50.420  1.00  0.00     0.004 C 
ENDBRANCH  18  19
ENDBRANCH  17  18
ENDBRANCH  16  17
ENDBRANCH  15  16
ENDBRANCH  14  15
ENDBRANCH  13  14
ENDBRANCH  12  13
ENDBRANCH   1  12
TORSDOF 16
ENDMDL
