MODEL 1
REMARK VINA RESULT:    10.890      0.000      0.000
REMARK INTER + INTRA:          18.984
REMARK INTER:                  19.803
REMARK INTRA:                  -0.819
REMARK UNBOUND:                -0.819
REMARK SMILES CCCCCCCCCCCCCCCC(=O)[O-]
REMARK SMILES IDX 9 1 10 2 11 3 12 4 13 5 14 6 15 7 16 8 17 9 18 10 8 11 7 12
REMARK SMILES IDX 6 13 5 14 4 15 3 16 2 17 1 18
REMARK H PARENT
REMARK Flexibility Score: inf
ROOT
ATOM      1  C   UNL     1       7.903  17.114  27.346  1.00  0.00     0.000 C 
ENDROOT
BRANCH   1   2
ATOM      2  C   UNL     1       7.238  17.632  26.061  1.00  0.00     0.000 C 
BRANCH   2   3
ATOM      3  C   UNL     1       5.895  18.331  26.326  1.00  0.00     0.000 C 
BRANCH   3   4
ATOM      4  C   UNL     1       5.072  17.634  27.423  1.00  0.00     0.000 C 
BRANCH   4   5
ATOM      5  C   UNL     1       3.583  18.015  27.377  1.00  0.00     0.000 C 
BRANCH   5   6
ATOM      6  C   UNL     1       2.931  17.696  26.023  1.00  0.00     0.006 C 
BRANCH   6   7
ATOM      7  C   UNL     1       1.403  17.705  26.137  1.00  0.00     0.053 C 
BRANCH   7   8
ATOM      8  C   UNL     1       0.785  18.195  24.865  1.00  0.00     0.041 C 
ATOM      9  O   UNL     1       0.321  17.375  24.030  1.00  0.00    -0.550 OA
ATOM     10  O   UNL     1       0.677  19.559  24.626  1.00  0.00    -0.550 OA
ENDBRANCH   7   8
ENDBRANCH   6   7
ENDBRANCH   5   6
ENDBRANCH   4   5
ENDBRANCH   3   4
ENDBRANCH   2   3
ENDBRANCH   1   2
BRANCH   1  11
ATOM     11  C   UNL     1       9.262  17.792  27.572  1.00  0.00     0.000 C 
BRANCH  11  12
ATOM     12  C   UNL     1       9.467  18.244  29.026  1.00  0.00    -0.000 C 
BRANCH  12  13
ATOM     13  C   UNL     1       8.862  17.261  30.044  1.00  0.00    -0.000 C 
BRANCH  13  14
ATOM     14  C   UNL     1       9.319  17.558  31.489  1.00  0.00    -0.000 C 
BRANCH  14  15
ATOM     15  C   UNL     1       8.358  17.017  32.565  1.00  0.00    -0.000 C 
BRANCH  15  16
ATOM     16  C   UNL     1       7.363  18.050  33.125  1.00  0.00    -0.000 C 
BRANCH  16  17
ATOM     17  C   UNL     1       7.815  19.516  32.998  1.00  0.00    -0.003 C 
ATOM     18  C   UNL     1       6.647  20.491  32.849  1.00  0.00     0.004 C 
ENDBRANCH  16  17
ENDBRANCH  15  16
ENDBRANCH  14  15
ENDBRANCH  13  14
ENDBRANCH  12  13
ENDBRANCH  11  12
ENDBRANCH   1  11
TORSDOF 14
ENDMDL
MODEL 2
REMARK VINA RESULT:    11.351      2.202      2.569
REMARK INTER + INTRA:          19.823
REMARK INTER:                  20.469
REMARK INTRA:                  -0.647
REMARK UNBOUND:                -0.819
REMARK SMILES CCCCCCCCCCCCCCCC(=O)[O-]
REMARK SMILES IDX 9 1 10 2 11 3 12 4 13 5 14 6 15 7 16 8 17 9 18 10 8 11 7 12
REMARK SMILES IDX 6 13 5 14 4 15 3 16 2 17 1 18
REMARK H PARENT
REMARK Flexibility Score: inf
ROOT
ATOM      1  C   UNL     1       7.959  17.344  26.481  1.00  0.00     0.000 C 
ENDROOT
BRANCH   1   2
ATOM      2  C   UNL     1       6.648  17.933  27.025  1.00  0.00     0.000 C 
BRANCH   2   3
ATOM      3  C   UNL     1       5.777  18.562  25.926  1.00  0.00     0.000 C 
BRANCH   3   4
ATOM      4  C   UNL     1       6.251  18.189  24.510  1.00  0.00     0.000 C 
BRANCH   4   5
ATOM      5  C   UNL     1       5.270  18.647  23.419  1.00  0.00     0.000 C 
BRANCH   5   6
ATOM      6  C   UNL     1       4.532  19.942  23.790  1.00  0.00     0.006 C 
BRANCH   6   7
ATOM      7  C   UNL     1       4.174  20.746  22.536  1.00  0.00     0.053 C 
BRANCH   7   8
ATOM      8  C   UNL     1       2.689  20.846  22.383  1.00  0.00     0.041 C 
ATOM      9  O   UNL     1       2.119  20.325  21.388  1.00  0.00    -0.550 OA
ATOM     10  O   UNL     1       1.930  21.470  23.364  1.00  0.00    -0.550 OA
ENDBRANCH   7   8
ENDBRANCH   6   7
ENDBRANCH   5   6
ENDBRANCH   4   5
ENDBRANCH   3   4
ENDBRANCH   2   3
ENDBRANCH   1   2
BRANCH   1  11
ATOM     11  C   UNL     1       8.805  16.749  27.617  1.00  0.00     0.000 C 
BRANCH  11  12
ATOM     12  C   UNL     1       9.036  17.740  28.768  1.00  0.00    -0.000 C 
BRANCH  12  13
ATOM     13  C   UNL     1       8.306  17.331  30.060  1.00  0.00    -0.000 C 
BRANCH  13  14
ATOM     14  C   UNL     1       9.193  17.494  31.312  1.00  0.00    -0.000 C 
BRANCH  14  15
ATOM     15  C   UNL     1       8.485  17.116  32.626  1.00  0.00    -0.000 C 
BRANCH  15  16
ATOM     16  C   UNL     1       7.450  18.142  33.125  1.00  0.00    -0.000 C 
BRANCH  16  17
ATOM     17  C   UNL     1       7.769  19.605  32.768  1.00  0.00    -0.003 C 
ATOM     18  C   UNL     1       6.533  20.505  32.775  1.00  0.00     0.004 C 
ENDBRANCH  16  17
ENDBRANCH  15  16
ENDBRANCH  14  15
ENDBRANCH  13  14
ENDBRANCH  12  13
ENDBRANCH  11  12
ENDBRANCH   1  11
TORSDOF 14
ENDMDL
MODEL 3
REMARK VINA RESULT:    11.843      0.612      1.649
REMARK INTER + INTRA:          20.717
REMARK INTER:                  21.617
REMARK INTRA:                  -0.900
REMARK UNBOUND:                -0.819
REMARK SMILES CCCCCCCCCCCCCCCC(=O)[O-]
REMARK SMILES IDX 9 1 10 2 11 3 12 4 13 5 14 6 15 7 16 8 17 9 18 10 8 11 7 12
REMARK SMILES IDX 6 13 5 14 4 15 3 16 2 17 1 18
REMARK H PARENT
REMARK Flexibility Score: inf
ROOT
ATOM      1  C   UNL     1       7.365  17.878  26.000  1.00  0.00     0.000 C 
ENDROOT
BRANCH   1   2
ATOM      2  C   UNL     1       5.906  18.317  26.201  1.00  0.00     0.000 C 
BRANCH   2   3
ATOM      3  C   UNL     1       5.315  17.825  27.532  1.00  0.00     0.000 C 
BRANCH   3   4
ATOM      4  C   UNL     1       3.781  17.929  27.573  1.00  0.00     0.000 C 
BRANCH   4   5
ATOM      5  C   UNL     1       3.140  17.749  26.187  1.00  0.00     0.000 C 
BRANCH   5   6
ATOM      6  C   UNL     1       1.608  17.867  26.223  1.00  0.00     0.006 C 
BRANCH   6   7
ATOM      7  C   UNL     1       0.980  17.194  24.998  1.00  0.00     0.053 C 
BRANCH   7   8
ATOM      8  C   UNL     1       0.327  18.213  24.117  1.00  0.00     0.041 C 
ATOM      9  O   UNL     1       0.336  19.429  24.442  1.00  0.00    -0.550 OA
ATOM     10  O   UNL     1      -0.246  17.825  22.913  1.00  0.00    -0.550 OA
ENDBRANCH   7   8
ENDBRANCH   6   7
ENDBRANCH   5   6
ENDBRANCH   4   5
ENDBRANCH   3   4
ENDBRANCH   2   3
ENDBRANCH   1   2
BRANCH   1  11
ATOM     11  C   UNL     1       7.782  16.856  27.068  1.00  0.00     0.000 C 
BRANCH  11  12
ATOM     12  C   UNL     1       9.194  17.111  27.616  1.00  0.00    -0.000 C 
BRANCH  12  13
ATOM     13  C   UNL     1       9.209  18.126  28.772  1.00  0.00    -0.000 C 
BRANCH  13  14
ATOM     14  C   UNL     1       8.551  17.568  30.052  1.00  0.00    -0.000 C 
BRANCH  14  15
ATOM     15  C   UNL     1       9.510  17.486  31.255  1.00  0.00    -0.000 C 
BRANCH  15  16
ATOM     16  C   UNL     1       8.829  17.226  32.612  1.00  0.00    -0.000 C 
BRANCH  16  17
ATOM     17  C   UNL     1       7.450  17.887  32.778  1.00  0.00    -0.003 C 
ATOM     18  C   UNL     1       7.535  19.395  33.015  1.00  0.00     0.004 C 
ENDBRANCH  16  17
ENDBRANCH  15  16
ENDBRANCH  14  15
ENDBRANCH  13  14
ENDBRANCH  12  13
ENDBRANCH  11  12
ENDBRANCH   1  11
TORSDOF 14
ENDMDL
MODEL 4
REMARK VINA RESULT:    11.855      4.211      8.738
REMARK INTER + INTRA:          20.738
REMARK INTER:                  21.492
REMARK INTRA:                  -0.754
REMARK UNBOUND:                -0.819
REMARK SMILES CCCCCCCCCCCCCCCC(=O)[O-]
REMARK SMILES IDX 9 1 10 2 11 3 12 4 13 5 14 6 15 7 16 8 17 9 18 10 8 11 7 12
REMARK SMILES IDX 6 13 5 14 4 15 3 16 2 17 1 18
REMARK H PARENT
REMARK Flexibility Score: inf
ROOT
ATOM      1  C   UNL     1       6.304  18.239  25.250  1.00  0.00     0.000 C 
ENDROOT
BRANCH   1   2
ATOM      2  C   UNL     1       6.437  18.058  26.770  1.00  0.00     0.000 C 
BRANCH   2   3
ATOM      3  C   UNL     1       7.574  17.099  27.158  1.00  0.00     0.000 C 
BRANCH   3   4
ATOM      4  C   UNL     1       8.865  17.839  27.549  1.00  0.00     0.000 C 
BRANCH   4   5
ATOM      5  C   UNL     1       9.425  17.375  28.903  1.00  0.00     0.000 C 
BRANCH   5   6
ATOM      6  C   UNL     1       8.407  17.518  30.045  1.00  0.00     0.006 C 
BRANCH   6   7
ATOM      7  C   UNL     1       9.117  17.669  31.395  1.00  0.00     0.053 C 
BRANCH   7   8
ATOM      8  C   UNL     1       8.146  17.501  32.521  1.00  0.00     0.041 C 
ATOM      9  O   UNL     1       7.572  18.506  33.016  1.00  0.00    -0.550 OA
ATOM     10  O   UNL     1       7.838  16.230  32.988  1.00  0.00    -0.550 OA
ENDBRANCH   7   8
ENDBRANCH   6   7
ENDBRANCH   5   6
ENDBRANCH   4   5
ENDBRANCH   3   4
ENDBRANCH   2   3
ENDBRANCH   1   2
BRANCH   1  11
ATOM     11  C   UNL     1       5.034  19.031  24.902  1.00  0.00     0.000 C 
BRANCH  11  12
ATOM     12  C   UNL     1       4.800  19.142  23.388  1.00  0.00    -0.000 C 
BRANCH  12  13
ATOM     13  C   UNL     1       4.353  20.550  22.957  1.00  0.00    -0.000 C 
BRANCH  13  14
ATOM     14  C   UNL     1       2.980  20.540  22.251  1.00  0.00    -0.000 C 
BRANCH  14  15
ATOM     15  C   UNL     1       1.786  20.665  23.217  1.00  0.00    -0.000 C 
BRANCH  15  16
ATOM     16  C   UNL     1       0.957  19.379  23.394  1.00  0.00    -0.000 C 
BRANCH  16  17
ATOM     17  C   UNL     1       0.632  19.017  24.855  1.00  0.00    -0.003 C 
ATOM     18  C   UNL     1       0.995  17.575  25.208  1.00  0.00     0.004 C 
ENDBRANCH  16  17
ENDBRANCH  15  16
ENDBRANCH  14  15
ENDBRANCH  13  14
ENDBRANCH  12  13
ENDBRANCH  11  12
ENDBRANCH   1  11
TORSDOF 14
ENDMDL
MODEL 5
REMARK VINA RESULT:    12.031      4.056      8.533
REMARK INTER + INTRA:          21.058
REMARK INTER:                  21.905
REMARK INTRA:                  -0.846
REMARK UNBOUND:                -0.819
REMARK SMILES CCCCCCCCCCCCCCCC(=O)[O-]
REMARK SMILES IDX 9 1 10 2 11 3 12 4 13 5 14 6 15 7 16 8 17 9 18 10 8 11 7 12
REMARK SMILES IDX 6 13 5 14 4 15 3 16 2 17 1 18
REMARK H PARENT
REMARK Flexibility Score: inf
ROOT
ATOM      1  C   UNL     1       5.350  18.440  26.223  1.00  0.00     0.000 C 
ENDROOT
BRANCH   1   2
ATOM      2  C   UNL     1       6.856  18.134  26.225  1.00  0.00     0.000 C 
BRANCH   2   3
ATOM      3  C   UNL     1       7.276  17.221  27.388  1.00  0.00     0.000 C 
BRANCH   3   4
ATOM      4  C   UNL     1       8.802  17.160  27.570  1.00  0.00     0.000 C 
BRANCH   4   5
ATOM      5  C   UNL     1       9.264  17.783  28.897  1.00  0.00     0.000 C 
BRANCH   5   6
ATOM      6  C   UNL     1       8.365  17.393  30.080  1.00  0.00     0.006 C 
BRANCH   6   7
ATOM      7  C   UNL     1       9.150  17.421  31.396  1.00  0.00     0.053 C 
BRANCH   7   8
ATOM      8  C   UNL     1       8.217  17.361  32.565  1.00  0.00     0.041 C 
ATOM      9  O   UNL     1       7.705  18.417  33.020  1.00  0.00    -0.550 OA
ATOM     10  O   UNL     1       7.876  16.134  33.118  1.00  0.00    -0.550 OA
ENDBRANCH   7   8
ENDBRANCH   6   7
ENDBRANCH   5   6
ENDBRANCH   4   5
ENDBRANCH   3   4
ENDBRANCH   2   3
ENDBRANCH   1   2
BRANCH   1  11
ATOM     11  C   UNL     1       4.645  17.731  27.390  1.00  0.00     0.000 C 
BRANCH  11  12
ATOM     12  C   UNL     1       3.114  17.818  27.301  1.00  0.00    -0.000 C 
BRANCH  12  13
ATOM     13  C   UNL     1       2.613  18.019  25.860  1.00  0.00    -0.000 C 
BRANCH  13  14
ATOM     14  C   UNL     1       1.096  18.296  25.800  1.00  0.00    -0.000 C 
BRANCH  14  15
ATOM     15  C   UNL     1       0.720  19.486  24.897  1.00  0.00    -0.000 C 
BRANCH  15  16
ATOM     16  C   UNL     1       1.368  19.473  23.500  1.00  0.00    -0.000 C 
BRANCH  16  17
ATOM     17  C   UNL     1       1.912  20.833  23.028  1.00  0.00    -0.003 C 
ATOM     18  C   UNL     1       3.399  20.792  22.676  1.00  0.00     0.004 C 
ENDBRANCH  16  17
ENDBRANCH  15  16
ENDBRANCH  14  15
ENDBRANCH  13  14
ENDBRANCH  12  13
ENDBRANCH  11  12
ENDBRANCH   1  11
TORSDOF 14
ENDMDL
MODEL 6
REMARK VINA RESULT:    12.066      3.614      8.020
REMARK INTER + INTRA:          21.123
REMARK INTER:                  20.501
REMARK INTRA:                   0.622
REMARK UNBOUND:                -0.819
REMARK SMILES CCCCCCCCCCCCCCCC(=O)[O-]
REMARK SMILES IDX 9 1 10 2 11 3 12 4 13 5 14 6 15 7 16 8 17 9 18 10 8 11 7 12
REMARK SMILES IDX 6 13 5 14 4 15 3 16 2 17 1 18
REMARK H PARENT
REMARK Flexibility Score: inf
ROOT
ATOM      1  C   UNL     1       7.360  17.281  27.346  1.00  0.00     0.000 C 
ENDROOT
BRANCH   1   2
ATOM      2  C   UNL     1       8.894  17.187  27.385  1.00  0.00     0.000 C 
BRANCH   2   3
ATOM      3  C   UNL     1       9.489  17.715  28.700  1.00  0.00     0.000 C 
BRANCH   3   4
ATOM      4  C   UNL     1       8.575  17.453  29.910  1.00  0.00     0.000 C 
BRANCH   4   5
ATOM      5  C   UNL     1       9.262  17.766  31.249  1.00  0.00     0.000 C 
BRANCH   5   6
ATOM      6  C   UNL     1       8.593  17.061  32.438  1.00  0.00     0.006 C 
BRANCH   6   7
ATOM      7  C   UNL     1       7.347  17.824  32.896  1.00  0.00     0.053 C 
BRANCH   7   8
ATOM      8  C   UNL     1       7.549  19.299  32.743  1.00  0.00     0.041 C 
ATOM      9  O   UNL     1       8.682  19.754  32.436  1.00  0.00    -0.550 OA
ATOM     10  O   UNL     1       6.474  20.166  32.890  1.00  0.00    -0.550 OA
ENDBRANCH   7   8
ENDBRANCH   6   7
ENDBRANCH   5   6
ENDBRANCH   4   5
ENDBRANCH   3   4
ENDBRANCH   2   3
ENDBRANCH   1   2
BRANCH   1  11
ATOM     11  C   UNL     1       6.891  18.072  26.115  1.00  0.00     0.000 C 
BRANCH  11  12
ATOM     12  C   UNL     1       5.436  18.548  26.234  1.00  0.00    -0.000 C 
BRANCH  12  13
ATOM     13  C   UNL     1       4.536  17.534  26.961  1.00  0.00    -0.000 C 
BRANCH  13  14
ATOM     14  C   UNL     1       3.109  18.075  27.193  1.00  0.00    -0.000 C 
BRANCH  14  15
ATOM     15  C   UNL     1       2.093  17.618  26.129  1.00  0.00    -0.000 C 
BRANCH  15  16
ATOM     16  C   UNL     1       1.014  18.657  25.771  1.00  0.00    -0.000 C 
BRANCH  16  17
ATOM     17  C   UNL     1       0.505  18.585  24.321  1.00  0.00    -0.003 C 
ATOM     18  C   UNL     1       0.257  17.153  23.845  1.00  0.00     0.004 C 
ENDBRANCH  16  17
ENDBRANCH  15  16
ENDBRANCH  14  15
ENDBRANCH  13  14
ENDBRANCH  12  13
ENDBRANCH  11  12
ENDBRANCH   1  11
TORSDOF 14
ENDMDL
MODEL 7
REMARK VINA RESULT:    12.323      3.925      8.517
REMARK INTER + INTRA:          21.589
REMARK INTER:                  21.995
REMARK INTRA:                  -0.406
REMARK UNBOUND:                -0.819
REMARK SMILES CCCCCCCCCCCCCCCC(=O)[O-]
REMARK SMILES IDX 9 1 10 2 11 3 12 4 13 5 14 6 15 7 16 8 17 9 18 10 8 11 7 12
REMARK SMILES IDX 6 13 5 14 4 15 3 16 2 17 1 18
REMARK H PARENT
REMARK Flexibility Score: inf
ROOT
ATOM      1  C   UNL     1       6.630  18.578  26.176  1.00  0.00     0.000 C 
ENDROOT
BRANCH   1   2
ATOM      2  C   UNL     1       7.275  17.522  27.087  1.00  0.00     0.000 C 
BRANCH   2   3
ATOM      3  C   UNL     1       8.804  17.656  27.164  1.00  0.00     0.000 C 
BRANCH   3   4
ATOM      4  C   UNL     1       9.381  17.107  28.479  1.00  0.00     0.000 C 
BRANCH   4   5
ATOM      5  C   UNL     1       8.521  17.472  29.700  1.00  0.00     0.000 C 
BRANCH   5   6
ATOM      6  C   UNL     1       9.300  18.265  30.759  1.00  0.00     0.006 C 
BRANCH   6   7
ATOM      7  C   UNL     1       9.433  17.461  32.057  1.00  0.00     0.053 C 
BRANCH   7   8
ATOM      8  C   UNL     1       8.095  17.280  32.701  1.00  0.00     0.041 C 
ATOM      9  O   UNL     1       7.456  18.279  33.125  1.00  0.00    -0.550 OA
ATOM     10  O   UNL     1       7.531  16.013  32.787  1.00  0.00    -0.550 OA
ENDBRANCH   7   8
ENDBRANCH   6   7
ENDBRANCH   5   6
ENDBRANCH   4   5
ENDBRANCH   3   4
ENDBRANCH   2   3
ENDBRANCH   1   2
BRANCH   1  11
ATOM     11  C   UNL     1       5.160  18.232  25.892  1.00  0.00     0.000 C 
BRANCH  11  12
ATOM     12  C   UNL     1       4.422  17.708  27.133  1.00  0.00    -0.000 C 
BRANCH  12  13
ATOM     13  C   UNL     1       2.955  18.169  27.190  1.00  0.00    -0.000 C 
BRANCH  13  14
ATOM     14  C   UNL     1       2.141  17.690  25.969  1.00  0.00    -0.000 C 
BRANCH  14  15
ATOM     15  C   UNL     1       0.856  18.503  25.724  1.00  0.00    -0.000 C 
BRANCH  15  16
ATOM     16  C   UNL     1       0.618  18.917  24.259  1.00  0.00    -0.000 C 
BRANCH  16  17
ATOM     17  C   UNL     1      -0.011  17.826  23.375  1.00  0.00    -0.003 C 
ATOM     18  C   UNL     1      -0.095  16.468  24.071  1.00  0.00     0.004 C 
ENDBRANCH  16  17
ENDBRANCH  15  16
ENDBRANCH  14  15
ENDBRANCH  13  14
ENDBRANCH  12  13
ENDBRANCH  11  12
ENDBRANCH   1  11
TORSDOF 14
ENDMDL
MODEL 8
REMARK VINA RESULT:    12.511      2.039      3.263
REMARK INTER + INTRA:          21.931
REMARK INTER:                  22.508
REMARK INTRA:                  -0.577
REMARK UNBOUND:                -0.819
REMARK SMILES CCCCCCCCCCCCCCCC(=O)[O-]
REMARK SMILES IDX 9 1 10 2 11 3 12 4 13 5 14 6 15 7 16 8 17 9 18 10 8 11 7 12
REMARK SMILES IDX 6 13 5 14 4 15 3 16 2 17 1 18
REMARK H PARENT
REMARK Flexibility Score: inf
ROOT
ATOM      1  C   UNL     1       6.395  18.402  25.334  1.00  0.00     0.000 C 
ENDROOT
BRANCH   1   2
ATOM      2  C   UNL     1       5.033  18.993  24.936  1.00  0.00     0.000 C 
BRANCH   2   3
ATOM      3  C   UNL     1       4.910  19.243  23.425  1.00  0.00     0.000 C 
BRANCH   3   4
ATOM      4  C   UNL     1       4.448  20.673  23.098  1.00  0.00     0.000 C 
BRANCH   4   5
ATOM      5  C   UNL     1       3.241  20.701  22.147  1.00  0.00     0.000 C 
BRANCH   5   6
ATOM      6  C   UNL     1       1.900  20.574  22.887  1.00  0.00     0.006 C 
BRANCH   6   7
ATOM      7  C   UNL     1       1.267  19.201  22.639  1.00  0.00     0.053 C 
BRANCH   7   8
ATOM      8  C   UNL     1       0.511  18.746  23.847  1.00  0.00     0.041 C 
ATOM      9  O   UNL     1      -0.062  17.625  23.850  1.00  0.00    -0.550 OA
ATOM     10  O   UNL     1       0.482  19.538  24.988  1.00  0.00    -0.550 OA
ENDBRANCH   7   8
ENDBRANCH   6   7
ENDBRANCH   5   6
ENDBRANCH   4   5
ENDBRANCH   3   4
ENDBRANCH   2   3
ENDBRANCH   1   2
BRANCH   1  11
ATOM     11  C   UNL     1       6.378  17.919  26.792  1.00  0.00     0.000 C 
BRANCH  11  12
ATOM     12  C   UNL     1       7.615  17.084  27.156  1.00  0.00    -0.000 C 
BRANCH  12  13
ATOM     13  C   UNL     1       8.824  17.952  27.545  1.00  0.00    -0.000 C 
BRANCH  13  14
ATOM     14  C   UNL     1       9.424  17.545  28.908  1.00  0.00    -0.000 C 
BRANCH  14  15
ATOM     15  C   UNL     1       8.385  17.466  30.043  1.00  0.00    -0.000 C 
BRANCH  15  16
ATOM     16  C   UNL     1       8.937  17.758  31.451  1.00  0.00    -0.000 C 
BRANCH  16  17
ATOM     17  C   UNL     1       7.922  17.573  32.593  1.00  0.00    -0.003 C 
ATOM     18  C   UNL     1       7.872  16.139  33.121  1.00  0.00     0.004 C 
ENDBRANCH  16  17
ENDBRANCH  15  16
ENDBRANCH  14  15
ENDBRANCH  13  14
ENDBRANCH  12  13
ENDBRANCH  11  12
ENDBRANCH   1  11
TORSDOF 14
ENDMDL
