MODEL 1
REMARK VINA RESULT:    -3.777      0.000      0.000
REMARK INTER + INTRA:         -15.280
REMARK INTER:                  -9.961
REMARK INTRA:                  -5.319
REMARK UNBOUND:                -5.319
REMARK SMILES CCCCCCCCCCCCCCCCCCCCCCCCCCCCCC(=O)[O-]
REMARK SMILES IDX 16 1 17 2 18 3 19 4 20 5 21 6 22 7 23 8 24 9 25 10 26 11
REMARK SMILES IDX 27 12 28 13 29 14 30 15 31 16 32 17 15 18 14 19 13 20 12 21
REMARK SMILES IDX 11 22 10 23 9 24 8 25 7 26 6 27 5 28 4 29 3 30 2 31 1 32
REMARK H PARENT
REMARK Flexibility Score: inf
ROOT
ATOM      1  C   UNL     1      25.025   6.612  29.487  1.00  0.00     0.000 C 
ENDROOT
BRANCH   1   2
ATOM      2  C   UNL     1      25.832   7.768  28.871  1.00  0.00     0.000 C 
BRANCH   2   3
ATOM      3  C   UNL     1      26.885   7.287  27.862  1.00  0.00     0.000 C 
BRANCH   3   4
ATOM      4  C   UNL     1      27.588   8.448  27.136  1.00  0.00     0.000 C 
BRANCH   4   5
ATOM      5  C   UNL     1      29.091   8.195  26.916  1.00  0.00     0.000 C 
BRANCH   5   6
ATOM      6  C   UNL     1      29.479   7.798  25.480  1.00  0.00     0.000 C 
BRANCH   6   7
ATOM      7  C   UNL     1      30.270   8.893  24.744  1.00  0.00     0.000 C 
BRANCH   7   8
ATOM      8  C   UNL     1      31.254   9.625  25.683  1.00  0.00     0.000 C 
BRANCH   8   9
ATOM      9  C   UNL     1      31.444  11.114  25.347  1.00  0.00     0.000 C 
BRANCH   9  10
ATOM     10  C   UNL     1      30.384  11.649  24.367  1.00  0.00     0.000 C 
BRANCH  10  11
ATOM     11  C   UNL     1      29.330  12.536  25.062  1.00  0.00     0.000 C 
BRANCH  11  12
ATOM     12  C   UNL     1      28.224  11.745  25.779  1.00  0.00     0.000 C 
BRANCH  12  13
ATOM     13  C   UNL     1      27.981  12.223  27.221  1.00  0.00     0.006 C 
BRANCH  13  14
ATOM     14  C   UNL     1      29.045  11.693  28.194  1.00  0.00     0.053 C 
BRANCH  14  15
ATOM     15  C   UNL     1      29.020  12.430  29.500  1.00  0.00     0.041 C 
ATOM     16  O   UNL     1      28.236  13.401  29.664  1.00  0.00    -0.550 OA
ATOM     17  O   UNL     1      29.890  12.068  30.520  1.00  0.00    -0.550 OA
ENDBRANCH  14  15
ENDBRANCH  13  14
ENDBRANCH  12  13
ENDBRANCH  11  12
ENDBRANCH  10  11
ENDBRANCH   9  10
ENDBRANCH   8   9
ENDBRANCH   7   8
ENDBRANCH   6   7
ENDBRANCH   5   6
ENDBRANCH   4   5
ENDBRANCH   3   4
ENDBRANCH   2   3
ENDBRANCH   1   2
BRANCH   1  18
ATOM     18  C   UNL     1      24.606   5.559  28.448  1.00  0.00     0.000 C 
BRANCH  18  19
ATOM     19  C   UNL     1      24.696   4.121  28.988  1.00  0.00     0.000 C 
BRANCH  19  20
ATOM     20  C   UNL     1      25.964   3.893  29.829  1.00  0.00     0.000 C 
BRANCH  20  21
ATOM     21  C   UNL     1      27.001   3.018  29.104  1.00  0.00     0.000 C 
BRANCH  21  22
ATOM     22  C   UNL     1      27.839   3.823  28.088  1.00  0.00     0.000 C 
BRANCH  22  23
ATOM     23  C   UNL     1      27.675   3.348  26.634  1.00  0.00     0.000 C 
BRANCH  23  24
ATOM     24  C   UNL     1      28.109   4.403  25.604  1.00  0.00    -0.000 C 
BRANCH  24  25
ATOM     25  C   UNL     1      27.047   4.643  24.519  1.00  0.00    -0.000 C 
BRANCH  25  26
ATOM     26  C   UNL     1      26.425   6.043  24.601  1.00  0.00    -0.000 C 
BRANCH  26  27
ATOM     27  C   UNL     1      25.116   6.107  23.801  1.00  0.00    -0.000 C 
BRANCH  27  28
ATOM     28  C   UNL     1      25.066   7.309  22.837  1.00  0.00    -0.000 C 
BRANCH  28  29
ATOM     29  C   UNL     1      26.284   8.249  22.935  1.00  0.00    -0.000 C 
BRANCH  29  30
ATOM     30  C   UNL     1      26.045   9.503  23.799  1.00  0.00    -0.000 C 
BRANCH  30  31
ATOM     31  C   UNL     1      24.579   9.634  24.245  1.00  0.00    -0.003 C 
ATOM     32  C   UNL     1      24.443   9.435  25.752  1.00  0.00     0.004 C 
ENDBRANCH  30  31
ENDBRANCH  29  30
ENDBRANCH  28  29
ENDBRANCH  27  28
ENDBRANCH  26  27
ENDBRANCH  25  26
ENDBRANCH  24  25
ENDBRANCH  23  24
ENDBRANCH  22  23
ENDBRANCH  21  22
ENDBRANCH  20  21
ENDBRANCH  19  20
ENDBRANCH  18  19
ENDBRANCH   1  18
TORSDOF 28
ENDMDL
MODEL 2
REMARK VINA RESULT:    -3.725      2.786      4.601
REMARK INTER + INTRA:         -15.141
REMARK INTER:                  -9.782
REMARK INTRA:                  -5.359
REMARK UNBOUND:                -5.319
REMARK SMILES CCCCCCCCCCCCCCCCCCCCCCCCCCCCCC(=O)[O-]
REMARK SMILES IDX 16 1 17 2 18 3 19 4 20 5 21 6 22 7 23 8 24 9 25 10 26 11
REMARK SMILES IDX 27 12 28 13 29 14 30 15 31 16 32 17 15 18 14 19 13 20 12 21
REMARK SMILES IDX 11 22 10 23 9 24 8 25 7 26 6 27 5 28 4 29 3 30 2 31 1 32
REMARK H PARENT
REMARK Flexibility Score: inf
ROOT
ATOM      1  C   UNL     1      26.196   7.260  28.439  1.00  0.00     0.000 C 
ENDROOT
BRANCH   1   2
ATOM      2  C   UNL     1      27.139   7.970  27.452  1.00  0.00     0.000 C 
BRANCH   2   3
ATOM      3  C   UNL     1      28.588   7.472  27.551  1.00  0.00     0.000 C 
BRANCH   3   4
ATOM      4  C   UNL     1      29.615   8.618  27.536  1.00  0.00     0.000 C 
BRANCH   4   5
ATOM      5  C   UNL     1      29.634   9.424  28.849  1.00  0.00     0.000 C 
BRANCH   5   6
ATOM      6  C   UNL     1      29.308  10.921  28.697  1.00  0.00     0.000 C 
BRANCH   6   7
ATOM      7  C   UNL     1      28.982  11.322  27.248  1.00  0.00     0.000 C 
BRANCH   7   8
ATOM      8  C   UNL     1      27.516  11.778  27.090  1.00  0.00     0.000 C 
BRANCH   8   9
ATOM      9  C   UNL     1      26.647  11.525  28.335  1.00  0.00     0.000 C 
BRANCH   9  10
ATOM     10  C   UNL     1      25.142  11.694  28.061  1.00  0.00     0.000 C 
BRANCH  10  11
ATOM     11  C   UNL     1      24.340  10.408  28.350  1.00  0.00     0.000 C 
BRANCH  11  12
ATOM     12  C   UNL     1      23.753   9.743  27.094  1.00  0.00     0.000 C 
BRANCH  12  13
ATOM     13  C   UNL     1      22.755  10.644  26.348  1.00  0.00     0.006 C 
BRANCH  13  14
ATOM     14  C   UNL     1      23.312  11.137  25.004  1.00  0.00     0.053 C 
BRANCH  14  15
ATOM     15  C   UNL     1      22.232  11.691  24.124  1.00  0.00     0.041 C 
ATOM     16  O   UNL     1      21.834  11.038  23.124  1.00  0.00    -0.550 OA
ATOM     17  O   UNL     1      21.694  12.944  24.387  1.00  0.00    -0.550 OA
ENDBRANCH  14  15
ENDBRANCH  13  14
ENDBRANCH  12  13
ENDBRANCH  11  12
ENDBRANCH  10  11
ENDBRANCH   9  10
ENDBRANCH   8   9
ENDBRANCH   7   8
ENDBRANCH   6   7
ENDBRANCH   5   6
ENDBRANCH   4   5
ENDBRANCH   3   4
ENDBRANCH   2   3
ENDBRANCH   1   2
BRANCH   1  18
ATOM     18  C   UNL     1      25.166   6.361  27.736  1.00  0.00     0.000 C 
BRANCH  18  19
ATOM     19  C   UNL     1      24.490   5.367  28.697  1.00  0.00     0.000 C 
BRANCH  19  20
ATOM     20  C   UNL     1      24.885   5.613  30.163  1.00  0.00     0.000 C 
BRANCH  20  21
ATOM     21  C   UNL     1      25.178   4.307  30.921  1.00  0.00     0.000 C 
BRANCH  21  22
ATOM     22  C   UNL     1      25.433   3.120  29.968  1.00  0.00     0.000 C 
BRANCH  22  23
ATOM     23  C   UNL     1      26.922   2.869  29.673  1.00  0.00     0.000 C 
BRANCH  23  24
ATOM     24  C   UNL     1      27.205   2.615  28.184  1.00  0.00    -0.000 C 
BRANCH  24  25
ATOM     25  C   UNL     1      27.810   3.839  27.479  1.00  0.00    -0.000 C 
BRANCH  25  26
ATOM     26  C   UNL     1      28.461   3.485  26.135  1.00  0.00    -0.000 C 
BRANCH  26  27
ATOM     27  C   UNL     1      28.461   4.697  25.192  1.00  0.00    -0.000 C 
BRANCH  27  28
ATOM     28  C   UNL     1      27.115   4.883  24.463  1.00  0.00    -0.000 C 
BRANCH  28  29
ATOM     29  C   UNL     1      26.788   6.345  24.103  1.00  0.00    -0.000 C 
BRANCH  29  30
ATOM     30  C   UNL     1      25.281   6.672  24.098  1.00  0.00    -0.000 C 
BRANCH  30  31
ATOM     31  C   UNL     1      25.007   8.161  23.832  1.00  0.00    -0.003 C 
ATOM     32  C   UNL     1      26.257   9.003  24.081  1.00  0.00     0.004 C 
ENDBRANCH  30  31
ENDBRANCH  29  30
ENDBRANCH  28  29
ENDBRANCH  27  28
ENDBRANCH  26  27
ENDBRANCH  25  26
ENDBRANCH  24  25
ENDBRANCH  23  24
ENDBRANCH  22  23
ENDBRANCH  21  22
ENDBRANCH  20  21
ENDBRANCH  19  20
ENDBRANCH  18  19
ENDBRANCH   1  18
TORSDOF 28
ENDMDL
MODEL 3
REMARK VINA RESULT:    -3.723      3.216      6.936
REMARK INTER + INTRA:         -15.138
REMARK INTER:                  -9.514
REMARK INTRA:                  -5.624
REMARK UNBOUND:                -5.319
REMARK SMILES CCCCCCCCCCCCCCCCCCCCCCCCCCCCCC(=O)[O-]
REMARK SMILES IDX 16 1 17 2 18 3 19 4 20 5 21 6 22 7 23 8 24 9 25 10 26 11
REMARK SMILES IDX 27 12 28 13 29 14 30 15 31 16 32 17 15 18 14 19 13 20 12 21
REMARK SMILES IDX 11 22 10 23 9 24 8 25 7 26 6 27 5 28 4 29 3 30 2 31 1 32
REMARK H PARENT
REMARK Flexibility Score: inf
ROOT
ATOM      1  C   UNL     1      28.059   6.699  24.608  1.00  0.00     0.000 C 
ENDROOT
BRANCH   1   2
ATOM      2  C   UNL     1      27.097   6.213  23.510  1.00  0.00     0.000 C 
BRANCH   2   3
ATOM      3  C   UNL     1      25.630   6.205  23.966  1.00  0.00     0.000 C 
BRANCH   3   4
ATOM      4  C   UNL     1      24.695   6.918  22.974  1.00  0.00     0.000 C 
BRANCH   4   5
ATOM      5  C   UNL     1      25.423   7.962  22.106  1.00  0.00     0.000 C 
BRANCH   5   6
ATOM      6  C   UNL     1      25.377   9.402  22.648  1.00  0.00     0.000 C 
BRANCH   6   7
ATOM      7  C   UNL     1      24.068   9.725  23.390  1.00  0.00     0.000 C 
BRANCH   7   8
ATOM      8  C   UNL     1      24.319  10.109  24.864  1.00  0.00     0.000 C 
BRANCH   8   9
ATOM      9  C   UNL     1      25.757   9.838  25.343  1.00  0.00     0.000 C 
BRANCH   9  10
ATOM     10  C   UNL     1      25.816   8.917  26.575  1.00  0.00     0.000 C 
BRANCH  10  11
ATOM     11  C   UNL     1      24.438   8.324  26.937  1.00  0.00     0.000 C 
BRANCH  11  12
ATOM     12  C   UNL     1      24.501   6.892  27.492  1.00  0.00     0.000 C 
BRANCH  12  13
ATOM     13  C   UNL     1      25.940   6.375  27.659  1.00  0.00     0.006 C 
BRANCH  13  14
ATOM     14  C   UNL     1      26.013   5.156  28.589  1.00  0.00     0.053 C 
BRANCH  14  15
ATOM     15  C   UNL     1      27.045   4.168  28.132  1.00  0.00     0.041 C 
ATOM     16  O   UNL     1      27.475   4.204  26.950  1.00  0.00    -0.550 OA
ATOM     17  O   UNL     1      27.501   3.185  29.001  1.00  0.00    -0.550 OA
ENDBRANCH  14  15
ENDBRANCH  13  14
ENDBRANCH  12  13
ENDBRANCH  11  12
ENDBRANCH  10  11
ENDBRANCH   9  10
ENDBRANCH   8   9
ENDBRANCH   7   8
ENDBRANCH   6   7
ENDBRANCH   5   6
ENDBRANCH   4   5
ENDBRANCH   3   4
ENDBRANCH   2   3
ENDBRANCH   1   2
BRANCH   1  18
ATOM     18  C   UNL     1      28.763   8.016  24.242  1.00  0.00     0.000 C 
BRANCH  18  19
ATOM     19  C   UNL     1      30.054   8.245  25.048  1.00  0.00     0.000 C 
BRANCH  19  20
ATOM     20  C   UNL     1      29.817   9.122  26.289  1.00  0.00     0.000 C 
BRANCH  20  21
ATOM     21  C   UNL     1      29.511   8.291  27.548  1.00  0.00     0.000 C 
BRANCH  21  22
ATOM     22  C   UNL     1      28.976   9.159  28.706  1.00  0.00     0.000 C 
BRANCH  22  23
ATOM     23  C   UNL     1      29.853  10.383  29.022  1.00  0.00     0.000 C 
BRANCH  23  24
ATOM     24  C   UNL     1      29.068  11.705  29.009  1.00  0.00    -0.000 C 
BRANCH  24  25
ATOM     25  C   UNL     1      27.698  11.572  28.324  1.00  0.00    -0.000 C 
BRANCH  25  26
ATOM     26  C   UNL     1      26.773  12.760  28.620  1.00  0.00    -0.000 C 
BRANCH  26  27
ATOM     27  C   UNL     1      25.875  13.067  27.413  1.00  0.00    -0.000 C 
BRANCH  27  28
ATOM     28  C   UNL     1      24.436  12.543  27.594  1.00  0.00    -0.000 C 
BRANCH  28  29
ATOM     29  C   UNL     1      24.056  12.233  29.055  1.00  0.00    -0.000 C 
BRANCH  29  30
ATOM     30  C   UNL     1      22.990  11.129  29.208  1.00  0.00    -0.000 C 
BRANCH  30  31
ATOM     31  C   UNL     1      22.104  11.340  30.446  1.00  0.00    -0.003 C 
ATOM     32  C   UNL     1      22.694  12.404  31.369  1.00  0.00     0.004 C 
ENDBRANCH  30  31
ENDBRANCH  29  30
ENDBRANCH  28  29
ENDBRANCH  27  28
ENDBRANCH  26  27
ENDBRANCH  25  26
ENDBRANCH  24  25
ENDBRANCH  23  24
ENDBRANCH  22  23
ENDBRANCH  21  22
ENDBRANCH  20  21
ENDBRANCH  19  20
ENDBRANCH  18  19
ENDBRANCH   1  18
TORSDOF 28
ENDMDL
MODEL 4
REMARK VINA RESULT:    -3.701      3.608      6.554
REMARK INTER + INTRA:         -15.077
REMARK INTER:                  -8.436
REMARK INTRA:                  -6.641
REMARK UNBOUND:                -5.319
REMARK SMILES CCCCCCCCCCCCCCCCCCCCCCCCCCCCCC(=O)[O-]
REMARK SMILES IDX 16 1 17 2 18 3 19 4 20 5 21 6 22 7 23 8 24 9 25 10 26 11
REMARK SMILES IDX 27 12 28 13 29 14 30 15 31 16 32 17 15 18 14 19 13 20 12 21
REMARK SMILES IDX 11 22 10 23 9 24 8 25 7 26 6 27 5 28 4 29 3 30 2 31 1 32
REMARK H PARENT
REMARK Flexibility Score: inf
ROOT
ATOM      1  C   UNL     1      27.926   8.137  28.178  1.00  0.00     0.000 C 
ENDROOT
BRANCH   1   2
ATOM      2  C   UNL     1      26.566   7.874  27.508  1.00  0.00     0.000 C 
BRANCH   2   3
ATOM      3  C   UNL     1      26.699   7.185  26.142  1.00  0.00     0.000 C 
BRANCH   3   4
ATOM      4  C   UNL     1      25.346   7.007  25.430  1.00  0.00     0.000 C 
BRANCH   4   5
ATOM      5  C   UNL     1      25.451   6.166  24.144  1.00  0.00     0.000 C 
BRANCH   5   6
ATOM      6  C   UNL     1      24.515   6.606  23.003  1.00  0.00     0.000 C 
BRANCH   6   7
ATOM      7  C   UNL     1      24.693   8.084  22.613  1.00  0.00     0.000 C 
BRANCH   7   8
ATOM      8  C   UNL     1      25.767   8.268  21.519  1.00  0.00     0.000 C 
BRANCH   8   9
ATOM      9  C   UNL     1      26.964   9.128  21.960  1.00  0.00     0.000 C 
BRANCH   9  10
ATOM     10  C   UNL     1      28.207   8.924  21.075  1.00  0.00     0.000 C 
BRANCH  10  11
ATOM     11  C   UNL     1      29.347   8.192  21.815  1.00  0.00     0.000 C 
BRANCH  11  12
ATOM     12  C   UNL     1      28.938   7.625  23.184  1.00  0.00     0.000 C 
BRANCH  12  13
ATOM     13  C   UNL     1      28.787   6.094  23.179  1.00  0.00     0.006 C 
BRANCH  13  14
ATOM     14  C   UNL     1      29.529   5.436  24.352  1.00  0.00     0.053 C 
BRANCH  14  15
ATOM     15  C   UNL     1      30.322   4.243  23.909  1.00  0.00     0.041 C 
ATOM     16  O   UNL     1      30.728   4.159  22.720  1.00  0.00    -0.550 OA
ATOM     17  O   UNL     1      30.578   3.208  24.798  1.00  0.00    -0.550 OA
ENDBRANCH  14  15
ENDBRANCH  13  14
ENDBRANCH  12  13
ENDBRANCH  11  12
ENDBRANCH  10  11
ENDBRANCH   9  10
ENDBRANCH   8   9
ENDBRANCH   7   8
ENDBRANCH   6   7
ENDBRANCH   5   6
ENDBRANCH   4   5
ENDBRANCH   3   4
ENDBRANCH   2   3
ENDBRANCH   1   2
BRANCH   1  18
ATOM     18  C   UNL     1      28.322   9.622  28.158  1.00  0.00     0.000 C 
BRANCH  18  19
ATOM     19  C   UNL     1      29.737   9.854  27.600  1.00  0.00     0.000 C 
BRANCH  19  20
ATOM     20  C   UNL     1      30.116   8.819  26.527  1.00  0.00     0.000 C 
BRANCH  20  21
ATOM     21  C   UNL     1      31.250   9.310  25.610  1.00  0.00     0.000 C 
BRANCH  21  22
ATOM     22  C   UNL     1      31.725  10.732  25.976  1.00  0.00     0.000 C 
BRANCH  22  23
ATOM     23  C   UNL     1      31.543  11.759  24.843  1.00  0.00     0.000 C 
BRANCH  23  24
ATOM     24  C   UNL     1      31.069  11.123  23.527  1.00  0.00    -0.000 C 
BRANCH  24  25
ATOM     25  C   UNL     1      29.745  11.722  23.025  1.00  0.00    -0.000 C 
BRANCH  25  26
ATOM     26  C   UNL     1      28.817  12.146  24.171  1.00  0.00    -0.000 C 
BRANCH  26  27
ATOM     27  C   UNL     1      27.928  10.975  24.616  1.00  0.00    -0.000 C 
BRANCH  27  28
ATOM     28  C   UNL     1      26.670  11.439  25.376  1.00  0.00    -0.000 C 
BRANCH  28  29
ATOM     29  C   UNL     1      25.393  10.652  25.023  1.00  0.00    -0.000 C 
BRANCH  29  30
ATOM     30  C   UNL     1      24.361  10.578  26.168  1.00  0.00    -0.000 C 
BRANCH  30  31
ATOM     31  C   UNL     1      24.921  11.119  27.493  1.00  0.00    -0.003 C 
ATOM     32  C   UNL     1      24.210  10.489  28.688  1.00  0.00     0.004 C 
ENDBRANCH  30  31
ENDBRANCH  29  30
ENDBRANCH  28  29
ENDBRANCH  27  28
ENDBRANCH  26  27
ENDBRANCH  25  26
ENDBRANCH  24  25
ENDBRANCH  23  24
ENDBRANCH  22  23
ENDBRANCH  21  22
ENDBRANCH  20  21
ENDBRANCH  19  20
ENDBRANCH  18  19
ENDBRANCH   1  18
TORSDOF 28
ENDMDL
MODEL 5
REMARK VINA RESULT:    -3.667      2.802      6.782
REMARK INTER + INTRA:         -14.989
REMARK INTER:                  -9.029
REMARK INTRA:                  -5.960
REMARK UNBOUND:                -5.319
REMARK SMILES CCCCCCCCCCCCCCCCCCCCCCCCCCCCCC(=O)[O-]
REMARK SMILES IDX 16 1 17 2 18 3 19 4 20 5 21 6 22 7 23 8 24 9 25 10 26 11
REMARK SMILES IDX 27 12 28 13 29 14 30 15 31 16 32 17 15 18 14 19 13 20 12 21
REMARK SMILES IDX 11 22 10 23 9 24 8 25 7 26 6 27 5 28 4 29 3 30 2 31 1 32
REMARK H PARENT
REMARK Flexibility Score: inf
ROOT
ATOM      1  C   UNL     1      26.546  11.166  27.290  1.00  0.00     0.000 C 
ENDROOT
BRANCH   1   2
ATOM      2  C   UNL     1      26.015   9.853  27.891  1.00  0.00     0.000 C 
BRANCH   2   3
ATOM      3  C   UNL     1      24.544   9.948  28.321  1.00  0.00     0.000 C 
BRANCH   3   4
ATOM      4  C   UNL     1      23.567   9.596  27.185  1.00  0.00     0.000 C 
BRANCH   4   5
ATOM      5  C   UNL     1      22.623  10.759  26.823  1.00  0.00     0.000 C 
BRANCH   5   6
ATOM      6  C   UNL     1      23.165  11.726  25.755  1.00  0.00     0.000 C 
BRANCH   6   7
ATOM      7  C   UNL     1      22.566  11.479  24.359  1.00  0.00     0.000 C 
BRANCH   7   8
ATOM      8  C   UNL     1      23.617  10.935  23.368  1.00  0.00     0.000 C 
BRANCH   8   9
ATOM      9  C   UNL     1      25.062  11.004  23.891  1.00  0.00     0.000 C 
BRANCH   9  10
ATOM     10  C   UNL     1      25.892   9.759  23.528  1.00  0.00     0.000 C 
BRANCH  10  11
ATOM     11  C   UNL     1      25.232   8.448  24.004  1.00  0.00     0.000 C 
BRANCH  11  12
ATOM     12  C   UNL     1      26.029   7.707  25.090  1.00  0.00     0.000 C 
BRANCH  12  13
ATOM     13  C   UNL     1      25.219   6.594  25.776  1.00  0.00     0.006 C 
BRANCH  13  14
ATOM     14  C   UNL     1      25.779   6.240  27.161  1.00  0.00     0.053 C 
BRANCH  14  15
ATOM     15  C   UNL     1      24.702   6.199  28.204  1.00  0.00     0.041 C 
ATOM     16  O   UNL     1      24.974   6.457  29.406  1.00  0.00    -0.550 OA
ATOM     17  O   UNL     1      23.408   5.839  27.853  1.00  0.00    -0.550 OA
ENDBRANCH  14  15
ENDBRANCH  13  14
ENDBRANCH  12  13
ENDBRANCH  11  12
ENDBRANCH  10  11
ENDBRANCH   9  10
ENDBRANCH   8   9
ENDBRANCH   7   8
ENDBRANCH   6   7
ENDBRANCH   5   6
ENDBRANCH   4   5
ENDBRANCH   3   4
ENDBRANCH   2   3
ENDBRANCH   1   2
BRANCH   1  18
ATOM     18  C   UNL     1      26.959  12.187  28.362  1.00  0.00     0.000 C 
BRANCH  18  19
ATOM     19  C   UNL     1      28.461  12.520  28.320  1.00  0.00     0.000 C 
BRANCH  19  20
ATOM     20  C   UNL     1      29.245  11.820  29.443  1.00  0.00     0.000 C 
BRANCH  20  21
ATOM     21  C   UNL     1      30.154  10.697  28.915  1.00  0.00     0.000 C 
BRANCH  21  22
ATOM     22  C   UNL     1      29.487   9.309  29.010  1.00  0.00     0.000 C 
BRANCH  22  23
ATOM     23  C   UNL     1      29.523   8.510  27.695  1.00  0.00     0.000 C 
BRANCH  23  24
ATOM     24  C   UNL     1      30.152   9.295  26.532  1.00  0.00    -0.000 C 
BRANCH  24  25
ATOM     25  C   UNL     1      29.162   9.545  25.384  1.00  0.00    -0.000 C 
BRANCH  25  26
ATOM     26  C   UNL     1      29.435  10.863  24.646  1.00  0.00    -0.000 C 
BRANCH  26  27
ATOM     27  C   UNL     1      30.478  11.704  25.397  1.00  0.00    -0.000 C 
BRANCH  27  28
ATOM     28  C   UNL     1      31.755  11.947  24.568  1.00  0.00    -0.000 C 
BRANCH  28  29
ATOM     29  C   UNL     1      31.509  12.662  23.225  1.00  0.00    -0.000 C 
BRANCH  29  30
ATOM     30  C   UNL     1      30.822  14.036  23.358  1.00  0.00    -0.000 C 
BRANCH  30  31
ATOM     31  C   UNL     1      29.975  14.388  22.124  1.00  0.00    -0.003 C 
ATOM     32  C   UNL     1      28.801  13.425  21.971  1.00  0.00     0.004 C 
ENDBRANCH  30  31
ENDBRANCH  29  30
ENDBRANCH  28  29
ENDBRANCH  27  28
ENDBRANCH  26  27
ENDBRANCH  25  26
ENDBRANCH  24  25
ENDBRANCH  23  24
ENDBRANCH  22  23
ENDBRANCH  21  22
ENDBRANCH  20  21
ENDBRANCH  19  20
ENDBRANCH  18  19
ENDBRANCH   1  18
TORSDOF 28
ENDMDL
MODEL 6
REMARK VINA RESULT:    -3.660      1.976      6.402
REMARK INTER + INTRA:         -14.971
REMARK INTER:                  -8.999
REMARK INTRA:                  -5.972
REMARK UNBOUND:                -5.319
REMARK SMILES CCCCCCCCCCCCCCCCCCCCCCCCCCCCCC(=O)[O-]
REMARK SMILES IDX 16 1 17 2 18 3 19 4 20 5 21 6 22 7 23 8 24 9 25 10 26 11
REMARK SMILES IDX 27 12 28 13 29 14 30 15 31 16 32 17 15 18 14 19 13 20 12 21
REMARK SMILES IDX 11 22 10 23 9 24 8 25 7 26 6 27 5 28 4 29 3 30 2 31 1 32
REMARK H PARENT
REMARK Flexibility Score: inf
ROOT
ATOM      1  C   UNL     1      29.495  10.551  25.331  1.00  0.00     0.000 C 
ENDROOT
BRANCH   1   2
ATOM      2  C   UNL     1      29.081   9.096  25.611  1.00  0.00     0.000 C 
BRANCH   2   3
ATOM      3  C   UNL     1      29.774   8.509  26.850  1.00  0.00     0.000 C 
BRANCH   3   4
ATOM      4  C   UNL     1      28.778   7.981  27.896  1.00  0.00     0.000 C 
BRANCH   4   5
ATOM      5  C   UNL     1      27.554   7.290  27.265  1.00  0.00     0.000 C 
BRANCH   5   6
ATOM      6  C   UNL     1      26.293   7.270  28.148  1.00  0.00     0.000 C 
BRANCH   6   7
ATOM      7  C   UNL     1      24.989   7.390  27.340  1.00  0.00     0.000 C 
BRANCH   7   8
ATOM      8  C   UNL     1      25.253   7.796  25.874  1.00  0.00     0.000 C 
BRANCH   8   9
ATOM      9  C   UNL     1      24.754   9.208  25.519  1.00  0.00     0.000 C 
BRANCH   9  10
ATOM     10  C   UNL     1      24.825  10.186  26.707  1.00  0.00     0.000 C 
BRANCH  10  11
ATOM     11  C   UNL     1      26.108  11.043  26.692  1.00  0.00     0.000 C 
BRANCH  11  12
ATOM     12  C   UNL     1      26.770  11.199  28.070  1.00  0.00     0.000 C 
BRANCH  12  13
ATOM     13  C   UNL     1      28.003  12.118  28.044  1.00  0.00     0.006 C 
BRANCH  13  14
ATOM     14  C   UNL     1      28.436  12.546  29.454  1.00  0.00     0.053 C 
BRANCH  14  15
ATOM     15  C   UNL     1      29.756  11.946  29.837  1.00  0.00     0.041 C 
ATOM     16  O   UNL     1      29.977  10.723  29.638  1.00  0.00    -0.550 OA
ATOM     17  O   UNL     1      30.726  12.731  30.447  1.00  0.00    -0.550 OA
ENDBRANCH  14  15
ENDBRANCH  13  14
ENDBRANCH  12  13
ENDBRANCH  11  12
ENDBRANCH  10  11
ENDBRANCH   9  10
ENDBRANCH   8   9
ENDBRANCH   7   8
ENDBRANCH   6   7
ENDBRANCH   5   6
ENDBRANCH   4   5
ENDBRANCH   3   4
ENDBRANCH   2   3
ENDBRANCH   1   2
BRANCH   1  18
ATOM     18  C   UNL     1      30.912  10.874  25.832  1.00  0.00     0.000 C 
BRANCH  18  19
ATOM     19  C   UNL     1      31.674  11.823  24.891  1.00  0.00     0.000 C 
BRANCH  19  20
ATOM     20  C   UNL     1      30.729  12.739  24.095  1.00  0.00     0.000 C 
BRANCH  20  21
ATOM     21  C   UNL     1      31.298  13.121  22.718  1.00  0.00     0.000 C 
BRANCH  21  22
ATOM     22  C   UNL     1      31.130  11.991  21.681  1.00  0.00     0.000 C 
BRANCH  22  23
ATOM     23  C   UNL     1      29.750  11.311  21.720  1.00  0.00     0.000 C 
BRANCH  23  24
ATOM     24  C   UNL     1      29.836   9.777  21.758  1.00  0.00    -0.000 C 
BRANCH  24  25
ATOM     25  C   UNL     1      31.198   9.273  22.261  1.00  0.00    -0.000 C 
BRANCH  25  26
ATOM     26  C   UNL     1      31.492   7.832  21.825  1.00  0.00    -0.000 C 
BRANCH  26  27
ATOM     27  C   UNL     1      30.394   6.877  22.315  1.00  0.00    -0.000 C 
BRANCH  27  28
ATOM     28  C   UNL     1      30.667   6.334  23.732  1.00  0.00    -0.000 C 
BRANCH  28  29
ATOM     29  C   UNL     1      29.493   5.544  24.343  1.00  0.00    -0.000 C 
BRANCH  29  30
ATOM     30  C   UNL     1      28.110   5.944  23.791  1.00  0.00    -0.000 C 
BRANCH  30  31
ATOM     31  C   UNL     1      26.981   5.064  24.352  1.00  0.00    -0.003 C 
ATOM     32  C   UNL     1      27.544   3.885  25.142  1.00  0.00     0.004 C 
ENDBRANCH  30  31
ENDBRANCH  29  30
ENDBRANCH  28  29
ENDBRANCH  27  28
ENDBRANCH  26  27
ENDBRANCH  25  26
ENDBRANCH  24  25
ENDBRANCH  23  24
ENDBRANCH  22  23
ENDBRANCH  21  22
ENDBRANCH  20  21
ENDBRANCH  19  20
ENDBRANCH  18  19
ENDBRANCH   1  18
TORSDOF 28
ENDMDL
MODEL 7
REMARK VINA RESULT:    -3.654      1.506      5.343
REMARK INTER + INTRA:         -14.955
REMARK INTER:                  -9.726
REMARK INTRA:                  -5.228
REMARK UNBOUND:                -5.319
REMARK SMILES CCCCCCCCCCCCCCCCCCCCCCCCCCCCCC(=O)[O-]
REMARK SMILES IDX 16 1 17 2 18 3 19 4 20 5 21 6 22 7 23 8 24 9 25 10 26 11
REMARK SMILES IDX 27 12 28 13 29 14 30 15 31 16 32 17 15 18 14 19 13 20 12 21
REMARK SMILES IDX 11 22 10 23 9 24 8 25 7 26 6 27 5 28 4 29 3 30 2 31 1 32
REMARK H PARENT
REMARK Flexibility Score: inf
ROOT
ATOM      1  C   UNL     1      27.759   4.037  28.014  1.00  0.00     0.000 C 
ENDROOT
BRANCH   1   2
ATOM      2  C   UNL     1      27.007   2.706  28.189  1.00  0.00     0.000 C 
BRANCH   2   3
ATOM      3  C   UNL     1      25.712   2.858  29.002  1.00  0.00     0.000 C 
BRANCH   3   4
ATOM      4  C   UNL     1      25.843   3.878  30.146  1.00  0.00     0.000 C 
BRANCH   4   5
ATOM      5  C   UNL     1      24.876   5.069  30.002  1.00  0.00     0.000 C 
BRANCH   5   6
ATOM      6  C   UNL     1      24.335   5.296  28.578  1.00  0.00     0.000 C 
BRANCH   6   7
ATOM      7  C   UNL     1      24.906   6.560  27.912  1.00  0.00     0.000 C 
BRANCH   7   8
ATOM      8  C   UNL     1      25.632   7.471  28.925  1.00  0.00     0.000 C 
BRANCH   8   9
ATOM      9  C   UNL     1      26.566   8.506  28.275  1.00  0.00     0.000 C 
BRANCH   9  10
ATOM     10  C   UNL     1      25.977   9.928  28.272  1.00  0.00     0.000 C 
BRANCH  10  11
ATOM     11  C   UNL     1      26.358  10.724  27.006  1.00  0.00     0.000 C 
BRANCH  11  12
ATOM     12  C   UNL     1      27.820  11.200  26.986  1.00  0.00     0.000 C 
BRANCH  12  13
ATOM     13  C   UNL     1      28.288  11.762  28.338  1.00  0.00     0.006 C 
BRANCH  13  14
ATOM     14  C   UNL     1      29.789  11.537  28.571  1.00  0.00     0.053 C 
BRANCH  14  15
ATOM     15  C   UNL     1      30.042  10.394  29.507  1.00  0.00     0.041 C 
ATOM     16  O   UNL     1      30.506  10.608  30.658  1.00  0.00    -0.550 OA
ATOM     17  O   UNL     1      29.800   9.090  29.095  1.00  0.00    -0.550 OA
ENDBRANCH  14  15
ENDBRANCH  13  14
ENDBRANCH  12  13
ENDBRANCH  11  12
ENDBRANCH  10  11
ENDBRANCH   9  10
ENDBRANCH   8   9
ENDBRANCH   7   8
ENDBRANCH   6   7
ENDBRANCH   5   6
ENDBRANCH   4   5
ENDBRANCH   3   4
ENDBRANCH   2   3
ENDBRANCH   1   2
BRANCH   1  18
ATOM     18  C   UNL     1      28.253   4.256  26.575  1.00  0.00     0.000 C 
BRANCH  18  19
ATOM     19  C   UNL     1      27.101   4.394  25.564  1.00  0.00     0.000 C 
BRANCH  19  20
ATOM     20  C   UNL     1      27.476   5.292  24.373  1.00  0.00     0.000 C 
BRANCH  20  21
ATOM     21  C   UNL     1      26.320   6.211  23.941  1.00  0.00     0.000 C 
BRANCH  21  22
ATOM     22  C   UNL     1      26.430   7.620  24.561  1.00  0.00     0.000 C 
BRANCH  22  23
ATOM     23  C   UNL     1      27.824   7.943  25.128  1.00  0.00     0.000 C 
BRANCH  23  24
ATOM     24  C   UNL     1      28.686   8.776  24.166  1.00  0.00    -0.000 C 
BRANCH  24  25
ATOM     25  C   UNL     1      29.992   8.066  23.778  1.00  0.00    -0.000 C 
BRANCH  25  26
ATOM     26  C   UNL     1      31.239   8.805  24.283  1.00  0.00    -0.000 C 
BRANCH  26  27
ATOM     27  C   UNL     1      30.892   9.712  25.473  1.00  0.00    -0.000 C 
BRANCH  27  28
ATOM     28  C   UNL     1      31.863  10.900  25.618  1.00  0.00    -0.000 C 
BRANCH  28  29
ATOM     29  C   UNL     1      31.592  12.060  24.641  1.00  0.00    -0.000 C 
BRANCH  29  30
ATOM     30  C   UNL     1      30.099  12.288  24.331  1.00  0.00    -0.000 C 
BRANCH  30  31
ATOM     31  C   UNL     1      29.807  12.278  22.822  1.00  0.00    -0.003 C 
ATOM     32  C   UNL     1      30.979  11.690  22.039  1.00  0.00     0.004 C 
ENDBRANCH  30  31
ENDBRANCH  29  30
ENDBRANCH  28  29
ENDBRANCH  27  28
ENDBRANCH  26  27
ENDBRANCH  25  26
ENDBRANCH  24  25
ENDBRANCH  23  24
ENDBRANCH  22  23
ENDBRANCH  21  22
ENDBRANCH  20  21
ENDBRANCH  19  20
ENDBRANCH  18  19
ENDBRANCH   1  18
TORSDOF 28
ENDMDL
MODEL 8
REMARK VINA RESULT:    -3.607      1.982      5.609
REMARK INTER + INTRA:         -14.830
REMARK INTER:                  -8.976
REMARK INTRA:                  -5.855
REMARK UNBOUND:                -5.319
REMARK SMILES CCCCCCCCCCCCCCCCCCCCCCCCCCCCCC(=O)[O-]
REMARK SMILES IDX 16 1 17 2 18 3 19 4 20 5 21 6 22 7 23 8 24 9 25 10 26 11
REMARK SMILES IDX 27 12 28 13 29 14 30 15 31 16 32 17 15 18 14 19 13 20 12 21
REMARK SMILES IDX 11 22 10 23 9 24 8 25 7 26 6 27 5 28 4 29 3 30 2 31 1 32
REMARK H PARENT
REMARK Flexibility Score: inf
ROOT
ATOM      1  C   UNL     1      27.823  12.164  27.685  1.00  0.00     0.000 C 
ENDROOT
BRANCH   1   2
ATOM      2  C   UNL     1      26.482  11.414  27.602  1.00  0.00     0.000 C 
BRANCH   2   3
ATOM      3  C   UNL     1      26.062  11.106  26.157  1.00  0.00     0.000 C 
BRANCH   3   4
ATOM      4  C   UNL     1      24.537  10.992  25.991  1.00  0.00     0.000 C 
BRANCH   4   5
ATOM      5  C   UNL     1      24.126  10.265  24.697  1.00  0.00     0.000 C 
BRANCH   5   6
ATOM      6  C   UNL     1      25.298   9.826  23.800  1.00  0.00     0.000 C 
BRANCH   6   7
ATOM      7  C   UNL     1      24.945   8.643  22.882  1.00  0.00     0.000 C 
BRANCH   7   8
ATOM      8  C   UNL     1      26.183   8.097  22.139  1.00  0.00     0.000 C 
BRANCH   8   9
ATOM      9  C   UNL     1      27.513   8.711  22.611  1.00  0.00     0.000 C 
BRANCH   9  10
ATOM     10  C   UNL     1      28.618   7.660  22.823  1.00  0.00     0.000 C 
BRANCH  10  11
ATOM     11  C   UNL     1      30.021   8.291  22.940  1.00  0.00     0.000 C 
BRANCH  11  12
ATOM     12  C   UNL     1      30.807   7.838  24.181  1.00  0.00     0.000 C 
BRANCH  12  13
ATOM     13  C   UNL     1      30.863   8.910  25.282  1.00  0.00     0.006 C 
BRANCH  13  14
ATOM     14  C   UNL     1      30.410  10.286  24.773  1.00  0.00     0.053 C 
BRANCH  14  15
ATOM     15  C   UNL     1      31.402  11.359  25.112  1.00  0.00     0.041 C 
ATOM     16  O   UNL     1      32.287  11.149  25.982  1.00  0.00    -0.550 OA
ATOM     17  O   UNL     1      31.323  12.601  24.496  1.00  0.00    -0.550 OA
ENDBRANCH  14  15
ENDBRANCH  13  14
ENDBRANCH  12  13
ENDBRANCH  11  12
ENDBRANCH  10  11
ENDBRANCH   9  10
ENDBRANCH   8   9
ENDBRANCH   7   8
ENDBRANCH   6   7
ENDBRANCH   5   6
ENDBRANCH   4   5
ENDBRANCH   3   4
ENDBRANCH   2   3
ENDBRANCH   1   2
BRANCH   1  18
ATOM     18  C   UNL     1      28.721  11.652  28.823  1.00  0.00     0.000 C 
BRANCH  18  19
ATOM     19  C   UNL     1      29.756  10.618  28.345  1.00  0.00     0.000 C 
BRANCH  19  20
ATOM     20  C   UNL     1      29.477   9.213  28.906  1.00  0.00     0.000 C 
BRANCH  20  21
ATOM     21  C   UNL     1      28.290   8.526  28.210  1.00  0.00     0.000 C 
BRANCH  21  22
ATOM     22  C   UNL     1      28.616   7.078  27.789  1.00  0.00     0.000 C 
BRANCH  22  23
ATOM     23  C   UNL     1      28.057   6.691  26.409  1.00  0.00     0.000 C 
BRANCH  23  24
ATOM     24  C   UNL     1      26.849   7.543  25.989  1.00  0.00    -0.000 C 
BRANCH  24  25
ATOM     25  C   UNL     1      25.524   6.768  26.067  1.00  0.00    -0.000 C 
BRANCH  25  26
ATOM     26  C   UNL     1      24.543   7.378  27.077  1.00  0.00    -0.000 C 
BRANCH  26  27
ATOM     27  C   UNL     1      24.878   6.927  28.506  1.00  0.00    -0.000 C 
BRANCH  27  28
ATOM     28  C   UNL     1      24.747   5.403  28.695  1.00  0.00    -0.000 C 
BRANCH  28  29
ATOM     29  C   UNL     1      26.035   4.714  29.184  1.00  0.00    -0.000 C 
BRANCH  29  30
ATOM     30  C   UNL     1      26.319   3.356  28.509  1.00  0.00    -0.000 C 
BRANCH  30  31
ATOM     31  C   UNL     1      27.599   3.383  27.659  1.00  0.00    -0.003 C 
ATOM     32  C   UNL     1      27.640   2.204  26.689  1.00  0.00     0.004 C 
ENDBRANCH  30  31
ENDBRANCH  29  30
ENDBRANCH  28  29
ENDBRANCH  27  28
ENDBRANCH  26  27
ENDBRANCH  25  26
ENDBRANCH  24  25
ENDBRANCH  23  24
ENDBRANCH  22  23
ENDBRANCH  21  22
ENDBRANCH  20  21
ENDBRANCH  19  20
ENDBRANCH  18  19
ENDBRANCH   1  18
TORSDOF 28
ENDMDL
MODEL 9
REMARK VINA RESULT:    -3.590      1.721      5.284
REMARK INTER + INTRA:         -14.786
REMARK INTER:                  -8.737
REMARK INTRA:                  -6.049
REMARK UNBOUND:                -5.319
REMARK SMILES CCCCCCCCCCCCCCCCCCCCCCCCCCCCCC(=O)[O-]
REMARK SMILES IDX 16 1 17 2 18 3 19 4 20 5 21 6 22 7 23 8 24 9 25 10 26 11
REMARK SMILES IDX 27 12 28 13 29 14 30 15 31 16 32 17 15 18 14 19 13 20 12 21
REMARK SMILES IDX 11 22 10 23 9 24 8 25 7 26 6 27 5 28 4 29 3 30 2 31 1 32
REMARK H PARENT
REMARK Flexibility Score: inf
ROOT
ATOM      1  C   UNL     1      25.556   7.741  29.010  1.00  0.00     0.000 C 
ENDROOT
BRANCH   1   2
ATOM      2  C   UNL     1      24.886   6.469  28.461  1.00  0.00     0.000 C 
BRANCH   2   3
ATOM      3  C   UNL     1      25.773   5.223  28.599  1.00  0.00     0.000 C 
BRANCH   3   4
ATOM      4  C   UNL     1      27.118   5.365  27.865  1.00  0.00     0.000 C 
BRANCH   4   5
ATOM      5  C   UNL     1      26.955   5.550  26.344  1.00  0.00     0.000 C 
BRANCH   5   6
ATOM      6  C   UNL     1      28.190   5.169  25.508  1.00  0.00     0.000 C 
BRANCH   6   7
ATOM      7  C   UNL     1      28.083   5.612  24.039  1.00  0.00     0.000 C 
BRANCH   7   8
ATOM      8  C   UNL     1      28.086   7.149  23.897  1.00  0.00     0.000 C 
BRANCH   8   9
ATOM      9  C   UNL     1      29.336   7.827  24.485  1.00  0.00     0.000 C 
BRANCH   9  10
ATOM     10  C   UNL     1      29.012   8.773  25.655  1.00  0.00     0.000 C 
BRANCH  10  11
ATOM     11  C   UNL     1      29.786   8.413  26.940  1.00  0.00     0.000 C 
BRANCH  11  12
ATOM     12  C   UNL     1      29.032   8.747  28.237  1.00  0.00     0.000 C 
BRANCH  12  13
ATOM     13  C   UNL     1      28.800  10.255  28.427  1.00  0.00     0.006 C 
BRANCH  13  14
ATOM     14  C   UNL     1      30.118  11.044  28.458  1.00  0.00     0.053 C 
BRANCH  14  15
ATOM     15  C   UNL     1      30.557  11.338  29.862  1.00  0.00     0.041 C 
ATOM     16  O   UNL     1      30.994  10.412  30.595  1.00  0.00    -0.550 OA
ATOM     17  O   UNL     1      30.446  12.625  30.370  1.00  0.00    -0.550 OA
ENDBRANCH  14  15
ENDBRANCH  13  14
ENDBRANCH  12  13
ENDBRANCH  11  12
ENDBRANCH  10  11
ENDBRANCH   9  10
ENDBRANCH   8   9
ENDBRANCH   7   8
ENDBRANCH   6   7
ENDBRANCH   5   6
ENDBRANCH   4   5
ENDBRANCH   3   4
ENDBRANCH   2   3
ENDBRANCH   1   2
BRANCH   1  18
ATOM     18  C   UNL     1      25.250   8.987  28.163  1.00  0.00     0.000 C 
BRANCH  18  19
ATOM     19  C   UNL     1      24.429   8.663  26.903  1.00  0.00     0.000 C 
BRANCH  19  20
ATOM     20  C   UNL     1      25.295   8.644  25.632  1.00  0.00     0.000 C 
BRANCH  20  21
ATOM     21  C   UNL     1      24.618   9.353  24.447  1.00  0.00     0.000 C 
BRANCH  21  22
ATOM     22  C   UNL     1      23.703  10.510  24.901  1.00  0.00     0.000 C 
BRANCH  22  23
ATOM     23  C   UNL     1      24.394  11.885  24.902  1.00  0.00     0.000 C 
BRANCH  23  24
ATOM     24  C   UNL     1      24.728  12.390  26.314  1.00  0.00    -0.000 C 
BRANCH  24  25
ATOM     25  C   UNL     1      26.236  12.370  26.608  1.00  0.00    -0.000 C 
BRANCH  25  26
ATOM     26  C   UNL     1      27.068  11.936  25.394  1.00  0.00    -0.000 C 
BRANCH  26  27
ATOM     27  C   UNL     1      28.493  12.503  25.476  1.00  0.00    -0.000 C 
BRANCH  27  28
ATOM     28  C   UNL     1      29.321  12.218  24.208  1.00  0.00    -0.000 C 
BRANCH  28  29
ATOM     29  C   UNL     1      28.570  11.410  23.131  1.00  0.00    -0.000 C 
BRANCH  29  30
ATOM     30  C   UNL     1      29.465  10.914  21.977  1.00  0.00    -0.000 C 
BRANCH  30  31
ATOM     31  C   UNL     1      30.830  10.409  22.471  1.00  0.00    -0.003 C 
ATOM     32  C   UNL     1      31.510   9.540  21.416  1.00  0.00     0.004 C 
ENDBRANCH  30  31
ENDBRANCH  29  30
ENDBRANCH  28  29
ENDBRANCH  27  28
ENDBRANCH  26  27
ENDBRANCH  25  26
ENDBRANCH  24  25
ENDBRANCH  23  24
ENDBRANCH  22  23
ENDBRANCH  21  22
ENDBRANCH  20  21
ENDBRANCH  19  20
ENDBRANCH  18  19
ENDBRANCH   1  18
TORSDOF 28
ENDMDL
