MODEL 1
REMARK VINA RESULT:    12.893      0.000      0.000
REMARK INTER + INTRA:          14.881
REMARK INTER:                  15.154
REMARK INTRA:                  -0.273
REMARK UNBOUND:                -0.273
REMARK SMILES O=c1cc(-c2ccc(O)c(O)c2)oc2cc(O)cc(O)c12
REMARK SMILES IDX 4 1 3 2 2 3 1 4 21 5 19 6 18 7 16 8 15 9 14 10 13 11 5 12
REMARK SMILES IDX 6 13 7 14 8 15 12 16 10 17 9 18 11 20 20 22 17 24
REMARK H PARENT 9 19 11 21 20 23 17 25
REMARK Flexibility Score: inf
ROOT
ATOM      1  C   UNL     1      89.967  18.093 120.298  1.00  0.00     0.138 A 
ATOM      2  C   UNL     1      89.772  19.446 120.605  1.00  0.00     0.100 A 
ATOM      3  C   UNL     1      88.477  19.931 120.794  1.00  0.00     0.197 A 
ATOM      4  O   UNL     1      88.339  21.137 121.125  1.00  0.00    -0.289 OA
ATOM      5  C   UNL     1      87.370  19.063 120.640  1.00  0.00     0.107 A 
ATOM      6  C   UNL     1      86.003  19.454 120.775  1.00  0.00     0.134 A 
ATOM      7  C   UNL     1      84.997  18.482 120.696  1.00  0.00     0.093 A 
ATOM      8  C   UNL     1      85.304  17.146 120.429  1.00  0.00     0.123 A 
ATOM      9  C   UNL     1      86.631  16.764 120.245  1.00  0.00     0.094 A 
ATOM     10  C   UNL     1      87.660  17.701 120.353  1.00  0.00     0.146 A 
ATOM     11  O   UNL     1      88.912  17.291 120.189  1.00  0.00    -0.456 OA
ENDROOT
BRANCH   1  12
ATOM     12  C   UNL     1      91.321  17.523 120.082  1.00  0.00     0.021 A 
ATOM     13  C   UNL     1      92.263  17.440 121.125  1.00  0.00     0.016 A 
ATOM     14  C   UNL     1      93.528  16.890 120.896  1.00  0.00     0.051 A 
ATOM     15  C   UNL     1      93.870  16.407 119.626  1.00  0.00     0.157 A 
ATOM     16  C   UNL     1      91.669  17.024 118.814  1.00  0.00     0.062 A 
ATOM     17  C   UNL     1      92.934  16.473 118.582  1.00  0.00     0.158 A 
BRANCH  15  18
ATOM     18  O   UNL     1      95.132  15.861 119.401  1.00  0.00    -0.504 OA
ATOM     19  H   UNL     1      95.635  16.024 118.537  1.00  0.00     0.293 HD
ENDBRANCH  15  18
BRANCH  17  20
ATOM     20  O   UNL     1      93.242  15.998 117.307  1.00  0.00    -0.504 OA
ATOM     21  H   UNL     1      93.880  15.225 117.160  1.00  0.00     0.293 HD
ENDBRANCH  17  20
ENDBRANCH   1  12
BRANCH   6  22
ATOM     22  O   UNL     1      85.580  20.772 120.963  1.00  0.00    -0.507 OA
ATOM     23  H   UNL     1      85.151  21.130 121.803  1.00  0.00     0.293 HD
ENDBRANCH   6  22
BRANCH   8  24
ATOM     24  O   UNL     1      84.295  16.190 120.336  1.00  0.00    -0.508 OA
ATOM     25  H   UNL     1      84.248  15.405 120.975  1.00  0.00     0.293 HD
ENDBRANCH   8  24
TORSDOF 5
ENDMDL
MODEL 2
REMARK VINA RESULT:    13.283      1.622      7.012
REMARK INTER + INTRA:          15.340
REMARK INTER:                  15.625
REMARK INTRA:                  -0.285
REMARK UNBOUND:                -0.273
REMARK SMILES O=c1cc(-c2ccc(O)c(O)c2)oc2cc(O)cc(O)c12
REMARK SMILES IDX 4 1 3 2 2 3 1 4 21 5 19 6 18 7 16 8 15 9 14 10 13 11 5 12
REMARK SMILES IDX 6 13 7 14 8 15 12 16 10 17 9 18 11 20 20 22 17 24
REMARK H PARENT 9 19 11 21 20 23 17 25
REMARK Flexibility Score: inf
ROOT
ATOM      1  C   UNL     1      90.535  17.907 120.002  1.00  0.00     0.138 A 
ATOM      2  C   UNL     1      91.374  18.716 119.224  1.00  0.00     0.100 A 
ATOM      3  C   UNL     1      92.683  18.308 118.967  1.00  0.00     0.197 A 
ATOM      4  O   UNL     1      93.392  19.030 118.219  1.00  0.00    -0.289 OA
ATOM      5  C   UNL     1      93.165  17.100 119.523  1.00  0.00     0.107 A 
ATOM      6  C   UNL     1      94.493  16.599 119.357  1.00  0.00     0.134 A 
ATOM      7  C   UNL     1      94.825  15.340 119.874  1.00  0.00     0.093 A 
ATOM      8  C   UNL     1      93.896  14.591 120.600  1.00  0.00     0.123 A 
ATOM      9  C   UNL     1      92.614  15.093 120.810  1.00  0.00     0.094 A 
ATOM     10  C   UNL     1      92.240  16.328 120.278  1.00  0.00     0.146 A 
ATOM     11  O   UNL     1      91.002  16.761 120.486  1.00  0.00    -0.456 OA
ENDROOT
BRANCH   1  12
ATOM     12  C   UNL     1      89.135  18.294 120.310  1.00  0.00     0.021 A 
ATOM     13  C   UNL     1      88.817  19.552 120.854  1.00  0.00     0.016 A 
ATOM     14  C   UNL     1      87.488  19.892 121.125  1.00  0.00     0.051 A 
ATOM     15  C   UNL     1      86.455  18.987 120.850  1.00  0.00     0.157 A 
ATOM     16  C   UNL     1      88.090  17.396 120.024  1.00  0.00     0.062 A 
ATOM     17  C   UNL     1      86.759  17.734 120.294  1.00  0.00     0.158 A 
BRANCH  15  18
ATOM     18  O   UNL     1      85.132  19.329 121.122  1.00  0.00    -0.504 OA
ATOM     19  H   UNL     1      84.846  19.658 122.037  1.00  0.00     0.293 HD
ENDBRANCH  15  18
BRANCH  17  20
ATOM     20  O   UNL     1      85.755  16.811 120.005  1.00  0.00    -0.504 OA
ATOM     21  H   UNL     1      85.851  15.825 120.220  1.00  0.00     0.293 HD
ENDBRANCH  17  20
ENDBRANCH   1  12
BRANCH   6  22
ATOM     22  O   UNL     1      95.520  17.300 118.720  1.00  0.00    -0.507 OA
ATOM     23  H   UNL     1      96.432  17.477 119.112  1.00  0.00     0.293 HD
ENDBRANCH   6  22
BRANCH   8  24
ATOM     24  O   UNL     1      94.241  13.347 121.124  1.00  0.00    -0.508 OA
ATOM     25  H   UNL     1      95.084  13.217 121.671  1.00  0.00     0.293 HD
ENDBRANCH   8  24
TORSDOF 5
ENDMDL
