MODEL 1
REMARK VINA RESULT:    13.911      0.000      0.000
REMARK INTER + INTRA:          33.541
REMARK INTER:                  35.055
REMARK INTRA:                  -1.514
REMARK UNBOUND:                -1.514
REMARK SMILES CCCCCCCCCCCCCCCCCCCCCCCCCCCC(=O)[O-]
REMARK SMILES IDX 15 1 16 2 17 3 18 4 19 5 20 6 21 7 22 8 23 9 24 10 25 11
REMARK SMILES IDX 26 12 27 13 28 14 29 15 30 16 14 17 13 18 12 19 11 20 10 21
REMARK SMILES IDX 9 22 8 23 7 24 6 25 5 26 4 27 3 28 2 29 1 30
REMARK H PARENT
REMARK Flexibility Score: inf
ROOT
ATOM      1  C   UNL     1     -36.592   8.280   3.799  1.00  0.00     0.000 C 
ENDROOT
BRANCH   1   2
ATOM      2  C   UNL     1     -37.148   7.110   4.636  1.00  0.00     0.000 C 
BRANCH   2   3
ATOM      3  C   UNL     1     -38.613   7.266   5.093  1.00  0.00     0.000 C 
BRANCH   3   4
ATOM      4  C   UNL     1     -39.272   5.974   5.606  1.00  0.00     0.000 C 
BRANCH   4   5
ATOM      5  C   UNL     1     -39.975   6.161   6.962  1.00  0.00     0.000 C 
BRANCH   5   6
ATOM      6  C   UNL     1     -39.548   7.452   7.684  1.00  0.00     0.000 C 
BRANCH   6   7
ATOM      7  C   UNL     1     -40.685   8.454   7.960  1.00  0.00     0.000 C 
BRANCH   7   8
ATOM      8  C   UNL     1     -40.376   9.869   7.442  1.00  0.00     0.000 C 
BRANCH   8   9
ATOM      9  C   UNL     1     -41.450  10.392   6.474  1.00  0.00     0.000 C 
BRANCH   9  10
ATOM     10  C   UNL     1     -40.879  10.773   5.100  1.00  0.00     0.000 C 
BRANCH  10  11
ATOM     11  C   UNL     1     -41.538   9.946   3.986  1.00  0.00     0.000 C 
BRANCH  11  12
ATOM     12  C   UNL     1     -41.844  10.775   2.724  1.00  0.00     0.006 C 
BRANCH  12  13
ATOM     13  C   UNL     1     -43.141  10.374   2.002  1.00  0.00     0.053 C 
BRANCH  13  14
ATOM     14  C   UNL     1     -42.941   9.204   1.089  1.00  0.00     0.041 C 
ATOM     15  O   UNL     1     -42.653   9.389  -0.122  1.00  0.00    -0.550 OA
ATOM     16  O   UNL     1     -43.098   7.910   1.570  1.00  0.00    -0.550 OA
ENDBRANCH  13  14
ENDBRANCH  12  13
ENDBRANCH  11  12
ENDBRANCH  10  11
ENDBRANCH   9  10
ENDBRANCH   8   9
ENDBRANCH   7   8
ENDBRANCH   6   7
ENDBRANCH   5   6
ENDBRANCH   4   5
ENDBRANCH   3   4
ENDBRANCH   2   3
ENDBRANCH   1   2
BRANCH   1  17
ATOM     17  C   UNL     1     -35.078   8.516   3.941  1.00  0.00     0.000 C 
BRANCH  17  18
ATOM     18  C   UNL     1     -34.475   9.251   2.732  1.00  0.00     0.000 C 
BRANCH  18  19
ATOM     19  C   UNL     1     -33.194   8.576   2.216  1.00  0.00     0.000 C 
BRANCH  19  20
ATOM     20  C   UNL     1     -32.864   8.971   0.765  1.00  0.00     0.000 C 
BRANCH  20  21
ATOM     21  C   UNL     1     -32.395   7.777  -0.080  1.00  0.00     0.000 C 
BRANCH  21  22
ATOM     22  C   UNL     1     -31.214   7.032   0.562  1.00  0.00    -0.000 C 
BRANCH  22  23
ATOM     23  C   UNL     1     -30.072   6.843  -0.443  1.00  0.00    -0.000 C 
BRANCH  23  24
ATOM     24  C   UNL     1     -28.895   7.774  -0.116  1.00  0.00    -0.000 C 
BRANCH  24  25
ATOM     25  C   UNL     1     -27.764   7.686  -1.152  1.00  0.00    -0.000 C 
BRANCH  25  26
ATOM     26  C   UNL     1     -28.195   8.183  -2.543  1.00  0.00    -0.000 C 
BRANCH  26  27
ATOM     27  C   UNL     1     -27.085   7.997  -3.599  1.00  0.00    -0.000 C 
BRANCH  27  28
ATOM     28  C   UNL     1     -27.600   7.970  -5.051  1.00  0.00    -0.000 C 
BRANCH  28  29
ATOM     29  C   UNL     1     -26.955   9.026  -5.971  1.00  0.00    -0.003 C 
ATOM     30  C   UNL     1     -25.732   8.492  -6.717  1.00  0.00     0.004 C 
ENDBRANCH  28  29
ENDBRANCH  27  28
ENDBRANCH  26  27
ENDBRANCH  25  26
ENDBRANCH  24  25
ENDBRANCH  23  24
ENDBRANCH  22  23
ENDBRANCH  21  22
ENDBRANCH  20  21
ENDBRANCH  19  20
ENDBRANCH  18  19
ENDBRANCH  17  18
ENDBRANCH   1  17
TORSDOF 26
ENDMDL
MODEL 2
REMARK VINA RESULT:    14.437      0.811      1.478
REMARK INTER + INTRA:          34.866
REMARK INTER:                  35.412
REMARK INTRA:                  -0.545
REMARK UNBOUND:                -1.514
REMARK SMILES CCCCCCCCCCCCCCCCCCCCCCCCCCCC(=O)[O-]
REMARK SMILES IDX 15 1 16 2 17 3 18 4 19 5 20 6 21 7 22 8 23 9 24 10 25 11
REMARK SMILES IDX 26 12 27 13 28 14 29 15 30 16 14 17 13 18 12 19 11 20 10 21
REMARK SMILES IDX 9 22 8 23 7 24 6 25 5 26 4 27 3 28 2 29 1 30
REMARK H PARENT
REMARK Flexibility Score: inf
ROOT
ATOM      1  C   UNL     1     -35.191   8.554   3.842  1.00  0.00     0.000 C 
ENDROOT
BRANCH   1   2
ATOM      2  C   UNL     1     -36.639   8.110   3.550  1.00  0.00     0.000 C 
BRANCH   2   3
ATOM      3  C   UNL     1     -37.219   7.067   4.527  1.00  0.00     0.000 C 
BRANCH   3   4
ATOM      4  C   UNL     1     -38.535   7.481   5.209  1.00  0.00     0.000 C 
BRANCH   4   5
ATOM      5  C   UNL     1     -39.224   6.310   5.932  1.00  0.00     0.000 C 
BRANCH   5   6
ATOM      6  C   UNL     1     -39.957   6.747   7.214  1.00  0.00     0.000 C 
BRANCH   6   7
ATOM      7  C   UNL     1     -40.204   8.262   7.342  1.00  0.00     0.000 C 
BRANCH   7   8
ATOM      8  C   UNL     1     -40.908   8.860   6.113  1.00  0.00     0.000 C 
BRANCH   8   9
ATOM      9  C   UNL     1     -41.131  10.376   6.238  1.00  0.00     0.000 C 
BRANCH   9  10
ATOM     10  C   UNL     1     -40.588  11.159   5.033  1.00  0.00     0.000 C 
BRANCH  10  11
ATOM     11  C   UNL     1     -40.923  10.441   3.718  1.00  0.00     0.000 C 
BRANCH  11  12
ATOM     12  C   UNL     1     -42.416  10.084   3.592  1.00  0.00     0.006 C 
BRANCH  12  13
ATOM     13  C   UNL     1     -42.737   9.082   2.471  1.00  0.00     0.053 C 
BRANCH  13  14
ATOM     14  C   UNL     1     -43.023   9.764   1.169  1.00  0.00     0.041 C 
ATOM     15  O   UNL     1     -42.487   9.351   0.107  1.00  0.00    -0.550 OA
ATOM     16  O   UNL     1     -43.860  10.873   1.131  1.00  0.00    -0.550 OA
ENDBRANCH  13  14
ENDBRANCH  12  13
ENDBRANCH  11  12
ENDBRANCH  10  11
ENDBRANCH   9  10
ENDBRANCH   8   9
ENDBRANCH   7   8
ENDBRANCH   6   7
ENDBRANCH   5   6
ENDBRANCH   4   5
ENDBRANCH   3   4
ENDBRANCH   2   3
ENDBRANCH   1   2
BRANCH   1  17
ATOM     17  C   UNL     1     -34.492   9.288   2.685  1.00  0.00     0.000 C 
BRANCH  17  18
ATOM     18  C   UNL     1     -33.142   8.653   2.309  1.00  0.00     0.000 C 
BRANCH  18  19
ATOM     19  C   UNL     1     -32.817   8.810   0.815  1.00  0.00     0.000 C 
BRANCH  19  20
ATOM     20  C   UNL     1     -32.292   7.506   0.187  1.00  0.00     0.000 C 
BRANCH  20  21
ATOM     21  C   UNL     1     -30.857   7.177   0.624  1.00  0.00     0.000 C 
BRANCH  21  22
ATOM     22  C   UNL     1     -29.906   6.995  -0.569  1.00  0.00    -0.000 C 
BRANCH  22  23
ATOM     23  C   UNL     1     -28.476   7.404  -0.200  1.00  0.00    -0.000 C 
BRANCH  23  24
ATOM     24  C   UNL     1     -27.860   8.290  -1.293  1.00  0.00    -0.000 C 
BRANCH  24  25
ATOM     25  C   UNL     1     -28.069   7.722  -2.704  1.00  0.00    -0.000 C 
BRANCH  25  26
ATOM     26  C   UNL     1     -27.777   8.754  -3.809  1.00  0.00    -0.000 C 
BRANCH  26  27
ATOM     27  C   UNL     1     -28.325   8.311  -5.181  1.00  0.00    -0.000 C 
BRANCH  27  28
ATOM     28  C   UNL     1     -27.254   8.223  -6.285  1.00  0.00    -0.000 C 
BRANCH  28  29
ATOM     29  C   UNL     1     -25.808   8.397  -5.779  1.00  0.00    -0.003 C 
ATOM     30  C   UNL     1     -24.875   8.979  -6.842  1.00  0.00     0.004 C 
ENDBRANCH  28  29
ENDBRANCH  27  28
ENDBRANCH  26  27
ENDBRANCH  25  26
ENDBRANCH  24  25
ENDBRANCH  23  24
ENDBRANCH  22  23
ENDBRANCH  21  22
ENDBRANCH  20  21
ENDBRANCH  19  20
ENDBRANCH  18  19
ENDBRANCH  17  18
ENDBRANCH   1  17
TORSDOF 26
ENDMDL
MODEL 3
REMARK VINA RESULT:    14.611      4.698     13.395
REMARK INTER + INTRA:          35.306
REMARK INTER:                  35.026
REMARK INTRA:                   0.280
REMARK UNBOUND:                -1.514
REMARK SMILES CCCCCCCCCCCCCCCCCCCCCCCCCCCC(=O)[O-]
REMARK SMILES IDX 15 1 16 2 17 3 18 4 19 5 20 6 21 7 22 8 23 9 24 10 25 11
REMARK SMILES IDX 26 12 27 13 28 14 29 15 30 16 14 17 13 18 12 19 11 20 10 21
REMARK SMILES IDX 9 22 8 23 7 24 6 25 5 26 4 27 3 28 2 29 1 30
REMARK H PARENT
REMARK Flexibility Score: inf
ROOT
ATOM      1  C   UNL     1     -35.145   8.531   3.674  1.00  0.00     0.000 C 
ENDROOT
BRANCH   1   2
ATOM      2  C   UNL     1     -34.373   9.352   2.621  1.00  0.00     0.000 C 
BRANCH   2   3
ATOM      3  C   UNL     1     -33.117   8.668   2.044  1.00  0.00     0.000 C 
BRANCH   3   4
ATOM      4  C   UNL     1     -33.049   8.629   0.507  1.00  0.00     0.000 C 
BRANCH   4   5
ATOM      5  C   UNL     1     -31.924   7.718  -0.016  1.00  0.00     0.000 C 
BRANCH   5   6
ATOM      6  C   UNL     1     -31.121   7.050   1.115  1.00  0.00     0.000 C 
BRANCH   6   7
ATOM      7  C   UNL     1     -29.590   7.097   0.945  1.00  0.00     0.000 C 
BRANCH   7   8
ATOM      8  C   UNL     1     -29.156   7.566  -0.453  1.00  0.00     0.000 C 
BRANCH   8   9
ATOM      9  C   UNL     1     -27.690   8.029  -0.494  1.00  0.00     0.000 C 
BRANCH   9  10
ATOM     10  C   UNL     1     -27.153   8.176  -1.925  1.00  0.00     0.000 C 
BRANCH  10  11
ATOM     11  C   UNL     1     -28.241   7.842  -2.956  1.00  0.00     0.000 C 
BRANCH  11  12
ATOM     12  C   UNL     1     -28.050   8.584  -4.292  1.00  0.00     0.006 C 
BRANCH  12  13
ATOM     13  C   UNL     1     -27.301   7.776  -5.365  1.00  0.00     0.053 C 
BRANCH  13  14
ATOM     14  C   UNL     1     -26.372   8.632  -6.170  1.00  0.00     0.041 C 
ATOM     15  O   UNL     1     -26.832   9.504  -6.951  1.00  0.00    -0.550 OA
ATOM     16  O   UNL     1     -24.998   8.447  -6.076  1.00  0.00    -0.550 OA
ENDBRANCH  13  14
ENDBRANCH  12  13
ENDBRANCH  11  12
ENDBRANCH  10  11
ENDBRANCH   9  10
ENDBRANCH   8   9
ENDBRANCH   7   8
ENDBRANCH   6   7
ENDBRANCH   5   6
ENDBRANCH   4   5
ENDBRANCH   3   4
ENDBRANCH   2   3
ENDBRANCH   1   2
BRANCH   1  17
ATOM     17  C   UNL     1     -36.645   8.347   3.380  1.00  0.00     0.000 C 
BRANCH  17  18
ATOM     18  C   UNL     1     -37.187   6.998   3.884  1.00  0.00     0.000 C 
BRANCH  18  19
ATOM     19  C   UNL     1     -37.659   7.067   5.345  1.00  0.00     0.000 C 
BRANCH  19  20
ATOM     20  C   UNL     1     -39.177   7.291   5.463  1.00  0.00     0.000 C 
BRANCH  20  21
ATOM     21  C   UNL     1     -39.768   6.672   6.739  1.00  0.00     0.000 C 
BRANCH  21  22
ATOM     22  C   UNL     1     -39.784   7.657   7.917  1.00  0.00    -0.000 C 
BRANCH  22  23
ATOM     23  C   UNL     1     -40.489   8.963   7.533  1.00  0.00    -0.000 C 
BRANCH  23  24
ATOM     24  C   UNL     1     -40.443   9.184   6.014  1.00  0.00    -0.000 C 
BRANCH  24  25
ATOM     25  C   UNL     1     -41.230  10.427   5.572  1.00  0.00    -0.000 C 
BRANCH  25  26
ATOM     26  C   UNL     1     -41.173  10.654   4.050  1.00  0.00    -0.000 C 
BRANCH  26  27
ATOM     27  C   UNL     1     -42.385  10.037   3.323  1.00  0.00    -0.000 C 
BRANCH  27  28
ATOM     28  C   UNL     1     -42.662  10.651   1.936  1.00  0.00    -0.000 C 
BRANCH  28  29
ATOM     29  C   UNL     1     -43.494   9.751   1.001  1.00  0.00    -0.003 C 
ATOM     30  C   UNL     1     -42.625   8.892   0.081  1.00  0.00     0.004 C 
ENDBRANCH  28  29
ENDBRANCH  27  28
ENDBRANCH  26  27
ENDBRANCH  25  26
ENDBRANCH  24  25
ENDBRANCH  23  24
ENDBRANCH  22  23
ENDBRANCH  21  22
ENDBRANCH  20  21
ENDBRANCH  19  20
ENDBRANCH  18  19
ENDBRANCH  17  18
ENDBRANCH   1  17
TORSDOF 26
ENDMDL
MODEL 4
REMARK VINA RESULT:    15.629      8.353     10.997
REMARK INTER + INTRA:          37.871
REMARK INTER:                  39.266
REMARK INTRA:                  -1.395
REMARK UNBOUND:                -1.514
REMARK SMILES CCCCCCCCCCCCCCCCCCCCCCCCCCCC(=O)[O-]
REMARK SMILES IDX 15 1 16 2 17 3 18 4 19 5 20 6 21 7 22 8 23 9 24 10 25 11
REMARK SMILES IDX 26 12 27 13 28 14 29 15 30 16 14 17 13 18 12 19 11 20 10 21
REMARK SMILES IDX 9 22 8 23 7 24 6 25 5 26 4 27 3 28 2 29 1 30
REMARK H PARENT
REMARK Flexibility Score: inf
ROOT
ATOM      1  C   UNL     1     -28.705   7.777   5.358  1.00  0.00     0.000 C 
ENDROOT
BRANCH   1   2
ATOM      2  C   UNL     1     -28.585   6.635   6.388  1.00  0.00     0.000 C 
BRANCH   2   3
ATOM      3  C   UNL     1     -27.168   6.051   6.561  1.00  0.00     0.000 C 
BRANCH   3   4
ATOM      4  C   UNL     1     -27.006   5.087   7.749  1.00  0.00     0.000 C 
BRANCH   4   5
ATOM      5  C   UNL     1     -25.534   4.745   8.042  1.00  0.00     0.000 C 
BRANCH   5   6
ATOM      6  C   UNL     1     -24.919   5.634   9.138  1.00  0.00     0.000 C 
BRANCH   6   7
ATOM      7  C   UNL     1     -24.988   5.055  10.564  1.00  0.00     0.000 C 
BRANCH   7   8
ATOM      8  C   UNL     1     -26.279   5.439  11.306  1.00  0.00     0.000 C 
BRANCH   8   9
ATOM      9  C   UNL     1     -27.241   4.252  11.472  1.00  0.00     0.000 C 
BRANCH   9  10
ATOM     10  C   UNL     1     -28.638   4.533  10.896  1.00  0.00     0.000 C 
BRANCH  10  11
ATOM     11  C   UNL     1     -29.570   5.102  11.976  1.00  0.00     0.000 C 
BRANCH  11  12
ATOM     12  C   UNL     1     -29.239   6.560  12.347  1.00  0.00     0.006 C 
BRANCH  12  13
ATOM     13  C   UNL     1     -30.000   7.612  11.523  1.00  0.00     0.053 C 
BRANCH  13  14
ATOM     14  C   UNL     1     -30.087   8.929  12.232  1.00  0.00     0.041 C 
ATOM     15  O   UNL     1     -29.129   9.743  12.173  1.00  0.00    -0.550 OA
ATOM     16  O   UNL     1     -31.214   9.245  12.980  1.00  0.00    -0.550 OA
ENDBRANCH  13  14
ENDBRANCH  12  13
ENDBRANCH  11  12
ENDBRANCH  10  11
ENDBRANCH   9  10
ENDBRANCH   8   9
ENDBRANCH   7   8
ENDBRANCH   6   7
ENDBRANCH   5   6
ENDBRANCH   4   5
ENDBRANCH   3   4
ENDBRANCH   2   3
ENDBRANCH   1   2
BRANCH   1  17
ATOM     17  C   UNL     1     -28.740   7.323   3.888  1.00  0.00     0.000 C 
BRANCH  17  18
ATOM     18  C   UNL     1     -30.112   7.547   3.230  1.00  0.00     0.000 C 
BRANCH  18  19
ATOM     19  C   UNL     1     -30.124   7.139   1.748  1.00  0.00     0.000 C 
BRANCH  19  20
ATOM     20  C   UNL     1     -31.532   7.211   1.130  1.00  0.00     0.000 C 
BRANCH  20  21
ATOM     21  C   UNL     1     -31.500   7.292  -0.403  1.00  0.00     0.000 C 
BRANCH  21  22
ATOM     22  C   UNL     1     -30.175   6.784  -0.992  1.00  0.00    -0.000 C 
BRANCH  22  23
ATOM     23  C   UNL     1     -30.365   6.290  -2.430  1.00  0.00    -0.000 C 
BRANCH  23  24
ATOM     24  C   UNL     1     -29.301   6.889  -3.361  1.00  0.00    -0.000 C 
BRANCH  24  25
ATOM     25  C   UNL     1     -28.365   7.869  -2.638  1.00  0.00    -0.000 C 
BRANCH  25  26
ATOM     26  C   UNL     1     -27.330   8.506  -3.582  1.00  0.00    -0.000 C 
BRANCH  26  27
ATOM     27  C   UNL     1     -27.447   7.970  -5.024  1.00  0.00    -0.000 C 
BRANCH  27  28
ATOM     28  C   UNL     1     -27.423   9.068  -6.105  1.00  0.00    -0.000 C 
BRANCH  28  29
ATOM     29  C   UNL     1     -26.024   9.352  -6.687  1.00  0.00    -0.003 C 
ATOM     30  C   UNL     1     -24.979   8.329  -6.242  1.00  0.00     0.004 C 
ENDBRANCH  28  29
ENDBRANCH  27  28
ENDBRANCH  26  27
ENDBRANCH  25  26
ENDBRANCH  24  25
ENDBRANCH  23  24
ENDBRANCH  22  23
ENDBRANCH  21  22
ENDBRANCH  20  21
ENDBRANCH  19  20
ENDBRANCH  18  19
ENDBRANCH  17  18
ENDBRANCH   1  17
TORSDOF 26
ENDMDL
MODEL 5
REMARK VINA RESULT:    15.713      8.398     11.213
REMARK INTER + INTRA:          38.082
REMARK INTER:                  36.023
REMARK INTRA:                   2.059
REMARK UNBOUND:                -1.514
REMARK SMILES CCCCCCCCCCCCCCCCCCCCCCCCCCCC(=O)[O-]
REMARK SMILES IDX 15 1 16 2 17 3 18 4 19 5 20 6 21 7 22 8 23 9 24 10 25 11
REMARK SMILES IDX 26 12 27 13 28 14 29 15 30 16 14 17 13 18 12 19 11 20 10 21
REMARK SMILES IDX 9 22 8 23 7 24 6 25 5 26 4 27 3 28 2 29 1 30
REMARK H PARENT
REMARK Flexibility Score: inf
ROOT
ATOM      1  C   UNL     1     -30.480   7.497   3.415  1.00  0.00     0.000 C 
ENDROOT
BRANCH   1   2
ATOM      2  C   UNL     1     -30.125   6.988   4.827  1.00  0.00     0.000 C 
BRANCH   2   3
ATOM      3  C   UNL     1     -28.733   7.402   5.346  1.00  0.00     0.000 C 
BRANCH   3   4
ATOM      4  C   UNL     1     -28.241   6.618   6.575  1.00  0.00     0.000 C 
BRANCH   4   5
ATOM      5  C   UNL     1     -27.143   5.596   6.229  1.00  0.00     0.000 C 
BRANCH   5   6
ATOM      6  C   UNL     1     -25.934   5.672   7.179  1.00  0.00     0.000 C 
BRANCH   6   7
ATOM      7  C   UNL     1     -26.115   4.950   8.527  1.00  0.00     0.000 C 
BRANCH   7   8
ATOM      8  C   UNL     1     -25.680   5.805   9.729  1.00  0.00     0.000 C 
BRANCH   8   9
ATOM      9  C   UNL     1     -25.356   4.959  10.971  1.00  0.00     0.000 C 
BRANCH   9  10
ATOM     10  C   UNL     1     -26.601   4.294  11.579  1.00  0.00     0.000 C 
BRANCH  10  11
ATOM     11  C   UNL     1     -27.847   5.164  11.362  1.00  0.00     0.000 C 
BRANCH  11  12
ATOM     12  C   UNL     1     -29.043   4.727  12.229  1.00  0.00     0.006 C 
BRANCH  12  13
ATOM     13  C   UNL     1     -29.766   3.467  11.725  1.00  0.00     0.053 C 
BRANCH  13  14
ATOM     14  C   UNL     1     -28.825   2.497  11.079  1.00  0.00     0.041 C 
ATOM     15  O   UNL     1     -29.192   1.834  10.074  1.00  0.00    -0.550 OA
ATOM     16  O   UNL     1     -27.552   2.306  11.603  1.00  0.00    -0.550 OA
ENDBRANCH  13  14
ENDBRANCH  12  13
ENDBRANCH  11  12
ENDBRANCH  10  11
ENDBRANCH   9  10
ENDBRANCH   8   9
ENDBRANCH   7   8
ENDBRANCH   6   7
ENDBRANCH   5   6
ENDBRANCH   4   5
ENDBRANCH   3   4
ENDBRANCH   2   3
ENDBRANCH   1   2
BRANCH   1  17
ATOM     17  C   UNL     1     -29.331   7.428   2.393  1.00  0.00     0.000 C 
BRANCH  17  18
ATOM     18  C   UNL     1     -29.832   7.325   0.943  1.00  0.00     0.000 C 
BRANCH  18  19
ATOM     19  C   UNL     1     -31.327   6.976   0.863  1.00  0.00     0.000 C 
BRANCH  19  20
ATOM     20  C   UNL     1     -32.069   7.807  -0.198  1.00  0.00     0.000 C 
BRANCH  20  21
ATOM     21  C   UNL     1     -31.642   7.452  -1.631  1.00  0.00     0.000 C 
BRANCH  21  22
ATOM     22  C   UNL     1     -30.454   6.480  -1.666  1.00  0.00    -0.000 C 
BRANCH  22  23
ATOM     23  C   UNL     1     -29.414   6.918  -2.703  1.00  0.00    -0.000 C 
BRANCH  23  24
ATOM     24  C   UNL     1     -28.313   7.768  -2.050  1.00  0.00    -0.000 C 
BRANCH  24  25
ATOM     25  C   UNL     1     -27.441   8.501  -3.080  1.00  0.00    -0.000 C 
BRANCH  25  26
ATOM     26  C   UNL     1     -28.007   8.410  -4.509  1.00  0.00    -0.000 C 
BRANCH  26  27
ATOM     27  C   UNL     1     -27.171   7.477  -5.409  1.00  0.00    -0.000 C 
BRANCH  27  28
ATOM     28  C   UNL     1     -27.043   7.961  -6.866  1.00  0.00    -0.000 C 
BRANCH  28  29
ATOM     29  C   UNL     1     -26.103   9.169  -7.052  1.00  0.00    -0.003 C 
ATOM     30  C   UNL     1     -24.877   9.110  -6.140  1.00  0.00     0.004 C 
ENDBRANCH  28  29
ENDBRANCH  27  28
ENDBRANCH  26  27
ENDBRANCH  25  26
ENDBRANCH  24  25
ENDBRANCH  23  24
ENDBRANCH  22  23
ENDBRANCH  21  22
ENDBRANCH  20  21
ENDBRANCH  19  20
ENDBRANCH  18  19
ENDBRANCH  17  18
ENDBRANCH   1  17
TORSDOF 26
ENDMDL
MODEL 6
REMARK VINA RESULT:    16.425      8.482     13.938
REMARK INTER + INTRA:          39.877
REMARK INTER:                  39.379
REMARK INTRA:                   0.498
REMARK UNBOUND:                -1.514
REMARK SMILES CCCCCCCCCCCCCCCCCCCCCCCCCCCC(=O)[O-]
REMARK SMILES IDX 15 1 16 2 17 3 18 4 19 5 20 6 21 7 22 8 23 9 24 10 25 11
REMARK SMILES IDX 26 12 27 13 28 14 29 15 30 16 14 17 13 18 12 19 11 20 10 21
REMARK SMILES IDX 9 22 8 23 7 24 6 25 5 26 4 27 3 28 2 29 1 30
REMARK H PARENT
REMARK Flexibility Score: inf
ROOT
ATOM      1  C   UNL     1     -29.480   7.028   5.109  1.00  0.00     0.000 C 
ENDROOT
BRANCH   1   2
ATOM      2  C   UNL     1     -29.303   7.524   3.660  1.00  0.00     0.000 C 
BRANCH   2   3
ATOM      3  C   UNL     1     -30.612   7.743   2.874  1.00  0.00     0.000 C 
BRANCH   3   4
ATOM      4  C   UNL     1     -30.644   7.098   1.478  1.00  0.00     0.000 C 
BRANCH   4   5
ATOM      5  C   UNL     1     -31.838   7.571   0.630  1.00  0.00     0.000 C 
BRANCH   5   6
ATOM      6  C   UNL     1     -31.799   7.032  -0.812  1.00  0.00     0.000 C 
BRANCH   6   7
ATOM      7  C   UNL     1     -30.431   7.136  -1.512  1.00  0.00     0.000 C 
BRANCH   7   8
ATOM      8  C   UNL     1     -29.248   6.965  -0.545  1.00  0.00     0.000 C 
BRANCH   8   9
ATOM      9  C   UNL     1     -28.123   7.981  -0.800  1.00  0.00     0.000 C 
BRANCH   9  10
ATOM     10  C   UNL     1     -28.164   8.572  -2.217  1.00  0.00     0.000 C 
BRANCH  10  11
ATOM     11  C   UNL     1     -27.086   7.936  -3.107  1.00  0.00     0.000 C 
BRANCH  11  12
ATOM     12  C   UNL     1     -27.568   7.686  -4.549  1.00  0.00     0.006 C 
BRANCH  12  13
ATOM     13  C   UNL     1     -26.437   7.438  -5.561  1.00  0.00     0.053 C 
BRANCH  13  14
ATOM     14  C   UNL     1     -26.132   8.656  -6.376  1.00  0.00     0.041 C 
ATOM     15  O   UNL     1     -25.066   8.721  -7.041  1.00  0.00    -0.550 OA
ATOM     16  O   UNL     1     -27.012   9.731  -6.380  1.00  0.00    -0.550 OA
ENDBRANCH  13  14
ENDBRANCH  12  13
ENDBRANCH  11  12
ENDBRANCH  10  11
ENDBRANCH   9  10
ENDBRANCH   8   9
ENDBRANCH   7   8
ENDBRANCH   6   7
ENDBRANCH   5   6
ENDBRANCH   4   5
ENDBRANCH   3   4
ENDBRANCH   2   3
ENDBRANCH   1   2
BRANCH   1  17
ATOM     17  C   UNL     1     -28.290   7.313   6.043  1.00  0.00     0.000 C 
BRANCH  17  18
ATOM     18  C   UNL     1     -27.163   6.276   5.901  1.00  0.00     0.000 C 
BRANCH  18  19
ATOM     19  C   UNL     1     -27.021   5.393   7.151  1.00  0.00     0.000 C 
BRANCH  19  20
ATOM     20  C   UNL     1     -25.972   5.936   8.139  1.00  0.00     0.000 C 
BRANCH  20  21
ATOM     21  C   UNL     1     -25.347   4.830   9.003  1.00  0.00     0.000 C 
BRANCH  21  22
ATOM     22  C   UNL     1     -25.111   5.280  10.453  1.00  0.00    -0.000 C 
BRANCH  22  23
ATOM     23  C   UNL     1     -25.430   4.150  11.438  1.00  0.00    -0.000 C 
BRANCH  23  24
ATOM     24  C   UNL     1     -26.886   4.237  11.919  1.00  0.00    -0.000 C 
BRANCH  24  25
ATOM     25  C   UNL     1     -27.571   5.548  11.504  1.00  0.00    -0.000 C 
BRANCH  25  26
ATOM     26  C   UNL     1     -28.978   5.324  10.921  1.00  0.00    -0.000 C 
BRANCH  26  27
ATOM     27  C   UNL     1     -29.927   4.647  11.932  1.00  0.00    -0.000 C 
BRANCH  27  28
ATOM     28  C   UNL     1     -29.465   3.249  12.386  1.00  0.00    -0.000 C 
BRANCH  28  29
ATOM     29  C   UNL     1     -29.894   2.104  11.447  1.00  0.00    -0.003 C 
ATOM     30  C   UNL     1     -28.980   1.963  10.230  1.00  0.00     0.004 C 
ENDBRANCH  28  29
ENDBRANCH  27  28
ENDBRANCH  26  27
ENDBRANCH  25  26
ENDBRANCH  24  25
ENDBRANCH  23  24
ENDBRANCH  22  23
ENDBRANCH  21  22
ENDBRANCH  20  21
ENDBRANCH  19  20
ENDBRANCH  18  19
ENDBRANCH  17  18
ENDBRANCH   1  17
TORSDOF 26
ENDMDL
MODEL 7
REMARK VINA RESULT:    16.503      8.460     13.880
REMARK INTER + INTRA:          40.073
REMARK INTER:                  40.536
REMARK INTRA:                  -0.463
REMARK UNBOUND:                -1.514
REMARK SMILES CCCCCCCCCCCCCCCCCCCCCCCCCCCC(=O)[O-]
REMARK SMILES IDX 15 1 16 2 17 3 18 4 19 5 20 6 21 7 22 8 23 9 24 10 25 11
REMARK SMILES IDX 26 12 27 13 28 14 29 15 30 16 14 17 13 18 12 19 11 20 10 21
REMARK SMILES IDX 9 22 8 23 7 24 6 25 5 26 4 27 3 28 2 29 1 30
REMARK H PARENT
REMARK Flexibility Score: inf
ROOT
ATOM      1  C   UNL     1     -29.342   7.254   5.067  1.00  0.00     0.000 C 
ENDROOT
BRANCH   1   2
ATOM      2  C   UNL     1     -29.134   7.102   3.547  1.00  0.00     0.000 C 
BRANCH   2   3
ATOM      3  C   UNL     1     -30.173   7.823   2.665  1.00  0.00     0.000 C 
BRANCH   3   4
ATOM      4  C   UNL     1     -31.032   6.895   1.787  1.00  0.00     0.000 C 
BRANCH   4   5
ATOM      5  C   UNL     1     -31.463   7.556   0.466  1.00  0.00     0.000 C 
BRANCH   5   6
ATOM      6  C   UNL     1     -31.361   6.605  -0.740  1.00  0.00     0.000 C 
BRANCH   6   7
ATOM      7  C   UNL     1     -30.170   6.869  -1.682  1.00  0.00     0.000 C 
BRANCH   7   8
ATOM      8  C   UNL     1     -28.810   6.759  -0.974  1.00  0.00     0.000 C 
BRANCH   8   9
ATOM      9  C   UNL     1     -28.182   8.131  -0.680  1.00  0.00     0.000 C 
BRANCH   9  10
ATOM     10  C   UNL     1     -27.374   8.681  -1.866  1.00  0.00     0.000 C 
BRANCH  10  11
ATOM     11  C   UNL     1     -27.684   7.899  -3.150  1.00  0.00     0.000 C 
BRANCH  11  12
ATOM     12  C   UNL     1     -28.555   8.693  -4.141  1.00  0.00     0.006 C 
BRANCH  12  13
ATOM     13  C   UNL     1     -27.872   8.994  -5.486  1.00  0.00     0.053 C 
BRANCH  13  14
ATOM     14  C   UNL     1     -26.660   8.142  -5.706  1.00  0.00     0.041 C 
ATOM     15  O   UNL     1     -25.563   8.672  -6.023  1.00  0.00    -0.550 OA
ATOM     16  O   UNL     1     -26.748   6.760  -5.588  1.00  0.00    -0.550 OA
ENDBRANCH  13  14
ENDBRANCH  12  13
ENDBRANCH  11  12
ENDBRANCH  10  11
ENDBRANCH   9  10
ENDBRANCH   8   9
ENDBRANCH   7   8
ENDBRANCH   6   7
ENDBRANCH   5   6
ENDBRANCH   4   5
ENDBRANCH   3   4
ENDBRANCH   2   3
ENDBRANCH   1   2
BRANCH   1  17
ATOM     17  C   UNL     1     -28.056   7.174   5.909  1.00  0.00     0.000 C 
BRANCH  17  18
ATOM     18  C   UNL     1     -27.937   5.852   6.687  1.00  0.00     0.000 C 
BRANCH  18  19
ATOM     19  C   UNL     1     -26.813   5.889   7.735  1.00  0.00     0.000 C 
BRANCH  19  20
ATOM     20  C   UNL     1     -27.130   5.024   8.968  1.00  0.00     0.000 C 
BRANCH  20  21
ATOM     21  C   UNL     1     -26.113   5.217  10.102  1.00  0.00     0.000 C 
BRANCH  21  22
ATOM     22  C   UNL     1     -26.585   4.600  11.427  1.00  0.00    -0.000 C 
BRANCH  22  23
ATOM     23  C   UNL     1     -27.263   3.245  11.192  1.00  0.00    -0.000 C 
BRANCH  23  24
ATOM     24  C   UNL     1     -28.792   3.392  11.179  1.00  0.00    -0.000 C 
BRANCH  24  25
ATOM     25  C   UNL     1     -29.295   4.445  12.177  1.00  0.00    -0.000 C 
BRANCH  25  26
ATOM     26  C   UNL     1     -29.786   5.730  11.487  1.00  0.00    -0.000 C 
BRANCH  26  27
ATOM     27  C   UNL     1     -29.390   7.000  12.269  1.00  0.00    -0.000 C 
BRANCH  27  28
ATOM     28  C   UNL     1     -29.858   8.312  11.611  1.00  0.00    -0.000 C 
BRANCH  28  29
ATOM     29  C   UNL     1     -29.753   9.550  12.523  1.00  0.00    -0.003 C 
ATOM     30  C   UNL     1     -31.099   9.957  13.125  1.00  0.00     0.004 C 
ENDBRANCH  28  29
ENDBRANCH  27  28
ENDBRANCH  26  27
ENDBRANCH  25  26
ENDBRANCH  24  25
ENDBRANCH  23  24
ENDBRANCH  22  23
ENDBRANCH  21  22
ENDBRANCH  20  21
ENDBRANCH  19  20
ENDBRANCH  18  19
ENDBRANCH  17  18
ENDBRANCH   1  17
TORSDOF 26
ENDMDL
MODEL 8
REMARK VINA RESULT:    16.650      8.926     14.020
REMARK INTER + INTRA:          40.444
REMARK INTER:                  39.862
REMARK INTRA:                   0.581
REMARK UNBOUND:                -1.514
REMARK SMILES CCCCCCCCCCCCCCCCCCCCCCCCCCCC(=O)[O-]
REMARK SMILES IDX 15 1 16 2 17 3 18 4 19 5 20 6 21 7 22 8 23 9 24 10 25 11
REMARK SMILES IDX 26 12 27 13 28 14 29 15 30 16 14 17 13 18 12 19 11 20 10 21
REMARK SMILES IDX 9 22 8 23 7 24 6 25 5 26 4 27 3 28 2 29 1 30
REMARK H PARENT
REMARK Flexibility Score: inf
ROOT
ATOM      1  C   UNL     1     -28.677   6.807   6.509  1.00  0.00     0.000 C 
ENDROOT
BRANCH   1   2
ATOM      2  C   UNL     1     -29.110   7.846   5.455  1.00  0.00     0.000 C 
BRANCH   2   3
ATOM      3  C   UNL     1     -28.940   7.404   3.987  1.00  0.00     0.000 C 
BRANCH   3   4
ATOM      4  C   UNL     1     -30.154   7.680   3.083  1.00  0.00     0.000 C 
BRANCH   4   5
ATOM      5  C   UNL     1     -30.109   6.886   1.766  1.00  0.00     0.000 C 
BRANCH   5   6
ATOM      6  C   UNL     1     -31.018   7.482   0.676  1.00  0.00     0.000 C 
BRANCH   6   7
ATOM      7  C   UNL     1     -31.200   6.604  -0.577  1.00  0.00     0.000 C 
BRANCH   7   8
ATOM      8  C   UNL     1     -30.250   6.990  -1.723  1.00  0.00     0.000 C 
BRANCH   8   9
ATOM      9  C   UNL     1     -28.787   7.104  -1.266  1.00  0.00     0.000 C 
BRANCH   9  10
ATOM     10  C   UNL     1     -28.089   8.359  -1.811  1.00  0.00     0.000 C 
BRANCH  10  11
ATOM     11  C   UNL     1     -28.126   8.383  -3.347  1.00  0.00     0.000 C 
BRANCH  11  12
ATOM     12  C   UNL     1     -26.852   7.802  -3.987  1.00  0.00     0.006 C 
BRANCH  12  13
ATOM     13  C   UNL     1     -27.010   7.399  -5.463  1.00  0.00     0.053 C 
BRANCH  13  14
ATOM     14  C   UNL     1     -26.437   8.424  -6.392  1.00  0.00     0.041 C 
ATOM     15  O   UNL     1     -25.452   8.136  -7.122  1.00  0.00    -0.550 OA
ATOM     16  O   UNL     1     -26.973   9.705  -6.434  1.00  0.00    -0.550 OA
ENDBRANCH  13  14
ENDBRANCH  12  13
ENDBRANCH  11  12
ENDBRANCH  10  11
ENDBRANCH   9  10
ENDBRANCH   8   9
ENDBRANCH   7   8
ENDBRANCH   6   7
ENDBRANCH   5   6
ENDBRANCH   4   5
ENDBRANCH   3   4
ENDBRANCH   2   3
ENDBRANCH   1   2
BRANCH   1  17
ATOM     17  C   UNL     1     -27.281   6.200   6.286  1.00  0.00     0.000 C 
BRANCH  17  18
ATOM     18  C   UNL     1     -26.870   5.229   7.406  1.00  0.00     0.000 C 
BRANCH  18  19
ATOM     19  C   UNL     1     -25.767   5.808   8.307  1.00  0.00     0.000 C 
BRANCH  19  20
ATOM     20  C   UNL     1     -25.341   4.831   9.417  1.00  0.00     0.000 C 
BRANCH  20  21
ATOM     21  C   UNL     1     -25.671   5.353  10.823  1.00  0.00     0.000 C 
BRANCH  21  22
ATOM     22  C   UNL     1     -27.060   4.907  11.305  1.00  0.00    -0.000 C 
BRANCH  22  23
ATOM     23  C   UNL     1     -28.039   6.086  11.329  1.00  0.00    -0.000 C 
BRANCH  23  24
ATOM     24  C   UNL     1     -29.490   5.592  11.431  1.00  0.00    -0.000 C 
BRANCH  24  25
ATOM     25  C   UNL     1     -29.589   4.150  11.951  1.00  0.00    -0.000 C 
BRANCH  25  26
ATOM     26  C   UNL     1     -28.406   3.274  11.502  1.00  0.00    -0.000 C 
BRANCH  26  27
ATOM     27  C   UNL     1     -28.865   1.900  10.972  1.00  0.00    -0.000 C 
BRANCH  27  28
ATOM     28  C   UNL     1     -27.709   0.983  10.527  1.00  0.00    -0.000 C 
BRANCH  28  29
ATOM     29  C   UNL     1     -26.373   1.253  11.247  1.00  0.00    -0.003 C 
ATOM     30  C   UNL     1     -25.173   0.659  10.508  1.00  0.00     0.004 C 
ENDBRANCH  28  29
ENDBRANCH  27  28
ENDBRANCH  26  27
ENDBRANCH  25  26
ENDBRANCH  24  25
ENDBRANCH  23  24
ENDBRANCH  22  23
ENDBRANCH  21  22
ENDBRANCH  20  21
ENDBRANCH  19  20
ENDBRANCH  18  19
ENDBRANCH  17  18
ENDBRANCH   1  17
TORSDOF 26
ENDMDL
