MODEL 1
REMARK VINA RESULT:    -3.938      0.000      0.000
REMARK INTER + INTRA:          -4.908
REMARK INTER:                  -4.628
REMARK INTRA:                  -0.280
REMARK UNBOUND:                -0.280
REMARK SMILES O=C([O-])C=Cc1ccc(O)c(O)c1
REMARK SMILES IDX 6 1 13 2 7 3 11 4 8 5 9 6 5 7 4 8 2 9 1 10 3 11 12 12 10 14
REMARK H PARENT 12 13 10 15
REMARK Flexibility Score: inf
ROOT
ATOM      1  C   UNL     1      54.598  83.502  32.174  1.00  0.00    -0.022 A 
ATOM      2  C   UNL     1      54.087  82.192  32.219  1.00  0.00     0.058 A 
ATOM      3  C   UNL     1      53.718  84.576  31.988  1.00  0.00     0.012 A 
ATOM      4  C   UNL     1      52.705  81.967  32.132  1.00  0.00     0.157 A 
ATOM      5  C   UNL     1      52.341  84.354  31.903  1.00  0.00     0.051 A 
ATOM      6  C   UNL     1      51.828  83.055  31.978  1.00  0.00     0.157 A 
ENDROOT
BRANCH   1   7
ATOM      7  C   UNL     1      56.053  83.756  32.210  1.00  0.00     0.010 C 
ATOM      8  C   UNL     1      56.836  83.958  31.139  1.00  0.00     0.025 C 
BRANCH   8   9
ATOM      9  C   UNL     1      56.429  83.790  29.730  1.00  0.00     0.064 C 
ATOM     10  O   UNL     1      56.009  84.760  29.045  1.00  0.00    -0.545 OA
ATOM     11  O   UNL     1      56.446  82.521  29.168  1.00  0.00    -0.545 OA
ENDBRANCH   8   9
ENDBRANCH   1   7
BRANCH   4  12
ATOM     12  O   UNL     1      52.203  80.668  32.194  1.00  0.00    -0.504 OA
ATOM     13  H   UNL     1      52.004  80.218  33.080  1.00  0.00     0.293 HD
ENDBRANCH   4  12
BRANCH   6  14
ATOM     14  O   UNL     1      50.449  82.864  31.893  1.00  0.00    -0.504 OA
ATOM     15  H   UNL     1      50.041  82.146  31.306  1.00  0.00     0.293 HD
ENDBRANCH   6  14
TORSDOF 4
ENDMDL
MODEL 2
REMARK VINA RESULT:    -3.805      2.094      2.473
REMARK INTER + INTRA:          -4.752
REMARK INTER:                  -4.615
REMARK INTRA:                  -0.137
REMARK UNBOUND:                -0.280
REMARK SMILES O=C([O-])C=Cc1ccc(O)c(O)c1
REMARK SMILES IDX 6 1 13 2 7 3 11 4 8 5 9 6 5 7 4 8 2 9 1 10 3 11 12 12 10 14
REMARK H PARENT 12 13 10 15
REMARK Flexibility Score: inf
ROOT
ATOM      1  C   UNL     1      53.933  82.684  30.088  1.00  0.00    -0.022 A 
ATOM      2  C   UNL     1      53.549  81.691  31.007  1.00  0.00     0.058 A 
ATOM      3  C   UNL     1      52.946  83.363  29.361  1.00  0.00     0.012 A 
ATOM      4  C   UNL     1      52.191  81.419  31.233  1.00  0.00     0.157 A 
ATOM      5  C   UNL     1      51.593  83.095  29.586  1.00  0.00     0.051 A 
ATOM      6  C   UNL     1      51.209  82.129  30.522  1.00  0.00     0.157 A 
ENDROOT
BRANCH   1   7
ATOM      7  C   UNL     1      55.357  82.947  29.798  1.00  0.00     0.010 C 
ATOM      8  C   UNL     1      56.244  83.468  30.660  1.00  0.00     0.025 C 
BRANCH   8   9
ATOM      9  C   UNL     1      55.928  84.035  31.985  1.00  0.00     0.064 C 
ATOM     10  O   UNL     1      56.368  83.516  33.046  1.00  0.00    -0.545 OA
ATOM     11  O   UNL     1      55.072  85.124  32.069  1.00  0.00    -0.545 OA
ENDBRANCH   8   9
ENDBRANCH   1   7
BRANCH   4  12
ATOM     12  O   UNL     1      51.817  80.445  32.158  1.00  0.00    -0.504 OA
ATOM     13  H   UNL     1      52.228  79.519  32.149  1.00  0.00     0.293 HD
ENDBRANCH   4  12
BRANCH   6  14
ATOM     14  O   UNL     1      49.852  81.886  30.727  1.00  0.00    -0.504 OA
ATOM     15  H   UNL     1      49.475  81.681  31.644  1.00  0.00     0.293 HD
ENDBRANCH   6  14
TORSDOF 4
ENDMDL
MODEL 3
REMARK VINA RESULT:    -3.718      1.923      2.659
REMARK INTER + INTRA:          -4.650
REMARK INTER:                  -4.369
REMARK INTRA:                  -0.282
REMARK UNBOUND:                -0.280
REMARK SMILES O=C([O-])C=Cc1ccc(O)c(O)c1
REMARK SMILES IDX 6 1 13 2 7 3 11 4 8 5 9 6 5 7 4 8 2 9 1 10 3 11 12 12 10 14
REMARK H PARENT 12 13 10 15
REMARK Flexibility Score: inf
ROOT
ATOM      1  C   UNL     1      53.640  81.897  31.514  1.00  0.00    -0.022 A 
ATOM      2  C   UNL     1      52.408  82.160  32.139  1.00  0.00     0.058 A 
ATOM      3  C   UNL     1      53.683  81.737  30.123  1.00  0.00     0.012 A 
ATOM      4  C   UNL     1      51.242  82.314  31.374  1.00  0.00     0.157 A 
ATOM      5  C   UNL     1      52.524  81.891  29.358  1.00  0.00     0.051 A 
ATOM      6  C   UNL     1      51.303  82.183  29.975  1.00  0.00     0.157 A 
ENDROOT
BRANCH   1   7
ATOM      7  C   UNL     1      54.868  81.679  32.307  1.00  0.00     0.010 C 
ATOM      8  C   UNL     1      55.766  82.624  32.626  1.00  0.00     0.025 C 
BRANCH   8   9
ATOM      9  C   UNL     1      55.789  84.004  32.103  1.00  0.00     0.064 C 
ATOM     10  O   UNL     1      55.130  84.927  32.650  1.00  0.00    -0.545 OA
ATOM     11  O   UNL     1      56.500  84.276  30.942  1.00  0.00    -0.545 OA
ENDBRANCH   8   9
ENDBRANCH   1   7
BRANCH   4  12
ATOM     12  O   UNL     1      50.027  82.591  31.998  1.00  0.00    -0.504 OA
ATOM     13  H   UNL     1      49.952  83.293  32.725  1.00  0.00     0.293 HD
ENDBRANCH   4  12
BRANCH   6  14
ATOM     14  O   UNL     1      50.163  82.334  29.186  1.00  0.00    -0.504 OA
ATOM     15  H   UNL     1      49.610  83.183  29.198  1.00  0.00     0.293 HD
ENDBRANCH   6  14
TORSDOF 4
ENDMDL
MODEL 4
REMARK VINA RESULT:    -3.657      2.032      4.709
REMARK INTER + INTRA:          -4.578
REMARK INTER:                  -4.375
REMARK INTRA:                  -0.204
REMARK UNBOUND:                -0.280
REMARK SMILES O=C([O-])C=Cc1ccc(O)c(O)c1
REMARK SMILES IDX 6 1 13 2 7 3 11 4 8 5 9 6 5 7 4 8 2 9 1 10 3 11 12 12 10 14
REMARK H PARENT 12 13 10 15
REMARK Flexibility Score: inf
ROOT
ATOM      1  C   UNL     1      53.303  81.969  30.814  1.00  0.00    -0.022 A 
ATOM      2  C   UNL     1      54.026  81.714  31.993  1.00  0.00     0.058 A 
ATOM      3  C   UNL     1      53.816  82.877  29.878  1.00  0.00     0.012 A 
ATOM      4  C   UNL     1      55.272  82.323  32.208  1.00  0.00     0.157 A 
ATOM      5  C   UNL     1      55.057  83.483  30.089  1.00  0.00     0.051 A 
ATOM      6  C   UNL     1      55.791  83.208  31.248  1.00  0.00     0.157 A 
ENDROOT
BRANCH   1   7
ATOM      7  C   UNL     1      51.966  81.379  30.594  1.00  0.00     0.010 C 
ATOM      8  C   UNL     1      50.804  82.049  30.637  1.00  0.00     0.025 C 
BRANCH   8   9
ATOM      9  C   UNL     1      50.628  83.445  31.081  1.00  0.00     0.064 C 
ATOM     10  O   UNL     1      50.493  84.387  30.256  1.00  0.00    -0.545 OA
ATOM     11  O   UNL     1      50.682  83.735  32.438  1.00  0.00    -0.545 OA
ENDBRANCH   8   9
ENDBRANCH   1   7
BRANCH   4  12
ATOM     12  O   UNL     1      55.991  82.053  33.372  1.00  0.00    -0.504 OA
ATOM     13  H   UNL     1      55.585  82.189  34.289  1.00  0.00     0.293 HD
ENDBRANCH   4  12
BRANCH   6  14
ATOM     14  O   UNL     1      57.028  83.825  31.429  1.00  0.00    -0.504 OA
ATOM     15  H   UNL     1      57.869  83.296  31.627  1.00  0.00     0.293 HD
ENDBRANCH   6  14
TORSDOF 4
ENDMDL
MODEL 5
REMARK VINA RESULT:    -3.486     14.516     15.853
REMARK INTER + INTRA:          -4.377
REMARK INTER:                  -4.410
REMARK INTRA:                   0.033
REMARK UNBOUND:                -0.280
REMARK SMILES O=C([O-])C=Cc1ccc(O)c(O)c1
REMARK SMILES IDX 6 1 13 2 7 3 11 4 8 5 9 6 5 7 4 8 2 9 1 10 3 11 12 12 10 14
REMARK H PARENT 12 13 10 15
REMARK Flexibility Score: inf
ROOT
ATOM      1  C   UNL     1      48.379  82.010  45.816  1.00  0.00    -0.022 A 
ATOM      2  C   UNL     1      48.322  80.634  45.530  1.00  0.00     0.058 A 
ATOM      3  C   UNL     1      48.825  82.431  47.076  1.00  0.00     0.012 A 
ATOM      4  C   UNL     1      48.758  79.694  46.477  1.00  0.00     0.157 A 
ATOM      5  C   UNL     1      49.260  81.497  48.020  1.00  0.00     0.051 A 
ATOM      6  C   UNL     1      49.233  80.130  47.726  1.00  0.00     0.157 A 
ENDROOT
BRANCH   1   7
ATOM      7  C   UNL     1      47.876  83.012  44.854  1.00  0.00     0.010 C 
ATOM      8  C   UNL     1      48.601  84.002  44.310  1.00  0.00     0.025 C 
BRANCH   8   9
ATOM      9  C   UNL     1      49.972  84.381  44.701  1.00  0.00     0.064 C 
ATOM     10  O   UNL     1      50.193  85.124  45.694  1.00  0.00    -0.545 OA
ATOM     11  O   UNL     1      51.040  83.965  43.917  1.00  0.00    -0.545 OA
ENDBRANCH   8   9
ENDBRANCH   1   7
BRANCH   4  12
ATOM     12  O   UNL     1      48.715  78.332  46.181  1.00  0.00    -0.504 OA
ATOM     13  H   UNL     1      48.726  77.631  46.911  1.00  0.00     0.293 HD
ENDBRANCH   4  12
BRANCH   6  14
ATOM     14  O   UNL     1      49.677  79.221  48.686  1.00  0.00    -0.504 OA
ATOM     15  H   UNL     1      49.225  78.325  48.827  1.00  0.00     0.293 HD
ENDBRANCH   6  14
TORSDOF 4
ENDMDL
MODEL 6
REMARK VINA RESULT:    -3.472      2.172      4.252
REMARK INTER + INTRA:          -4.361
REMARK INTER:                  -4.066
REMARK INTRA:                  -0.295
REMARK UNBOUND:                -0.280
REMARK SMILES O=C([O-])C=Cc1ccc(O)c(O)c1
REMARK SMILES IDX 6 1 13 2 7 3 11 4 8 5 9 6 5 7 4 8 2 9 1 10 3 11 12 12 10 14
REMARK H PARENT 12 13 10 15
REMARK Flexibility Score: inf
ROOT
ATOM      1  C   UNL     1      52.680  83.685  32.098  1.00  0.00    -0.022 A 
ATOM      2  C   UNL     1      53.346  82.462  32.296  1.00  0.00     0.058 A 
ATOM      3  C   UNL     1      53.422  84.874  32.074  1.00  0.00     0.012 A 
ATOM      4  C   UNL     1      54.743  82.426  32.416  1.00  0.00     0.157 A 
ATOM      5  C   UNL     1      54.813  84.840  32.192  1.00  0.00     0.051 A 
ATOM      6  C   UNL     1      55.480  83.622  32.358  1.00  0.00     0.157 A 
ENDROOT
BRANCH   1   7
ATOM      7  C   UNL     1      51.206  83.749  32.023  1.00  0.00     0.010 C 
ATOM      8  C   UNL     1      50.474  83.577  30.911  1.00  0.00     0.025 C 
BRANCH   8   9
ATOM      9  C   UNL     1      51.005  83.469  29.538  1.00  0.00     0.064 C 
ATOM     10  O   UNL     1      51.160  82.352  28.978  1.00  0.00    -0.545 OA
ATOM     11  O   UNL     1      51.405  84.621  28.875  1.00  0.00    -0.545 OA
ENDBRANCH   8   9
ENDBRANCH   1   7
BRANCH   4  12
ATOM     12  O   UNL     1      55.399  81.209  32.595  1.00  0.00    -0.504 OA
ATOM     13  H   UNL     1      55.823  80.961  33.481  1.00  0.00     0.293 HD
ENDBRANCH   4  12
BRANCH   6  14
ATOM     14  O   UNL     1      56.870  83.619  32.469  1.00  0.00    -0.504 OA
ATOM     15  H   UNL     1      57.413  82.767  32.397  1.00  0.00     0.293 HD
ENDBRANCH   6  14
TORSDOF 4
ENDMDL
MODEL 7
REMARK VINA RESULT:    -3.453      2.009      4.902
REMARK INTER + INTRA:          -4.338
REMARK INTER:                  -4.130
REMARK INTRA:                  -0.208
REMARK UNBOUND:                -0.280
REMARK SMILES O=C([O-])C=Cc1ccc(O)c(O)c1
REMARK SMILES IDX 6 1 13 2 7 3 11 4 8 5 9 6 5 7 4 8 2 9 1 10 3 11 12 12 10 14
REMARK H PARENT 12 13 10 15
REMARK Flexibility Score: inf
ROOT
ATOM      1  C   UNL     1      52.858  82.371  30.711  1.00  0.00    -0.022 A 
ATOM      2  C   UNL     1      54.068  83.002  30.371  1.00  0.00     0.058 A 
ATOM      3  C   UNL     1      52.779  81.634  31.900  1.00  0.00     0.012 A 
ATOM      4  C   UNL     1      55.169  82.940  31.238  1.00  0.00     0.157 A 
ATOM      5  C   UNL     1      53.874  81.572  32.766  1.00  0.00     0.051 A 
ATOM      6  C   UNL     1      55.069  82.224  32.444  1.00  0.00     0.157 A 
ENDROOT
BRANCH   1   7
ATOM      7  C   UNL     1      51.705  82.381  29.787  1.00  0.00     0.010 C 
ATOM      8  C   UNL     1      50.590  83.111  29.941  1.00  0.00     0.025 C 
BRANCH   8   9
ATOM      9  C   UNL     1      50.232  83.895  31.139  1.00  0.00     0.064 C 
ATOM     10  O   UNL     1      50.575  85.101  31.264  1.00  0.00    -0.545 OA
ATOM     11  O   UNL     1      49.560  83.271  32.181  1.00  0.00    -0.545 OA
ENDBRANCH   8   9
ENDBRANCH   1   7
BRANCH   4  12
ATOM     12  O   UNL     1      56.361  83.582  30.904  1.00  0.00    -0.504 OA
ATOM     13  H   UNL     1      56.370  84.427  30.346  1.00  0.00     0.293 HD
ENDBRANCH   4  12
BRANCH   6  14
ATOM     14  O   UNL     1      56.143  82.147  33.329  1.00  0.00    -0.504 OA
ATOM     15  H   UNL     1      56.902  81.489  33.197  1.00  0.00     0.293 HD
ENDBRANCH   6  14
TORSDOF 4
ENDMDL
