MODEL 1
REMARK VINA RESULT:    -4.905      0.000      0.000
REMARK INTER + INTRA:          -5.849
REMARK INTER:                  -5.765
REMARK INTRA:                  -0.084
REMARK UNBOUND:                -0.084
REMARK SMILES O=c1c(O)c(-c2ccc(O)cc2)oc2cc(O)cc(O)c12
REMARK SMILES IDX 5 1 3 2 2 3 1 4 21 5 19 6 18 7 16 8 15 9 14 10 13 11 6 12
REMARK SMILES IDX 7 13 8 14 9 15 12 16 11 17 10 18 4 20 20 22 17 24
REMARK H PARENT 10 19 4 21 20 23 17 25
REMARK Flexibility Score: inf
ROOT
ATOM      1  C   UNL     1     -26.232  51.168  41.936  1.00  0.00     0.180 A 
ATOM      2  C   UNL     1     -25.354  51.911  41.123  1.00  0.00     0.208 A 
ATOM      3  C   UNL     1     -24.958  53.191  41.545  1.00  0.00     0.238 A 
ATOM      4  O   UNL     1     -24.165  53.861  40.831  1.00  0.00    -0.285 OA
ATOM      5  C   UNL     1     -25.461  53.711  42.755  1.00  0.00     0.111 A 
ATOM      6  C   UNL     1     -25.116  54.993  43.249  1.00  0.00     0.134 A 
ATOM      7  C   UNL     1     -25.665  55.444  44.458  1.00  0.00     0.093 A 
ATOM      8  C   UNL     1     -26.551  54.641  45.181  1.00  0.00     0.123 A 
ATOM      9  C   UNL     1     -26.895  53.374  44.699  1.00  0.00     0.094 A 
ATOM     10  C   UNL     1     -26.357  52.906  43.497  1.00  0.00     0.146 A 
ATOM     11  O   UNL     1     -26.696  51.698  43.064  1.00  0.00    -0.452 OA
ENDROOT
BRANCH   1  12
ATOM     12  C   UNL     1     -26.678  49.804  41.569  1.00  0.00     0.021 A 
ATOM     13  C   UNL     1     -26.416  48.698  42.399  1.00  0.00     0.016 A 
ATOM     14  C   UNL     1     -26.870  47.425  42.042  1.00  0.00     0.047 A 
ATOM     15  C   UNL     1     -27.599  47.242  40.860  1.00  0.00     0.115 A 
ATOM     16  C   UNL     1     -27.429  49.615  40.396  1.00  0.00     0.016 A 
ATOM     17  C   UNL     1     -27.879  48.340  40.042  1.00  0.00     0.047 A 
BRANCH  15  18
ATOM     18  O   UNL     1     -28.055  45.977  40.494  1.00  0.00    -0.508 OA
ATOM     19  H   UNL     1     -28.464  45.345  41.172  1.00  0.00     0.293 HD
ENDBRANCH  15  18
ENDBRANCH   1  12
BRANCH   2  20
ATOM     20  O   UNL     1     -24.909  51.393  39.904  1.00  0.00    -0.502 OA
ATOM     21  H   UNL     1     -24.566  50.444  39.810  1.00  0.00     0.293 HD
ENDBRANCH   2  20
BRANCH   6  22
ATOM     22  O   UNL     1     -24.235  55.819  42.550  1.00  0.00    -0.507 OA
ATOM     23  H   UNL     1     -23.842  56.654  42.968  1.00  0.00     0.293 HD
ENDBRANCH   6  22
BRANCH   8  24
ATOM     24  O   UNL     1     -27.084  55.113  46.379  1.00  0.00    -0.508 OA
ATOM     25  H   UNL     1     -26.692  55.919  46.852  1.00  0.00     0.293 HD
ENDBRANCH   8  24
TORSDOF 5
ENDMDL
MODEL 2
REMARK VINA RESULT:    -4.268      1.602      1.605
REMARK INTER + INTRA:          -5.100
REMARK INTER:                  -4.805
REMARK INTRA:                  -0.295
REMARK UNBOUND:                -0.084
REMARK SMILES O=c1c(O)c(-c2ccc(O)cc2)oc2cc(O)cc(O)c12
REMARK SMILES IDX 5 1 3 2 2 3 1 4 21 5 19 6 18 7 16 8 15 9 14 10 13 11 6 12
REMARK SMILES IDX 7 13 8 14 9 15 12 16 11 17 10 18 4 20 20 22 17 24
REMARK H PARENT 10 19 4 21 20 23 17 25
REMARK Flexibility Score: inf
ROOT
ATOM      1  C   UNL     1     -25.855  50.624  42.539  1.00  0.00     0.180 A 
ATOM      2  C   UNL     1     -24.452  50.750  42.536  1.00  0.00     0.208 A 
ATOM      3  C   UNL     1     -23.863  51.797  43.262  1.00  0.00     0.238 A 
ATOM      4  O   UNL     1     -22.607  51.914  43.275  1.00  0.00    -0.285 OA
ATOM      5  C   UNL     1     -24.683  52.710  43.957  1.00  0.00     0.111 A 
ATOM      6  C   UNL     1     -24.169  53.795  44.709  1.00  0.00     0.134 A 
ATOM      7  C   UNL     1     -25.051  54.664  45.367  1.00  0.00     0.093 A 
ATOM      8  C   UNL     1     -26.433  54.472  45.288  1.00  0.00     0.123 A 
ATOM      9  C   UNL     1     -26.945  53.402  44.548  1.00  0.00     0.094 A 
ATOM     10  C   UNL     1     -26.084  52.523  43.887  1.00  0.00     0.146 A 
ATOM     11  O   UNL     1     -26.596  51.512  43.195  1.00  0.00    -0.452 OA
ENDROOT
BRANCH   1  12
ATOM     12  C   UNL     1     -26.548  49.534  41.815  1.00  0.00     0.021 A 
ATOM     13  C   UNL     1     -26.735  48.268  42.399  1.00  0.00     0.016 A 
ATOM     14  C   UNL     1     -27.415  47.263  41.703  1.00  0.00     0.047 A 
ATOM     15  C   UNL     1     -27.926  47.514  40.423  1.00  0.00     0.115 A 
ATOM     16  C   UNL     1     -27.082  49.784  40.539  1.00  0.00     0.016 A 
ATOM     17  C   UNL     1     -27.759  48.776  39.846  1.00  0.00     0.047 A 
BRANCH  15  18
ATOM     18  O   UNL     1     -28.603  46.520  39.721  1.00  0.00    -0.508 OA
ATOM     19  H   UNL     1     -29.457  46.107  40.078  1.00  0.00     0.293 HD
ENDBRANCH  15  18
ENDBRANCH   1  12
BRANCH   2  20
ATOM     20  O   UNL     1     -23.664  49.862  41.798  1.00  0.00    -0.502 OA
ATOM     21  H   UNL     1     -24.054  49.058  41.321  1.00  0.00     0.293 HD
ENDBRANCH   2  20
BRANCH   6  22
ATOM     22  O   UNL     1     -22.795  54.014  44.807  1.00  0.00    -0.507 OA
ATOM     23  H   UNL     1     -22.121  53.319  44.508  1.00  0.00     0.293 HD
ENDBRANCH   6  22
BRANCH   8  24
ATOM     24  O   UNL     1     -27.287  55.351  45.949  1.00  0.00    -0.508 OA
ATOM     25  H   UNL     1     -28.261  55.121  46.115  1.00  0.00     0.293 HD
ENDBRANCH   8  24
TORSDOF 5
ENDMDL
MODEL 3
REMARK VINA RESULT:    -4.213      1.836      7.024
REMARK INTER + INTRA:          -5.036
REMARK INTER:                  -4.804
REMARK INTRA:                  -0.232
REMARK UNBOUND:                -0.084
REMARK SMILES O=c1c(O)c(-c2ccc(O)cc2)oc2cc(O)cc(O)c12
REMARK SMILES IDX 5 1 3 2 2 3 1 4 21 5 19 6 18 7 16 8 15 9 14 10 13 11 6 12
REMARK SMILES IDX 7 13 8 14 9 15 12 16 11 17 10 18 4 20 20 22 17 24
REMARK H PARENT 10 19 4 21 20 23 17 25
REMARK Flexibility Score: inf
ROOT
ATOM      1  C   UNL     1     -25.996  51.444  43.539  1.00  0.00     0.180 A 
ATOM      2  C   UNL     1     -25.722  50.326  44.350  1.00  0.00     0.208 A 
ATOM      3  C   UNL     1     -25.827  49.041  43.793  1.00  0.00     0.238 A 
ATOM      4  O   UNL     1     -25.574  48.033  44.506  1.00  0.00    -0.285 OA
ATOM      5  C   UNL     1     -26.223  48.896  42.447  1.00  0.00     0.111 A 
ATOM      6  C   UNL     1     -26.357  47.638  41.811  1.00  0.00     0.134 A 
ATOM      7  C   UNL     1     -26.763  47.576  40.470  1.00  0.00     0.093 A 
ATOM      8  C   UNL     1     -27.039  48.744  39.754  1.00  0.00     0.123 A 
ATOM      9  C   UNL     1     -26.908  49.989  40.377  1.00  0.00     0.094 A 
ATOM     10  C   UNL     1     -26.502  50.073  41.712  1.00  0.00     0.146 A 
ATOM     11  O   UNL     1     -26.380  51.267  42.278  1.00  0.00    -0.452 OA
ENDROOT
BRANCH   1  12
ATOM     12  C   UNL     1     -25.888  52.831  44.048  1.00  0.00     0.021 A 
ATOM     13  C   UNL     1     -24.820  53.668  43.677  1.00  0.00     0.016 A 
ATOM     14  C   UNL     1     -24.754  54.981  44.153  1.00  0.00     0.047 A 
ATOM     15  C   UNL     1     -25.758  55.477  44.993  1.00  0.00     0.115 A 
ATOM     16  C   UNL     1     -26.902  53.344  44.875  1.00  0.00     0.016 A 
ATOM     17  C   UNL     1     -26.832  54.656  45.350  1.00  0.00     0.047 A 
BRANCH  15  18
ATOM     18  O   UNL     1     -25.701  56.784  45.474  1.00  0.00    -0.508 OA
ATOM     19  H   UNL     1     -24.842  57.175  45.844  1.00  0.00     0.293 HD
ENDBRANCH  15  18
ENDBRANCH   1  12
BRANCH   2  20
ATOM     20  O   UNL     1     -25.381  50.494  45.694  1.00  0.00    -0.502 OA
ATOM     21  H   UNL     1     -24.982  49.748  46.251  1.00  0.00     0.293 HD
ENDBRANCH   2  20
BRANCH   6  22
ATOM     22  O   UNL     1     -26.089  46.454  42.498  1.00  0.00    -0.507 OA
ATOM     23  H   UNL     1     -26.452  46.283  43.428  1.00  0.00     0.293 HD
ENDBRANCH   6  22
BRANCH   8  24
ATOM     24  O   UNL     1     -27.443  48.656  38.424  1.00  0.00    -0.508 OA
ATOM     25  H   UNL     1     -26.975  49.178  37.692  1.00  0.00     0.293 HD
ENDBRANCH   8  24
TORSDOF 5
ENDMDL
MODEL 4
REMARK VINA RESULT:    -4.192      1.845      6.651
REMARK INTER + INTRA:          -5.011
REMARK INTER:                  -4.911
REMARK INTRA:                  -0.100
REMARK UNBOUND:                -0.084
REMARK SMILES O=c1c(O)c(-c2ccc(O)cc2)oc2cc(O)cc(O)c12
REMARK SMILES IDX 5 1 3 2 2 3 1 4 21 5 19 6 18 7 16 8 15 9 14 10 13 11 6 12
REMARK SMILES IDX 7 13 8 14 9 15 12 16 11 17 10 18 4 20 20 22 17 24
REMARK H PARENT 10 19 4 21 20 23 17 25
REMARK Flexibility Score: inf
ROOT
ATOM      1  C   UNL     1     -25.939  51.754  43.361  1.00  0.00     0.180 A 
ATOM      2  C   UNL     1     -26.135  51.568  41.978  1.00  0.00     0.208 A 
ATOM      3  C   UNL     1     -26.242  50.261  41.478  1.00  0.00     0.238 A 
ATOM      4  O   UNL     1     -26.428  50.083  40.243  1.00  0.00    -0.285 OA
ATOM      5  C   UNL     1     -26.132  49.166  42.360  1.00  0.00     0.111 A 
ATOM      6  C   UNL     1     -26.225  47.818  41.936  1.00  0.00     0.134 A 
ATOM      7  C   UNL     1     -26.097  46.783  42.874  1.00  0.00     0.093 A 
ATOM      8  C   UNL     1     -25.876  47.069  44.224  1.00  0.00     0.123 A 
ATOM      9  C   UNL     1     -25.785  48.398  44.648  1.00  0.00     0.094 A 
ATOM     10  C   UNL     1     -25.912  49.444  43.730  1.00  0.00     0.146 A 
ATOM     11  O   UNL     1     -25.826  50.697  44.160  1.00  0.00    -0.452 OA
ENDROOT
BRANCH   1  12
ATOM     12  C   UNL     1     -25.836  53.102  43.966  1.00  0.00     0.021 A 
ATOM     13  C   UNL     1     -24.811  53.993  43.602  1.00  0.00     0.016 A 
ATOM     14  C   UNL     1     -24.750  55.269  44.171  1.00  0.00     0.047 A 
ATOM     15  C   UNL     1     -25.718  55.674  45.098  1.00  0.00     0.115 A 
ATOM     16  C   UNL     1     -26.815  53.524  44.881  1.00  0.00     0.016 A 
ATOM     17  C   UNL     1     -26.750  54.799  45.449  1.00  0.00     0.047 A 
BRANCH  15  18
ATOM     18  O   UNL     1     -25.666  56.943  45.672  1.00  0.00    -0.508 OA
ATOM     19  H   UNL     1     -26.266  57.199  46.447  1.00  0.00     0.293 HD
ENDBRANCH  15  18
ENDBRANCH   1  12
BRANCH   2  20
ATOM     20  O   UNL     1     -26.190  52.668  41.118  1.00  0.00    -0.502 OA
ATOM     21  H   UNL     1     -27.039  52.937  40.635  1.00  0.00     0.293 HD
ENDBRANCH   2  20
BRANCH   6  22
ATOM     22  O   UNL     1     -26.444  47.500  40.595  1.00  0.00    -0.507 OA
ATOM     23  H   UNL     1     -27.262  46.982  40.296  1.00  0.00     0.293 HD
ENDBRANCH   6  22
BRANCH   8  24
ATOM     24  O   UNL     1     -25.751  46.023  45.135  1.00  0.00    -0.508 OA
ATOM     25  H   UNL     1     -25.822  46.179  46.135  1.00  0.00     0.293 HD
ENDBRANCH   8  24
TORSDOF 5
ENDMDL
MODEL 5
REMARK VINA RESULT:    -4.157      1.884      7.010
REMARK INTER + INTRA:          -4.970
REMARK INTER:                  -4.744
REMARK INTRA:                  -0.226
REMARK UNBOUND:                -0.084
REMARK SMILES O=c1c(O)c(-c2ccc(O)cc2)oc2cc(O)cc(O)c12
REMARK SMILES IDX 5 1 3 2 2 3 1 4 21 5 19 6 18 7 16 8 15 9 14 10 13 11 6 12
REMARK SMILES IDX 7 13 8 14 9 15 12 16 11 17 10 18 4 20 20 22 17 24
REMARK H PARENT 10 19 4 21 20 23 17 25
REMARK Flexibility Score: inf
ROOT
ATOM      1  C   UNL     1     -25.936  51.542  43.526  1.00  0.00     0.180 A 
ATOM      2  C   UNL     1     -25.645  50.430  44.339  1.00  0.00     0.208 A 
ATOM      3  C   UNL     1     -25.702  49.144  43.778  1.00  0.00     0.238 A 
ATOM      4  O   UNL     1     -25.433  48.142  44.494  1.00  0.00    -0.285 OA
ATOM      5  C   UNL     1     -26.067  48.991  42.425  1.00  0.00     0.111 A 
ATOM      6  C   UNL     1     -26.153  47.731  41.784  1.00  0.00     0.134 A 
ATOM      7  C   UNL     1     -26.532  47.661  40.435  1.00  0.00     0.093 A 
ATOM      8  C   UNL     1     -26.828  48.823  39.717  1.00  0.00     0.123 A 
ATOM      9  C   UNL     1     -26.744  50.069  40.345  1.00  0.00     0.094 A 
ATOM     10  C   UNL     1     -26.366  50.161  41.687  1.00  0.00     0.146 A 
ATOM     11  O   UNL     1     -26.291  51.357  42.257  1.00  0.00    -0.452 OA
ENDROOT
BRANCH   1  12
ATOM     12  C   UNL     1     -25.877  52.930  44.040  1.00  0.00     0.021 A 
ATOM     13  C   UNL     1     -26.876  53.440  44.889  1.00  0.00     0.016 A 
ATOM     14  C   UNL     1     -26.785  54.746  45.380  1.00  0.00     0.047 A 
ATOM     15  C   UNL     1     -25.691  55.552  45.041  1.00  0.00     0.115 A 
ATOM     16  C   UNL     1     -24.772  53.738  43.722  1.00  0.00     0.016 A 
ATOM     17  C   UNL     1     -24.685  55.043  44.214  1.00  0.00     0.047 A 
BRANCH  15  18
ATOM     18  O   UNL     1     -25.591  56.855  45.525  1.00  0.00    -0.508 OA
ATOM     19  H   UNL     1     -25.735  57.069  46.505  1.00  0.00     0.293 HD
ENDBRANCH  15  18
ENDBRANCH   1  12
BRANCH   2  20
ATOM     20  O   UNL     1     -25.334  50.605  45.691  1.00  0.00    -0.502 OA
ATOM     21  H   UNL     1     -25.664  49.973  46.410  1.00  0.00     0.293 HD
ENDBRANCH   2  20
BRANCH   6  22
ATOM     22  O   UNL     1     -25.864  46.554  42.473  1.00  0.00    -0.507 OA
ATOM     23  H   UNL     1     -26.420  45.715  42.353  1.00  0.00     0.293 HD
ENDBRANCH   6  22
BRANCH   8  24
ATOM     24  O   UNL     1     -27.203  48.725  38.379  1.00  0.00    -0.508 OA
ATOM     25  H   UNL     1     -27.414  49.549  37.826  1.00  0.00     0.293 HD
ENDBRANCH   8  24
TORSDOF 5
ENDMDL
MODEL 6
REMARK VINA RESULT:    -4.097      7.968      8.904
REMARK INTER + INTRA:          -4.900
REMARK INTER:                  -4.659
REMARK INTRA:                  -0.241
REMARK UNBOUND:                -0.084
REMARK SMILES O=c1c(O)c(-c2ccc(O)cc2)oc2cc(O)cc(O)c12
REMARK SMILES IDX 5 1 3 2 2 3 1 4 21 5 19 6 18 7 16 8 15 9 14 10 13 11 6 12
REMARK SMILES IDX 7 13 8 14 9 15 12 16 11 17 10 18 4 20 20 22 17 24
REMARK H PARENT 10 19 4 21 20 23 17 25
REMARK Flexibility Score: inf
ROOT
ATOM      1  C   UNL     1     -27.115  54.994  34.276  1.00  0.00     0.180 A 
ATOM      2  C   UNL     1     -27.411  55.748  33.123  1.00  0.00     0.208 A 
ATOM      3  C   UNL     1     -27.722  57.110  33.264  1.00  0.00     0.238 A 
ATOM      4  O   UNL     1     -27.978  57.797  32.238  1.00  0.00    -0.285 OA
ATOM      5  C   UNL     1     -27.752  57.688  34.550  1.00  0.00     0.111 A 
ATOM      6  C   UNL     1     -28.060  59.051  34.779  1.00  0.00     0.134 A 
ATOM      7  C   UNL     1     -28.077  59.550  36.090  1.00  0.00     0.093 A 
ATOM      8  C   UNL     1     -27.796  58.714  37.173  1.00  0.00     0.123 A 
ATOM      9  C   UNL     1     -27.490  57.368  36.953  1.00  0.00     0.094 A 
ATOM     10  C   UNL     1     -27.465  56.852  35.655  1.00  0.00     0.146 A 
ATOM     11  O   UNL     1     -27.168  55.571  35.473  1.00  0.00    -0.452 OA
ENDROOT
BRANCH   1  12
ATOM     12  C   UNL     1     -26.759  53.559  34.206  1.00  0.00     0.021 A 
ATOM     13  C   UNL     1     -25.432  53.123  34.374  1.00  0.00     0.016 A 
ATOM     14  C   UNL     1     -25.126  51.760  34.328  1.00  0.00     0.047 A 
ATOM     15  C   UNL     1     -26.141  50.815  34.128  1.00  0.00     0.115 A 
ATOM     16  C   UNL     1     -27.774  52.603  34.027  1.00  0.00     0.016 A 
ATOM     17  C   UNL     1     -27.464  51.241  33.980  1.00  0.00     0.047 A 
BRANCH  15  18
ATOM     18  O   UNL     1     -25.846  49.455  34.079  1.00  0.00    -0.508 OA
ATOM     19  H   UNL     1     -24.891  49.121  34.014  1.00  0.00     0.293 HD
ENDBRANCH  15  18
ENDBRANCH   1  12
BRANCH   2  20
ATOM     20  O   UNL     1     -27.424  55.140  31.865  1.00  0.00    -0.502 OA
ATOM     21  H   UNL     1     -27.250  55.656  31.011  1.00  0.00     0.293 HD
ENDBRANCH   2  20
BRANCH   6  22
ATOM     22  O   UNL     1     -28.346  59.911  33.718  1.00  0.00    -0.507 OA
ATOM     23  H   UNL     1     -29.161  60.513  33.725  1.00  0.00     0.293 HD
ENDBRANCH   6  22
BRANCH   8  24
ATOM     24  O   UNL     1     -27.821  59.234  38.466  1.00  0.00    -0.508 OA
ATOM     25  H   UNL     1     -28.084  60.197  38.645  1.00  0.00     0.293 HD
ENDBRANCH   8  24
TORSDOF 5
ENDMDL
MODEL 7
REMARK VINA RESULT:    -3.973      2.413      6.991
REMARK INTER + INTRA:          -4.754
REMARK INTER:                  -4.475
REMARK INTRA:                  -0.279
REMARK UNBOUND:                -0.084
REMARK SMILES O=c1c(O)c(-c2ccc(O)cc2)oc2cc(O)cc(O)c12
REMARK SMILES IDX 5 1 3 2 2 3 1 4 21 5 19 6 18 7 16 8 15 9 14 10 13 11 6 12
REMARK SMILES IDX 7 13 8 14 9 15 12 16 11 17 10 18 4 20 20 22 17 24
REMARK H PARENT 10 19 4 21 20 23 17 25
REMARK Flexibility Score: inf
ROOT
ATOM      1  C   UNL     1     -25.910  50.456  41.427  1.00  0.00     0.180 A 
ATOM      2  C   UNL     1     -25.665  49.721  42.602  1.00  0.00     0.208 A 
ATOM      3  C   UNL     1     -26.369  48.524  42.814  1.00  0.00     0.238 A 
ATOM      4  O   UNL     1     -26.150  47.852  43.858  1.00  0.00    -0.285 OA
ATOM      5  C   UNL     1     -27.316  48.097  41.861  1.00  0.00     0.111 A 
ATOM      6  C   UNL     1     -28.071  46.906  42.001  1.00  0.00     0.134 A 
ATOM      7  C   UNL     1     -29.001  46.552  41.013  1.00  0.00     0.093 A 
ATOM      8  C   UNL     1     -29.193  47.364  39.892  1.00  0.00     0.123 A 
ATOM      9  C   UNL     1     -28.451  48.540  39.749  1.00  0.00     0.094 A 
ATOM     10  C   UNL     1     -27.517  48.909  40.721  1.00  0.00     0.146 A 
ATOM     11  O   UNL     1     -26.822  50.029  40.558  1.00  0.00    -0.452 OA
ENDROOT
BRANCH   1  12
ATOM     12  C   UNL     1     -25.193  51.716  41.124  1.00  0.00     0.021 A 
ATOM     13  C   UNL     1     -25.620  52.949  41.651  1.00  0.00     0.016 A 
ATOM     14  C   UNL     1     -24.911  54.121  41.369  1.00  0.00     0.047 A 
ATOM     15  C   UNL     1     -23.763  54.074  40.569  1.00  0.00     0.115 A 
ATOM     16  C   UNL     1     -24.028  51.676  40.339  1.00  0.00     0.016 A 
ATOM     17  C   UNL     1     -23.323  52.850  40.058  1.00  0.00     0.047 A 
BRANCH  15  18
ATOM     18  O   UNL     1     -23.050  55.236  40.281  1.00  0.00    -0.508 OA
ATOM     19  H   UNL     1     -22.379  55.272  39.523  1.00  0.00     0.293 HD
ENDBRANCH  15  18
ENDBRANCH   1  12
BRANCH   2  20
ATOM     20  O   UNL     1     -24.757  50.192  43.555  1.00  0.00    -0.502 OA
ATOM     21  H   UNL     1     -24.557  51.178  43.673  1.00  0.00     0.293 HD
ENDBRANCH   2  20
BRANCH   6  22
ATOM     22  O   UNL     1     -27.903  46.075  43.108  1.00  0.00    -0.507 OA
ATOM     23  H   UNL     1     -28.530  45.301  43.295  1.00  0.00     0.293 HD
ENDBRANCH   6  22
BRANCH   8  24
ATOM     24  O   UNL     1     -30.125  46.991  38.926  1.00  0.00    -0.508 OA
ATOM     25  H   UNL     1     -30.673  47.680  38.423  1.00  0.00     0.293 HD
ENDBRANCH   8  24
TORSDOF 5
ENDMDL
MODEL 8
REMARK VINA RESULT:    -3.961      1.694      3.038
REMARK INTER + INTRA:          -4.740
REMARK INTER:                  -4.443
REMARK INTRA:                  -0.296
REMARK UNBOUND:                -0.084
REMARK SMILES O=c1c(O)c(-c2ccc(O)cc2)oc2cc(O)cc(O)c12
REMARK SMILES IDX 5 1 3 2 2 3 1 4 21 5 19 6 18 7 16 8 15 9 14 10 13 11 6 12
REMARK SMILES IDX 7 13 8 14 9 15 12 16 11 17 10 18 4 20 20 22 17 24
REMARK H PARENT 10 19 4 21 20 23 17 25
REMARK Flexibility Score: inf
ROOT
ATOM      1  C   UNL     1     -26.083  50.729  41.565  1.00  0.00     0.180 A 
ATOM      2  C   UNL     1     -26.155  50.483  42.951  1.00  0.00     0.208 A 
ATOM      3  C   UNL     1     -25.882  51.534  43.841  1.00  0.00     0.238 A 
ATOM      4  O   UNL     1     -25.954  51.328  45.083  1.00  0.00    -0.285 OA
ATOM      5  C   UNL     1     -25.523  52.800  43.335  1.00  0.00     0.111 A 
ATOM      6  C   UNL     1     -25.229  53.910  44.165  1.00  0.00     0.134 A 
ATOM      7  C   UNL     1     -24.871  55.136  43.585  1.00  0.00     0.093 A 
ATOM      8  C   UNL     1     -24.800  55.274  42.197  1.00  0.00     0.123 A 
ATOM      9  C   UNL     1     -25.090  54.181  41.373  1.00  0.00     0.094 A 
ATOM     10  C   UNL     1     -25.451  52.952  41.931  1.00  0.00     0.146 A 
ATOM     11  O   UNL     1     -25.726  51.932  41.126  1.00  0.00    -0.452 OA
ENDROOT
BRANCH   1  12
ATOM     12  C   UNL     1     -26.376  49.678  40.564  1.00  0.00     0.021 A 
ATOM     13  C   UNL     1     -27.690  49.420  40.134  1.00  0.00     0.016 A 
ATOM     14  C   UNL     1     -27.938  48.439  39.169  1.00  0.00     0.047 A 
ATOM     15  C   UNL     1     -26.876  47.713  38.614  1.00  0.00     0.115 A 
ATOM     16  C   UNL     1     -25.315  48.960  39.986  1.00  0.00     0.016 A 
ATOM     17  C   UNL     1     -25.566  47.979  39.023  1.00  0.00     0.047 A 
BRANCH  15  18
ATOM     18  O   UNL     1     -27.112  46.732  37.653  1.00  0.00    -0.508 OA
ATOM     19  H   UNL     1     -27.272  46.971  36.681  1.00  0.00     0.293 HD
ENDBRANCH  15  18
ENDBRANCH   1  12
BRANCH   2  20
ATOM     20  O   UNL     1     -26.465  49.207  43.427  1.00  0.00    -0.502 OA
ATOM     21  H   UNL     1     -27.415  48.916  43.623  1.00  0.00     0.293 HD
ENDBRANCH   2  20
BRANCH   6  22
ATOM     22  O   UNL     1     -25.289  53.804  45.554  1.00  0.00    -0.507 OA
ATOM     23  H   UNL     1     -25.089  52.933  46.033  1.00  0.00     0.293 HD
ENDBRANCH   6  22
BRANCH   8  24
ATOM     24  O   UNL     1     -24.440  56.502  41.646  1.00  0.00    -0.508 OA
ATOM     25  H   UNL     1     -25.138  57.173  41.347  1.00  0.00     0.293 HD
ENDBRANCH   8  24
TORSDOF 5
ENDMDL
