MODEL 1
REMARK VINA RESULT:    -5.740      0.000      0.000
REMARK INTER + INTRA:          -5.907
REMARK INTER:                  -5.907
REMARK INTRA:                   0.000
REMARK UNBOUND:                 0.000
REMARK SMILES O=c1ccc2ccc(O)cc2o1
REMARK SMILES IDX 6 1 7 2 8 3 10 4 11 5 5 6 4 7 3 8 2 9 1 10 12 11 9 12
REMARK H PARENT 9 13
REMARK Flexibility Score: inf
ROOT
ATOM      1  C   UNL     1       3.726  10.104   7.098  1.00  0.00     0.016 A 
ATOM      2  C   UNL     1       3.512   9.984   8.475  1.00  0.00     0.047 A 
ATOM      3  C   UNL     1       4.360  10.630   9.383  1.00  0.00     0.119 A 
ATOM      4  C   UNL     1       5.431  11.403   8.910  1.00  0.00     0.094 A 
ATOM      5  C   UNL     1       5.653  11.529   7.534  1.00  0.00     0.142 A 
ATOM      6  C   UNL     1       4.795  10.876   6.622  1.00  0.00     0.018 A 
ATOM      7  C   UNL     1       5.042  11.020   5.253  1.00  0.00     0.019 A 
ATOM      8  C   UNL     1       6.119  11.799   4.831  1.00  0.00     0.094 A 
ATOM      9  C   UNL     1       6.926  12.418   5.792  1.00  0.00     0.336 A 
ATOM     10  O   UNL     1       7.903  13.125   5.431  1.00  0.00    -0.246 OA
ATOM     11  O   UNL     1       6.669  12.263   7.089  1.00  0.00    -0.423 OA
ENDROOT
BRANCH   3  12
ATOM     12  O   UNL     1       4.131  10.499  10.750  1.00  0.00    -0.508 OA
ATOM     13  H   UNL     1       3.777   9.637  11.148  1.00  0.00     0.293 HD
ENDBRANCH   3  12
TORSDOF 1
ENDMDL
MODEL 2
REMARK VINA RESULT:    -5.455      1.550      4.282
REMARK INTER + INTRA:          -5.615
REMARK INTER:                  -5.615
REMARK INTRA:                   0.000
REMARK UNBOUND:                 0.000
REMARK SMILES O=c1ccc2ccc(O)cc2o1
REMARK SMILES IDX 6 1 7 2 8 3 10 4 11 5 5 6 4 7 3 8 2 9 1 10 12 11 9 12
REMARK H PARENT 9 13
REMARK Flexibility Score: inf
ROOT
ATOM      1  C   UNL     1       6.091  10.861   5.166  1.00  0.00     0.016 A 
ATOM      2  C   UNL     1       7.471  11.037   5.025  1.00  0.00     0.047 A 
ATOM      3  C   UNL     1       8.301  11.062   6.154  1.00  0.00     0.119 A 
ATOM      4  C   UNL     1       7.746  10.911   7.433  1.00  0.00     0.094 A 
ATOM      5  C   UNL     1       6.365  10.735   7.583  1.00  0.00     0.142 A 
ATOM      6  C   UNL     1       5.533  10.709   6.443  1.00  0.00     0.018 A 
ATOM      7  C   UNL     1       4.158  10.532   6.625  1.00  0.00     0.019 A 
ATOM      8  C   UNL     1       3.653  10.385   7.917  1.00  0.00     0.094 A 
ATOM      9  C   UNL     1       4.538  10.420   8.999  1.00  0.00     0.336 A 
ATOM     10  O   UNL     1       4.101  10.290  10.172  1.00  0.00    -0.246 OA
ATOM     11  O   UNL     1       5.842  10.591   8.798  1.00  0.00    -0.423 OA
ENDROOT
BRANCH   3  12
ATOM     12  O   UNL     1       9.673  11.239   5.993  1.00  0.00    -0.508 OA
ATOM     13  H   UNL     1      10.136  12.091   6.286  1.00  0.00     0.293 HD
ENDBRANCH   3  12
TORSDOF 1
ENDMDL
MODEL 3
REMARK VINA RESULT:    -5.409      1.936      4.776
REMARK INTER + INTRA:          -5.567
REMARK INTER:                  -5.567
REMARK INTRA:                   0.000
REMARK UNBOUND:                 0.000
REMARK SMILES O=c1ccc2ccc(O)cc2o1
REMARK SMILES IDX 6 1 7 2 8 3 10 4 11 5 5 6 4 7 3 8 2 9 1 10 12 11 9 12
REMARK H PARENT 9 13
REMARK Flexibility Score: inf
ROOT
ATOM      1  C   UNL     1       7.953  10.901   7.107  1.00  0.00     0.016 A 
ATOM      2  C   UNL     1       8.509  11.321   5.895  1.00  0.00     0.047 A 
ATOM      3  C   UNL     1       7.692  11.533   4.777  1.00  0.00     0.119 A 
ATOM      4  C   UNL     1       6.309  11.323   4.873  1.00  0.00     0.094 A 
ATOM      5  C   UNL     1       5.743  10.902   6.082  1.00  0.00     0.142 A 
ATOM      6  C   UNL     1       6.571  10.690   7.206  1.00  0.00     0.018 A 
ATOM      7  C   UNL     1       5.977  10.269   8.401  1.00  0.00     0.019 A 
ATOM      8  C   UNL     1       4.597  10.074   8.447  1.00  0.00     0.094 A 
ATOM      9  C   UNL     1       3.841  10.305   7.293  1.00  0.00     0.336 A 
ATOM     10  O   UNL     1       2.594  10.133   7.315  1.00  0.00    -0.246 OA
ATOM     11  O   UNL     1       4.431  10.704   6.169  1.00  0.00    -0.423 OA
ENDROOT
BRANCH   3  12
ATOM     12  O   UNL     1       8.264  11.952   3.578  1.00  0.00    -0.508 OA
ATOM     13  H   UNL     1       8.241  12.923   3.291  1.00  0.00     0.293 HD
ENDBRANCH   3  12
TORSDOF 1
ENDMDL
MODEL 4
REMARK VINA RESULT:    -5.402      1.856      2.520
REMARK INTER + INTRA:          -5.559
REMARK INTER:                  -5.559
REMARK INTRA:                   0.000
REMARK UNBOUND:                 0.000
REMARK SMILES O=c1ccc2ccc(O)cc2o1
REMARK SMILES IDX 6 1 7 2 8 3 10 4 11 5 5 6 4 7 3 8 2 9 1 10 12 11 9 12
REMARK H PARENT 9 13
REMARK Flexibility Score: inf
ROOT
ATOM      1  C   UNL     1       6.311  10.423   8.463  1.00  0.00     0.016 A 
ATOM      2  C   UNL     1       4.941  10.164   8.572  1.00  0.00     0.047 A 
ATOM      3  C   UNL     1       4.104  10.299   7.458  1.00  0.00     0.119 A 
ATOM      4  C   UNL     1       4.641  10.695   6.224  1.00  0.00     0.094 A 
ATOM      5  C   UNL     1       6.011  10.956   6.105  1.00  0.00     0.142 A 
ATOM      6  C   UNL     1       6.851  10.818   7.232  1.00  0.00     0.018 A 
ATOM      7  C   UNL     1       8.216  11.087   7.082  1.00  0.00     0.019 A 
ATOM      8  C   UNL     1       8.703  11.478   5.835  1.00  0.00     0.094 A 
ATOM      9  C   UNL     1       7.811  11.591   4.764  1.00  0.00     0.336 A 
ATOM     10  O   UNL     1       8.232  11.943   3.631  1.00  0.00    -0.246 OA
ATOM     11  O   UNL     1       6.517  11.331   4.934  1.00  0.00    -0.423 OA
ENDROOT
BRANCH   3  12
ATOM     12  O   UNL     1       2.742  10.037   7.586  1.00  0.00    -0.508 OA
ATOM     13  H   UNL     1       2.252  10.195   8.459  1.00  0.00     0.293 HD
ENDBRANCH   3  12
TORSDOF 1
ENDMDL
MODEL 5
REMARK VINA RESULT:    -5.307      1.580      2.174
REMARK INTER + INTRA:          -5.462
REMARK INTER:                  -5.462
REMARK INTRA:                   0.000
REMARK UNBOUND:                 0.000
REMARK SMILES O=c1ccc2ccc(O)cc2o1
REMARK SMILES IDX 6 1 7 2 8 3 10 4 11 5 5 6 4 7 3 8 2 9 1 10 12 11 9 12
REMARK H PARENT 9 13
REMARK Flexibility Score: inf
ROOT
ATOM      1  C   UNL     1       4.803  12.505   8.899  1.00  0.00     0.016 A 
ATOM      2  C   UNL     1       3.820  11.756   9.552  1.00  0.00     0.047 A 
ATOM      3  C   UNL     1       3.516  10.457   9.122  1.00  0.00     0.119 A 
ATOM      4  C   UNL     1       4.201   9.905   8.030  1.00  0.00     0.094 A 
ATOM      5  C   UNL     1       5.187  10.648   7.370  1.00  0.00     0.142 A 
ATOM      6  C   UNL     1       5.490  11.956   7.807  1.00  0.00     0.018 A 
ATOM      7  C   UNL     1       6.479  12.673   7.127  1.00  0.00     0.019 A 
ATOM      8  C   UNL     1       7.132  12.082   6.046  1.00  0.00     0.094 A 
ATOM      9  C   UNL     1       6.780  10.781   5.670  1.00  0.00     0.336 A 
ATOM     10  O   UNL     1       7.358  10.230   4.698  1.00  0.00    -0.246 OA
ATOM     11  O   UNL     1       5.834  10.121   6.334  1.00  0.00    -0.423 OA
ENDROOT
BRANCH   3  12
ATOM     12  O   UNL     1       2.534   9.727   9.786  1.00  0.00    -0.508 OA
ATOM     13  H   UNL     1       1.906   9.107   9.287  1.00  0.00     0.293 HD
ENDBRANCH   3  12
TORSDOF 1
ENDMDL
MODEL 6
REMARK VINA RESULT:    -5.168      1.949      2.214
REMARK INTER + INTRA:          -5.319
REMARK INTER:                  -5.319
REMARK INTRA:                   0.000
REMARK UNBOUND:                 0.000
REMARK SMILES O=c1ccc2ccc(O)cc2o1
REMARK SMILES IDX 6 1 7 2 8 3 10 4 11 5 5 6 4 7 3 8 2 9 1 10 12 11 9 12
REMARK H PARENT 9 13
REMARK Flexibility Score: inf
ROOT
ATOM      1  C   UNL     1       4.147  10.131   7.046  1.00  0.00     0.016 A 
ATOM      2  C   UNL     1       2.912  10.171   7.701  1.00  0.00     0.047 A 
ATOM      3  C   UNL     1       2.748  10.946   8.857  1.00  0.00     0.119 A 
ATOM      4  C   UNL     1       3.828  11.686   9.361  1.00  0.00     0.094 A 
ATOM      5  C   UNL     1       5.067  11.652   8.712  1.00  0.00     0.142 A 
ATOM      6  C   UNL     1       5.228  10.870   7.547  1.00  0.00     0.018 A 
ATOM      7  C   UNL     1       6.478  10.855   6.921  1.00  0.00     0.019 A 
ATOM      8  C   UNL     1       7.521  11.608   7.459  1.00  0.00     0.094 A 
ATOM      9  C   UNL     1       7.288  12.360   8.616  1.00  0.00     0.336 A 
ATOM     10  O   UNL     1       8.217  13.046   9.117  1.00  0.00    -0.246 OA
ATOM     11  O   UNL     1       6.089  12.356   9.192  1.00  0.00    -0.423 OA
ENDROOT
BRANCH   3  12
ATOM     12  O   UNL     1       1.511  10.973   9.495  1.00  0.00    -0.508 OA
ATOM     13  H   UNL     1       0.905  11.783   9.442  1.00  0.00     0.293 HD
ENDBRANCH   3  12
TORSDOF 1
ENDMDL
MODEL 7
REMARK VINA RESULT:    -4.989      1.872      4.150
REMARK INTER + INTRA:          -5.135
REMARK INTER:                  -5.135
REMARK INTRA:                   0.000
REMARK UNBOUND:                 0.000
REMARK SMILES O=c1ccc2ccc(O)cc2o1
REMARK SMILES IDX 6 1 7 2 8 3 10 4 11 5 5 6 4 7 3 8 2 9 1 10 12 11 9 12
REMARK H PARENT 9 13
REMARK Flexibility Score: inf
ROOT
ATOM      1  C   UNL     1       6.097  10.693   6.971  1.00  0.00     0.016 A 
ATOM      2  C   UNL     1       7.276  11.330   7.371  1.00  0.00     0.047 A 
ATOM      3  C   UNL     1       7.287  12.157   8.502  1.00  0.00     0.119 A 
ATOM      4  C   UNL     1       6.109  12.348   9.238  1.00  0.00     0.094 A 
ATOM      5  C   UNL     1       4.924  11.714   8.846  1.00  0.00     0.142 A 
ATOM      6  C   UNL     1       4.918  10.882   7.706  1.00  0.00     0.018 A 
ATOM      7  C   UNL     1       3.719  10.263   7.338  1.00  0.00     0.019 A 
ATOM      8  C   UNL     1       2.574  10.483   8.103  1.00  0.00     0.094 A 
ATOM      9  C   UNL     1       2.655  11.320   9.221  1.00  0.00     0.336 A 
ATOM     10  O   UNL     1       1.632  11.531   9.923  1.00  0.00    -0.246 OA
ATOM     11  O   UNL     1       3.808  11.897   9.548  1.00  0.00    -0.423 OA
ENDROOT
BRANCH   3  12
ATOM     12  O   UNL     1       8.471  12.783   8.883  1.00  0.00    -0.508 OA
ATOM     13  H   UNL     1       8.859  12.662   9.812  1.00  0.00     0.293 HD
ENDBRANCH   3  12
TORSDOF 1
ENDMDL
MODEL 8
REMARK VINA RESULT:    -4.984     17.127     18.589
REMARK INTER + INTRA:          -5.129
REMARK INTER:                  -5.129
REMARK INTRA:                   0.000
REMARK UNBOUND:                 0.000
REMARK SMILES O=c1ccc2ccc(O)cc2o1
REMARK SMILES IDX 6 1 7 2 8 3 10 4 11 5 5 6 4 7 3 8 2 9 1 10 12 11 9 12
REMARK H PARENT 9 13
REMARK Flexibility Score: inf
ROOT
ATOM      1  C   UNL     1      -4.658  10.099  -8.780  1.00  0.00     0.016 A 
ATOM      2  C   UNL     1      -3.655  11.016  -8.450  1.00  0.00     0.047 A 
ATOM      3  C   UNL     1      -3.700  11.706  -7.232  1.00  0.00     0.119 A 
ATOM      4  C   UNL     1      -4.756  11.477  -6.337  1.00  0.00     0.094 A 
ATOM      5  C   UNL     1      -5.764  10.561  -6.659  1.00  0.00     0.142 A 
ATOM      6  C   UNL     1      -5.714   9.868  -7.888  1.00  0.00     0.018 A 
ATOM      7  C   UNL     1      -6.737   8.959  -8.182  1.00  0.00     0.019 A 
ATOM      8  C   UNL     1      -7.765   8.766  -7.261  1.00  0.00     0.094 A 
ATOM      9  C   UNL     1      -7.747   9.487  -6.063  1.00  0.00     0.336 A 
ATOM     10  O   UNL     1      -8.667   9.326  -5.219  1.00  0.00    -0.246 OA
ATOM     11  O   UNL     1      -6.763  10.347  -5.808  1.00  0.00    -0.423 OA
ENDROOT
BRANCH   3  12
ATOM     12  O   UNL     1      -2.692  12.615  -6.920  1.00  0.00    -0.508 OA
ATOM     13  H   UNL     1      -2.803  13.297  -6.179  1.00  0.00     0.293 HD
ENDBRANCH   3  12
TORSDOF 1
ENDMDL
MODEL 9
REMARK VINA RESULT:    -4.750      2.024      4.474
REMARK INTER + INTRA:          -4.888
REMARK INTER:                  -4.888
REMARK INTRA:                   0.000
REMARK UNBOUND:                 0.000
REMARK SMILES O=c1ccc2ccc(O)cc2o1
REMARK SMILES IDX 6 1 7 2 8 3 10 4 11 5 5 6 4 7 3 8 2 9 1 10 12 11 9 12
REMARK H PARENT 9 13
REMARK Flexibility Score: inf
ROOT
ATOM      1  C   UNL     1       7.025  12.375   8.821  1.00  0.00     0.016 A 
ATOM      2  C   UNL     1       8.142  12.155   8.009  1.00  0.00     0.047 A 
ATOM      3  C   UNL     1       8.041  11.345   6.871  1.00  0.00     0.119 A 
ATOM      4  C   UNL     1       6.813  10.751   6.542  1.00  0.00     0.094 A 
ATOM      5  C   UNL     1       5.690  10.966   7.349  1.00  0.00     0.142 A 
ATOM      6  C   UNL     1       5.797  11.784   8.496  1.00  0.00     0.018 A 
ATOM      7  C   UNL     1       4.657  11.980   9.283  1.00  0.00     0.019 A 
ATOM      8  C   UNL     1       3.459  11.368   8.916  1.00  0.00     0.094 A 
ATOM      9  C   UNL     1       3.428  10.573   7.766  1.00  0.00     0.336 A 
ATOM     10  O   UNL     1       2.356  10.012   7.419  1.00  0.00    -0.246 OA
ATOM     11  O   UNL     1       4.527  10.402   7.035  1.00  0.00    -0.423 OA
ENDROOT
BRANCH   3  12
ATOM     12  O   UNL     1       9.164  11.136   6.074  1.00  0.00    -0.508 OA
ATOM     13  H   UNL     1       9.112  10.606   5.212  1.00  0.00     0.293 HD
ENDBRANCH   3  12
TORSDOF 1
ENDMDL
