MODEL 1
REMARK VINA RESULT:    -4.390      0.000      0.000
REMARK INTER + INTRA:          -8.923
REMARK INTER:                  -7.983
REMARK INTRA:                  -0.940
REMARK UNBOUND:                -0.940
REMARK SMILES CCCCCCCCCCCCCCCC(=O)[O-]
REMARK SMILES IDX 9 1 10 2 11 3 12 4 13 5 14 6 15 7 16 8 17 9 18 10 8 11 7 12
REMARK SMILES IDX 6 13 5 14 4 15 3 16 2 17 1 18
REMARK H PARENT
REMARK Flexibility Score: inf
ROOT
ATOM      1  C   UNL     1     -36.083  -8.790   0.813  1.00  0.00     0.000 C 
ENDROOT
BRANCH   1   2
ATOM      2  C   UNL     1     -36.443  -8.280  -0.598  1.00  0.00     0.000 C 
BRANCH   2   3
ATOM      3  C   UNL     1     -37.865  -7.691  -0.655  1.00  0.00     0.000 C 
BRANCH   3   4
ATOM      4  C   UNL     1     -37.954  -6.441  -1.545  1.00  0.00     0.000 C 
BRANCH   4   5
ATOM      5  C   UNL     1     -38.115  -5.147  -0.734  1.00  0.00     0.000 C 
BRANCH   5   6
ATOM      6  C   UNL     1     -37.226  -4.030  -1.300  1.00  0.00     0.006 C 
BRANCH   6   7
ATOM      7  C   UNL     1     -37.217  -2.784  -0.405  1.00  0.00     0.053 C 
BRANCH   7   8
ATOM      8  C   UNL     1     -36.755  -1.569  -1.150  1.00  0.00     0.041 C 
ATOM      9  O   UNL     1     -36.755  -0.442  -0.589  1.00  0.00    -0.550 OA
ATOM     10  O   UNL     1     -36.355  -1.677  -2.476  1.00  0.00    -0.550 OA
ENDBRANCH   7   8
ENDBRANCH   6   7
ENDBRANCH   5   6
ENDBRANCH   4   5
ENDBRANCH   3   4
ENDBRANCH   2   3
ENDBRANCH   1   2
BRANCH   1  11
ATOM     11  C   UNL     1     -37.256  -8.741   1.806  1.00  0.00     0.000 C 
BRANCH  11  12
ATOM     12  C   UNL     1     -37.090  -9.729   2.972  1.00  0.00    -0.000 C 
BRANCH  12  13
ATOM     13  C   UNL     1     -37.134 -11.200   2.520  1.00  0.00    -0.000 C 
BRANCH  13  14
ATOM     14  C   UNL     1     -36.045 -12.103   3.133  1.00  0.00    -0.000 C 
BRANCH  14  15
ATOM     15  C   UNL     1     -34.657 -11.433   3.220  1.00  0.00    -0.000 C 
BRANCH  15  16
ATOM     16  C   UNL     1     -33.755 -11.812   2.032  1.00  0.00    -0.000 C 
BRANCH  16  17
ATOM     17  C   UNL     1     -32.262 -11.623   2.342  1.00  0.00    -0.003 C 
ATOM     18  C   UNL     1     -32.023 -11.049   3.739  1.00  0.00     0.004 C 
ENDBRANCH  16  17
ENDBRANCH  15  16
ENDBRANCH  14  15
ENDBRANCH  13  14
ENDBRANCH  12  13
ENDBRANCH  11  12
ENDBRANCH   1  11
TORSDOF 14
ENDMDL
MODEL 2
REMARK VINA RESULT:    -4.255      4.307      8.760
REMARK INTER + INTRA:          -8.677
REMARK INTER:                  -7.946
REMARK INTRA:                  -0.731
REMARK UNBOUND:                -0.940
REMARK SMILES CCCCCCCCCCCCCCCC(=O)[O-]
REMARK SMILES IDX 9 1 10 2 11 3 12 4 13 5 14 6 15 7 16 8 17 9 18 10 8 11 7 12
REMARK SMILES IDX 6 13 5 14 4 15 3 16 2 17 1 18
REMARK H PARENT
REMARK Flexibility Score: inf
ROOT
ATOM      1  C   UNL     1     -36.027  -9.212   0.817  1.00  0.00     0.000 C 
ENDROOT
BRANCH   1   2
ATOM      2  C   UNL     1     -36.841 -10.445   1.262  1.00  0.00     0.000 C 
BRANCH   2   3
ATOM      3  C   UNL     1     -36.194 -11.764   0.799  1.00  0.00     0.000 C 
BRANCH   3   4
ATOM      4  C   UNL     1     -34.728 -11.892   1.238  1.00  0.00     0.000 C 
BRANCH   4   5
ATOM      5  C   UNL     1     -34.569 -11.943   2.765  1.00  0.00     0.000 C 
BRANCH   5   6
ATOM      6  C   UNL     1     -33.586 -10.868   3.251  1.00  0.00     0.006 C 
BRANCH   6   7
ATOM      7  C   UNL     1     -32.622 -11.401   4.319  1.00  0.00     0.053 C 
BRANCH   7   8
ATOM      8  C   UNL     1     -31.195 -11.097   3.980  1.00  0.00     0.041 C 
ATOM      9  O   UNL     1     -30.354 -10.892   4.895  1.00  0.00    -0.550 OA
ATOM     10  O   UNL     1     -30.801 -11.005   2.651  1.00  0.00    -0.550 OA
ENDBRANCH   7   8
ENDBRANCH   6   7
ENDBRANCH   5   6
ENDBRANCH   4   5
ENDBRANCH   3   4
ENDBRANCH   2   3
ENDBRANCH   1   2
BRANCH   1  11
ATOM     11  C   UNL     1     -36.390  -8.707  -0.590  1.00  0.00     0.000 C 
BRANCH  11  12
ATOM     12  C   UNL     1     -37.851  -8.240  -0.695  1.00  0.00    -0.000 C 
BRANCH  12  13
ATOM     13  C   UNL     1     -38.003  -6.926  -1.482  1.00  0.00    -0.000 C 
BRANCH  13  14
ATOM     14  C   UNL     1     -37.930  -5.644  -0.628  1.00  0.00    -0.000 C 
BRANCH  14  15
ATOM     15  C   UNL     1     -37.004  -4.557  -1.216  1.00  0.00    -0.000 C 
BRANCH  15  16
ATOM     16  C   UNL     1     -37.344  -3.154  -0.680  1.00  0.00    -0.000 C 
BRANCH  16  17
ATOM     17  C   UNL     1     -36.858  -2.035  -1.612  1.00  0.00    -0.003 C 
ATOM     18  C   UNL     1     -36.551  -0.739  -0.861  1.00  0.00     0.004 C 
ENDBRANCH  16  17
ENDBRANCH  15  16
ENDBRANCH  14  15
ENDBRANCH  13  14
ENDBRANCH  12  13
ENDBRANCH  11  12
ENDBRANCH   1  11
TORSDOF 14
ENDMDL
MODEL 3
REMARK VINA RESULT:    -4.105      4.498      8.262
REMARK INTER + INTRA:          -8.404
REMARK INTER:                  -7.306
REMARK INTRA:                  -1.098
REMARK UNBOUND:                -0.940
REMARK SMILES CCCCCCCCCCCCCCCC(=O)[O-]
REMARK SMILES IDX 9 1 10 2 11 3 12 4 13 5 14 6 15 7 16 8 17 9 18 10 8 11 7 12
REMARK SMILES IDX 6 13 5 14 4 15 3 16 2 17 1 18
REMARK H PARENT
REMARK Flexibility Score: inf
ROOT
ATOM      1  C   UNL     1     -35.211 -10.628  -1.410  1.00  0.00     0.000 C 
ENDROOT
BRANCH   1   2
ATOM      2  C   UNL     1     -34.662 -11.994  -0.949  1.00  0.00     0.000 C 
BRANCH   2   3
ATOM      3  C   UNL     1     -34.397 -12.031   0.567  1.00  0.00     0.000 C 
BRANCH   3   4
ATOM      4  C   UNL     1     -35.195 -10.966   1.335  1.00  0.00     0.000 C 
BRANCH   4   5
ATOM      5  C   UNL     1     -34.753 -10.837   2.800  1.00  0.00     0.000 C 
BRANCH   5   6
ATOM      6  C   UNL     1     -33.555 -11.751   3.095  1.00  0.00     0.006 C 
BRANCH   6   7
ATOM      7  C   UNL     1     -32.408 -11.001   3.786  1.00  0.00     0.053 C 
BRANCH   7   8
ATOM      8  C   UNL     1     -31.102 -11.217   3.086  1.00  0.00     0.041 C 
ATOM      9  O   UNL     1     -31.080 -11.565   1.876  1.00  0.00    -0.550 OA
ATOM     10  O   UNL     1     -29.908 -11.067   3.781  1.00  0.00    -0.550 OA
ENDBRANCH   7   8
ENDBRANCH   6   7
ENDBRANCH   5   6
ENDBRANCH   4   5
ENDBRANCH   3   4
ENDBRANCH   2   3
ENDBRANCH   1   2
BRANCH   1  11
ATOM     11  C   UNL     1     -36.164 -10.720  -2.614  1.00  0.00     0.000 C 
BRANCH  11  12
ATOM     12  C   UNL     1     -37.363  -9.764  -2.498  1.00  0.00    -0.000 C 
BRANCH  12  13
ATOM     13  C   UNL     1     -37.996  -9.769  -1.095  1.00  0.00    -0.000 C 
BRANCH  13  14
ATOM     14  C   UNL     1     -38.033  -8.397  -0.392  1.00  0.00    -0.000 C 
BRANCH  14  15
ATOM     15  C   UNL     1     -37.798  -7.204  -1.343  1.00  0.00    -0.000 C 
BRANCH  15  16
ATOM     16  C   UNL     1     -37.658  -5.874  -0.581  1.00  0.00    -0.000 C 
BRANCH  16  17
ATOM     17  C   UNL     1     -37.430  -4.680  -1.518  1.00  0.00    -0.003 C 
ATOM     18  C   UNL     1     -37.263  -3.363  -0.760  1.00  0.00     0.004 C 
ENDBRANCH  16  17
ENDBRANCH  15  16
ENDBRANCH  14  15
ENDBRANCH  13  14
ENDBRANCH  12  13
ENDBRANCH  11  12
ENDBRANCH   1  11
TORSDOF 14
ENDMDL
MODEL 4
REMARK VINA RESULT:    -3.887     19.451     22.148
REMARK INTER + INTRA:          -8.007
REMARK INTER:                  -6.547
REMARK INTRA:                  -1.460
REMARK UNBOUND:                -0.940
REMARK SMILES CCCCCCCCCCCCCCCC(=O)[O-]
REMARK SMILES IDX 9 1 10 2 11 3 12 4 13 5 14 6 15 7 16 8 17 9 18 10 8 11 7 12
REMARK SMILES IDX 6 13 5 14 4 15 3 16 2 17 1 18
REMARK H PARENT
REMARK Flexibility Score: inf
ROOT
ATOM      1  C   UNL     1     -21.129   3.282  12.485  1.00  0.00     0.000 C 
ENDROOT
BRANCH   1   2
ATOM      2  C   UNL     1     -19.895   4.007  13.061  1.00  0.00     0.000 C 
BRANCH   2   3
ATOM      3  C   UNL     1     -18.587   3.248  12.768  1.00  0.00     0.000 C 
BRANCH   3   4
ATOM      4  C   UNL     1     -18.793   2.055  11.823  1.00  0.00     0.000 C 
BRANCH   4   5
ATOM      5  C   UNL     1     -18.564   2.421  10.349  1.00  0.00     0.000 C 
BRANCH   5   6
ATOM      6  C   UNL     1     -19.405   1.528   9.425  1.00  0.00     0.006 C 
BRANCH   6   7
ATOM      7  C   UNL     1     -20.542   2.302   8.744  1.00  0.00     0.053 C 
BRANCH   7   8
ATOM      8  C   UNL     1     -21.849   1.579   8.854  1.00  0.00     0.041 C 
ATOM      9  O   UNL     1     -22.258   1.172   9.973  1.00  0.00    -0.550 OA
ATOM     10  O   UNL     1     -22.600   1.325   7.713  1.00  0.00    -0.550 OA
ENDBRANCH   7   8
ENDBRANCH   6   7
ENDBRANCH   5   6
ENDBRANCH   4   5
ENDBRANCH   3   4
ENDBRANCH   2   3
ENDBRANCH   1   2
BRANCH   1  11
ATOM     11  C   UNL     1     -22.151   4.226  11.831  1.00  0.00     0.000 C 
BRANCH  11  12
ATOM     12  C   UNL     1     -21.487   5.368  11.045  1.00  0.00    -0.000 C 
BRANCH  12  13
ATOM     13  C   UNL     1     -22.133   6.738  11.321  1.00  0.00    -0.000 C 
BRANCH  13  14
ATOM     14  C   UNL     1     -23.004   6.803  12.591  1.00  0.00    -0.000 C 
BRANCH  14  15
ATOM     15  C   UNL     1     -24.507   7.015  12.305  1.00  0.00    -0.000 C 
BRANCH  15  16
ATOM     16  C   UNL     1     -25.266   5.682  12.181  1.00  0.00    -0.000 C 
BRANCH  16  17
ATOM     17  C   UNL     1     -26.790   5.866  12.237  1.00  0.00    -0.003 C 
ATOM     18  C   UNL     1     -27.512   5.121  11.113  1.00  0.00     0.004 C 
ENDBRANCH  16  17
ENDBRANCH  15  16
ENDBRANCH  14  15
ENDBRANCH  13  14
ENDBRANCH  12  13
ENDBRANCH  11  12
ENDBRANCH   1  11
TORSDOF 14
ENDMDL
MODEL 5
REMARK VINA RESULT:    -3.807      4.411      8.301
REMARK INTER + INTRA:          -7.862
REMARK INTER:                  -7.032
REMARK INTRA:                  -0.830
REMARK UNBOUND:                -0.940
REMARK SMILES CCCCCCCCCCCCCCCC(=O)[O-]
REMARK SMILES IDX 9 1 10 2 11 3 12 4 13 5 14 6 15 7 16 8 17 9 18 10 8 11 7 12
REMARK SMILES IDX 6 13 5 14 4 15 3 16 2 17 1 18
REMARK H PARENT
REMARK Flexibility Score: inf
ROOT
ATOM      1  C   UNL     1     -36.568  -9.390  -2.042  1.00  0.00     0.000 C 
ENDROOT
BRANCH   1   2
ATOM      2  C   UNL     1     -36.026 -10.752  -2.523  1.00  0.00     0.000 C 
BRANCH   2   3
ATOM      3  C   UNL     1     -34.742 -11.161  -1.778  1.00  0.00     0.000 C 
BRANCH   3   4
ATOM      4  C   UNL     1     -35.014 -12.124  -0.612  1.00  0.00     0.000 C 
BRANCH   4   5
ATOM      5  C   UNL     1     -34.966 -11.427   0.755  1.00  0.00     0.000 C 
BRANCH   5   6
ATOM      6  C   UNL     1     -33.660 -11.757   1.494  1.00  0.00     0.006 C 
BRANCH   6   7
ATOM      7  C   UNL     1     -33.721 -11.379   2.980  1.00  0.00     0.053 C 
BRANCH   7   8
ATOM      8  C   UNL     1     -32.355 -11.167   3.556  1.00  0.00     0.041 C 
ATOM      9  O   UNL     1     -31.374 -10.947   2.798  1.00  0.00    -0.550 OA
ATOM     10  O   UNL     1     -32.160 -11.248   4.929  1.00  0.00    -0.550 OA
ENDBRANCH   7   8
ENDBRANCH   6   7
ENDBRANCH   5   6
ENDBRANCH   4   5
ENDBRANCH   3   4
ENDBRANCH   2   3
ENDBRANCH   1   2
BRANCH   1  11
ATOM     11  C   UNL     1     -37.599  -9.501  -0.906  1.00  0.00     0.000 C 
BRANCH  11  12
ATOM     12  C   UNL     1     -37.370  -8.469   0.209  1.00  0.00    -0.000 C 
BRANCH  12  13
ATOM     13  C   UNL     1     -38.121  -7.148  -0.036  1.00  0.00    -0.000 C 
BRANCH  13  14
ATOM     14  C   UNL     1     -37.308  -6.061  -0.767  1.00  0.00    -0.000 C 
BRANCH  14  15
ATOM     15  C   UNL     1     -38.125  -4.796  -1.107  1.00  0.00    -0.000 C 
BRANCH  15  16
ATOM     16  C   UNL     1     -37.279  -3.740  -1.842  1.00  0.00    -0.000 C 
BRANCH  16  17
ATOM     17  C   UNL     1     -36.583  -2.769  -0.877  1.00  0.00    -0.003 C 
ATOM     18  C   UNL     1     -37.318  -2.642   0.458  1.00  0.00     0.004 C 
ENDBRANCH  16  17
ENDBRANCH  15  16
ENDBRANCH  14  15
ENDBRANCH  13  14
ENDBRANCH  12  13
ENDBRANCH  11  12
ENDBRANCH   1  11
TORSDOF 14
ENDMDL
MODEL 6
REMARK VINA RESULT:    -3.764     20.435     22.767
REMARK INTER + INTRA:          -7.784
REMARK INTER:                  -5.573
REMARK INTRA:                  -2.211
REMARK UNBOUND:                -0.940
REMARK SMILES CCCCCCCCCCCCCCCC(=O)[O-]
REMARK SMILES IDX 9 1 10 2 11 3 12 4 13 5 14 6 15 7 16 8 17 9 18 10 8 11 7 12
REMARK SMILES IDX 6 13 5 14 4 15 3 16 2 17 1 18
REMARK H PARENT
REMARK Flexibility Score: inf
ROOT
ATOM      1  C   UNL     1     -22.192   3.162  11.826  1.00  0.00     0.000 C 
ENDROOT
BRANCH   1   2
ATOM      2  C   UNL     1     -21.335   3.612  13.027  1.00  0.00     0.000 C 
BRANCH   2   3
ATOM      3  C   UNL     1     -19.911   3.028  12.975  1.00  0.00     0.000 C 
BRANCH   3   4
ATOM      4  C   UNL     1     -18.954   3.872  12.120  1.00  0.00     0.000 C 
BRANCH   4   5
ATOM      5  C   UNL     1     -18.200   3.036  11.075  1.00  0.00     0.000 C 
BRANCH   5   6
ATOM      6  C   UNL     1     -18.806   1.630  10.955  1.00  0.00     0.006 C 
BRANCH   6   7
ATOM      7  C   UNL     1     -19.058   1.228   9.496  1.00  0.00     0.053 C 
BRANCH   7   8
ATOM      8  C   UNL     1     -20.412   1.664   9.026  1.00  0.00     0.041 C 
ATOM      9  O   UNL     1     -21.412   0.917   9.189  1.00  0.00    -0.550 OA
ATOM     10  O   UNL     1     -20.562   2.883   8.376  1.00  0.00    -0.550 OA
ENDBRANCH   7   8
ENDBRANCH   6   7
ENDBRANCH   5   6
ENDBRANCH   4   5
ENDBRANCH   3   4
ENDBRANCH   2   3
ENDBRANCH   1   2
BRANCH   1  11
ATOM     11  C   UNL     1     -23.371   4.101  11.522  1.00  0.00     0.000 C 
BRANCH  11  12
ATOM     12  C   UNL     1     -23.641   5.103  12.655  1.00  0.00    -0.000 C 
BRANCH  12  13
ATOM     13  C   UNL     1     -24.535   6.277  12.215  1.00  0.00    -0.000 C 
BRANCH  13  14
ATOM     14  C   UNL     1     -23.927   7.677  12.434  1.00  0.00    -0.000 C 
BRANCH  14  15
ATOM     15  C   UNL     1     -22.401   7.664  12.665  1.00  0.00    -0.000 C 
BRANCH  15  16
ATOM     16  C   UNL     1     -21.616   7.939  11.370  1.00  0.00    -0.000 C 
BRANCH  16  17
ATOM     17  C   UNL     1     -20.565   6.858  11.078  1.00  0.00    -0.003 C 
ATOM     18  C   UNL     1     -20.810   6.146   9.748  1.00  0.00     0.004 C 
ENDBRANCH  16  17
ENDBRANCH  15  16
ENDBRANCH  14  15
ENDBRANCH  13  14
ENDBRANCH  12  13
ENDBRANCH  11  12
ENDBRANCH   1  11
TORSDOF 14
ENDMDL
MODEL 7
REMARK VINA RESULT:    -3.743     19.663     21.775
REMARK INTER + INTRA:          -7.746
REMARK INTER:                  -6.178
REMARK INTRA:                  -1.568
REMARK UNBOUND:                -0.940
REMARK SMILES CCCCCCCCCCCCCCCC(=O)[O-]
REMARK SMILES IDX 9 1 10 2 11 3 12 4 13 5 14 6 15 7 16 8 17 9 18 10 8 11 7 12
REMARK SMILES IDX 6 13 5 14 4 15 3 16 2 17 1 18
REMARK H PARENT
REMARK Flexibility Score: inf
ROOT
ATOM      1  C   UNL     1     -22.422   2.865  10.448  1.00  0.00     0.000 C 
ENDROOT
BRANCH   1   2
ATOM      2  C   UNL     1     -22.059   1.403  10.116  1.00  0.00     0.000 C 
BRANCH   2   3
ATOM      3  C   UNL     1     -20.957   1.308   9.044  1.00  0.00     0.000 C 
BRANCH   3   4
ATOM      4  C   UNL     1     -19.609   1.864   9.529  1.00  0.00     0.000 C 
BRANCH   4   5
ATOM      5  C   UNL     1     -18.936   2.774   8.491  1.00  0.00     0.000 C 
BRANCH   5   6
ATOM      6  C   UNL     1     -19.902   3.867   8.010  1.00  0.00     0.006 C 
BRANCH   6   7
ATOM      7  C   UNL     1     -19.207   4.905   7.118  1.00  0.00     0.053 C 
BRANCH   7   8
ATOM      8  C   UNL     1     -19.350   4.573   5.665  1.00  0.00     0.041 C 
ATOM      9  O   UNL     1     -19.373   3.372   5.287  1.00  0.00    -0.550 OA
ATOM     10  O   UNL     1     -19.422   5.592   4.723  1.00  0.00    -0.550 OA
ENDBRANCH   7   8
ENDBRANCH   6   7
ENDBRANCH   5   6
ENDBRANCH   4   5
ENDBRANCH   3   4
ENDBRANCH   2   3
ENDBRANCH   1   2
BRANCH   1  11
ATOM     11  C   UNL     1     -22.276   3.214  11.938  1.00  0.00     0.000 C 
BRANCH  11  12
ATOM     12  C   UNL     1     -21.303   4.378  12.184  1.00  0.00    -0.000 C 
BRANCH  12  13
ATOM     13  C   UNL     1     -21.343   5.436  11.066  1.00  0.00    -0.000 C 
BRANCH  13  14
ATOM     14  C   UNL     1     -21.764   6.848  11.520  1.00  0.00    -0.000 C 
BRANCH  14  15
ATOM     15  C   UNL     1     -22.764   6.851  12.696  1.00  0.00    -0.000 C 
BRANCH  15  16
ATOM     16  C   UNL     1     -24.222   6.978  12.217  1.00  0.00    -0.000 C 
BRANCH  16  17
ATOM     17  C   UNL     1     -24.966   5.634  12.237  1.00  0.00    -0.003 C 
ATOM     18  C   UNL     1     -26.466   5.792  11.989  1.00  0.00     0.004 C 
ENDBRANCH  16  17
ENDBRANCH  15  16
ENDBRANCH  14  15
ENDBRANCH  13  14
ENDBRANCH  12  13
ENDBRANCH  11  12
ENDBRANCH   1  11
TORSDOF 14
ENDMDL
MODEL 8
REMARK VINA RESULT:    -3.717      4.422      5.710
REMARK INTER + INTRA:          -7.698
REMARK INTER:                  -5.953
REMARK INTRA:                  -1.745
REMARK UNBOUND:                -0.940
REMARK SMILES CCCCCCCCCCCCCCCC(=O)[O-]
REMARK SMILES IDX 9 1 10 2 11 3 12 4 13 5 14 6 15 7 16 8 17 9 18 10 8 11 7 12
REMARK SMILES IDX 6 13 5 14 4 15 3 16 2 17 1 18
REMARK H PARENT
REMARK Flexibility Score: inf
ROOT
ATOM      1  C   UNL     1     -36.072  -8.650   0.089  1.00  0.00     0.000 C 
ENDROOT
BRANCH   1   2
ATOM      2  C   UNL     1     -36.944  -7.641  -0.688  1.00  0.00     0.000 C 
BRANCH   2   3
ATOM      3  C   UNL     1     -37.995  -8.341  -1.569  1.00  0.00     0.000 C 
BRANCH   3   4
ATOM      4  C   UNL     1     -37.389  -9.438  -2.458  1.00  0.00     0.000 C 
BRANCH   4   5
ATOM      5  C   UNL     1     -37.894 -10.842  -2.093  1.00  0.00     0.000 C 
BRANCH   5   6
ATOM      6  C   UNL     1     -36.946 -11.924  -2.630  1.00  0.00     0.006 C 
BRANCH   6   7
ATOM      7  C   UNL     1     -35.561 -11.863  -1.972  1.00  0.00     0.053 C 
BRANCH   7   8
ATOM      8  C   UNL     1     -34.461 -11.927  -2.987  1.00  0.00     0.041 C 
ATOM      9  O   UNL     1     -33.262 -11.774  -2.634  1.00  0.00    -0.550 OA
ATOM     10  O   UNL     1     -34.764 -12.122  -4.329  1.00  0.00    -0.550 OA
ENDBRANCH   7   8
ENDBRANCH   6   7
ENDBRANCH   5   6
ENDBRANCH   4   5
ENDBRANCH   3   4
ENDBRANCH   2   3
ENDBRANCH   1   2
BRANCH   1  11
ATOM     11  C   UNL     1     -36.531  -8.873   1.540  1.00  0.00     0.000 C 
BRANCH  11  12
ATOM     12  C   UNL     1     -37.423 -10.116   1.697  1.00  0.00    -0.000 C 
BRANCH  12  13
ATOM     13  C   UNL     1     -36.666 -11.431   1.436  1.00  0.00    -0.000 C 
BRANCH  13  14
ATOM     14  C   UNL     1     -35.380 -11.619   2.267  1.00  0.00    -0.000 C 
BRANCH  14  15
ATOM     15  C   UNL     1     -34.101 -11.745   1.412  1.00  0.00    -0.000 C 
BRANCH  15  16
ATOM     16  C   UNL     1     -32.849 -11.984   2.275  1.00  0.00    -0.000 C 
BRANCH  16  17
ATOM     17  C   UNL     1     -32.729 -10.978   3.430  1.00  0.00    -0.003 C 
ATOM     18  C   UNL     1     -31.332 -10.962   4.051  1.00  0.00     0.004 C 
ENDBRANCH  16  17
ENDBRANCH  15  16
ENDBRANCH  14  15
ENDBRANCH  13  14
ENDBRANCH  12  13
ENDBRANCH  11  12
ENDBRANCH   1  11
TORSDOF 14
ENDMDL
MODEL 9
REMARK VINA RESULT:    -3.656     20.223     22.365
REMARK INTER + INTRA:          -7.588
REMARK INTER:                  -5.399
REMARK INTRA:                  -2.189
REMARK UNBOUND:                -0.940
REMARK SMILES CCCCCCCCCCCCCCCC(=O)[O-]
REMARK SMILES IDX 9 1 10 2 11 3 12 4 13 5 14 6 15 7 16 8 17 9 18 10 8 11 7 12
REMARK SMILES IDX 6 13 5 14 4 15 3 16 2 17 1 18
REMARK H PARENT
REMARK Flexibility Score: inf
ROOT
ATOM      1  C   UNL     1     -20.974   2.090   9.210  1.00  0.00     0.000 C 
ENDROOT
BRANCH   1   2
ATOM      2  C   UNL     1     -22.044   1.847  10.295  1.00  0.00     0.000 C 
BRANCH   2   3
ATOM      3  C   UNL     1     -22.583   3.164  10.883  1.00  0.00     0.000 C 
BRANCH   3   4
ATOM      4  C   UNL     1     -22.175   3.371  12.349  1.00  0.00     0.000 C 
BRANCH   4   5
ATOM      5  C   UNL     1     -22.885   4.568  12.998  1.00  0.00     0.000 C 
BRANCH   5   6
ATOM      6  C   UNL     1     -23.977   5.127  12.074  1.00  0.00     0.006 C 
BRANCH   6   7
ATOM      7  C   UNL     1     -24.331   6.582  12.405  1.00  0.00     0.053 C 
BRANCH   7   8
ATOM      8  C   UNL     1     -23.172   7.503  12.171  1.00  0.00     0.041 C 
ATOM      9  O   UNL     1     -22.419   7.831  13.125  1.00  0.00    -0.550 OA
ATOM     10  O   UNL     1     -22.946   8.026  10.904  1.00  0.00    -0.550 OA
ENDBRANCH   7   8
ENDBRANCH   6   7
ENDBRANCH   5   6
ENDBRANCH   4   5
ENDBRANCH   3   4
ENDBRANCH   2   3
ENDBRANCH   1   2
BRANCH   1  11
ATOM     11  C   UNL     1     -19.722   1.210   9.369  1.00  0.00     0.000 C 
BRANCH  11  12
ATOM     12  C   UNL     1     -18.550   1.956  10.027  1.00  0.00    -0.000 C 
BRANCH  12  13
ATOM     13  C   UNL     1     -18.603   1.912  11.565  1.00  0.00    -0.000 C 
BRANCH  13  14
ATOM     14  C   UNL     1     -17.917   3.097  12.275  1.00  0.00    -0.000 C 
BRANCH  14  15
ATOM     15  C   UNL     1     -18.813   4.347  12.407  1.00  0.00    -0.000 C 
BRANCH  15  16
ATOM     16  C   UNL     1     -18.687   5.282  11.190  1.00  0.00    -0.000 C 
BRANCH  16  17
ATOM     17  C   UNL     1     -19.992   6.032  10.887  1.00  0.00    -0.003 C 
ATOM     18  C   UNL     1     -20.513   5.756   9.477  1.00  0.00     0.004 C 
ENDBRANCH  16  17
ENDBRANCH  15  16
ENDBRANCH  14  15
ENDBRANCH  13  14
ENDBRANCH  12  13
ENDBRANCH  11  12
ENDBRANCH   1  11
TORSDOF 14
ENDMDL
