MODEL 1
REMARK VINA RESULT:    -2.487      0.000      0.000
REMARK INTER + INTRA:          -7.476
REMARK INTER:                  -5.395
REMARK INTRA:                  -2.081
REMARK UNBOUND:                -2.081
REMARK SMILES CCCCCCCCCCCCCCCCCCCCCC(=O)[O-]
REMARK SMILES IDX 12 1 11 2 10 3 9 4 8 5 7 6 6 7 5 8 4 9 3 10 2 11 1 12 13 13
REMARK SMILES IDX 14 14 15 15 16 16 17 17 18 18 19 19 20 20 21 21 22 22 23 23
REMARK SMILES IDX 24 24
REMARK H PARENT
REMARK Flexibility Score: inf
ROOT
ATOM      1  C   UNL     1      -6.062  36.182  24.605  1.00  0.00     0.000 C 
ENDROOT
BRANCH   1   2
ATOM      2  C   UNL     1      -5.876  35.521  23.233  1.00  0.00     0.000 C 
BRANCH   2   3
ATOM      3  C   UNL     1      -4.607  36.038  22.538  1.00  0.00     0.000 C 
BRANCH   3   4
ATOM      4  C   UNL     1      -4.540  35.659  21.049  1.00  0.00    -0.000 C 
BRANCH   4   5
ATOM      5  C   UNL     1      -5.832  35.999  20.289  1.00  0.00    -0.000 C 
BRANCH   5   6
ATOM      6  C   UNL     1      -5.770  35.605  18.802  1.00  0.00    -0.000 C 
BRANCH   6   7
ATOM      7  C   UNL     1      -4.350  35.379  18.244  1.00  0.00    -0.000 C 
BRANCH   7   8
ATOM      8  C   UNL     1      -3.794  36.530  17.382  1.00  0.00    -0.000 C 
BRANCH   8   9
ATOM      9  C   UNL     1      -2.663  36.128  16.412  1.00  0.00    -0.000 C 
BRANCH   9  10
ATOM     10  C   UNL     1      -1.951  37.304  15.713  1.00  0.00    -0.000 C 
BRANCH  10  11
ATOM     11  C   UNL     1      -2.878  38.445  15.260  1.00  0.00    -0.003 C 
ATOM     12  C   UNL     1      -3.792  38.045  14.104  1.00  0.00     0.004 C 
ENDBRANCH  10  11
ENDBRANCH   9  10
ENDBRANCH   8   9
ENDBRANCH   7   8
ENDBRANCH   6   7
ENDBRANCH   5   6
ENDBRANCH   4   5
ENDBRANCH   3   4
ENDBRANCH   2   3
ENDBRANCH   1   2
BRANCH   1  13
ATOM     13  C   UNL     1      -4.809  36.972  25.012  1.00  0.00     0.000 C 
BRANCH  13  14
ATOM     14  C   UNL     1      -5.091  38.481  25.168  1.00  0.00     0.000 C 
BRANCH  14  15
ATOM     15  C   UNL     1      -5.901  39.081  24.007  1.00  0.00     0.000 C 
BRANCH  15  16
ATOM     16  C   UNL     1      -5.107  40.112  23.192  1.00  0.00     0.000 C 
BRANCH  16  17
ATOM     17  C   UNL     1      -5.724  40.389  21.810  1.00  0.00     0.000 C 
BRANCH  17  18
ATOM     18  C   UNL     1      -5.291  39.381  20.725  1.00  0.00     0.000 C 
BRANCH  18  19
ATOM     19  C   UNL     1      -3.848  38.883  20.927  1.00  0.00     0.000 C 
BRANCH  19  20
ATOM     20  C   UNL     1      -3.031  38.876  19.621  1.00  0.00     0.006 C 
BRANCH  20  21
ATOM     21  C   UNL     1      -1.925  37.809  19.572  1.00  0.00     0.053 C 
BRANCH  21  22
ATOM     22  C   UNL     1      -0.652  38.337  18.988  1.00  0.00     0.041 C 
ATOM     23  O   UNL     1      -0.685  39.126  18.007  1.00  0.00    -0.550 OA
ATOM     24  O   UNL     1       0.572  37.946  19.516  1.00  0.00    -0.550 OA
ENDBRANCH  21  22
ENDBRANCH  20  21
ENDBRANCH  19  20
ENDBRANCH  18  19
ENDBRANCH  17  18
ENDBRANCH  16  17
ENDBRANCH  15  16
ENDBRANCH  14  15
ENDBRANCH  13  14
ENDBRANCH   1  13
TORSDOF 20
ENDMDL
MODEL 2
REMARK VINA RESULT:    -2.226      1.951      4.977
REMARK INTER + INTRA:          -6.910
REMARK INTER:                  -5.649
REMARK INTRA:                  -1.261
REMARK UNBOUND:                -2.081
REMARK SMILES CCCCCCCCCCCCCCCCCCCCCC(=O)[O-]
REMARK SMILES IDX 12 1 11 2 10 3 9 4 8 5 7 6 6 7 5 8 4 9 3 10 2 11 1 12 13 13
REMARK SMILES IDX 14 14 15 15 16 16 17 17 18 18 19 19 20 20 21 21 22 22 23 23
REMARK SMILES IDX 24 24
REMARK H PARENT
REMARK Flexibility Score: inf
ROOT
ATOM      1  C   UNL     1      -5.282  36.255  23.668  1.00  0.00     0.000 C 
ENDROOT
BRANCH   1   2
ATOM      2  C   UNL     1      -6.027  37.086  24.721  1.00  0.00     0.000 C 
BRANCH   2   3
ATOM      3  C   UNL     1      -6.057  38.573  24.331  1.00  0.00     0.000 C 
BRANCH   3   4
ATOM      4  C   UNL     1      -4.708  39.278  24.549  1.00  0.00    -0.000 C 
BRANCH   4   5
ATOM      5  C   UNL     1      -4.212  40.018  23.297  1.00  0.00    -0.000 C 
BRANCH   5   6
ATOM      6  C   UNL     1      -5.335  40.281  22.276  1.00  0.00    -0.000 C 
BRANCH   6   7
ATOM      7  C   UNL     1      -5.183  39.540  20.932  1.00  0.00    -0.000 C 
BRANCH   7   8
ATOM      8  C   UNL     1      -4.011  38.541  20.863  1.00  0.00    -0.000 C 
BRANCH   8   9
ATOM      9  C   UNL     1      -3.292  38.475  19.500  1.00  0.00    -0.000 C 
BRANCH   9  10
ATOM     10  C   UNL     1      -1.827  38.955  19.508  1.00  0.00    -0.000 C 
BRANCH  10  11
ATOM     11  C   UNL     1      -0.799  37.905  19.053  1.00  0.00    -0.003 C 
ATOM     12  C   UNL     1       0.430  38.522  18.392  1.00  0.00     0.004 C 
ENDBRANCH  10  11
ENDBRANCH   9  10
ENDBRANCH   8   9
ENDBRANCH   7   8
ENDBRANCH   6   7
ENDBRANCH   5   6
ENDBRANCH   4   5
ENDBRANCH   3   4
ENDBRANCH   2   3
ENDBRANCH   1   2
BRANCH   1  13
ATOM     13  C   UNL     1      -6.125  36.092  22.395  1.00  0.00     0.000 C 
BRANCH  13  14
ATOM     14  C   UNL     1      -5.282  35.634  21.187  1.00  0.00     0.000 C 
BRANCH  14  15
ATOM     15  C   UNL     1      -5.750  36.228  19.847  1.00  0.00     0.000 C 
BRANCH  15  16
ATOM     16  C   UNL     1      -5.752  35.202  18.705  1.00  0.00     0.000 C 
BRANCH  16  17
ATOM     17  C   UNL     1      -4.404  35.122  17.967  1.00  0.00     0.000 C 
BRANCH  17  18
ATOM     18  C   UNL     1      -3.891  36.489  17.466  1.00  0.00     0.000 C 
BRANCH  18  19
ATOM     19  C   UNL     1      -2.589  36.365  16.654  1.00  0.00     0.000 C 
BRANCH  19  20
ATOM     20  C   UNL     1      -2.207  37.674  15.936  1.00  0.00     0.006 C 
BRANCH  20  21
ATOM     21  C   UNL     1      -2.519  37.685  14.430  1.00  0.00     0.053 C 
BRANCH  21  22
ATOM     22  C   UNL     1      -3.806  38.383  14.122  1.00  0.00     0.041 C 
ATOM     23  O   UNL     1      -4.845  37.715  13.877  1.00  0.00    -0.550 OA
ATOM     24  O   UNL     1      -3.856  39.771  14.087  1.00  0.00    -0.550 OA
ENDBRANCH  21  22
ENDBRANCH  20  21
ENDBRANCH  19  20
ENDBRANCH  18  19
ENDBRANCH  17  18
ENDBRANCH  16  17
ENDBRANCH  15  16
ENDBRANCH  14  15
ENDBRANCH  13  14
ENDBRANCH   1  13
TORSDOF 20
ENDMDL
MODEL 3
REMARK VINA RESULT:    -2.127      1.107      5.995
REMARK INTER + INTRA:          -6.694
REMARK INTER:                  -5.223
REMARK INTRA:                  -1.471
REMARK UNBOUND:                -2.081
REMARK SMILES CCCCCCCCCCCCCCCCCCCCCC(=O)[O-]
REMARK SMILES IDX 12 1 11 2 10 3 9 4 8 5 7 6 6 7 5 8 4 9 3 10 2 11 1 12 13 13
REMARK SMILES IDX 14 14 15 15 16 16 17 17 18 18 19 19 20 20 21 21 22 22 23 23
REMARK SMILES IDX 24 24
REMARK H PARENT
REMARK Flexibility Score: inf
ROOT
ATOM      1  C   UNL     1      -5.290  36.768  19.928  1.00  0.00     0.000 C 
ENDROOT
BRANCH   1   2
ATOM      2  C   UNL     1      -5.497  36.709  21.447  1.00  0.00     0.000 C 
BRANCH   2   3
ATOM      3  C   UNL     1      -4.268  36.106  22.148  1.00  0.00     0.000 C 
BRANCH   3   4
ATOM      4  C   UNL     1      -4.639  35.069  23.221  1.00  0.00    -0.000 C 
BRANCH   4   5
ATOM      5  C   UNL     1      -6.073  35.239  23.745  1.00  0.00    -0.000 C 
BRANCH   5   6
ATOM      6  C   UNL     1      -6.125  35.884  25.143  1.00  0.00    -0.000 C 
BRANCH   6   7
ATOM      7  C   UNL     1      -6.083  37.426  25.152  1.00  0.00    -0.000 C 
BRANCH   7   8
ATOM      8  C   UNL     1      -4.693  38.043  25.403  1.00  0.00    -0.000 C 
BRANCH   8   9
ATOM      9  C   UNL     1      -4.247  39.087  24.358  1.00  0.00    -0.000 C 
BRANCH   9  10
ATOM     10  C   UNL     1      -5.395  39.797  23.612  1.00  0.00    -0.000 C 
BRANCH  10  11
ATOM     11  C   UNL     1      -5.164  39.989  22.103  1.00  0.00    -0.003 C 
ATOM     12  C   UNL     1      -6.030  41.095  21.504  1.00  0.00     0.004 C 
ENDBRANCH  10  11
ENDBRANCH   9  10
ENDBRANCH   8   9
ENDBRANCH   7   8
ENDBRANCH   6   7
ENDBRANCH   5   6
ENDBRANCH   4   5
ENDBRANCH   3   4
ENDBRANCH   2   3
ENDBRANCH   1   2
BRANCH   1  13
ATOM     13  C   UNL     1      -6.039  35.628  19.223  1.00  0.00     0.000 C 
BRANCH  13  14
ATOM     14  C   UNL     1      -5.145  34.870  18.218  1.00  0.00     0.000 C 
BRANCH  14  15
ATOM     15  C   UNL     1      -3.719  35.436  18.113  1.00  0.00     0.000 C 
BRANCH  15  16
ATOM     16  C   UNL     1      -3.294  35.721  16.665  1.00  0.00     0.000 C 
BRANCH  16  17
ATOM     17  C   UNL     1      -3.714  37.120  16.181  1.00  0.00     0.000 C 
BRANCH  17  18
ATOM     18  C   UNL     1      -2.927  37.610  14.947  1.00  0.00     0.000 C 
BRANCH  18  19
ATOM     19  C   UNL     1      -1.416  37.338  15.067  1.00  0.00     0.000 C 
BRANCH  19  20
ATOM     20  C   UNL     1      -0.916  37.382  16.523  1.00  0.00     0.006 C 
BRANCH  20  21
ATOM     21  C   UNL     1      -1.331  38.643  17.298  1.00  0.00     0.053 C 
BRANCH  21  22
ATOM     22  C   UNL     1      -1.316  38.430  18.780  1.00  0.00     0.041 C 
ATOM     23  O   UNL     1      -2.342  38.681  19.466  1.00  0.00    -0.550 OA
ATOM     24  O   UNL     1      -0.164  37.973  19.407  1.00  0.00    -0.550 OA
ENDBRANCH  21  22
ENDBRANCH  20  21
ENDBRANCH  19  20
ENDBRANCH  18  19
ENDBRANCH  17  18
ENDBRANCH  16  17
ENDBRANCH  15  16
ENDBRANCH  14  15
ENDBRANCH  13  14
ENDBRANCH   1  13
TORSDOF 20
ENDMDL
MODEL 4
REMARK VINA RESULT:    -1.754      1.685      4.812
REMARK INTER + INTRA:          -5.886
REMARK INTER:                  -4.136
REMARK INTRA:                  -1.750
REMARK UNBOUND:                -2.081
REMARK SMILES CCCCCCCCCCCCCCCCCCCCCC(=O)[O-]
REMARK SMILES IDX 12 1 11 2 10 3 9 4 8 5 7 6 6 7 5 8 4 9 3 10 2 11 1 12 13 13
REMARK SMILES IDX 14 14 15 15 16 16 17 17 18 18 19 19 20 20 21 21 22 22 23 23
REMARK SMILES IDX 24 24
REMARK H PARENT
REMARK Flexibility Score: inf
ROOT
ATOM      1  C   UNL     1      -4.797  40.111  23.776  1.00  0.00     0.000 C 
ENDROOT
BRANCH   1   2
ATOM      2  C   UNL     1      -6.072  39.287  24.003  1.00  0.00     0.000 C 
BRANCH   2   3
ATOM      3  C   UNL     1      -6.093  38.683  25.416  1.00  0.00     0.000 C 
BRANCH   3   4
ATOM      4  C   UNL     1      -4.778  37.978  25.788  1.00  0.00    -0.000 C 
BRANCH   4   5
ATOM      5  C   UNL     1      -4.471  36.774  24.885  1.00  0.00    -0.000 C 
BRANCH   5   6
ATOM      6  C   UNL     1      -5.672  35.822  24.731  1.00  0.00    -0.000 C 
BRANCH   6   7
ATOM      7  C   UNL     1      -6.122  35.568  23.278  1.00  0.00    -0.000 C 
BRANCH   7   8
ATOM      8  C   UNL     1      -5.244  36.225  22.195  1.00  0.00    -0.000 C 
BRANCH   8   9
ATOM      9  C   UNL     1      -4.168  35.305  21.583  1.00  0.00    -0.000 C 
BRANCH   9  10
ATOM     10  C   UNL     1      -3.811  35.602  20.112  1.00  0.00    -0.000 C 
BRANCH  10  11
ATOM     11  C   UNL     1      -4.936  35.317  19.103  1.00  0.00    -0.003 C 
ATOM     12  C   UNL     1      -4.430  35.182  17.669  1.00  0.00     0.004 C 
ENDBRANCH  10  11
ENDBRANCH   9  10
ENDBRANCH   8   9
ENDBRANCH   7   8
ENDBRANCH   6   7
ENDBRANCH   5   6
ENDBRANCH   4   5
ENDBRANCH   3   4
ENDBRANCH   2   3
ENDBRANCH   1   2
BRANCH   1  13
ATOM     13  C   UNL     1      -4.519  40.298  22.277  1.00  0.00     0.000 C 
BRANCH  13  14
ATOM     14  C   UNL     1      -4.498  38.958  21.512  1.00  0.00     0.000 C 
BRANCH  14  15
ATOM     15  C   UNL     1      -5.184  39.023  20.136  1.00  0.00     0.000 C 
BRANCH  15  16
ATOM     16  C   UNL     1      -4.222  38.735  18.975  1.00  0.00     0.000 C 
BRANCH  16  17
ATOM     17  C   UNL     1      -2.828  38.286  19.446  1.00  0.00     0.000 C 
BRANCH  17  18
ATOM     18  C   UNL     1      -1.718  38.509  18.398  1.00  0.00     0.000 C 
BRANCH  18  19
ATOM     19  C   UNL     1      -1.473  37.263  17.527  1.00  0.00     0.000 C 
BRANCH  19  20
ATOM     20  C   UNL     1      -1.193  37.611  16.053  1.00  0.00     0.006 C 
BRANCH  20  21
ATOM     21  C   UNL     1      -2.221  37.041  15.061  1.00  0.00     0.053 C 
BRANCH  21  22
ATOM     22  C   UNL     1      -3.330  38.005  14.775  1.00  0.00     0.041 C 
ATOM     23  O   UNL     1      -3.366  39.120  15.360  1.00  0.00    -0.550 OA
ATOM     24  O   UNL     1      -4.334  37.667  13.877  1.00  0.00    -0.550 OA
ENDBRANCH  21  22
ENDBRANCH  20  21
ENDBRANCH  19  20
ENDBRANCH  18  19
ENDBRANCH  17  18
ENDBRANCH  16  17
ENDBRANCH  15  16
ENDBRANCH  14  15
ENDBRANCH  13  14
ENDBRANCH   1  13
TORSDOF 20
ENDMDL
MODEL 5
REMARK VINA RESULT:    -1.689      2.118      6.012
REMARK INTER + INTRA:          -5.746
REMARK INTER:                  -3.558
REMARK INTRA:                  -2.188
REMARK UNBOUND:                -2.081
REMARK SMILES CCCCCCCCCCCCCCCCCCCCCC(=O)[O-]
REMARK SMILES IDX 12 1 11 2 10 3 9 4 8 5 7 6 6 7 5 8 4 9 3 10 2 11 1 12 13 13
REMARK SMILES IDX 14 14 15 15 16 16 17 17 18 18 19 19 20 20 21 21 22 22 23 23
REMARK SMILES IDX 24 24
REMARK H PARENT
REMARK Flexibility Score: inf
ROOT
ATOM      1  C   UNL     1      -4.506  36.055  21.352  1.00  0.00     0.000 C 
ENDROOT
BRANCH   1   2
ATOM      2  C   UNL     1      -4.561  35.140  22.583  1.00  0.00     0.000 C 
BRANCH   2   3
ATOM      3  C   UNL     1      -6.003  34.994  23.097  1.00  0.00     0.000 C 
BRANCH   3   4
ATOM      4  C   UNL     1      -6.125  35.220  24.613  1.00  0.00    -0.000 C 
BRANCH   4   5
ATOM      5  C   UNL     1      -5.300  36.420  25.106  1.00  0.00    -0.000 C 
BRANCH   5   6
ATOM      6  C   UNL     1      -6.071  37.750  25.018  1.00  0.00    -0.000 C 
BRANCH   6   7
ATOM      7  C   UNL     1      -5.273  38.997  25.450  1.00  0.00    -0.000 C 
BRANCH   7   8
ATOM      8  C   UNL     1      -4.767  39.884  24.295  1.00  0.00    -0.000 C 
BRANCH   8   9
ATOM      9  C   UNL     1      -5.754  40.046  23.120  1.00  0.00    -0.000 C 
BRANCH   9  10
ATOM     10  C   UNL     1      -5.213  39.603  21.745  1.00  0.00    -0.000 C 
BRANCH  10  11
ATOM     11  C   UNL     1      -6.064  40.046  20.542  1.00  0.00    -0.003 C 
ATOM     12  C   UNL     1      -6.069  41.560  20.342  1.00  0.00     0.004 C 
ENDBRANCH  10  11
ENDBRANCH   9  10
ENDBRANCH   8   9
ENDBRANCH   7   8
ENDBRANCH   6   7
ENDBRANCH   5   6
ENDBRANCH   4   5
ENDBRANCH   3   4
ENDBRANCH   2   3
ENDBRANCH   1   2
BRANCH   1  13
ATOM     13  C   UNL     1      -5.830  36.017  20.575  1.00  0.00     0.000 C 
BRANCH  13  14
ATOM     14  C   UNL     1      -5.712  35.235  19.250  1.00  0.00     0.000 C 
BRANCH  14  15
ATOM     15  C   UNL     1      -4.296  35.253  18.647  1.00  0.00     0.000 C 
BRANCH  15  16
ATOM     16  C   UNL     1      -4.090  36.391  17.638  1.00  0.00     0.000 C 
BRANCH  16  17
ATOM     17  C   UNL     1      -3.044  37.421  18.100  1.00  0.00     0.000 C 
BRANCH  17  18
ATOM     18  C   UNL     1      -1.589  36.994  17.818  1.00  0.00     0.000 C 
BRANCH  18  19
ATOM     19  C   UNL     1      -1.277  36.926  16.312  1.00  0.00     0.000 C 
BRANCH  19  20
ATOM     20  C   UNL     1      -1.855  38.120  15.529  1.00  0.00     0.006 C 
BRANCH  20  21
ATOM     21  C   UNL     1      -2.562  37.735  14.218  1.00  0.00     0.053 C 
BRANCH  21  22
ATOM     22  C   UNL     1      -3.888  38.413  14.067  1.00  0.00     0.041 C 
ATOM     23  O   UNL     1      -4.930  37.730  13.887  1.00  0.00    -0.550 OA
ATOM     24  O   UNL     1      -3.970  39.799  14.107  1.00  0.00    -0.550 OA
ENDBRANCH  21  22
ENDBRANCH  20  21
ENDBRANCH  19  20
ENDBRANCH  18  19
ENDBRANCH  17  18
ENDBRANCH  16  17
ENDBRANCH  15  16
ENDBRANCH  14  15
ENDBRANCH  13  14
ENDBRANCH   1  13
TORSDOF 20
ENDMDL
MODEL 6
REMARK VINA RESULT:    -1.631      1.538      3.134
REMARK INTER + INTRA:          -5.618
REMARK INTER:                  -5.170
REMARK INTRA:                  -0.448
REMARK UNBOUND:                -2.081
REMARK SMILES CCCCCCCCCCCCCCCCCCCCCC(=O)[O-]
REMARK SMILES IDX 12 1 11 2 10 3 9 4 8 5 7 6 6 7 5 8 4 9 3 10 2 11 1 12 13 13
REMARK SMILES IDX 14 14 15 15 16 16 17 17 18 18 19 19 20 20 21 21 22 22 23 23
REMARK SMILES IDX 24 24
REMARK H PARENT
REMARK Flexibility Score: inf
ROOT
ATOM      1  C   UNL     1      -3.789  35.226  22.756  1.00  0.00     0.000 C 
ENDROOT
BRANCH   1   2
ATOM      2  C   UNL     1      -3.482  34.990  21.270  1.00  0.00     0.000 C 
BRANCH   2   3
ATOM      3  C   UNL     1      -4.151  36.060  20.393  1.00  0.00     0.000 C 
BRANCH   3   4
ATOM      4  C   UNL     1      -5.522  35.622  19.851  1.00  0.00    -0.000 C 
BRANCH   4   5
ATOM      5  C   UNL     1      -5.501  35.327  18.343  1.00  0.00    -0.000 C 
BRANCH   5   6
ATOM      6  C   UNL     1      -4.075  35.284  17.763  1.00  0.00    -0.000 C 
BRANCH   6   7
ATOM      7  C   UNL     1      -3.558  36.624  17.201  1.00  0.00    -0.000 C 
BRANCH   7   8
ATOM      8  C   UNL     1      -2.155  36.570  16.564  1.00  0.00    -0.000 C 
BRANCH   8   9
ATOM      9  C   UNL     1      -1.812  37.761  15.645  1.00  0.00    -0.000 C 
BRANCH   9  10
ATOM     10  C   UNL     1      -2.300  37.627  14.189  1.00  0.00    -0.000 C 
BRANCH  10  11
ATOM     11  C   UNL     1      -3.757  38.061  13.952  1.00  0.00    -0.003 C 
ATOM     12  C   UNL     1      -4.008  39.524  14.311  1.00  0.00     0.004 C 
ENDBRANCH  10  11
ENDBRANCH   9  10
ENDBRANCH   8   9
ENDBRANCH   7   8
ENDBRANCH   6   7
ENDBRANCH   5   6
ENDBRANCH   4   5
ENDBRANCH   3   4
ENDBRANCH   2   3
ENDBRANCH   1   2
BRANCH   1  13
ATOM     13  C   UNL     1      -4.860  36.311  22.933  1.00  0.00     0.000 C 
BRANCH  13  14
ATOM     14  C   UNL     1      -6.125  35.778  23.640  1.00  0.00     0.000 C 
BRANCH  14  15
ATOM     15  C   UNL     1      -6.117  35.995  25.164  1.00  0.00     0.000 C 
BRANCH  15  16
ATOM     16  C   UNL     1      -6.055  37.478  25.557  1.00  0.00     0.000 C 
BRANCH  16  17
ATOM     17  C   UNL     1      -4.618  38.025  25.610  1.00  0.00     0.000 C 
BRANCH  17  18
ATOM     18  C   UNL     1      -4.401  39.282  24.741  1.00  0.00     0.000 C 
BRANCH  18  19
ATOM     19  C   UNL     1      -5.683  39.720  24.010  1.00  0.00     0.000 C 
BRANCH  19  20
ATOM     20  C   UNL     1      -5.458  39.973  22.508  1.00  0.00     0.006 C 
BRANCH  20  21
ATOM     21  C   UNL     1      -4.112  39.455  21.973  1.00  0.00     0.053 C 
BRANCH  21  22
ATOM     22  C   UNL     1      -4.172  39.114  20.517  1.00  0.00     0.041 C 
ATOM     23  O   UNL     1      -3.164  38.631  19.938  1.00  0.00    -0.550 OA
ATOM     24  O   UNL     1      -5.335  39.347  19.794  1.00  0.00    -0.550 OA
ENDBRANCH  21  22
ENDBRANCH  20  21
ENDBRANCH  19  20
ENDBRANCH  18  19
ENDBRANCH  17  18
ENDBRANCH  16  17
ENDBRANCH  15  16
ENDBRANCH  14  15
ENDBRANCH  13  14
ENDBRANCH   1  13
TORSDOF 20
ENDMDL
MODEL 7
REMARK VINA RESULT:    -1.554      2.477      4.424
REMARK INTER + INTRA:          -5.452
REMARK INTER:                  -3.678
REMARK INTRA:                  -1.774
REMARK UNBOUND:                -2.081
REMARK SMILES CCCCCCCCCCCCCCCCCCCCCC(=O)[O-]
REMARK SMILES IDX 12 1 11 2 10 3 9 4 8 5 7 6 6 7 5 8 4 9 3 10 2 11 1 12 13 13
REMARK SMILES IDX 14 14 15 15 16 16 17 17 18 18 19 19 20 20 21 21 22 22 23 23
REMARK SMILES IDX 24 24
REMARK H PARENT
REMARK Flexibility Score: inf
ROOT
ATOM      1  C   UNL     1      -5.020  37.778  20.998  1.00  0.00     0.000 C 
ENDROOT
BRANCH   1   2
ATOM      2  C   UNL     1      -6.058  36.669  20.777  1.00  0.00     0.000 C 
BRANCH   2   3
ATOM      3  C   UNL     1      -5.587  35.680  19.698  1.00  0.00     0.000 C 
BRANCH   3   4
ATOM      4  C   UNL     1      -4.094  35.826  19.361  1.00  0.00    -0.000 C 
BRANCH   4   5
ATOM      5  C   UNL     1      -3.854  36.401  17.957  1.00  0.00    -0.000 C 
BRANCH   5   6
ATOM      6  C   UNL     1      -3.316  37.844  17.987  1.00  0.00    -0.000 C 
BRANCH   6   7
ATOM      7  C   UNL     1      -1.786  37.967  18.143  1.00  0.00    -0.000 C 
BRANCH   7   8
ATOM      8  C   UNL     1      -0.971  37.660  16.872  1.00  0.00    -0.000 C 
BRANCH   8   9
ATOM      9  C   UNL     1      -1.727  36.856  15.793  1.00  0.00    -0.000 C 
BRANCH   9  10
ATOM     10  C   UNL     1      -2.026  37.628  14.492  1.00  0.00    -0.000 C 
BRANCH  10  11
ATOM     11  C   UNL     1      -3.521  37.769  14.153  1.00  0.00    -0.003 C 
ATOM     12  C   UNL     1      -3.982  39.223  14.091  1.00  0.00     0.004 C 
ENDBRANCH  10  11
ENDBRANCH   9  10
ENDBRANCH   8   9
ENDBRANCH   7   8
ENDBRANCH   6   7
ENDBRANCH   5   6
ENDBRANCH   4   5
ENDBRANCH   3   4
ENDBRANCH   2   3
ENDBRANCH   1   2
BRANCH   1  13
ATOM     13  C   UNL     1      -5.676  39.165  20.953  1.00  0.00     0.000 C 
BRANCH  13  14
ATOM     14  C   UNL     1      -4.935  40.194  21.833  1.00  0.00     0.000 C 
BRANCH  14  15
ATOM     15  C   UNL     1      -3.966  39.557  22.844  1.00  0.00     0.000 C 
BRANCH  15  16
ATOM     16  C   UNL     1      -3.905  40.318  24.176  1.00  0.00     0.000 C 
BRANCH  16  17
ATOM     17  C   UNL     1      -5.100  40.013  25.096  1.00  0.00     0.000 C 
BRANCH  17  18
ATOM     18  C   UNL     1      -4.942  38.708  25.904  1.00  0.00     0.000 C 
BRANCH  18  19
ATOM     19  C   UNL     1      -6.109  37.730  25.675  1.00  0.00     0.000 C 
BRANCH  19  20
ATOM     20  C   UNL     1      -5.945  36.896  24.391  1.00  0.00     0.006 C 
BRANCH  20  21
ATOM     21  C   UNL     1      -6.124  35.381  24.591  1.00  0.00     0.053 C 
BRANCH  21  22
ATOM     22  C   UNL     1      -5.440  34.583  23.526  1.00  0.00     0.041 C 
ATOM     23  O   UNL     1      -5.912  33.472  23.166  1.00  0.00    -0.550 OA
ATOM     24  O   UNL     1      -4.271  35.055  22.943  1.00  0.00    -0.550 OA
ENDBRANCH  21  22
ENDBRANCH  20  21
ENDBRANCH  19  20
ENDBRANCH  18  19
ENDBRANCH  17  18
ENDBRANCH  16  17
ENDBRANCH  15  16
ENDBRANCH  14  15
ENDBRANCH  13  14
ENDBRANCH   1  13
TORSDOF 20
ENDMDL
MODEL 8
REMARK VINA RESULT:    -1.332      1.154      6.320
REMARK INTER + INTRA:          -4.969
REMARK INTER:                  -4.574
REMARK INTRA:                  -0.395
REMARK UNBOUND:                -2.081
REMARK SMILES CCCCCCCCCCCCCCCCCCCCCC(=O)[O-]
REMARK SMILES IDX 12 1 11 2 10 3 9 4 8 5 7 6 6 7 5 8 4 9 3 10 2 11 1 12 13 13
REMARK SMILES IDX 14 14 15 15 16 16 17 17 18 18 19 19 20 20 21 21 22 22 23 23
REMARK SMILES IDX 24 24
REMARK H PARENT
REMARK Flexibility Score: inf
ROOT
ATOM      1  C   UNL     1      -4.843  37.453  20.021  1.00  0.00     0.000 C 
ENDROOT
BRANCH   1   2
ATOM      2  C   UNL     1      -5.059  38.014  21.433  1.00  0.00     0.000 C 
BRANCH   2   3
ATOM      3  C   UNL     1      -5.514  39.481  21.380  1.00  0.00     0.000 C 
BRANCH   3   4
ATOM      4  C   UNL     1      -5.228  40.246  22.683  1.00  0.00    -0.000 C 
BRANCH   4   5
ATOM      5  C   UNL     1      -4.163  39.562  23.554  1.00  0.00    -0.000 C 
BRANCH   5   6
ATOM      6  C   UNL     1      -4.520  39.573  25.052  1.00  0.00    -0.000 C 
BRANCH   6   7
ATOM      7  C   UNL     1      -4.773  38.184  25.674  1.00  0.00    -0.000 C 
BRANCH   7   8
ATOM      8  C   UNL     1      -6.124  37.539  25.308  1.00  0.00    -0.000 C 
BRANCH   8   9
ATOM      9  C   UNL     1      -6.103  36.664  24.037  1.00  0.00    -0.000 C 
BRANCH   9  10
ATOM     10  C   UNL     1      -6.125  35.142  24.289  1.00  0.00    -0.000 C 
BRANCH  10  11
ATOM     11  C   UNL     1      -5.342  34.306  23.263  1.00  0.00    -0.003 C 
ATOM     12  C   UNL     1      -4.410  35.148  22.394  1.00  0.00     0.004 C 
ENDBRANCH  10  11
ENDBRANCH   9  10
ENDBRANCH   8   9
ENDBRANCH   7   8
ENDBRANCH   6   7
ENDBRANCH   5   6
ENDBRANCH   4   5
ENDBRANCH   3   4
ENDBRANCH   2   3
ENDBRANCH   1   2
BRANCH   1  13
ATOM     13  C   UNL     1      -6.020  36.565  19.592  1.00  0.00     0.000 C 
BRANCH  13  14
ATOM     14  C   UNL     1      -5.573  35.387  18.700  1.00  0.00     0.000 C 
BRANCH  14  15
ATOM     15  C   UNL     1      -4.050  35.310  18.498  1.00  0.00     0.000 C 
BRANCH  15  16
ATOM     16  C   UNL     1      -3.625  35.576  17.047  1.00  0.00     0.000 C 
BRANCH  16  17
ATOM     17  C   UNL     1      -3.748  37.056  16.647  1.00  0.00     0.000 C 
BRANCH  17  18
ATOM     18  C   UNL     1      -2.995  37.412  15.348  1.00  0.00     0.000 C 
BRANCH  18  19
ATOM     19  C   UNL     1      -1.496  37.067  15.423  1.00  0.00     0.000 C 
BRANCH  19  20
ATOM     20  C   UNL     1      -0.909  37.264  16.833  1.00  0.00     0.006 C 
BRANCH  20  21
ATOM     21  C   UNL     1      -1.520  38.439  17.616  1.00  0.00     0.053 C 
BRANCH  21  22
ATOM     22  C   UNL     1      -1.079  38.459  19.046  1.00  0.00     0.041 C 
ATOM     23  O   UNL     1       0.082  38.083  19.356  1.00  0.00    -0.550 OA
ATOM     24  O   UNL     1      -1.955  38.877  20.040  1.00  0.00    -0.550 OA
ENDBRANCH  21  22
ENDBRANCH  20  21
ENDBRANCH  19  20
ENDBRANCH  18  19
ENDBRANCH  17  18
ENDBRANCH  16  17
ENDBRANCH  15  16
ENDBRANCH  14  15
ENDBRANCH  13  14
ENDBRANCH   1  13
TORSDOF 20
ENDMDL
MODEL 9
REMARK VINA RESULT:    -1.179      2.910      6.297
REMARK INTER + INTRA:          -4.639
REMARK INTER:                  -3.088
REMARK INTRA:                  -1.552
REMARK UNBOUND:                -2.081
REMARK SMILES CCCCCCCCCCCCCCCCCCCCCC(=O)[O-]
REMARK SMILES IDX 12 1 11 2 10 3 9 4 8 5 7 6 6 7 5 8 4 9 3 10 2 11 1 12 13 13
REMARK SMILES IDX 14 14 15 15 16 16 17 17 18 18 19 19 20 20 21 21 22 22 23 23
REMARK SMILES IDX 24 24
REMARK H PARENT
REMARK Flexibility Score: inf
ROOT
ATOM      1  C   UNL     1      -0.127  38.240  17.886  1.00  0.00     0.000 C 
ENDROOT
BRANCH   1   2
ATOM      2  C   UNL     1      -0.929  37.144  17.171  1.00  0.00     0.000 C 
BRANCH   2   3
ATOM      3  C   UNL     1      -1.623  37.698  15.917  1.00  0.00     0.000 C 
BRANCH   3   4
ATOM      4  C   UNL     1      -2.880  36.903  15.526  1.00  0.00    -0.000 C 
BRANCH   4   5
ATOM      5  C   UNL     1      -3.897  36.795  16.673  1.00  0.00    -0.000 C 
BRANCH   5   6
ATOM      6  C   UNL     1      -3.498  35.747  17.728  1.00  0.00    -0.000 C 
BRANCH   6   7
ATOM      7  C   UNL     1      -4.662  34.895  18.276  1.00  0.00    -0.000 C 
BRANCH   7   8
ATOM      8  C   UNL     1      -5.893  35.694  18.747  1.00  0.00    -0.000 C 
BRANCH   8   9
ATOM      9  C   UNL     1      -5.889  36.073  20.242  1.00  0.00    -0.000 C 
BRANCH   9  10
ATOM     10  C   UNL     1      -4.598  35.712  21.006  1.00  0.00    -0.000 C 
BRANCH  10  11
ATOM     11  C   UNL     1      -4.633  36.012  22.514  1.00  0.00    -0.003 C 
ATOM     12  C   UNL     1      -5.582  35.095  23.281  1.00  0.00     0.004 C 
ENDBRANCH  10  11
ENDBRANCH   9  10
ENDBRANCH   8   9
ENDBRANCH   7   8
ENDBRANCH   6   7
ENDBRANCH   5   6
ENDBRANCH   4   5
ENDBRANCH   3   4
ENDBRANCH   2   3
ENDBRANCH   1   2
BRANCH   1  13
ATOM     13  C   UNL     1      -0.869  38.744  19.132  1.00  0.00     0.000 C 
BRANCH  13  14
ATOM     14  C   UNL     1      -2.137  37.918  19.435  1.00  0.00     0.000 C 
BRANCH  14  15
ATOM     15  C   UNL     1      -3.221  38.707  20.190  1.00  0.00     0.000 C 
BRANCH  15  16
ATOM     16  C   UNL     1      -4.479  38.954  19.345  1.00  0.00     0.000 C 
BRANCH  16  17
ATOM     17  C   UNL     1      -5.569  39.731  20.104  1.00  0.00     0.000 C 
BRANCH  17  18
ATOM     18  C   UNL     1      -5.688  39.337  21.592  1.00  0.00     0.000 C 
BRANCH  18  19
ATOM     19  C   UNL     1      -4.878  40.267  22.513  1.00  0.00     0.000 C 
BRANCH  19  20
ATOM     20  C   UNL     1      -4.842  39.778  23.973  1.00  0.00     0.006 C 
BRANCH  20  21
ATOM     21  C   UNL     1      -5.966  38.795  24.340  1.00  0.00     0.053 C 
BRANCH  21  22
ATOM     22  C   UNL     1      -5.789  38.214  25.708  1.00  0.00     0.041 C 
ATOM     23  O   UNL     1      -5.320  38.920  26.639  1.00  0.00    -0.550 OA
ATOM     24  O   UNL     1      -6.125  36.888  25.951  1.00  0.00    -0.550 OA
ENDBRANCH  21  22
ENDBRANCH  20  21
ENDBRANCH  19  20
ENDBRANCH  18  19
ENDBRANCH  17  18
ENDBRANCH  16  17
ENDBRANCH  15  16
ENDBRANCH  14  15
ENDBRANCH  13  14
ENDBRANCH   1  13
TORSDOF 20
ENDMDL
