MODEL 1
REMARK VINA RESULT:    -5.952      0.000      0.000
REMARK INTER + INTRA:          -7.288
REMARK INTER:                  -6.996
REMARK INTRA:                  -0.292
REMARK UNBOUND:                -0.292
REMARK SMILES O=c1c(O)c(-c2ccc(O)cc2)oc2cc(O)cc(O)c12
REMARK SMILES IDX 5 1 3 2 2 3 1 4 21 5 19 6 18 7 16 8 15 9 14 10 13 11 6 12
REMARK SMILES IDX 7 13 8 14 9 15 12 16 11 17 10 18 4 20 20 22 17 24
REMARK H PARENT 10 19 4 21 20 23 17 25
REMARK Flexibility Score: inf
ROOT
ATOM      1  C   UNL     1      18.822  40.926   6.441  1.00  0.00     0.180 A 
ATOM      2  C   UNL     1      19.043  41.169   5.074  1.00  0.00     0.208 A 
ATOM      3  C   UNL     1      19.919  40.331   4.366  1.00  0.00     0.238 A 
ATOM      4  O   UNL     1      20.071  40.521   3.131  1.00  0.00    -0.285 OA
ATOM      5  C   UNL     1      20.576  39.271   5.036  1.00  0.00     0.111 A 
ATOM      6  C   UNL     1      21.516  38.387   4.427  1.00  0.00     0.134 A 
ATOM      7  C   UNL     1      22.005  37.293   5.152  1.00  0.00     0.093 A 
ATOM      8  C   UNL     1      21.641  37.090   6.482  1.00  0.00     0.123 A 
ATOM      9  C   UNL     1      20.770  37.984   7.106  1.00  0.00     0.094 A 
ATOM     10  C   UNL     1      20.236  39.063   6.398  1.00  0.00     0.146 A 
ATOM     11  O   UNL     1      19.403  39.884   7.025  1.00  0.00    -0.452 OA
ENDROOT
BRANCH   1  12
ATOM     12  C   UNL     1      17.932  41.780   7.260  1.00  0.00     0.021 A 
ATOM     13  C   UNL     1      16.567  41.462   7.360  1.00  0.00     0.016 A 
ATOM     14  C   UNL     1      15.714  42.242   8.146  1.00  0.00     0.047 A 
ATOM     15  C   UNL     1      16.218  43.341   8.855  1.00  0.00     0.115 A 
ATOM     16  C   UNL     1      18.434  42.873   7.990  1.00  0.00     0.016 A 
ATOM     17  C   UNL     1      17.578  43.651   8.775  1.00  0.00     0.047 A 
BRANCH  15  18
ATOM     18  O   UNL     1      15.377  44.125   9.641  1.00  0.00    -0.508 OA
ATOM     19  H   UNL     1      14.426  44.332   9.356  1.00  0.00     0.293 HD
ENDBRANCH  15  18
ENDBRANCH   1  12
BRANCH   2  20
ATOM     20  O   UNL     1      18.367  42.208   4.427  1.00  0.00    -0.502 OA
ATOM     21  H   UNL     1      18.851  42.980   3.987  1.00  0.00     0.293 HD
ENDBRANCH   2  20
BRANCH   6  22
ATOM     22  O   UNL     1      22.016  38.551   3.132  1.00  0.00    -0.507 OA
ATOM     23  H   UNL     1      22.837  39.088   2.897  1.00  0.00     0.293 HD
ENDBRANCH   6  22
BRANCH   8  24
ATOM     24  O   UNL     1      22.160  36.001   7.179  1.00  0.00    -0.508 OA
ATOM     25  H   UNL     1      22.876  35.406   6.776  1.00  0.00     0.293 HD
ENDBRANCH   8  24
TORSDOF 5
ENDMDL
MODEL 2
REMARK VINA RESULT:    -5.924      3.385      5.180
REMARK INTER + INTRA:          -7.255
REMARK INTER:                  -7.272
REMARK INTRA:                   0.017
REMARK UNBOUND:                -0.292
REMARK SMILES O=c1c(O)c(-c2ccc(O)cc2)oc2cc(O)cc(O)c12
REMARK SMILES IDX 5 1 3 2 2 3 1 4 21 5 19 6 18 7 16 8 15 9 14 10 13 11 6 12
REMARK SMILES IDX 7 13 8 14 9 15 12 16 11 17 10 18 4 20 20 22 17 24
REMARK H PARENT 10 19 4 21 20 23 17 25
REMARK Flexibility Score: inf
ROOT
ATOM      1  C   UNL     1      20.930  41.202   4.614  1.00  0.00     0.180 A 
ATOM      2  C   UNL     1      21.186  41.884   5.817  1.00  0.00     0.208 A 
ATOM      3  C   UNL     1      21.420  41.141   6.985  1.00  0.00     0.238 A 
ATOM      4  O   UNL     1      21.702  41.756   8.046  1.00  0.00    -0.285 OA
ATOM      5  C   UNL     1      21.379  39.727   6.940  1.00  0.00     0.111 A 
ATOM      6  C   UNL     1      21.561  38.875   8.071  1.00  0.00     0.134 A 
ATOM      7  C   UNL     1      21.631  37.488   7.887  1.00  0.00     0.093 A 
ATOM      8  C   UNL     1      21.459  36.920   6.625  1.00  0.00     0.123 A 
ATOM      9  C   UNL     1      21.220  37.740   5.522  1.00  0.00     0.094 A 
ATOM     10  C   UNL     1      21.183  39.129   5.668  1.00  0.00     0.146 A 
ATOM     11  O   UNL     1      20.963  39.874   4.592  1.00  0.00    -0.452 OA
ENDROOT
BRANCH   1  12
ATOM     12  C   UNL     1      20.650  41.916   3.347  1.00  0.00     0.021 A 
ATOM     13  C   UNL     1      21.305  41.518   2.170  1.00  0.00     0.016 A 
ATOM     14  C   UNL     1      21.039  42.164   0.959  1.00  0.00     0.047 A 
ATOM     15  C   UNL     1      20.102  43.204   0.907  1.00  0.00     0.115 A 
ATOM     16  C   UNL     1      19.696  42.948   3.283  1.00  0.00     0.016 A 
ATOM     17  C   UNL     1      19.431  43.591   2.071  1.00  0.00     0.047 A 
BRANCH  15  18
ATOM     18  O   UNL     1      19.828  43.855  -0.294  1.00  0.00    -0.508 OA
ATOM     19  H   UNL     1      20.469  43.812  -1.078  1.00  0.00     0.293 HD
ENDBRANCH  15  18
ENDBRANCH   1  12
BRANCH   2  20
ATOM     20  O   UNL     1      21.243  43.280   5.834  1.00  0.00    -0.502 OA
ATOM     21  H   UNL     1      20.860  43.850   5.089  1.00  0.00     0.293 HD
ENDBRANCH   2  20
BRANCH   6  22
ATOM     22  O   UNL     1      21.652  39.334   9.387  1.00  0.00    -0.507 OA
ATOM     23  H   UNL     1      21.934  38.771  10.175  1.00  0.00     0.293 HD
ENDBRANCH   6  22
BRANCH   8  24
ATOM     24  O   UNL     1      21.518  35.535   6.481  1.00  0.00    -0.508 OA
ATOM     25  H   UNL     1      22.388  35.027   6.593  1.00  0.00     0.293 HD
ENDBRANCH   8  24
TORSDOF 5
ENDMDL
MODEL 3
REMARK VINA RESULT:    -5.860      3.359      5.242
REMARK INTER + INTRA:          -7.179
REMARK INTER:                  -7.570
REMARK INTRA:                   0.391
REMARK UNBOUND:                -0.292
REMARK SMILES O=c1c(O)c(-c2ccc(O)cc2)oc2cc(O)cc(O)c12
REMARK SMILES IDX 5 1 3 2 2 3 1 4 21 5 19 6 18 7 16 8 15 9 14 10 13 11 6 12
REMARK SMILES IDX 7 13 8 14 9 15 12 16 11 17 10 18 4 20 20 22 17 24
REMARK H PARENT 10 19 4 21 20 23 17 25
REMARK Flexibility Score: inf
ROOT
ATOM      1  C   UNL     1      20.902  40.325   4.157  1.00  0.00     0.180 A 
ATOM      2  C   UNL     1      21.112  38.970   3.851  1.00  0.00     0.208 A 
ATOM      3  C   UNL     1      21.411  38.075   4.891  1.00  0.00     0.238 A 
ATOM      4  O   UNL     1      21.545  36.854   4.618  1.00  0.00    -0.285 OA
ATOM      5  C   UNL     1      21.514  38.549   6.221  1.00  0.00     0.111 A 
ATOM      6  C   UNL     1      21.853  37.739   7.346  1.00  0.00     0.134 A 
ATOM      7  C   UNL     1      21.797  38.287   8.634  1.00  0.00     0.093 A 
ATOM      8  C   UNL     1      21.479  39.631   8.831  1.00  0.00     0.123 A 
ATOM      9  C   UNL     1      21.206  40.447   7.733  1.00  0.00     0.094 A 
ATOM     10  C   UNL     1      21.217  39.920   6.439  1.00  0.00     0.146 A 
ATOM     11  O   UNL     1      20.941  40.727   5.423  1.00  0.00    -0.452 OA
ENDROOT
BRANCH   1  12
ATOM     12  C   UNL     1      20.607  41.333   3.113  1.00  0.00     0.021 A 
ATOM     13  C   UNL     1      21.035  41.109   1.794  1.00  0.00     0.016 A 
ATOM     14  C   UNL     1      20.748  42.037   0.789  1.00  0.00     0.047 A 
ATOM     15  C   UNL     1      20.015  43.193   1.087  1.00  0.00     0.115 A 
ATOM     16  C   UNL     1      19.855  42.487   3.400  1.00  0.00     0.016 A 
ATOM     17  C   UNL     1      19.569  43.413   2.393  1.00  0.00     0.047 A 
BRANCH  15  18
ATOM     18  O   UNL     1      19.723  44.125   0.093  1.00  0.00    -0.508 OA
ATOM     19  H   UNL     1      20.413  44.798  -0.221  1.00  0.00     0.293 HD
ENDBRANCH  15  18
ENDBRANCH   1  12
BRANCH   2  20
ATOM     20  O   UNL     1      20.985  38.519   2.534  1.00  0.00    -0.502 OA
ATOM     21  H   UNL     1      21.760  38.121   2.019  1.00  0.00     0.293 HD
ENDBRANCH   2  20
BRANCH   6  22
ATOM     22  O   UNL     1      22.272  36.410   7.252  1.00  0.00    -0.507 OA
ATOM     23  H   UNL     1      23.082  36.028   7.717  1.00  0.00     0.293 HD
ENDBRANCH   6  22
BRANCH   8  24
ATOM     24  O   UNL     1      21.449  40.147  10.125  1.00  0.00    -0.508 OA
ATOM     25  H   UNL     1      20.574  40.310  10.611  1.00  0.00     0.293 HD
ENDBRANCH   8  24
TORSDOF 5
ENDMDL
MODEL 4
REMARK VINA RESULT:    -5.683      2.035      2.657
REMARK INTER + INTRA:          -6.972
REMARK INTER:                  -7.021
REMARK INTRA:                   0.049
REMARK UNBOUND:                -0.292
REMARK SMILES O=c1c(O)c(-c2ccc(O)cc2)oc2cc(O)cc(O)c12
REMARK SMILES IDX 5 1 3 2 2 3 1 4 21 5 19 6 18 7 16 8 15 9 14 10 13 11 6 12
REMARK SMILES IDX 7 13 8 14 9 15 12 16 11 17 10 18 4 20 20 22 17 24
REMARK H PARENT 10 19 4 21 20 23 17 25
REMARK Flexibility Score: inf
ROOT
ATOM      1  C   UNL     1      18.421  41.681   5.793  1.00  0.00     0.180 A 
ATOM      2  C   UNL     1      18.515  42.778   4.919  1.00  0.00     0.208 A 
ATOM      3  C   UNL     1      19.477  42.753   3.896  1.00  0.00     0.238 A 
ATOM      4  O   UNL     1      19.521  43.713   3.084  1.00  0.00    -0.285 OA
ATOM      5  C   UNL     1      20.344  41.641   3.771  1.00  0.00     0.111 A 
ATOM      6  C   UNL     1      21.382  41.528   2.798  1.00  0.00     0.134 A 
ATOM      7  C   UNL     1      22.093  40.327   2.682  1.00  0.00     0.093 A 
ATOM      8  C   UNL     1      21.848  39.259   3.546  1.00  0.00     0.123 A 
ATOM      9  C   UNL     1      20.877  39.381   4.540  1.00  0.00     0.094 A 
ATOM     10  C   UNL     1      20.126  40.553   4.657  1.00  0.00     0.146 A 
ATOM     11  O   UNL     1      19.204  40.624   5.609  1.00  0.00    -0.452 OA
ENDROOT
BRANCH   1  12
ATOM     12  C   UNL     1      17.449  41.644   6.910  1.00  0.00     0.021 A 
ATOM     13  C   UNL     1      16.089  41.885   6.653  1.00  0.00     0.016 A 
ATOM     14  C   UNL     1      15.152  41.833   7.689  1.00  0.00     0.047 A 
ATOM     15  C   UNL     1      15.561  41.525   8.993  1.00  0.00     0.115 A 
ATOM     16  C   UNL     1      17.849  41.316   8.218  1.00  0.00     0.016 A 
ATOM     17  C   UNL     1      16.910  41.264   9.253  1.00  0.00     0.047 A 
BRANCH  15  18
ATOM     18  O   UNL     1      14.637  41.470  10.033  1.00  0.00    -0.508 OA
ATOM     19  H   UNL     1      14.890  41.725  10.981  1.00  0.00     0.293 HD
ENDBRANCH  15  18
ENDBRANCH   1  12
BRANCH   2  20
ATOM     20  O   UNL     1      17.636  43.856   5.047  1.00  0.00    -0.502 OA
ATOM     21  H   UNL     1      17.957  44.813   5.132  1.00  0.00     0.293 HD
ENDBRANCH   2  20
BRANCH   6  22
ATOM     22  O   UNL     1      21.769  42.566   1.947  1.00  0.00    -0.507 OA
ATOM     23  H   UNL     1      21.156  43.037   1.300  1.00  0.00     0.293 HD
ENDBRANCH   6  22
BRANCH   8  24
ATOM     24  O   UNL     1      22.585  38.085   3.413  1.00  0.00    -0.508 OA
ATOM     25  H   UNL     1      23.583  38.102   3.234  1.00  0.00     0.293 HD
ENDBRANCH   8  24
TORSDOF 5
ENDMDL
MODEL 5
REMARK VINA RESULT:    -5.539      1.568      6.245
REMARK INTER + INTRA:          -6.802
REMARK INTER:                  -6.616
REMARK INTRA:                  -0.186
REMARK UNBOUND:                -0.292
REMARK SMILES O=c1c(O)c(-c2ccc(O)cc2)oc2cc(O)cc(O)c12
REMARK SMILES IDX 5 1 3 2 2 3 1 4 21 5 19 6 18 7 16 8 15 9 14 10 13 11 6 12
REMARK SMILES IDX 7 13 8 14 9 15 12 16 11 17 10 18 4 20 20 22 17 24
REMARK H PARENT 10 19 4 21 20 23 17 25
REMARK Flexibility Score: inf
ROOT
ATOM      1  C   UNL     1      20.448  39.571   6.768  1.00  0.00     0.180 A 
ATOM      2  C   UNL     1      20.769  40.108   5.510  1.00  0.00     0.208 A 
ATOM      3  C   UNL     1      19.934  41.092   4.955  1.00  0.00     0.238 A 
ATOM      4  O   UNL     1      20.256  41.608   3.853  1.00  0.00    -0.285 OA
ATOM      5  C   UNL     1      18.780  41.514   5.658  1.00  0.00     0.111 A 
ATOM      6  C   UNL     1      17.841  42.473   5.172  1.00  0.00     0.134 A 
ATOM      7  C   UNL     1      16.807  42.912   6.008  1.00  0.00     0.093 A 
ATOM      8  C   UNL     1      16.638  42.378   7.285  1.00  0.00     0.123 A 
ATOM      9  C   UNL     1      17.513  41.395   7.747  1.00  0.00     0.094 A 
ATOM     10  C   UNL     1      18.577  40.964   6.951  1.00  0.00     0.146 A 
ATOM     11  O   UNL     1      19.394  40.035   7.431  1.00  0.00    -0.452 OA
ENDROOT
BRANCH   1  12
ATOM     12  C   UNL     1      21.265  38.514   7.406  1.00  0.00     0.021 A 
ATOM     13  C   UNL     1      21.937  38.790   8.609  1.00  0.00     0.016 A 
ATOM     14  C   UNL     1      22.696  37.800   9.239  1.00  0.00     0.047 A 
ATOM     15  C   UNL     1      22.779  36.516   8.684  1.00  0.00     0.115 A 
ATOM     16  C   UNL     1      21.337  37.217   6.865  1.00  0.00     0.016 A 
ATOM     17  C   UNL     1      22.097  36.229   7.498  1.00  0.00     0.047 A 
BRANCH  15  18
ATOM     18  O   UNL     1      23.532  35.522   9.304  1.00  0.00    -0.508 OA
ATOM     19  H   UNL     1      23.420  35.308  10.288  1.00  0.00     0.293 HD
ENDBRANCH  15  18
ENDBRANCH   1  12
BRANCH   2  20
ATOM     20  O   UNL     1      21.925  39.693   4.843  1.00  0.00    -0.502 OA
ATOM     21  H   UNL     1      22.451  40.306   4.233  1.00  0.00     0.293 HD
ENDBRANCH   2  20
BRANCH   6  22
ATOM     22  O   UNL     1      17.865  43.003   3.879  1.00  0.00    -0.507 OA
ATOM     23  H   UNL     1      17.061  43.366   3.392  1.00  0.00     0.293 HD
ENDBRANCH   6  22
BRANCH   8  24
ATOM     24  O   UNL     1      15.587  42.825   8.083  1.00  0.00    -0.508 OA
ATOM     25  H   UNL     1      15.359  42.374   8.962  1.00  0.00     0.293 HD
ENDBRANCH   8  24
TORSDOF 5
ENDMDL
MODEL 6
REMARK VINA RESULT:    -5.527      1.388      2.918
REMARK INTER + INTRA:          -6.788
REMARK INTER:                  -6.531
REMARK INTRA:                  -0.257
REMARK UNBOUND:                -0.292
REMARK SMILES O=c1c(O)c(-c2ccc(O)cc2)oc2cc(O)cc(O)c12
REMARK SMILES IDX 5 1 3 2 2 3 1 4 21 5 19 6 18 7 16 8 15 9 14 10 13 11 6 12
REMARK SMILES IDX 7 13 8 14 9 15 12 16 11 17 10 18 4 20 20 22 17 24
REMARK H PARENT 10 19 4 21 20 23 17 25
REMARK Flexibility Score: inf
ROOT
ATOM      1  C   UNL     1      19.221  40.706   7.457  1.00  0.00     0.180 A 
ATOM      2  C   UNL     1      20.230  40.054   8.186  1.00  0.00     0.208 A 
ATOM      3  C   UNL     1      21.108  39.190   7.512  1.00  0.00     0.238 A 
ATOM      4  O   UNL     1      22.043  38.651   8.161  1.00  0.00    -0.285 OA
ATOM      5  C   UNL     1      20.956  38.975   6.121  1.00  0.00     0.111 A 
ATOM      6  C   UNL     1      21.762  38.089   5.345  1.00  0.00     0.134 A 
ATOM      7  C   UNL     1      21.607  38.054   3.954  1.00  0.00     0.093 A 
ATOM      8  C   UNL     1      20.631  38.822   3.319  1.00  0.00     0.123 A 
ATOM      9  C   UNL     1      19.797  39.646   4.075  1.00  0.00     0.094 A 
ATOM     10  C   UNL     1      19.952  39.731   5.460  1.00  0.00     0.146 A 
ATOM     11  O   UNL     1      19.145  40.534   6.142  1.00  0.00    -0.452 OA
ENDROOT
BRANCH   1  12
ATOM     12  C   UNL     1      18.243  41.613   8.100  1.00  0.00     0.021 A 
ATOM     13  C   UNL     1      16.973  41.125   8.450  1.00  0.00     0.016 A 
ATOM     14  C   UNL     1      16.042  41.958   9.078  1.00  0.00     0.047 A 
ATOM     15  C   UNL     1      16.376  43.285   9.379  1.00  0.00     0.115 A 
ATOM     16  C   UNL     1      18.578  42.940   8.424  1.00  0.00     0.016 A 
ATOM     17  C   UNL     1      17.645  43.771   9.053  1.00  0.00     0.047 A 
BRANCH  15  18
ATOM     18  O   UNL     1      15.457  44.124  10.005  1.00  0.00    -0.508 OA
ATOM     19  H   UNL     1      14.753  43.760  10.638  1.00  0.00     0.293 HD
ENDBRANCH  15  18
ENDBRANCH   1  12
BRANCH   2  20
ATOM     20  O   UNL     1      20.377  40.297   9.555  1.00  0.00    -0.502 OA
ATOM     21  H   UNL     1      20.221  39.581  10.254  1.00  0.00     0.293 HD
ENDBRANCH   2  20
BRANCH   6  22
ATOM     22  O   UNL     1      22.703  37.211   5.890  1.00  0.00    -0.507 OA
ATOM     23  H   UNL     1      23.524  36.878   5.408  1.00  0.00     0.293 HD
ENDBRANCH   6  22
BRANCH   8  24
ATOM     24  O   UNL     1      20.494  38.750   1.934  1.00  0.00    -0.508 OA
ATOM     25  H   UNL     1      20.043  37.960   1.487  1.00  0.00     0.293 HD
ENDBRANCH   8  24
TORSDOF 5
ENDMDL
MODEL 7
REMARK VINA RESULT:    -5.487      1.740      3.742
REMARK INTER + INTRA:          -6.741
REMARK INTER:                  -6.490
REMARK INTRA:                  -0.251
REMARK UNBOUND:                -0.292
REMARK SMILES O=c1c(O)c(-c2ccc(O)cc2)oc2cc(O)cc(O)c12
REMARK SMILES IDX 5 1 3 2 2 3 1 4 21 5 19 6 18 7 16 8 15 9 14 10 13 11 6 12
REMARK SMILES IDX 7 13 8 14 9 15 12 16 11 17 10 18 4 20 20 22 17 24
REMARK H PARENT 10 19 4 21 20 23 17 25
REMARK Flexibility Score: inf
ROOT
ATOM      1  C   UNL     1      18.836  41.645   6.049  1.00  0.00     0.180 A 
ATOM      2  C   UNL     1      19.666  40.578   6.436  1.00  0.00     0.208 A 
ATOM      3  C   UNL     1      20.661  40.133   5.552  1.00  0.00     0.238 A 
ATOM      4  O   UNL     1      21.436  39.214   5.926  1.00  0.00    -0.285 OA
ATOM      5  C   UNL     1      20.804  40.748   4.284  1.00  0.00     0.111 A 
ATOM      6  C   UNL     1      21.751  40.351   3.293  1.00  0.00     0.134 A 
ATOM      7  C   UNL     1      21.892  41.115   2.128  1.00  0.00     0.093 A 
ATOM      8  C   UNL     1      21.076  42.220   1.888  1.00  0.00     0.123 A 
ATOM      9  C   UNL     1      20.106  42.581   2.823  1.00  0.00     0.094 A 
ATOM     10  C   UNL     1      19.966  41.861   4.012  1.00  0.00     0.146 A 
ATOM     11  O   UNL     1      19.038  42.243   4.880  1.00  0.00    -0.452 OA
ENDROOT
BRANCH   1  12
ATOM     12  C   UNL     1      17.749  42.154   6.916  1.00  0.00     0.021 A 
ATOM     13  C   UNL     1      18.057  43.030   7.970  1.00  0.00     0.016 A 
ATOM     14  C   UNL     1      17.044  43.540   8.787  1.00  0.00     0.047 A 
ATOM     15  C   UNL     1      15.708  43.192   8.550  1.00  0.00     0.115 A 
ATOM     16  C   UNL     1      16.403  41.825   6.673  1.00  0.00     0.016 A 
ATOM     17  C   UNL     1      15.392  42.336   7.491  1.00  0.00     0.047 A 
BRANCH  15  18
ATOM     18  O   UNL     1      14.689  43.693   9.358  1.00  0.00    -0.508 OA
ATOM     19  H   UNL     1      13.788  43.954   8.973  1.00  0.00     0.293 HD
ENDBRANCH  15  18
ENDBRANCH   1  12
BRANCH   2  20
ATOM     20  O   UNL     1      19.522  39.999   7.700  1.00  0.00    -0.502 OA
ATOM     21  H   UNL     1      20.048  40.314   8.506  1.00  0.00     0.293 HD
ENDBRANCH   2  20
BRANCH   6  22
ATOM     22  O   UNL     1      22.552  39.210   3.392  1.00  0.00    -0.507 OA
ATOM     23  H   UNL     1      23.511  39.207   3.702  1.00  0.00     0.293 HD
ENDBRANCH   6  22
BRANCH   8  24
ATOM     24  O   UNL     1      21.233  42.947   0.710  1.00  0.00    -0.508 OA
ATOM     25  H   UNL     1      21.438  42.490  -0.171  1.00  0.00     0.293 HD
ENDBRANCH   8  24
TORSDOF 5
ENDMDL
MODEL 8
REMARK VINA RESULT:    -5.275      2.010      6.407
REMARK INTER + INTRA:          -6.492
REMARK INTER:                  -6.327
REMARK INTRA:                  -0.166
REMARK UNBOUND:                -0.292
REMARK SMILES O=c1c(O)c(-c2ccc(O)cc2)oc2cc(O)cc(O)c12
REMARK SMILES IDX 5 1 3 2 2 3 1 4 21 5 19 6 18 7 16 8 15 9 14 10 13 11 6 12
REMARK SMILES IDX 7 13 8 14 9 15 12 16 11 17 10 18 4 20 20 22 17 24
REMARK H PARENT 10 19 4 21 20 23 17 25
REMARK Flexibility Score: inf
ROOT
ATOM      1  C   UNL     1      21.440  38.253   6.766  1.00  0.00     0.180 A 
ATOM      2  C   UNL     1      21.734  38.299   5.392  1.00  0.00     0.208 A 
ATOM      3  C   UNL     1      21.136  39.292   4.600  1.00  0.00     0.238 A 
ATOM      4  O   UNL     1      21.445  39.361   3.382  1.00  0.00    -0.285 OA
ATOM      5  C   UNL     1      20.239  40.216   5.187  1.00  0.00     0.111 A 
ATOM      6  C   UNL     1      19.544  41.237   4.471  1.00  0.00     0.134 A 
ATOM      7  C   UNL     1      18.782  42.178   5.175  1.00  0.00     0.093 A 
ATOM      8  C   UNL     1      18.636  42.095   6.560  1.00  0.00     0.123 A 
ATOM      9  C   UNL     1      19.262  41.065   7.262  1.00  0.00     0.094 A 
ATOM     10  C   UNL     1      20.059  40.133   6.592  1.00  0.00     0.146 A 
ATOM     11  O   UNL     1      20.645  39.175   7.299  1.00  0.00    -0.452 OA
ENDROOT
BRANCH   1  12
ATOM     12  C   UNL     1      22.011  37.222   7.661  1.00  0.00     0.021 A 
ATOM     13  C   UNL     1      21.633  35.878   7.500  1.00  0.00     0.016 A 
ATOM     14  C   UNL     1      22.177  34.886   8.320  1.00  0.00     0.047 A 
ATOM     15  C   UNL     1      23.118  35.222   9.302  1.00  0.00     0.115 A 
ATOM     16  C   UNL     1      22.972  37.548   8.636  1.00  0.00     0.016 A 
ATOM     17  C   UNL     1      23.514  36.554   9.455  1.00  0.00     0.047 A 
BRANCH  15  18
ATOM     18  O   UNL     1      23.667  34.241  10.125  1.00  0.00    -0.508 OA
ATOM     19  H   UNL     1      24.439  34.446  10.750  1.00  0.00     0.293 HD
ENDBRANCH  15  18
ENDBRANCH   1  12
BRANCH   2  20
ATOM     20  O   UNL     1      22.639  37.390   4.837  1.00  0.00    -0.502 OA
ATOM     21  H   UNL     1      22.570  36.391   4.990  1.00  0.00     0.293 HD
ENDBRANCH   2  20
BRANCH   6  22
ATOM     22  O   UNL     1      19.549  41.355   3.079  1.00  0.00    -0.507 OA
ATOM     23  H   UNL     1      19.132  42.116   2.565  1.00  0.00     0.293 HD
ENDBRANCH   6  22
BRANCH   8  24
ATOM     24  O   UNL     1      17.857  43.038   7.226  1.00  0.00    -0.508 OA
ATOM     25  H   UNL     1      16.852  42.933   7.309  1.00  0.00     0.293 HD
ENDBRANCH   8  24
TORSDOF 5
ENDMDL
MODEL 9
REMARK VINA RESULT:    -5.241      2.516      6.050
REMARK INTER + INTRA:          -6.452
REMARK INTER:                  -6.397
REMARK INTRA:                  -0.056
REMARK UNBOUND:                -0.292
REMARK SMILES O=c1c(O)c(-c2ccc(O)cc2)oc2cc(O)cc(O)c12
REMARK SMILES IDX 5 1 3 2 2 3 1 4 21 5 19 6 18 7 16 8 15 9 14 10 13 11 6 12
REMARK SMILES IDX 7 13 8 14 9 15 12 16 11 17 10 18 4 20 20 22 17 24
REMARK H PARENT 10 19 4 21 20 23 17 25
REMARK Flexibility Score: inf
ROOT
ATOM      1  C   UNL     1      20.797  39.713   6.296  1.00  0.00     0.180 A 
ATOM      2  C   UNL     1      19.791  40.563   6.786  1.00  0.00     0.208 A 
ATOM      3  C   UNL     1      19.322  41.605   5.970  1.00  0.00     0.238 A 
ATOM      4  O   UNL     1      18.384  42.330   6.393  1.00  0.00    -0.285 OA
ATOM      5  C   UNL     1      19.875  41.793   4.680  1.00  0.00     0.111 A 
ATOM      6  C   UNL     1      19.504  42.840   3.784  1.00  0.00     0.134 A 
ATOM      7  C   UNL     1      20.022  42.853   2.483  1.00  0.00     0.093 A 
ATOM      8  C   UNL     1      20.946  41.895   2.068  1.00  0.00     0.123 A 
ATOM      9  C   UNL     1      21.362  40.902   2.955  1.00  0.00     0.094 A 
ATOM     10  C   UNL     1      20.835  40.841   4.247  1.00  0.00     0.146 A 
ATOM     11  O   UNL     1      21.249  39.875   5.057  1.00  0.00    -0.452 OA
ENDROOT
BRANCH   1  12
ATOM     12  C   UNL     1      21.360  38.609   7.106  1.00  0.00     0.021 A 
ATOM     13  C   UNL     1      21.401  37.309   6.572  1.00  0.00     0.016 A 
ATOM     14  C   UNL     1      21.949  36.257   7.312  1.00  0.00     0.047 A 
ATOM     15  C   UNL     1      22.477  36.493   8.587  1.00  0.00     0.115 A 
ATOM     16  C   UNL     1      21.911  38.841   8.379  1.00  0.00     0.016 A 
ATOM     17  C   UNL     1      22.458  37.787   9.116  1.00  0.00     0.047 A 
BRANCH  15  18
ATOM     18  O   UNL     1      23.026  35.452   9.333  1.00  0.00    -0.508 OA
ATOM     19  H   UNL     1      22.718  35.259  10.280  1.00  0.00     0.293 HD
ENDBRANCH  15  18
ENDBRANCH   1  12
BRANCH   2  20
ATOM     20  O   UNL     1      19.244  40.347   8.054  1.00  0.00    -0.502 OA
ATOM     21  H   UNL     1      18.275  40.546   8.270  1.00  0.00     0.293 HD
ENDBRANCH   2  20
BRANCH   6  22
ATOM     22  O   UNL     1      18.658  43.898   4.129  1.00  0.00    -0.507 OA
ATOM     23  H   UNL     1      18.940  44.864   4.185  1.00  0.00     0.293 HD
ENDBRANCH   6  22
BRANCH   8  24
ATOM     24  O   UNL     1      21.454  41.947   0.771  1.00  0.00    -0.508 OA
ATOM     25  H   UNL     1      21.069  41.376   0.028  1.00  0.00     0.293 HD
ENDBRANCH   8  24
TORSDOF 5
ENDMDL
