MODEL 1
REMARK VINA RESULT:    -4.248      0.000      0.000
REMARK INTER + INTRA:          -8.954
REMARK INTER:                  -7.228
REMARK INTRA:                  -1.726
REMARK UNBOUND:                -1.726
REMARK SMILES CCCCCCCCCCCCCC(=O)[O-]
REMARK SMILES IDX 8 1 9 2 10 3 11 4 12 5 13 6 14 7 15 8 16 9 7 10 6 11 5 12
REMARK SMILES IDX 4 13 3 14 2 15 1 16
REMARK H PARENT
REMARK Flexibility Score: inf
ROOT
ATOM      1  C   UNL     1       7.368  32.388  70.979  1.00  0.00     0.000 C 
ENDROOT
BRANCH   1   2
ATOM      2  C   UNL     1       6.934  33.859  70.861  1.00  0.00     0.000 C 
BRANCH   2   3
ATOM      3  C   UNL     1       5.409  34.035  70.971  1.00  0.00     0.000 C 
BRANCH   3   4
ATOM      4  C   UNL     1       4.955  35.468  70.652  1.00  0.00     0.000 C 
BRANCH   4   5
ATOM      5  C   UNL     1       3.596  35.816  71.276  1.00  0.00     0.006 C 
BRANCH   5   6
ATOM      6  C   UNL     1       2.532  34.787  70.882  1.00  0.00     0.053 C 
BRANCH   6   7
ATOM      7  C   UNL     1       1.608  35.357  69.853  1.00  0.00     0.041 C 
ATOM      8  O   UNL     1       0.614  34.693  69.455  1.00  0.00    -0.550 OA
ATOM      9  O   UNL     1       1.871  36.602  69.296  1.00  0.00    -0.550 OA
ENDBRANCH   6   7
ENDBRANCH   5   6
ENDBRANCH   4   5
ENDBRANCH   3   4
ENDBRANCH   2   3
ENDBRANCH   1   2
BRANCH   1  10
ATOM     10  C   UNL     1       6.840  31.524  69.820  1.00  0.00     0.000 C 
BRANCH  10  11
ATOM     11  C   UNL     1       7.898  31.293  68.729  1.00  0.00    -0.000 C 
BRANCH  11  12
ATOM     12  C   UNL     1       7.488  31.885  67.369  1.00  0.00    -0.000 C 
BRANCH  12  13
ATOM     13  C   UNL     1       7.812  33.383  67.257  1.00  0.00    -0.000 C 
BRANCH  13  14
ATOM     14  C   UNL     1       6.548  34.261  67.238  1.00  0.00    -0.000 C 
BRANCH  14  15
ATOM     15  C   UNL     1       5.331  33.526  66.655  1.00  0.00    -0.003 C 
ATOM     16  C   UNL     1       4.122  33.555  67.590  1.00  0.00     0.004 C 
ENDBRANCH  14  15
ENDBRANCH  13  14
ENDBRANCH  12  13
ENDBRANCH  11  12
ENDBRANCH  10  11
ENDBRANCH   1  10
TORSDOF 12
ENDMDL
MODEL 2
REMARK VINA RESULT:    -4.248     10.843     12.726
REMARK INTER + INTRA:          -8.953
REMARK INTER:                  -8.148
REMARK INTRA:                  -0.805
REMARK UNBOUND:                -1.726
REMARK SMILES CCCCCCCCCCCCCC(=O)[O-]
REMARK SMILES IDX 8 1 9 2 10 3 11 4 12 5 13 6 14 7 15 8 16 9 7 10 6 11 5 12
REMARK SMILES IDX 4 13 3 14 2 15 1 16
REMARK H PARENT
REMARK Flexibility Score: inf
ROOT
ATOM      1  C   UNL     1       3.625  45.891  65.994  1.00  0.00     0.000 C 
ENDROOT
BRANCH   1   2
ATOM      2  C   UNL     1       3.485  44.422  65.560  1.00  0.00     0.000 C 
BRANCH   2   3
ATOM      3  C   UNL     1       2.731  43.571  66.597  1.00  0.00     0.000 C 
BRANCH   3   4
ATOM      4  C   UNL     1       3.048  43.984  68.044  1.00  0.00     0.000 C 
BRANCH   4   5
ATOM      5  C   UNL     1       3.123  42.786  69.002  1.00  0.00     0.006 C 
BRANCH   5   6
ATOM      6  C   UNL     1       2.591  43.161  70.389  1.00  0.00     0.053 C 
BRANCH   6   7
ATOM      7  C   UNL     1       3.715  43.566  71.290  1.00  0.00     0.041 C 
ATOM      8  O   UNL     1       3.512  44.377  72.231  1.00  0.00    -0.550 OA
ATOM      9  O   UNL     1       4.998  43.084  71.060  1.00  0.00    -0.550 OA
ENDBRANCH   6   7
ENDBRANCH   5   6
ENDBRANCH   4   5
ENDBRANCH   3   4
ENDBRANCH   2   3
ENDBRANCH   1   2
BRANCH   1  10
ATOM     10  C   UNL     1       4.333  46.754  64.933  1.00  0.00     0.000 C 
BRANCH  10  11
ATOM     11  C   UNL     1       5.562  47.485  65.494  1.00  0.00    -0.000 C 
BRANCH  11  12
ATOM     12  C   UNL     1       5.486  47.694  67.017  1.00  0.00    -0.000 C 
BRANCH  12  13
ATOM     13  C   UNL     1       6.211  48.969  67.474  1.00  0.00    -0.000 C 
BRANCH  13  14
ATOM     14  C   UNL     1       7.725  48.756  67.649  1.00  0.00    -0.000 C 
BRANCH  14  15
ATOM     15  C   UNL     1       8.058  47.402  68.293  1.00  0.00    -0.003 C 
ATOM     16  C   UNL     1       9.301  46.751  67.688  1.00  0.00     0.004 C 
ENDBRANCH  14  15
ENDBRANCH  13  14
ENDBRANCH  12  13
ENDBRANCH  11  12
ENDBRANCH  10  11
ENDBRANCH   1  10
TORSDOF 12
ENDMDL
MODEL 3
REMARK VINA RESULT:    -4.217     11.304     13.344
REMARK INTER + INTRA:          -8.902
REMARK INTER:                  -8.125
REMARK INTRA:                  -0.777
REMARK UNBOUND:                -1.726
REMARK SMILES CCCCCCCCCCCCCC(=O)[O-]
REMARK SMILES IDX 8 1 9 2 10 3 11 4 12 5 13 6 14 7 15 8 16 9 7 10 6 11 5 12
REMARK SMILES IDX 4 13 3 14 2 15 1 16
REMARK H PARENT
REMARK Flexibility Score: inf
ROOT
ATOM      1  C   UNL     1       3.560  45.594  66.046  1.00  0.00     0.000 C 
ENDROOT
BRANCH   1   2
ATOM      2  C   UNL     1       3.466  46.671  64.952  1.00  0.00     0.000 C 
BRANCH   2   3
ATOM      3  C   UNL     1       4.837  47.010  64.339  1.00  0.00     0.000 C 
BRANCH   3   4
ATOM      4  C   UNL     1       5.039  48.522  64.147  1.00  0.00     0.000 C 
BRANCH   4   5
ATOM      5  C   UNL     1       5.567  49.218  65.410  1.00  0.00     0.006 C 
BRANCH   5   6
ATOM      6  C   UNL     1       6.412  48.257  66.252  1.00  0.00     0.053 C 
BRANCH   6   7
ATOM      7  C   UNL     1       6.026  48.346  67.695  1.00  0.00     0.041 C 
ATOM      8  O   UNL     1       5.546  47.343  68.286  1.00  0.00    -0.550 OA
ATOM      9  O   UNL     1       6.150  49.552  68.374  1.00  0.00    -0.550 OA
ENDBRANCH   6   7
ENDBRANCH   5   6
ENDBRANCH   4   5
ENDBRANCH   3   4
ENDBRANCH   2   3
ENDBRANCH   1   2
BRANCH   1  10
ATOM     10  C   UNL     1       3.255  44.183  65.513  1.00  0.00     0.000 C 
BRANCH  10  11
ATOM     11  C   UNL     1       3.151  43.139  66.636  1.00  0.00    -0.000 C 
BRANCH  11  12
ATOM     12  C   UNL     1       2.795  43.764  67.997  1.00  0.00    -0.000 C 
BRANCH  12  13
ATOM     13  C   UNL     1       3.131  42.838  69.176  1.00  0.00    -0.000 C 
BRANCH  13  14
ATOM     14  C   UNL     1       2.254  43.113  70.410  1.00  0.00    -0.000 C 
BRANCH  14  15
ATOM     15  C   UNL     1       3.036  43.785  71.550  1.00  0.00    -0.003 C 
ATOM     16  C   UNL     1       4.543  43.812  71.295  1.00  0.00     0.004 C 
ENDBRANCH  14  15
ENDBRANCH  13  14
ENDBRANCH  12  13
ENDBRANCH  11  12
ENDBRANCH  10  11
ENDBRANCH   1  10
TORSDOF 12
ENDMDL
MODEL 4
REMARK VINA RESULT:    -4.117      1.617      3.923
REMARK INTER + INTRA:          -8.731
REMARK INTER:                  -7.292
REMARK INTRA:                  -1.439
REMARK UNBOUND:                -1.726
REMARK SMILES CCCCCCCCCCCCCC(=O)[O-]
REMARK SMILES IDX 8 1 9 2 10 3 11 4 12 5 13 6 14 7 15 8 16 9 7 10 6 11 5 12
REMARK SMILES IDX 4 13 3 14 2 15 1 16
REMARK H PARENT
REMARK Flexibility Score: inf
ROOT
ATOM      1  C   UNL     1       5.507  33.188  67.017  1.00  0.00     0.000 C 
ENDROOT
BRANCH   1   2
ATOM      2  C   UNL     1       4.100  33.618  67.463  1.00  0.00     0.000 C 
BRANCH   2   3
ATOM      3  C   UNL     1       3.219  32.423  67.872  1.00  0.00     0.000 C 
BRANCH   3   4
ATOM      4  C   UNL     1       1.742  32.623  67.496  1.00  0.00     0.000 C 
BRANCH   4   5
ATOM      5  C   UNL     1       1.024  33.623  68.415  1.00  0.00     0.006 C 
BRANCH   5   6
ATOM      6  C   UNL     1       0.383  34.751  67.601  1.00  0.00     0.053 C 
BRANCH   6   7
ATOM      7  C   UNL     1       1.294  35.937  67.541  1.00  0.00     0.041 C 
ATOM      8  O   UNL     1       1.777  36.311  66.441  1.00  0.00    -0.550 OA
ATOM      9  O   UNL     1       1.648  36.600  68.710  1.00  0.00    -0.550 OA
ENDBRANCH   6   7
ENDBRANCH   5   6
ENDBRANCH   4   5
ENDBRANCH   3   4
ENDBRANCH   2   3
ENDBRANCH   1   2
BRANCH   1  10
ATOM     10  C   UNL     1       6.469  34.380  66.868  1.00  0.00     0.000 C 
BRANCH  10  11
ATOM     11  C   UNL     1       7.541  34.412  67.969  1.00  0.00    -0.000 C 
BRANCH  11  12
ATOM     12  C   UNL     1       7.014  34.988  69.295  1.00  0.00    -0.000 C 
BRANCH  12  13
ATOM     13  C   UNL     1       6.808  33.906  70.367  1.00  0.00    -0.000 C 
BRANCH  13  14
ATOM     14  C   UNL     1       5.404  33.958  70.996  1.00  0.00    -0.000 C 
BRANCH  14  15
ATOM     15  C   UNL     1       4.652  35.254  70.651  1.00  0.00    -0.003 C 
ATOM     16  C   UNL     1       3.474  35.518  71.586  1.00  0.00     0.004 C 
ENDBRANCH  14  15
ENDBRANCH  13  14
ENDBRANCH  12  13
ENDBRANCH  11  12
ENDBRANCH  10  11
ENDBRANCH   1  10
TORSDOF 12
ENDMDL
MODEL 5
REMARK VINA RESULT:    -4.090      3.571      4.702
REMARK INTER + INTRA:          -8.684
REMARK INTER:                  -6.457
REMARK INTRA:                  -2.227
REMARK UNBOUND:                -1.726
REMARK SMILES CCCCCCCCCCCCCC(=O)[O-]
REMARK SMILES IDX 8 1 9 2 10 3 11 4 12 5 13 6 14 7 15 8 16 9 7 10 6 11 5 12
REMARK SMILES IDX 4 13 3 14 2 15 1 16
REMARK H PARENT
REMARK Flexibility Score: inf
ROOT
ATOM      1  C   UNL     1       7.819  34.337  68.015  1.00  0.00     0.000 C 
ENDROOT
BRANCH   1   2
ATOM      2  C   UNL     1       6.916  34.826  69.160  1.00  0.00     0.000 C 
BRANCH   2   3
ATOM      3  C   UNL     1       7.097  34.001  70.447  1.00  0.00     0.000 C 
BRANCH   3   4
ATOM      4  C   UNL     1       5.758  33.644  71.112  1.00  0.00     0.000 C 
BRANCH   4   5
ATOM      5  C   UNL     1       5.867  32.441  72.061  1.00  0.00     0.006 C 
BRANCH   5   6
ATOM      6  C   UNL     1       7.220  31.740  71.904  1.00  0.00     0.053 C 
BRANCH   6   7
ATOM      7  C   UNL     1       7.909  31.629  73.227  1.00  0.00     0.041 C 
ATOM      8  O   UNL     1       8.038  32.643  73.963  1.00  0.00    -0.550 OA
ATOM      9  O   UNL     1       8.453  30.415  73.628  1.00  0.00    -0.550 OA
ENDBRANCH   6   7
ENDBRANCH   5   6
ENDBRANCH   4   5
ENDBRANCH   3   4
ENDBRANCH   2   3
ENDBRANCH   1   2
BRANCH   1  10
ATOM     10  C   UNL     1       8.395  32.934  68.276  1.00  0.00     0.000 C 
BRANCH  10  11
ATOM     11  C   UNL     1       8.336  32.032  67.033  1.00  0.00    -0.000 C 
BRANCH  11  12
ATOM     12  C   UNL     1       6.982  31.316  66.882  1.00  0.00    -0.000 C 
BRANCH  12  13
ATOM     13  C   UNL     1       6.353  30.955  68.237  1.00  0.00    -0.000 C 
BRANCH  13  14
ATOM     14  C   UNL     1       4.875  31.370  68.331  1.00  0.00    -0.000 C 
BRANCH  14  15
ATOM     15  C   UNL     1       4.558  32.613  67.484  1.00  0.00    -0.003 C 
ATOM     16  C   UNL     1       3.463  33.483  68.100  1.00  0.00     0.004 C 
ENDBRANCH  14  15
ENDBRANCH  13  14
ENDBRANCH  12  13
ENDBRANCH  11  12
ENDBRANCH  10  11
ENDBRANCH   1  10
TORSDOF 12
ENDMDL
MODEL 6
REMARK VINA RESULT:    -4.060      1.560      2.486
REMARK INTER + INTRA:          -8.634
REMARK INTER:                  -6.959
REMARK INTRA:                  -1.675
REMARK UNBOUND:                -1.726
REMARK SMILES CCCCCCCCCCCCCC(=O)[O-]
REMARK SMILES IDX 8 1 9 2 10 3 11 4 12 5 13 6 14 7 15 8 16 9 7 10 6 11 5 12
REMARK SMILES IDX 4 13 3 14 2 15 1 16
REMARK H PARENT
REMARK Flexibility Score: inf
ROOT
ATOM      1  C   UNL     1       6.279  35.234  70.271  1.00  0.00     0.000 C 
ENDROOT
BRANCH   1   2
ATOM      2  C   UNL     1       4.901  34.742  70.742  1.00  0.00     0.000 C 
BRANCH   2   3
ATOM      3  C   UNL     1       3.861  35.875  70.813  1.00  0.00     0.000 C 
BRANCH   3   4
ATOM      4  C   UNL     1       2.425  35.373  70.595  1.00  0.00     0.000 C 
BRANCH   4   5
ATOM      5  C   UNL     1       1.686  36.144  69.491  1.00  0.00     0.006 C 
BRANCH   5   6
ATOM      6  C   UNL     1       0.351  35.473  69.153  1.00  0.00     0.053 C 
BRANCH   6   7
ATOM      7  C   UNL     1       0.422  34.810  67.814  1.00  0.00     0.041 C 
ATOM      8  O   UNL     1       0.636  35.493  66.778  1.00  0.00    -0.550 OA
ATOM      9  O   UNL     1       0.201  33.443  67.703  1.00  0.00    -0.550 OA
ENDBRANCH   6   7
ENDBRANCH   5   6
ENDBRANCH   4   5
ENDBRANCH   3   4
ENDBRANCH   2   3
ENDBRANCH   1   2
BRANCH   1  10
ATOM     10  C   UNL     1       7.155  34.096  69.718  1.00  0.00     0.000 C 
BRANCH  10  11
ATOM     11  C   UNL     1       7.679  34.391  68.304  1.00  0.00    -0.000 C 
BRANCH  11  12
ATOM     12  C   UNL     1       7.624  33.161  67.381  1.00  0.00    -0.000 C 
BRANCH  12  13
ATOM     13  C   UNL     1       6.185  32.693  67.108  1.00  0.00    -0.000 C 
BRANCH  13  14
ATOM     14  C   UNL     1       5.259  33.848  66.689  1.00  0.00    -0.000 C 
BRANCH  14  15
ATOM     15  C   UNL     1       3.884  33.777  67.373  1.00  0.00    -0.003 C 
ATOM     16  C   UNL     1       3.696  32.498  68.187  1.00  0.00     0.004 C 
ENDBRANCH  14  15
ENDBRANCH  13  14
ENDBRANCH  12  13
ENDBRANCH  11  12
ENDBRANCH  10  11
ENDBRANCH   1  10
TORSDOF 12
ENDMDL
MODEL 7
REMARK VINA RESULT:    -4.051      3.489      5.194
REMARK INTER + INTRA:          -8.618
REMARK INTER:                  -6.439
REMARK INTRA:                  -2.179
REMARK UNBOUND:                -1.726
REMARK SMILES CCCCCCCCCCCCCC(=O)[O-]
REMARK SMILES IDX 8 1 9 2 10 3 11 4 12 5 13 6 14 7 15 8 16 9 7 10 6 11 5 12
REMARK SMILES IDX 4 13 3 14 2 15 1 16
REMARK H PARENT
REMARK Flexibility Score: inf
ROOT
ATOM      1  C   UNL     1       7.390  33.802  67.860  1.00  0.00     0.000 C 
ENDROOT
BRANCH   1   2
ATOM      2  C   UNL     1       7.357  34.759  69.063  1.00  0.00     0.000 C 
BRANCH   2   3
ATOM      3  C   UNL     1       7.336  34.013  70.409  1.00  0.00     0.000 C 
BRANCH   3   4
ATOM      4  C   UNL     1       7.326  32.485  70.238  1.00  0.00     0.000 C 
BRANCH   4   5
ATOM      5  C   UNL     1       6.507  31.769  71.322  1.00  0.00     0.006 C 
BRANCH   5   6
ATOM      6  C   UNL     1       6.609  32.505  72.661  1.00  0.00     0.053 C 
BRANCH   6   7
ATOM      7  C   UNL     1       7.838  32.080  73.400  1.00  0.00     0.041 C 
ATOM      8  O   UNL     1       8.565  32.937  73.967  1.00  0.00    -0.550 OA
ATOM      9  O   UNL     1       8.208  30.741  73.422  1.00  0.00    -0.550 OA
ENDBRANCH   6   7
ENDBRANCH   5   6
ENDBRANCH   4   5
ENDBRANCH   3   4
ENDBRANCH   2   3
ENDBRANCH   1   2
BRANCH   1  10
ATOM     10  C   UNL     1       6.548  34.313  66.676  1.00  0.00     0.000 C 
BRANCH  10  11
ATOM     11  C   UNL     1       5.091  33.830  66.739  1.00  0.00    -0.000 C 
BRANCH  11  12
ATOM     12  C   UNL     1       4.939  32.495  67.489  1.00  0.00    -0.000 C 
BRANCH  12  13
ATOM     13  C   UNL     1       3.931  32.579  68.646  1.00  0.00    -0.000 C 
BRANCH  13  14
ATOM     14  C   UNL     1       3.610  34.031  69.043  1.00  0.00    -0.000 C 
BRANCH  14  15
ATOM     15  C   UNL     1       3.635  34.244  70.565  1.00  0.00    -0.003 C 
ATOM     16  C   UNL     1       4.141  35.631  70.957  1.00  0.00     0.004 C 
ENDBRANCH  14  15
ENDBRANCH  13  14
ENDBRANCH  12  13
ENDBRANCH  11  12
ENDBRANCH  10  11
ENDBRANCH   1  10
TORSDOF 12
ENDMDL
MODEL 8
REMARK VINA RESULT:    -4.015      2.792      5.494
REMARK INTER + INTRA:          -8.558
REMARK INTER:                  -6.602
REMARK INTRA:                  -1.955
REMARK UNBOUND:                -1.726
REMARK SMILES CCCCCCCCCCCCCC(=O)[O-]
REMARK SMILES IDX 8 1 9 2 10 3 11 4 12 5 13 6 14 7 15 8 16 9 7 10 6 11 5 12
REMARK SMILES IDX 4 13 3 14 2 15 1 16
REMARK H PARENT
REMARK Flexibility Score: inf
ROOT
ATOM      1  C   UNL     1       3.863  32.680  68.663  1.00  0.00     0.000 C 
ENDROOT
BRANCH   1   2
ATOM      2  C   UNL     1       4.277  33.619  67.517  1.00  0.00     0.000 C 
BRANCH   2   3
ATOM      3  C   UNL     1       5.694  33.320  66.993  1.00  0.00     0.000 C 
BRANCH   3   4
ATOM      4  C   UNL     1       6.648  34.513  67.160  1.00  0.00     0.000 C 
BRANCH   4   5
ATOM      5  C   UNL     1       7.751  34.253  68.197  1.00  0.00     0.006 C 
BRANCH   5   6
ATOM      6  C   UNL     1       7.617  32.852  68.800  1.00  0.00     0.053 C 
BRANCH   6   7
ATOM      7  C   UNL     1       7.363  32.936  70.272  1.00  0.00     0.041 C 
ATOM      8  O   UNL     1       7.187  34.055  70.822  1.00  0.00    -0.550 OA
ATOM      9  O   UNL     1       7.371  31.782  71.045  1.00  0.00    -0.550 OA
ENDBRANCH   6   7
ENDBRANCH   5   6
ENDBRANCH   4   5
ENDBRANCH   3   4
ENDBRANCH   2   3
ENDBRANCH   1   2
BRANCH   1  10
ATOM     10  C   UNL     1       3.606  33.435  69.980  1.00  0.00     0.000 C 
BRANCH  10  11
ATOM     11  C   UNL     1       3.945  34.930  69.877  1.00  0.00    -0.000 C 
BRANCH  11  12
ATOM     12  C   UNL     1       2.858  35.829  70.493  1.00  0.00    -0.000 C 
BRANCH  12  13
ATOM     13  C   UNL     1       1.501  35.682  69.785  1.00  0.00    -0.000 C 
BRANCH  13  14
ATOM     14  C   UNL     1       1.514  36.260  68.359  1.00  0.00    -0.000 C 
BRANCH  14  15
ATOM     15  C   UNL     1       0.906  35.296  67.328  1.00  0.00    -0.003 C 
ATOM     16  C   UNL     1       0.431  33.986  67.955  1.00  0.00     0.004 C 
ENDBRANCH  14  15
ENDBRANCH  13  14
ENDBRANCH  12  13
ENDBRANCH  11  12
ENDBRANCH  10  11
ENDBRANCH   1  10
TORSDOF 12
ENDMDL
MODEL 9
REMARK VINA RESULT:    -4.008      1.364      3.335
REMARK INTER + INTRA:          -8.546
REMARK INTER:                  -6.612
REMARK INTRA:                  -1.934
REMARK UNBOUND:                -1.726
REMARK SMILES CCCCCCCCCCCCCC(=O)[O-]
REMARK SMILES IDX 8 1 9 2 10 3 11 4 12 5 13 6 14 7 15 8 16 9 7 10 6 11 5 12
REMARK SMILES IDX 4 13 3 14 2 15 1 16
REMARK H PARENT
REMARK Flexibility Score: inf
ROOT
ATOM      1  C   UNL     1       8.443  33.286  67.944  1.00  0.00     0.000 C 
ENDROOT
BRANCH   1   2
ATOM      2  C   UNL     1       7.317  34.139  67.335  1.00  0.00     0.000 C 
BRANCH   2   3
ATOM      3  C   UNL     1       6.162  34.382  68.323  1.00  0.00     0.000 C 
BRANCH   3   4
ATOM      4  C   UNL     1       6.633  35.031  69.634  1.00  0.00     0.000 C 
BRANCH   4   5
ATOM      5  C   UNL     1       5.468  35.482  70.528  1.00  0.00     0.006 C 
BRANCH   5   6
ATOM      6  C   UNL     1       4.170  34.770  70.136  1.00  0.00     0.053 C 
BRANCH   6   7
ATOM      7  C   UNL     1       3.011  35.338  70.892  1.00  0.00     0.041 C 
ATOM      8  O   UNL     1       3.180  35.823  72.042  1.00  0.00    -0.550 OA
ATOM      9  O   UNL     1       1.734  35.288  70.347  1.00  0.00    -0.550 OA
ENDBRANCH   6   7
ENDBRANCH   5   6
ENDBRANCH   4   5
ENDBRANCH   3   4
ENDBRANCH   2   3
ENDBRANCH   1   2
BRANCH   1  10
ATOM     10  C   UNL     1       8.692  31.988  67.155  1.00  0.00     0.000 C 
BRANCH  10  11
ATOM     11  C   UNL     1       7.544  30.978  67.307  1.00  0.00    -0.000 C 
BRANCH  11  12
ATOM     12  C   UNL     1       7.349  30.515  68.762  1.00  0.00    -0.000 C 
BRANCH  12  13
ATOM     13  C   UNL     1       5.928  30.788  69.282  1.00  0.00    -0.000 C 
BRANCH  13  14
ATOM     14  C   UNL     1       5.925  31.473  70.659  1.00  0.00    -0.000 C 
BRANCH  14  15
ATOM     15  C   UNL     1       7.341  31.811  71.152  1.00  0.00    -0.003 C 
ATOM     16  C   UNL     1       7.347  32.440  72.544  1.00  0.00     0.004 C 
ENDBRANCH  14  15
ENDBRANCH  13  14
ENDBRANCH  12  13
ENDBRANCH  11  12
ENDBRANCH  10  11
ENDBRANCH   1  10
TORSDOF 12
ENDMDL
