MODEL 1
REMARK VINA RESULT:    -6.590      0.000      0.000
REMARK INTER + INTRA:         -19.098
REMARK INTER:                 -16.606
REMARK INTRA:                  -2.492
REMARK UNBOUND:                -2.492
REMARK SMILES CCCCCCCCCCCCCCCCCCCCCCCCCCCC(=O)[O-]
REMARK SMILES IDX 15 1 16 2 17 3 18 4 19 5 20 6 21 7 22 8 23 9 24 10 25 11
REMARK SMILES IDX 26 12 27 13 28 14 29 15 30 16 14 17 13 18 12 19 11 20 10 21
REMARK SMILES IDX 9 22 8 23 7 24 6 25 5 26 4 27 3 28 2 29 1 30
REMARK H PARENT
REMARK Flexibility Score: inf
ROOT
ATOM      1  C   UNL     1     -13.829  -8.359  -7.268  1.00  0.00     0.000 C 
ENDROOT
BRANCH   1   2
ATOM      2  C   UNL     1     -15.365  -8.496  -7.371  1.00  0.00     0.000 C 
BRANCH   2   3
ATOM      3  C   UNL     1     -15.989  -9.136  -6.121  1.00  0.00     0.000 C 
BRANCH   3   4
ATOM      4  C   UNL     1     -17.241  -9.965  -6.445  1.00  0.00     0.000 C 
BRANCH   4   5
ATOM      5  C   UNL     1     -16.945 -11.472  -6.538  1.00  0.00     0.000 C 
BRANCH   5   6
ATOM      6  C   UNL     1     -15.502 -11.760  -6.978  1.00  0.00     0.000 C 
BRANCH   6   7
ATOM      7  C   UNL     1     -15.421 -12.864  -8.047  1.00  0.00     0.000 C 
BRANCH   7   8
ATOM      8  C   UNL     1     -14.604 -12.444  -9.282  1.00  0.00     0.000 C 
BRANCH   8   9
ATOM      9  C   UNL     1     -15.103 -11.168  -9.985  1.00  0.00     0.000 C 
BRANCH   9  10
ATOM     10  C   UNL     1     -16.472 -11.355 -10.662  1.00  0.00     0.000 C 
BRANCH  10  11
ATOM     11  C   UNL     1     -17.546 -10.405 -10.107  1.00  0.00     0.000 C 
BRANCH  11  12
ATOM     12  C   UNL     1     -18.718 -10.119 -11.068  1.00  0.00     0.006 C 
BRANCH  12  13
ATOM     13  C   UNL     1     -19.113 -11.302 -11.967  1.00  0.00     0.053 C 
BRANCH  13  14
ATOM     14  C   UNL     1     -20.313 -10.996 -12.809  1.00  0.00     0.041 C 
ATOM     15  O   UNL     1     -20.653 -11.777 -13.737  1.00  0.00    -0.550 OA
ATOM     16  O   UNL     1     -21.074  -9.862 -12.552  1.00  0.00    -0.550 OA
ENDBRANCH  13  14
ENDBRANCH  12  13
ENDBRANCH  11  12
ENDBRANCH  10  11
ENDBRANCH   9  10
ENDBRANCH   8   9
ENDBRANCH   7   8
ENDBRANCH   6   7
ENDBRANCH   5   6
ENDBRANCH   4   5
ENDBRANCH   3   4
ENDBRANCH   2   3
ENDBRANCH   1   2
BRANCH   1  17
ATOM     17  C   UNL     1     -13.085  -9.707  -7.257  1.00  0.00     0.000 C 
BRANCH  17  18
ATOM     18  C   UNL     1     -12.115  -9.895  -6.077  1.00  0.00     0.000 C 
BRANCH  18  19
ATOM     19  C   UNL     1     -12.604 -10.921  -5.028  1.00  0.00     0.000 C 
BRANCH  19  20
ATOM     20  C   UNL     1     -11.450 -11.702  -4.380  1.00  0.00     0.000 C 
BRANCH  20  21
ATOM     21  C   UNL     1     -11.858 -12.382  -3.064  1.00  0.00     0.000 C 
BRANCH  21  22
ATOM     22  C   UNL     1     -11.953 -11.388  -1.892  1.00  0.00    -0.000 C 
BRANCH  22  23
ATOM     23  C   UNL     1     -10.943 -11.691  -0.771  1.00  0.00    -0.000 C 
BRANCH  23  24
ATOM     24  C   UNL     1      -9.951 -12.824  -1.085  1.00  0.00    -0.000 C 
BRANCH  24  25
ATOM     25  C   UNL     1      -8.534 -12.540  -0.554  1.00  0.00    -0.000 C 
BRANCH  25  26
ATOM     26  C   UNL     1      -7.518 -13.616  -0.991  1.00  0.00    -0.000 C 
BRANCH  26  27
ATOM     27  C   UNL     1      -8.169 -14.962  -1.351  1.00  0.00    -0.000 C 
BRANCH  27  28
ATOM     28  C   UNL     1      -7.188 -15.941  -2.014  1.00  0.00    -0.000 C 
BRANCH  28  29
ATOM     29  C   UNL     1      -7.665 -17.399  -1.924  1.00  0.00    -0.003 C 
ATOM     30  C   UNL     1      -8.246 -17.741  -0.552  1.00  0.00     0.004 C 
ENDBRANCH  28  29
ENDBRANCH  27  28
ENDBRANCH  26  27
ENDBRANCH  25  26
ENDBRANCH  24  25
ENDBRANCH  23  24
ENDBRANCH  22  23
ENDBRANCH  21  22
ENDBRANCH  20  21
ENDBRANCH  19  20
ENDBRANCH  18  19
ENDBRANCH  17  18
ENDBRANCH   1  17
TORSDOF 26
ENDMDL
MODEL 2
REMARK VINA RESULT:    -6.496      4.896     11.680
REMARK INTER + INTRA:         -18.862
REMARK INTER:                 -16.309
REMARK INTRA:                  -2.553
REMARK UNBOUND:                -2.492
REMARK SMILES CCCCCCCCCCCCCCCCCCCCCCCCCCCC(=O)[O-]
REMARK SMILES IDX 15 1 16 2 17 3 18 4 19 5 20 6 21 7 22 8 23 9 24 10 25 11
REMARK SMILES IDX 26 12 27 13 28 14 29 15 30 16 14 17 13 18 12 19 11 20 10 21
REMARK SMILES IDX 9 22 8 23 7 24 6 25 5 26 4 27 3 28 2 29 1 30
REMARK H PARENT
REMARK Flexibility Score: inf
ROOT
ATOM      1  C   UNL     1     -15.536  -8.167  -8.170  1.00  0.00     0.000 C 
ENDROOT
BRANCH   1   2
ATOM      2  C   UNL     1     -14.565  -8.442  -7.000  1.00  0.00     0.000 C 
BRANCH   2   3
ATOM      3  C   UNL     1     -13.281  -9.157  -7.448  1.00  0.00     0.000 C 
BRANCH   3   4
ATOM      4  C   UNL     1     -12.377  -9.544  -6.268  1.00  0.00     0.000 C 
BRANCH   4   5
ATOM      5  C   UNL     1     -12.853 -10.822  -5.554  1.00  0.00     0.000 C 
BRANCH   5   6
ATOM      6  C   UNL     1     -11.755 -11.452  -4.685  1.00  0.00     0.000 C 
BRANCH   6   7
ATOM      7  C   UNL     1     -12.117 -11.457  -3.190  1.00  0.00     0.000 C 
BRANCH   7   8
ATOM      8  C   UNL     1     -11.405 -12.573  -2.404  1.00  0.00     0.000 C 
BRANCH   8   9
ATOM      9  C   UNL     1     -11.050 -12.214  -0.949  1.00  0.00     0.000 C 
BRANCH   9  10
ATOM     10  C   UNL     1      -9.795 -12.945  -0.442  1.00  0.00     0.000 C 
BRANCH  10  11
ATOM     11  C   UNL     1      -8.872 -13.406  -1.583  1.00  0.00     0.000 C 
BRANCH  11  12
ATOM     12  C   UNL     1      -8.142 -14.741  -1.328  1.00  0.00     0.006 C 
BRANCH  12  13
ATOM     13  C   UNL     1      -8.410 -15.829  -2.382  1.00  0.00     0.053 C 
BRANCH  13  14
ATOM     14  C   UNL     1      -7.898 -17.168  -1.952  1.00  0.00     0.041 C 
ATOM     15  O   UNL     1      -8.135 -17.596  -0.791  1.00  0.00    -0.550 OA
ATOM     16  O   UNL     1      -7.182 -17.959  -2.843  1.00  0.00    -0.550 OA
ENDBRANCH  13  14
ENDBRANCH  12  13
ENDBRANCH  11  12
ENDBRANCH  10  11
ENDBRANCH   9  10
ENDBRANCH   8   9
ENDBRANCH   7   8
ENDBRANCH   6   7
ENDBRANCH   5   6
ENDBRANCH   4   5
ENDBRANCH   3   4
ENDBRANCH   2   3
ENDBRANCH   1   2
BRANCH   1  17
ATOM     17  C   UNL     1     -17.013  -8.433  -7.827  1.00  0.00     0.000 C 
BRANCH  17  18
ATOM     18  C   UNL     1     -17.235  -9.347  -6.609  1.00  0.00     0.000 C 
BRANCH  18  19
ATOM     19  C   UNL     1     -17.353 -10.846  -6.971  1.00  0.00     0.000 C 
BRANCH  19  20
ATOM     20  C   UNL     1     -16.167 -11.676  -6.455  1.00  0.00     0.000 C 
BRANCH  20  21
ATOM     21  C   UNL     1     -15.483 -12.488  -7.565  1.00  0.00     0.000 C 
BRANCH  21  22
ATOM     22  C   UNL     1     -14.812 -11.593  -8.623  1.00  0.00    -0.000 C 
BRANCH  22  23
ATOM     23  C   UNL     1     -14.571 -12.324  -9.955  1.00  0.00    -0.000 C 
BRANCH  23  24
ATOM     24  C   UNL     1     -15.696 -12.161 -10.993  1.00  0.00    -0.000 C 
BRANCH  24  25
ATOM     25  C   UNL     1     -16.719 -11.080 -10.597  1.00  0.00    -0.000 C 
BRANCH  25  26
ATOM     26  C   UNL     1     -18.118 -11.355 -11.187  1.00  0.00    -0.000 C 
BRANCH  26  27
ATOM     27  C   UNL     1     -19.043 -10.126 -11.165  1.00  0.00    -0.000 C 
BRANCH  27  28
ATOM     28  C   UNL     1     -20.234 -10.257 -12.126  1.00  0.00    -0.000 C 
BRANCH  28  29
ATOM     29  C   UNL     1     -19.960 -11.250 -13.267  1.00  0.00    -0.003 C 
ATOM     30  C   UNL     1     -21.218 -11.997 -13.709  1.00  0.00     0.004 C 
ENDBRANCH  28  29
ENDBRANCH  27  28
ENDBRANCH  26  27
ENDBRANCH  25  26
ENDBRANCH  24  25
ENDBRANCH  23  24
ENDBRANCH  22  23
ENDBRANCH  21  22
ENDBRANCH  20  21
ENDBRANCH  19  20
ENDBRANCH  18  19
ENDBRANCH  17  18
ENDBRANCH   1  17
TORSDOF 26
ENDMDL
MODEL 3
REMARK VINA RESULT:    -6.384      4.830     11.960
REMARK INTER + INTRA:         -18.579
REMARK INTER:                 -15.552
REMARK INTRA:                  -3.027
REMARK UNBOUND:                -2.492
REMARK SMILES CCCCCCCCCCCCCCCCCCCCCCCCCCCC(=O)[O-]
REMARK SMILES IDX 15 1 16 2 17 3 18 4 19 5 20 6 21 7 22 8 23 9 24 10 25 11
REMARK SMILES IDX 26 12 27 13 28 14 29 15 30 16 14 17 13 18 12 19 11 20 10 21
REMARK SMILES IDX 9 22 8 23 7 24 6 25 5 26 4 27 3 28 2 29 1 30
REMARK H PARENT
REMARK Flexibility Score: inf
ROOT
ATOM      1  C   UNL     1     -13.995 -11.514  -7.378  1.00  0.00     0.000 C 
ENDROOT
BRANCH   1   2
ATOM      2  C   UNL     1     -13.592 -10.039  -7.157  1.00  0.00     0.000 C 
BRANCH   2   3
ATOM      3  C   UNL     1     -12.496  -9.875  -6.092  1.00  0.00     0.000 C 
BRANCH   3   4
ATOM      4  C   UNL     1     -12.154 -11.197  -5.388  1.00  0.00     0.000 C 
BRANCH   4   5
ATOM      5  C   UNL     1     -12.124 -11.059  -3.855  1.00  0.00     0.000 C 
BRANCH   5   6
ATOM      6  C   UNL     1     -11.506 -12.285  -3.168  1.00  0.00     0.000 C 
BRANCH   6   7
ATOM      7  C   UNL     1     -11.855 -12.359  -1.671  1.00  0.00     0.000 C 
BRANCH   7   8
ATOM      8  C   UNL     1     -11.323 -11.156  -0.871  1.00  0.00     0.000 C 
BRANCH   8   9
ATOM      9  C   UNL     1     -10.069 -11.444  -0.026  1.00  0.00     0.000 C 
BRANCH   9  10
ATOM     10  C   UNL     1      -9.722 -12.942   0.036  1.00  0.00     0.000 C 
BRANCH  10  11
ATOM     11  C   UNL     1      -8.568 -13.325  -0.906  1.00  0.00     0.000 C 
BRANCH  11  12
ATOM     12  C   UNL     1      -8.704 -14.712  -1.567  1.00  0.00     0.006 C 
BRANCH  12  13
ATOM     13  C   UNL     1      -7.422 -15.562  -1.546  1.00  0.00     0.053 C 
BRANCH  13  14
ATOM     14  C   UNL     1      -7.682 -16.987  -1.923  1.00  0.00     0.041 C 
ATOM     15  O   UNL     1      -8.367 -17.728  -1.168  1.00  0.00    -0.550 OA
ATOM     16  O   UNL     1      -7.193 -17.491  -3.122  1.00  0.00    -0.550 OA
ENDBRANCH  13  14
ENDBRANCH  12  13
ENDBRANCH  11  12
ENDBRANCH  10  11
ENDBRANCH   9  10
ENDBRANCH   8   9
ENDBRANCH   7   8
ENDBRANCH   6   7
ENDBRANCH   5   6
ENDBRANCH   4   5
ENDBRANCH   3   4
ENDBRANCH   2   3
ENDBRANCH   1   2
BRANCH   1  17
ATOM     17  C   UNL     1     -15.506 -11.773  -7.235  1.00  0.00     0.000 C 
BRANCH  17  18
ATOM     18  C   UNL     1     -16.216 -10.882  -6.201  1.00  0.00     0.000 C 
BRANCH  18  19
ATOM     19  C   UNL     1     -17.726 -10.692  -6.475  1.00  0.00     0.000 C 
BRANCH  19  20
ATOM     20  C   UNL     1     -18.018  -9.461  -7.349  1.00  0.00     0.000 C 
BRANCH  20  21
ATOM     21  C   UNL     1     -16.851  -8.463  -7.380  1.00  0.00     0.000 C 
BRANCH  21  22
ATOM     22  C   UNL     1     -16.476  -8.039  -8.811  1.00  0.00    -0.000 C 
BRANCH  22  23
ATOM     23  C   UNL     1     -16.882  -9.080  -9.868  1.00  0.00    -0.000 C 
BRANCH  23  24
ATOM     24  C   UNL     1     -15.782 -10.091 -10.234  1.00  0.00    -0.000 C 
BRANCH  24  25
ATOM     25  C   UNL     1     -16.347 -11.434 -10.732  1.00  0.00    -0.000 C 
BRANCH  25  26
ATOM     26  C   UNL     1     -17.886 -11.497 -10.625  1.00  0.00    -0.000 C 
BRANCH  26  27
ATOM     27  C   UNL     1     -18.589 -11.625 -11.986  1.00  0.00    -0.000 C 
BRANCH  27  28
ATOM     28  C   UNL     1     -19.179 -10.295 -12.481  1.00  0.00    -0.000 C 
BRANCH  28  29
ATOM     29  C   UNL     1     -20.702 -10.364 -12.671  1.00  0.00    -0.003 C 
ATOM     30  C   UNL     1     -21.122 -11.467 -13.641  1.00  0.00     0.004 C 
ENDBRANCH  28  29
ENDBRANCH  27  28
ENDBRANCH  26  27
ENDBRANCH  25  26
ENDBRANCH  24  25
ENDBRANCH  23  24
ENDBRANCH  22  23
ENDBRANCH  21  22
ENDBRANCH  20  21
ENDBRANCH  19  20
ENDBRANCH  18  19
ENDBRANCH  17  18
ENDBRANCH   1  17
TORSDOF 26
ENDMDL
MODEL 4
REMARK VINA RESULT:    -6.372      4.965     11.572
REMARK INTER + INTRA:         -18.549
REMARK INTER:                 -15.798
REMARK INTRA:                  -2.751
REMARK UNBOUND:                -2.492
REMARK SMILES CCCCCCCCCCCCCCCCCCCCCCCCCCCC(=O)[O-]
REMARK SMILES IDX 15 1 16 2 17 3 18 4 19 5 20 6 21 7 22 8 23 9 24 10 25 11
REMARK SMILES IDX 26 12 27 13 28 14 29 15 30 16 14 17 13 18 12 19 11 20 10 21
REMARK SMILES IDX 9 22 8 23 7 24 6 25 5 26 4 27 3 28 2 29 1 30
REMARK H PARENT
REMARK Flexibility Score: inf
ROOT
ATOM      1  C   UNL     1     -12.405  -9.980  -6.293  1.00  0.00     0.000 C 
ENDROOT
BRANCH   1   2
ATOM      2  C   UNL     1     -12.660 -10.972  -5.135  1.00  0.00     0.000 C 
BRANCH   2   3
ATOM      3  C   UNL     1     -11.380 -11.684  -4.669  1.00  0.00     0.000 C 
BRANCH   3   4
ATOM      4  C   UNL     1     -11.527 -12.312  -3.275  1.00  0.00     0.000 C 
BRANCH   4   5
ATOM      5  C   UNL     1     -12.066 -11.316  -2.233  1.00  0.00     0.000 C 
BRANCH   5   6
ATOM      6  C   UNL     1     -11.669 -11.696  -0.799  1.00  0.00     0.000 C 
BRANCH   6   7
ATOM      7  C   UNL     1     -10.646 -10.719  -0.193  1.00  0.00     0.000 C 
BRANCH   7   8
ATOM      8  C   UNL     1      -9.439 -11.433   0.442  1.00  0.00     0.000 C 
BRANCH   8   9
ATOM      9  C   UNL     1      -9.269 -12.907   0.029  1.00  0.00     0.000 C 
BRANCH   9  10
ATOM     10  C   UNL     1      -8.286 -13.091  -1.140  1.00  0.00     0.000 C 
BRANCH  10  11
ATOM     11  C   UNL     1      -6.961 -13.740  -0.707  1.00  0.00     0.000 C 
BRANCH  11  12
ATOM     12  C   UNL     1      -6.637 -15.079  -1.403  1.00  0.00     0.006 C 
BRANCH  12  13
ATOM     13  C   UNL     1      -7.866 -15.851  -1.911  1.00  0.00     0.053 C 
BRANCH  13  14
ATOM     14  C   UNL     1      -7.828 -17.295  -1.515  1.00  0.00     0.041 C 
ATOM     15  O   UNL     1      -8.238 -17.652  -0.379  1.00  0.00    -0.550 OA
ATOM     16  O   UNL     1      -7.366 -18.252  -2.411  1.00  0.00    -0.550 OA
ENDBRANCH  13  14
ENDBRANCH  12  13
ENDBRANCH  11  12
ENDBRANCH  10  11
ENDBRANCH   9  10
ENDBRANCH   8   9
ENDBRANCH   7   8
ENDBRANCH   6   7
ENDBRANCH   5   6
ENDBRANCH   4   5
ENDBRANCH   3   4
ENDBRANCH   2   3
ENDBRANCH   1   2
BRANCH   1  17
ATOM     17  C   UNL     1     -13.603  -9.817  -7.246  1.00  0.00     0.000 C 
BRANCH  17  18
ATOM     18  C   UNL     1     -14.233  -8.413  -7.252  1.00  0.00     0.000 C 
BRANCH  18  19
ATOM     19  C   UNL     1     -15.696  -8.386  -6.750  1.00  0.00     0.000 C 
BRANCH  19  20
ATOM     20  C   UNL     1     -16.277  -9.794  -6.541  1.00  0.00     0.000 C 
BRANCH  20  21
ATOM     21  C   UNL     1     -17.402 -10.125  -7.533  1.00  0.00     0.000 C 
BRANCH  21  22
ATOM     22  C   UNL     1     -17.838  -8.903  -8.360  1.00  0.00    -0.000 C 
BRANCH  22  23
ATOM     23  C   UNL     1     -18.872  -9.254  -9.445  1.00  0.00    -0.000 C 
BRANCH  23  24
ATOM     24  C   UNL     1     -18.276  -9.541 -10.834  1.00  0.00    -0.000 C 
BRANCH  24  25
ATOM     25  C   UNL     1     -18.719 -10.901 -11.403  1.00  0.00    -0.000 C 
BRANCH  25  26
ATOM     26  C   UNL     1     -17.747 -12.039 -11.026  1.00  0.00    -0.000 C 
BRANCH  26  27
ATOM     27  C   UNL     1     -16.274 -11.707 -11.319  1.00  0.00    -0.000 C 
BRANCH  27  28
ATOM     28  C   UNL     1     -15.483 -11.334 -10.055  1.00  0.00    -0.000 C 
BRANCH  28  29
ATOM     29  C   UNL     1     -14.585 -12.481  -9.566  1.00  0.00    -0.003 C 
ATOM     30  C   UNL     1     -14.984 -12.988  -8.180  1.00  0.00     0.004 C 
ENDBRANCH  28  29
ENDBRANCH  27  28
ENDBRANCH  26  27
ENDBRANCH  25  26
ENDBRANCH  24  25
ENDBRANCH  23  24
ENDBRANCH  22  23
ENDBRANCH  21  22
ENDBRANCH  20  21
ENDBRANCH  19  20
ENDBRANCH  18  19
ENDBRANCH  17  18
ENDBRANCH   1  17
TORSDOF 26
ENDMDL
MODEL 5
REMARK VINA RESULT:    -6.361      0.993      2.273
REMARK INTER + INTRA:         -18.520
REMARK INTER:                 -15.843
REMARK INTRA:                  -2.677
REMARK UNBOUND:                -2.492
REMARK SMILES CCCCCCCCCCCCCCCCCCCCCCCCCCCC(=O)[O-]
REMARK SMILES IDX 15 1 16 2 17 3 18 4 19 5 20 6 21 7 22 8 23 9 24 10 25 11
REMARK SMILES IDX 26 12 27 13 28 14 29 15 30 16 14 17 13 18 12 19 11 20 10 21
REMARK SMILES IDX 9 22 8 23 7 24 6 25 5 26 4 27 3 28 2 29 1 30
REMARK H PARENT
REMARK Flexibility Score: inf
ROOT
ATOM      1  C   UNL     1     -12.676  -9.866  -6.644  1.00  0.00     0.000 C 
ENDROOT
BRANCH   1   2
ATOM      2  C   UNL     1     -13.846 -10.121  -7.622  1.00  0.00     0.000 C 
BRANCH   2   3
ATOM      3  C   UNL     1     -14.045 -11.613  -7.934  1.00  0.00     0.000 C 
BRANCH   3   4
ATOM      4  C   UNL     1     -15.504 -12.062  -7.764  1.00  0.00     0.000 C 
BRANCH   4   5
ATOM      5  C   UNL     1     -16.109 -11.610  -6.423  1.00  0.00     0.000 C 
BRANCH   5   6
ATOM      6  C   UNL     1     -17.321 -10.686  -6.608  1.00  0.00     0.000 C 
BRANCH   6   7
ATOM      7  C   UNL     1     -17.016  -9.229  -6.218  1.00  0.00     0.000 C 
BRANCH   7   8
ATOM      8  C   UNL     1     -16.527  -8.380  -7.406  1.00  0.00     0.000 C 
BRANCH   8   9
ATOM      9  C   UNL     1     -17.451  -8.398  -8.637  1.00  0.00     0.000 C 
BRANCH   9  10
ATOM     10  C   UNL     1     -16.787  -9.027  -9.874  1.00  0.00     0.000 C 
BRANCH  10  11
ATOM     11  C   UNL     1     -17.404 -10.383 -10.257  1.00  0.00     0.000 C 
BRANCH  11  12
ATOM     12  C   UNL     1     -18.803 -10.299 -10.901  1.00  0.00     0.006 C 
BRANCH  12  13
ATOM     13  C   UNL     1     -18.965 -11.120 -12.192  1.00  0.00     0.053 C 
BRANCH  13  14
ATOM     14  C   UNL     1     -20.304 -10.914 -12.828  1.00  0.00     0.041 C 
ATOM     15  O   UNL     1     -21.018  -9.929 -12.500  1.00  0.00    -0.550 OA
ATOM     16  O   UNL     1     -20.755 -11.794 -13.805  1.00  0.00    -0.550 OA
ENDBRANCH  13  14
ENDBRANCH  12  13
ENDBRANCH  11  12
ENDBRANCH  10  11
ENDBRANCH   9  10
ENDBRANCH   8   9
ENDBRANCH   7   8
ENDBRANCH   6   7
ENDBRANCH   5   6
ENDBRANCH   4   5
ENDBRANCH   3   4
ENDBRANCH   2   3
ENDBRANCH   1   2
BRANCH   1  17
ATOM     17  C   UNL     1     -12.798 -10.637  -5.317  1.00  0.00     0.000 C 
BRANCH  17  18
ATOM     18  C   UNL     1     -11.536 -11.417  -4.908  1.00  0.00     0.000 C 
BRANCH  18  19
ATOM     19  C   UNL     1     -11.705 -12.234  -3.606  1.00  0.00     0.000 C 
BRANCH  19  20
ATOM     20  C   UNL     1     -12.063 -11.354  -2.397  1.00  0.00     0.000 C 
BRANCH  20  21
ATOM     21  C   UNL     1     -11.548 -11.931  -1.070  1.00  0.00     0.000 C 
BRANCH  21  22
ATOM     22  C   UNL     1     -10.967 -10.850  -0.142  1.00  0.00    -0.000 C 
BRANCH  22  23
ATOM     23  C   UNL     1      -9.506 -11.127   0.255  1.00  0.00    -0.000 C 
BRANCH  23  24
ATOM     24  C   UNL     1      -9.116 -12.615   0.279  1.00  0.00    -0.000 C 
BRANCH  24  25
ATOM     25  C   UNL     1      -7.895 -12.926  -0.606  1.00  0.00    -0.000 C 
BRANCH  25  26
ATOM     26  C   UNL     1      -8.301 -13.445  -2.002  1.00  0.00    -0.000 C 
BRANCH  26  27
ATOM     27  C   UNL     1      -8.752 -14.915  -1.999  1.00  0.00    -0.000 C 
BRANCH  27  28
ATOM     28  C   UNL     1      -7.854 -15.814  -1.134  1.00  0.00    -0.000 C 
BRANCH  28  29
ATOM     29  C   UNL     1      -7.873 -17.280  -1.595  1.00  0.00    -0.003 C 
ATOM     30  C   UNL     1      -7.251 -17.467  -2.978  1.00  0.00     0.004 C 
ENDBRANCH  28  29
ENDBRANCH  27  28
ENDBRANCH  26  27
ENDBRANCH  25  26
ENDBRANCH  24  25
ENDBRANCH  23  24
ENDBRANCH  22  23
ENDBRANCH  21  22
ENDBRANCH  20  21
ENDBRANCH  19  20
ENDBRANCH  18  19
ENDBRANCH  17  18
ENDBRANCH   1  17
TORSDOF 26
ENDMDL
MODEL 6
REMARK VINA RESULT:    -6.302      2.365      3.622
REMARK INTER + INTRA:         -18.372
REMARK INTER:                 -15.789
REMARK INTRA:                  -2.583
REMARK UNBOUND:                -2.492
REMARK SMILES CCCCCCCCCCCCCCCCCCCCCCCCCCCC(=O)[O-]
REMARK SMILES IDX 15 1 16 2 17 3 18 4 19 5 20 6 21 7 22 8 23 9 24 10 25 11
REMARK SMILES IDX 26 12 27 13 28 14 29 15 30 16 14 17 13 18 12 19 11 20 10 21
REMARK SMILES IDX 9 22 8 23 7 24 6 25 5 26 4 27 3 28 2 29 1 30
REMARK H PARENT
REMARK Flexibility Score: inf
ROOT
ATOM      1  C   UNL     1     -12.897 -10.859  -6.097  1.00  0.00     0.000 C 
ENDROOT
BRANCH   1   2
ATOM      2  C   UNL     1     -12.753  -9.534  -6.880  1.00  0.00     0.000 C 
BRANCH   2   3
ATOM      3  C   UNL     1     -14.109  -8.909  -7.245  1.00  0.00     0.000 C 
BRANCH   3   4
ATOM      4  C   UNL     1     -15.252  -9.416  -6.353  1.00  0.00     0.000 C 
BRANCH   4   5
ATOM      5  C   UNL     1     -16.639  -9.000  -6.876  1.00  0.00     0.000 C 
BRANCH   5   6
ATOM      6  C   UNL     1     -16.551  -8.018  -8.054  1.00  0.00     0.000 C 
BRANCH   6   7
ATOM      7  C   UNL     1     -17.155  -8.593  -9.347  1.00  0.00     0.000 C 
BRANCH   7   8
ATOM      8  C   UNL     1     -18.483  -9.335  -9.109  1.00  0.00     0.000 C 
BRANCH   8   9
ATOM      9  C   UNL     1     -19.151  -9.890 -10.381  1.00  0.00     0.000 C 
BRANCH   9  10
ATOM     10  C   UNL     1     -18.134 -10.420 -11.407  1.00  0.00     0.000 C 
BRANCH  10  11
ATOM     11  C   UNL     1     -17.496 -11.752 -10.979  1.00  0.00     0.000 C 
BRANCH  11  12
ATOM     12  C   UNL     1     -15.955 -11.788 -11.059  1.00  0.00     0.006 C 
BRANCH  12  13
ATOM     13  C   UNL     1     -15.237 -11.400  -9.756  1.00  0.00     0.053 C 
BRANCH  13  14
ATOM     14  C   UNL     1     -15.047 -12.573  -8.845  1.00  0.00     0.041 C 
ATOM     15  O   UNL     1     -14.489 -13.621  -9.268  1.00  0.00    -0.550 OA
ATOM     16  O   UNL     1     -15.460 -12.501  -7.520  1.00  0.00    -0.550 OA
ENDBRANCH  13  14
ENDBRANCH  12  13
ENDBRANCH  11  12
ENDBRANCH  10  11
ENDBRANCH   9  10
ENDBRANCH   8   9
ENDBRANCH   7   8
ENDBRANCH   6   7
ENDBRANCH   5   6
ENDBRANCH   4   5
ENDBRANCH   3   4
ENDBRANCH   2   3
ENDBRANCH   1   2
BRANCH   1  17
ATOM     17  C   UNL     1     -12.210 -10.844  -4.720  1.00  0.00     0.000 C 
BRANCH  17  18
ATOM     18  C   UNL     1     -11.365 -12.092  -4.409  1.00  0.00     0.000 C 
BRANCH  18  19
ATOM     19  C   UNL     1     -11.267 -12.416  -2.900  1.00  0.00     0.000 C 
BRANCH  19  20
ATOM     20  C   UNL     1     -12.071 -11.437  -2.030  1.00  0.00     0.000 C 
BRANCH  20  21
ATOM     21  C   UNL     1     -11.490 -11.282  -0.617  1.00  0.00     0.000 C 
BRANCH  21  22
ATOM     22  C   UNL     1     -10.250 -12.164  -0.389  1.00  0.00    -0.000 C 
BRANCH  22  23
ATOM     23  C   UNL     1      -9.095 -11.406   0.288  1.00  0.00    -0.000 C 
BRANCH  23  24
ATOM     24  C   UNL     1      -7.688 -11.845  -0.154  1.00  0.00    -0.000 C 
BRANCH  24  25
ATOM     25  C   UNL     1      -7.713 -13.059  -1.101  1.00  0.00    -0.000 C 
BRANCH  25  26
ATOM     26  C   UNL     1      -6.495 -13.985  -0.900  1.00  0.00    -0.000 C 
BRANCH  26  27
ATOM     27  C   UNL     1      -6.828 -15.477  -1.059  1.00  0.00    -0.000 C 
BRANCH  27  28
ATOM     28  C   UNL     1      -8.255 -15.719  -1.576  1.00  0.00    -0.000 C 
BRANCH  28  29
ATOM     29  C   UNL     1      -8.277 -16.539  -2.876  1.00  0.00    -0.003 C 
ATOM     30  C   UNL     1      -7.079 -17.480  -2.994  1.00  0.00     0.004 C 
ENDBRANCH  28  29
ENDBRANCH  27  28
ENDBRANCH  26  27
ENDBRANCH  25  26
ENDBRANCH  24  25
ENDBRANCH  23  24
ENDBRANCH  22  23
ENDBRANCH  21  22
ENDBRANCH  20  21
ENDBRANCH  19  20
ENDBRANCH  18  19
ENDBRANCH  17  18
ENDBRANCH   1  17
TORSDOF 26
ENDMDL
MODEL 7
REMARK VINA RESULT:    -6.292      4.969     12.017
REMARK INTER + INTRA:         -18.347
REMARK INTER:                 -15.756
REMARK INTRA:                  -2.590
REMARK UNBOUND:                -2.492
REMARK SMILES CCCCCCCCCCCCCCCCCCCCCCCCCCCC(=O)[O-]
REMARK SMILES IDX 15 1 16 2 17 3 18 4 19 5 20 6 21 7 22 8 23 9 24 10 25 11
REMARK SMILES IDX 26 12 27 13 28 14 29 15 30 16 14 17 13 18 12 19 11 20 10 21
REMARK SMILES IDX 9 22 8 23 7 24 6 25 5 26 4 27 3 28 2 29 1 30
REMARK H PARENT
REMARK Flexibility Score: inf
ROOT
ATOM      1  C   UNL     1     -12.351  -9.883  -6.324  1.00  0.00     0.000 C 
ENDROOT
BRANCH   1   2
ATOM      2  C   UNL     1     -12.526 -10.703  -5.026  1.00  0.00     0.000 C 
BRANCH   2   3
ATOM      3  C   UNL     1     -11.431 -11.765  -4.841  1.00  0.00     0.000 C 
BRANCH   3   4
ATOM      4  C   UNL     1     -11.279 -12.209  -3.378  1.00  0.00     0.000 C 
BRANCH   4   5
ATOM      5  C   UNL     1     -12.043 -11.296  -2.402  1.00  0.00     0.000 C 
BRANCH   5   6
ATOM      6  C   UNL     1     -11.823 -11.691  -0.935  1.00  0.00     0.000 C 
BRANCH   6   7
ATOM      7  C   UNL     1     -10.766 -10.814  -0.241  1.00  0.00     0.000 C 
BRANCH   7   8
ATOM      8  C   UNL     1      -9.747 -11.633   0.572  1.00  0.00     0.000 C 
BRANCH   8   9
ATOM      9  C   UNL     1      -8.367 -11.791  -0.091  1.00  0.00     0.000 C 
BRANCH   9  10
ATOM     10  C   UNL     1      -8.222 -13.115  -0.861  1.00  0.00     0.000 C 
BRANCH  10  11
ATOM     11  C   UNL     1      -6.774 -13.633  -0.888  1.00  0.00     0.000 C 
BRANCH  11  12
ATOM     12  C   UNL     1      -6.636 -15.165  -1.008  1.00  0.00     0.006 C 
BRANCH  12  13
ATOM     13  C   UNL     1      -7.732 -15.844  -1.847  1.00  0.00     0.053 C 
BRANCH  13  14
ATOM     14  C   UNL     1      -7.771 -17.325  -1.633  1.00  0.00     0.041 C 
ATOM     15  O   UNL     1      -7.295 -18.104  -2.501  1.00  0.00    -0.550 OA
ATOM     16  O   UNL     1      -8.309 -17.846  -0.462  1.00  0.00    -0.550 OA
ENDBRANCH  13  14
ENDBRANCH  12  13
ENDBRANCH  11  12
ENDBRANCH  10  11
ENDBRANCH   9  10
ENDBRANCH   8   9
ENDBRANCH   7   8
ENDBRANCH   6   7
ENDBRANCH   5   6
ENDBRANCH   4   5
ENDBRANCH   3   4
ENDBRANCH   2   3
ENDBRANCH   1   2
BRANCH   1  17
ATOM     17  C   UNL     1     -13.582  -9.912  -7.248  1.00  0.00     0.000 C 
BRANCH  17  18
ATOM     18  C   UNL     1     -13.879 -11.282  -7.882  1.00  0.00     0.000 C 
BRANCH  18  19
ATOM     19  C   UNL     1     -15.263 -11.857  -7.502  1.00  0.00     0.000 C 
BRANCH  19  20
ATOM     20  C   UNL     1     -15.916 -11.103  -6.332  1.00  0.00     0.000 C 
BRANCH  20  21
ATOM     21  C   UNL     1     -17.451 -11.142  -6.384  1.00  0.00     0.000 C 
BRANCH  21  22
ATOM     22  C   UNL     1     -18.045  -9.967  -7.181  1.00  0.00    -0.000 C 
BRANCH  22  23
ATOM     23  C   UNL     1     -17.104  -8.751  -7.241  1.00  0.00    -0.000 C 
BRANCH  23  24
ATOM     24  C   UNL     1     -16.971  -8.108  -8.632  1.00  0.00    -0.000 C 
BRANCH  24  25
ATOM     25  C   UNL     1     -16.528  -9.111  -9.713  1.00  0.00    -0.000 C 
BRANCH  25  26
ATOM     26  C   UNL     1     -17.709  -9.601 -10.577  1.00  0.00    -0.000 C 
BRANCH  26  27
ATOM     27  C   UNL     1     -17.653 -11.105 -10.892  1.00  0.00    -0.000 C 
BRANCH  27  28
ATOM     28  C   UNL     1     -18.988 -11.655 -11.419  1.00  0.00    -0.000 C 
BRANCH  28  29
ATOM     29  C   UNL     1     -19.408 -11.001 -12.745  1.00  0.00    -0.003 C 
ATOM     30  C   UNL     1     -20.759 -10.293 -12.646  1.00  0.00     0.004 C 
ENDBRANCH  28  29
ENDBRANCH  27  28
ENDBRANCH  26  27
ENDBRANCH  25  26
ENDBRANCH  24  25
ENDBRANCH  23  24
ENDBRANCH  22  23
ENDBRANCH  21  22
ENDBRANCH  20  21
ENDBRANCH  19  20
ENDBRANCH  18  19
ENDBRANCH  17  18
ENDBRANCH   1  17
TORSDOF 26
ENDMDL
MODEL 8
REMARK VINA RESULT:    -6.035      4.880     11.883
REMARK INTER + INTRA:         -17.698
REMARK INTER:                 -15.526
REMARK INTRA:                  -2.173
REMARK UNBOUND:                -2.492
REMARK SMILES CCCCCCCCCCCCCCCCCCCCCCCCCCCC(=O)[O-]
REMARK SMILES IDX 15 1 16 2 17 3 18 4 19 5 20 6 21 7 22 8 23 9 24 10 25 11
REMARK SMILES IDX 26 12 27 13 28 14 29 15 30 16 14 17 13 18 12 19 11 20 10 21
REMARK SMILES IDX 9 22 8 23 7 24 6 25 5 26 4 27 3 28 2 29 1 30
REMARK H PARENT
REMARK Flexibility Score: inf
ROOT
ATOM      1  C   UNL     1     -13.293 -10.672  -7.069  1.00  0.00     0.000 C 
ENDROOT
BRANCH   1   2
ATOM      2  C   UNL     1     -12.508 -10.357  -5.775  1.00  0.00     0.000 C 
BRANCH   2   3
ATOM      3  C   UNL     1     -12.166 -11.618  -4.965  1.00  0.00     0.000 C 
BRANCH   3   4
ATOM      4  C   UNL     1     -12.004 -11.330  -3.465  1.00  0.00     0.000 C 
BRANCH   4   5
ATOM      5  C   UNL     1     -11.241 -12.446  -2.729  1.00  0.00     0.000 C 
BRANCH   5   6
ATOM      6  C   UNL     1     -11.513 -12.444  -1.218  1.00  0.00     0.000 C 
BRANCH   6   7
ATOM      7  C   UNL     1     -10.933 -11.203  -0.517  1.00  0.00     0.000 C 
BRANCH   7   8
ATOM      8  C   UNL     1      -9.646 -11.506   0.271  1.00  0.00     0.000 C 
BRANCH   8   9
ATOM      9  C   UNL     1      -9.007 -12.873  -0.035  1.00  0.00     0.000 C 
BRANCH   9  10
ATOM     10  C   UNL     1      -7.913 -12.793  -1.114  1.00  0.00     0.000 C 
BRANCH  10  11
ATOM     11  C   UNL     1      -6.655 -13.599  -0.747  1.00  0.00     0.000 C 
BRANCH  11  12
ATOM     12  C   UNL     1      -6.830 -15.131  -0.791  1.00  0.00     0.006 C 
BRANCH  12  13
ATOM     13  C   UNL     1      -7.704 -15.643  -1.949  1.00  0.00     0.053 C 
BRANCH  13  14
ATOM     14  C   UNL     1      -7.772 -17.138  -1.986  1.00  0.00     0.041 C 
ATOM     15  O   UNL     1      -7.292 -17.771  -2.964  1.00  0.00    -0.550 OA
ATOM     16  O   UNL     1      -8.343 -17.836  -0.928  1.00  0.00    -0.550 OA
ENDBRANCH  13  14
ENDBRANCH  12  13
ENDBRANCH  11  12
ENDBRANCH  10  11
ENDBRANCH   9  10
ENDBRANCH   8   9
ENDBRANCH   7   8
ENDBRANCH   6   7
ENDBRANCH   5   6
ENDBRANCH   4   5
ENDBRANCH   3   4
ENDBRANCH   2   3
ENDBRANCH   1   2
BRANCH   1  17
ATOM     17  C   UNL     1     -14.561 -11.513  -6.835  1.00  0.00     0.000 C 
BRANCH  17  18
ATOM     18  C   UNL     1     -14.955 -12.422  -8.013  1.00  0.00     0.000 C 
BRANCH  18  19
ATOM     19  C   UNL     1     -14.611 -11.827  -9.399  1.00  0.00     0.000 C 
BRANCH  19  20
ATOM     20  C   UNL     1     -15.534 -12.347 -10.513  1.00  0.00     0.000 C 
BRANCH  20  21
ATOM     21  C   UNL     1     -16.717 -11.407 -10.790  1.00  0.00     0.000 C 
BRANCH  21  22
ATOM     22  C   UNL     1     -17.823 -12.080 -11.623  1.00  0.00    -0.000 C 
BRANCH  22  23
ATOM     23  C   UNL     1     -19.211 -11.460 -11.383  1.00  0.00    -0.000 C 
BRANCH  23  24
ATOM     24  C   UNL     1     -19.215  -9.928 -11.233  1.00  0.00    -0.000 C 
BRANCH  24  25
ATOM     25  C   UNL     1     -19.432  -9.473  -9.778  1.00  0.00    -0.000 C 
BRANCH  25  26
ATOM     26  C   UNL     1     -18.147  -8.895  -9.147  1.00  0.00    -0.000 C 
BRANCH  26  27
ATOM     27  C   UNL     1     -17.782  -9.543  -7.802  1.00  0.00    -0.000 C 
BRANCH  27  28
ATOM     28  C   UNL     1     -16.714  -8.753  -7.029  1.00  0.00    -0.000 C 
BRANCH  28  29
ATOM     29  C   UNL     1     -15.604  -8.216  -7.946  1.00  0.00    -0.003 C 
ATOM     30  C   UNL     1     -14.568  -7.387  -7.189  1.00  0.00     0.004 C 
ENDBRANCH  28  29
ENDBRANCH  27  28
ENDBRANCH  26  27
ENDBRANCH  25  26
ENDBRANCH  24  25
ENDBRANCH  23  24
ENDBRANCH  22  23
ENDBRANCH  21  22
ENDBRANCH  20  21
ENDBRANCH  19  20
ENDBRANCH  18  19
ENDBRANCH  17  18
ENDBRANCH   1  17
TORSDOF 26
ENDMDL
MODEL 9
REMARK VINA RESULT:    -5.949      5.836     12.306
REMARK INTER + INTRA:         -17.484
REMARK INTER:                 -15.121
REMARK INTRA:                  -2.363
REMARK UNBOUND:                -2.492
REMARK SMILES CCCCCCCCCCCCCCCCCCCCCCCCCCCC(=O)[O-]
REMARK SMILES IDX 15 1 16 2 17 3 18 4 19 5 20 6 21 7 22 8 23 9 24 10 25 11
REMARK SMILES IDX 26 12 27 13 28 14 29 15 30 16 14 17 13 18 12 19 11 20 10 21
REMARK SMILES IDX 9 22 8 23 7 24 6 25 5 26 4 27 3 28 2 29 1 30
REMARK H PARENT
REMARK Flexibility Score: inf
ROOT
ATOM      1  C   UNL     1     -12.527 -10.782  -4.631  1.00  0.00     0.000 C 
ENDROOT
BRANCH   1   2
ATOM      2  C   UNL     1     -11.432 -11.780  -4.190  1.00  0.00     0.000 C 
BRANCH   2   3
ATOM      3  C   UNL     1     -11.819 -12.568  -2.929  1.00  0.00     0.000 C 
BRANCH   3   4
ATOM      4  C   UNL     1     -11.589 -11.769  -1.638  1.00  0.00     0.000 C 
BRANCH   4   5
ATOM      5  C   UNL     1     -10.472 -12.367  -0.764  1.00  0.00     0.000 C 
BRANCH   5   6
ATOM      6  C   UNL     1     -10.170 -11.507   0.471  1.00  0.00     0.000 C 
BRANCH   6   7
ATOM      7  C   UNL     1      -8.835 -10.751   0.350  1.00  0.00     0.000 C 
BRANCH   7   8
ATOM      8  C   UNL     1      -8.969  -9.247   0.652  1.00  0.00     0.000 C 
BRANCH   8   9
ATOM      9  C   UNL     1      -7.672  -8.435   0.480  1.00  0.00     0.000 C 
BRANCH   9  10
ATOM     10  C   UNL     1      -7.530  -7.308   1.518  1.00  0.00     0.000 C 
BRANCH  10  11
ATOM     11  C   UNL     1      -6.087  -6.791   1.642  1.00  0.00     0.000 C 
BRANCH  11  12
ATOM     12  C   UNL     1      -5.310  -6.712   0.311  1.00  0.00     0.006 C 
BRANCH  12  13
ATOM     13  C   UNL     1      -5.092  -5.286  -0.221  1.00  0.00     0.053 C 
BRANCH  13  14
ATOM     14  C   UNL     1      -5.861  -5.029  -1.479  1.00  0.00     0.041 C 
ATOM     15  O   UNL     1      -7.105  -5.226  -1.515  1.00  0.00    -0.550 OA
ATOM     16  O   UNL     1      -5.210  -4.545  -2.608  1.00  0.00    -0.550 OA
ENDBRANCH  13  14
ENDBRANCH  12  13
ENDBRANCH  11  12
ENDBRANCH  10  11
ENDBRANCH   9  10
ENDBRANCH   8   9
ENDBRANCH   7   8
ENDBRANCH   6   7
ENDBRANCH   5   6
ENDBRANCH   4   5
ENDBRANCH   3   4
ENDBRANCH   2   3
ENDBRANCH   1   2
BRANCH   1  17
ATOM     17  C   UNL     1     -12.879 -10.867  -6.127  1.00  0.00     0.000 C 
BRANCH  17  18
ATOM     18  C   UNL     1     -12.836  -9.522  -6.875  1.00  0.00     0.000 C 
BRANCH  18  19
ATOM     19  C   UNL     1     -14.202  -9.092  -7.458  1.00  0.00     0.000 C 
BRANCH  19  20
ATOM     20  C   UNL     1     -15.322  -9.090  -6.405  1.00  0.00     0.000 C 
BRANCH  20  21
ATOM     21  C   UNL     1     -16.724  -9.162  -7.029  1.00  0.00     0.000 C 
BRANCH  21  22
ATOM     22  C   UNL     1     -16.934  -8.108  -8.132  1.00  0.00    -0.000 C 
BRANCH  22  23
ATOM     23  C   UNL     1     -17.320  -8.730  -9.485  1.00  0.00    -0.000 C 
BRANCH  23  24
ATOM     24  C   UNL     1     -18.682  -9.446  -9.500  1.00  0.00    -0.000 C 
BRANCH  24  25
ATOM     25  C   UNL     1     -18.783 -10.510 -10.608  1.00  0.00    -0.000 C 
BRANCH  25  26
ATOM     26  C   UNL     1     -17.423 -10.782 -11.286  1.00  0.00    -0.000 C 
BRANCH  26  27
ATOM     27  C   UNL     1     -16.624 -11.914 -10.622  1.00  0.00    -0.000 C 
BRANCH  27  28
ATOM     28  C   UNL     1     -15.126 -11.593 -10.495  1.00  0.00    -0.000 C 
BRANCH  28  29
ATOM     29  C   UNL     1     -14.482 -12.275  -9.277  1.00  0.00    -0.003 C 
ATOM     30  C   UNL     1     -15.483 -12.531  -8.151  1.00  0.00     0.004 C 
ENDBRANCH  28  29
ENDBRANCH  27  28
ENDBRANCH  26  27
ENDBRANCH  25  26
ENDBRANCH  24  25
ENDBRANCH  23  24
ENDBRANCH  22  23
ENDBRANCH  21  22
ENDBRANCH  20  21
ENDBRANCH  19  20
ENDBRANCH  18  19
ENDBRANCH  17  18
ENDBRANCH   1  17
TORSDOF 26
ENDMDL
