MODEL 1
REMARK VINA RESULT:    -2.105      0.000      0.000
REMARK INTER + INTRA:          -6.787
REMARK INTER:                  -5.551
REMARK INTRA:                  -1.237
REMARK UNBOUND:                -1.237
REMARK SMILES CCCCCCCCCCCCCCCCCCCCCCCCCCCCCC(=O)[O-]
REMARK SMILES IDX 16 1 17 2 18 3 19 4 20 5 21 6 22 7 23 8 24 9 25 10 26 11
REMARK SMILES IDX 27 12 28 13 29 14 30 15 31 16 32 17 15 18 14 19 13 20 12 21
REMARK SMILES IDX 11 22 10 23 9 24 8 25 7 26 6 27 5 28 4 29 3 30 2 31 1 32
REMARK H PARENT
REMARK Flexibility Score: inf
ROOT
ATOM      1  C   UNL     1       8.708  -5.518   5.031  1.00  0.00     0.000 C 
ENDROOT
BRANCH   1   2
ATOM      2  C   UNL     1       7.251  -5.944   4.747  1.00  0.00     0.000 C 
BRANCH   2   3
ATOM      3  C   UNL     1       7.131  -6.855   3.513  1.00  0.00     0.000 C 
BRANCH   3   4
ATOM      4  C   UNL     1       7.017  -8.340   3.894  1.00  0.00     0.000 C 
BRANCH   4   5
ATOM      5  C   UNL     1       5.684  -8.660   4.594  1.00  0.00     0.000 C 
BRANCH   5   6
ATOM      6  C   UNL     1       5.623  -8.098   6.022  1.00  0.00     0.000 C 
BRANCH   6   7
ATOM      7  C   UNL     1       4.606  -8.845   6.906  1.00  0.00     0.000 C 
BRANCH   7   8
ATOM      8  C   UNL     1       3.239  -9.017   6.221  1.00  0.00     0.000 C 
BRANCH   8   9
ATOM      9  C   UNL     1       3.183 -10.123   5.146  1.00  0.00     0.000 C 
BRANCH   9  10
ATOM     10  C   UNL     1       2.620  -9.675   3.783  1.00  0.00     0.000 C 
BRANCH  10  11
ATOM     11  C   UNL     1       1.966  -8.277   3.782  1.00  0.00     0.000 C 
BRANCH  11  12
ATOM     12  C   UNL     1       2.832  -7.192   3.104  1.00  0.00     0.000 C 
BRANCH  12  13
ATOM     13  C   UNL     1       3.120  -6.005   4.036  1.00  0.00     0.006 C 
BRANCH  13  14
ATOM     14  C   UNL     1       2.559  -4.703   3.459  1.00  0.00     0.053 C 
BRANCH  14  15
ATOM     15  C   UNL     1       2.883  -3.540   4.345  1.00  0.00     0.041 C 
ATOM     16  O   UNL     1       2.432  -2.394   4.076  1.00  0.00    -0.550 OA
ATOM     17  O   UNL     1       3.686  -3.719   5.467  1.00  0.00    -0.550 OA
ENDBRANCH  14  15
ENDBRANCH  13  14
ENDBRANCH  12  13
ENDBRANCH  11  12
ENDBRANCH  10  11
ENDBRANCH   9  10
ENDBRANCH   8   9
ENDBRANCH   7   8
ENDBRANCH   6   7
ENDBRANCH   5   6
ENDBRANCH   4   5
ENDBRANCH   3   4
ENDBRANCH   2   3
ENDBRANCH   1   2
BRANCH   1  18
ATOM     18  C   UNL     1       9.590  -5.409   3.772  1.00  0.00     0.000 C 
BRANCH  18  19
ATOM     19  C   UNL     1      10.056  -6.750   3.177  1.00  0.00     0.000 C 
BRANCH  19  20
ATOM     20  C   UNL     1      11.565  -6.846   2.877  1.00  0.00     0.000 C 
BRANCH  20  21
ATOM     21  C   UNL     1      12.427  -5.843   3.673  1.00  0.00     0.000 C 
BRANCH  21  22
ATOM     22  C   UNL     1      13.735  -5.488   2.947  1.00  0.00     0.000 C 
BRANCH  22  23
ATOM     23  C   UNL     1      14.704  -4.688   3.835  1.00  0.00     0.000 C 
BRANCH  23  24
ATOM     24  C   UNL     1      16.013  -5.448   4.109  1.00  0.00    -0.000 C 
BRANCH  24  25
ATOM     25  C   UNL     1      15.978  -6.126   5.486  1.00  0.00    -0.000 C 
BRANCH  25  26
ATOM     26  C   UNL     1      17.342  -6.742   5.831  1.00  0.00    -0.000 C 
BRANCH  26  27
ATOM     27  C   UNL     1      17.499  -8.177   5.304  1.00  0.00    -0.000 C 
BRANCH  27  28
ATOM     28  C   UNL     1      17.677  -8.228   3.777  1.00  0.00    -0.000 C 
BRANCH  28  29
ATOM     29  C   UNL     1      16.906  -9.388   3.122  1.00  0.00    -0.000 C 
BRANCH  29  30
ATOM     30  C   UNL     1      15.614  -9.818   3.851  1.00  0.00    -0.000 C 
BRANCH  30  31
ATOM     31  C   UNL     1      14.311  -9.259   3.252  1.00  0.00    -0.003 C 
ATOM     32  C   UNL     1      13.085 -10.097   3.606  1.00  0.00     0.004 C 
ENDBRANCH  30  31
ENDBRANCH  29  30
ENDBRANCH  28  29
ENDBRANCH  27  28
ENDBRANCH  26  27
ENDBRANCH  25  26
ENDBRANCH  24  25
ENDBRANCH  23  24
ENDBRANCH  22  23
ENDBRANCH  21  22
ENDBRANCH  20  21
ENDBRANCH  19  20
ENDBRANCH  18  19
ENDBRANCH   1  18
TORSDOF 28
ENDMDL
MODEL 2
REMARK VINA RESULT:    -2.081      1.337      3.832
REMARK INTER + INTRA:          -6.724
REMARK INTER:                  -3.918
REMARK INTRA:                  -2.806
REMARK UNBOUND:                -1.237
REMARK SMILES CCCCCCCCCCCCCCCCCCCCCCCCCCCCCC(=O)[O-]
REMARK SMILES IDX 16 1 17 2 18 3 19 4 20 5 21 6 22 7 23 8 24 9 25 10 26 11
REMARK SMILES IDX 27 12 28 13 29 14 30 15 31 16 32 17 15 18 14 19 13 20 12 21
REMARK SMILES IDX 11 22 10 23 9 24 8 25 7 26 6 27 5 28 4 29 3 30 2 31 1 32
REMARK H PARENT
REMARK Flexibility Score: inf
ROOT
ATOM      1  C   UNL     1      12.088  -6.045   4.988  1.00  0.00     0.000 C 
ENDROOT
BRANCH   1   2
ATOM      2  C   UNL     1      10.595  -6.158   4.610  1.00  0.00     0.000 C 
BRANCH   2   3
ATOM      3  C   UNL     1      10.337  -5.846   3.126  1.00  0.00     0.000 C 
BRANCH   3   4
ATOM      4  C   UNL     1       9.213  -4.814   2.933  1.00  0.00     0.000 C 
BRANCH   4   5
ATOM      5  C   UNL     1       7.919  -5.221   3.661  1.00  0.00     0.000 C 
BRANCH   5   6
ATOM      6  C   UNL     1       7.272  -6.472   3.050  1.00  0.00     0.000 C 
BRANCH   6   7
ATOM      7  C   UNL     1       7.131  -7.618   4.068  1.00  0.00     0.000 C 
BRANCH   7   8
ATOM      8  C   UNL     1       6.685  -8.939   3.418  1.00  0.00     0.000 C 
BRANCH   8   9
ATOM      9  C   UNL     1       5.525  -9.661   4.135  1.00  0.00     0.000 C 
BRANCH   9  10
ATOM     10  C   UNL     1       5.025  -8.970   5.418  1.00  0.00     0.000 C 
BRANCH  10  11
ATOM     11  C   UNL     1       3.542  -8.546   5.389  1.00  0.00     0.000 C 
BRANCH  11  12
ATOM     12  C   UNL     1       2.969  -8.407   3.961  1.00  0.00     0.000 C 
BRANCH  12  13
ATOM     13  C   UNL     1       2.439  -6.993   3.676  1.00  0.00     0.006 C 
BRANCH  13  14
ATOM     14  C   UNL     1       3.576  -6.049   3.275  1.00  0.00     0.053 C 
BRANCH  14  15
ATOM     15  C   UNL     1       3.649  -4.874   4.200  1.00  0.00     0.041 C 
ATOM     16  O   UNL     1       2.773  -3.970   4.145  1.00  0.00    -0.550 OA
ATOM     17  O   UNL     1       4.687  -4.775   5.121  1.00  0.00    -0.550 OA
ENDBRANCH  14  15
ENDBRANCH  13  14
ENDBRANCH  12  13
ENDBRANCH  11  12
ENDBRANCH  10  11
ENDBRANCH   9  10
ENDBRANCH   8   9
ENDBRANCH   7   8
ENDBRANCH   6   7
ENDBRANCH   5   6
ENDBRANCH   4   5
ENDBRANCH   3   4
ENDBRANCH   2   3
ENDBRANCH   1   2
BRANCH   1  18
ATOM     18  C   UNL     1      13.052  -6.620   3.932  1.00  0.00     0.000 C 
BRANCH  18  19
ATOM     19  C   UNL     1      12.970  -8.143   3.728  1.00  0.00     0.000 C 
BRANCH  19  20
ATOM     20  C   UNL     1      14.190  -8.778   3.031  1.00  0.00     0.000 C 
BRANCH  20  21
ATOM     21  C   UNL     1      14.859  -9.907   3.845  1.00  0.00     0.000 C 
BRANCH  21  22
ATOM     22  C   UNL     1      16.392  -9.791   3.857  1.00  0.00     0.000 C 
BRANCH  22  23
ATOM     23  C   UNL     1      16.928  -9.184   5.166  1.00  0.00     0.000 C 
BRANCH  23  24
ATOM     24  C   UNL     1      17.338  -7.710   5.004  1.00  0.00    -0.000 C 
BRANCH  24  25
ATOM     25  C   UNL     1      17.623  -7.376   3.533  1.00  0.00    -0.000 C 
BRANCH  25  26
ATOM     26  C   UNL     1      16.414  -6.689   2.881  1.00  0.00    -0.000 C 
BRANCH  26  27
ATOM     27  C   UNL     1      16.529  -5.156   2.875  1.00  0.00    -0.000 C 
BRANCH  27  28
ATOM     28  C   UNL     1      17.786  -4.657   3.608  1.00  0.00    -0.000 C 
BRANCH  28  29
ATOM     29  C   UNL     1      17.459  -3.810   4.851  1.00  0.00    -0.000 C 
BRANCH  29  30
ATOM     30  C   UNL     1      17.844  -4.445   6.204  1.00  0.00    -0.000 C 
BRANCH  30  31
ATOM     31  C   UNL     1      16.659  -4.939   7.053  1.00  0.00    -0.003 C 
ATOM     32  C   UNL     1      15.355  -5.024   6.262  1.00  0.00     0.004 C 
ENDBRANCH  30  31
ENDBRANCH  29  30
ENDBRANCH  28  29
ENDBRANCH  27  28
ENDBRANCH  26  27
ENDBRANCH  25  26
ENDBRANCH  24  25
ENDBRANCH  23  24
ENDBRANCH  22  23
ENDBRANCH  21  22
ENDBRANCH  20  21
ENDBRANCH  19  20
ENDBRANCH  18  19
ENDBRANCH   1  18
TORSDOF 28
ENDMDL
MODEL 3
REMARK VINA RESULT:    -2.076      1.146      2.548
REMARK INTER + INTRA:          -6.711
REMARK INTER:                  -6.422
REMARK INTRA:                  -0.288
REMARK UNBOUND:                -1.237
REMARK SMILES CCCCCCCCCCCCCCCCCCCCCCCCCCCCCC(=O)[O-]
REMARK SMILES IDX 16 1 17 2 18 3 19 4 20 5 21 6 22 7 23 8 24 9 25 10 26 11
REMARK SMILES IDX 27 12 28 13 29 14 30 15 31 16 32 17 15 18 14 19 13 20 12 21
REMARK SMILES IDX 11 22 10 23 9 24 8 25 7 26 6 27 5 28 4 29 3 30 2 31 1 32
REMARK H PARENT
REMARK Flexibility Score: inf
ROOT
ATOM      1  C   UNL     1      11.736  -6.422   4.166  1.00  0.00     0.000 C 
ENDROOT
BRANCH   1   2
ATOM      2  C   UNL     1      10.922  -6.047   2.909  1.00  0.00     0.000 C 
BRANCH   2   3
ATOM      3  C   UNL     1       9.925  -4.905   3.169  1.00  0.00     0.000 C 
BRANCH   3   4
ATOM      4  C   UNL     1       8.472  -5.322   2.886  1.00  0.00     0.000 C 
BRANCH   4   5
ATOM      5  C   UNL     1       8.250  -6.832   3.092  1.00  0.00     0.000 C 
BRANCH   5   6
ATOM      6  C   UNL     1       7.426  -7.137   4.351  1.00  0.00     0.000 C 
BRANCH   6   7
ATOM      7  C   UNL     1       6.133  -7.910   4.035  1.00  0.00     0.000 C 
BRANCH   7   8
ATOM      8  C   UNL     1       5.677  -8.805   5.201  1.00  0.00     0.000 C 
BRANCH   8   9
ATOM      9  C   UNL     1       4.181  -8.694   5.561  1.00  0.00     0.000 C 
BRANCH   9  10
ATOM     10  C   UNL     1       3.210  -9.066   4.423  1.00  0.00     0.000 C 
BRANCH  10  11
ATOM     11  C   UNL     1       2.365  -7.894   3.885  1.00  0.00     0.000 C 
BRANCH  11  12
ATOM     12  C   UNL     1       3.146  -6.952   2.941  1.00  0.00     0.000 C 
BRANCH  12  13
ATOM     13  C   UNL     1       2.533  -5.544   2.877  1.00  0.00     0.006 C 
BRANCH  13  14
ATOM     14  C   UNL     1       2.658  -4.827   4.224  1.00  0.00     0.053 C 
BRANCH  14  15
ATOM     15  C   UNL     1       4.095  -4.598   4.579  1.00  0.00     0.041 C 
ATOM     16  O   UNL     1       4.841  -3.942   3.805  1.00  0.00    -0.550 OA
ATOM     17  O   UNL     1       4.612  -5.113   5.764  1.00  0.00    -0.550 OA
ENDBRANCH  14  15
ENDBRANCH  13  14
ENDBRANCH  12  13
ENDBRANCH  11  12
ENDBRANCH  10  11
ENDBRANCH   9  10
ENDBRANCH   8   9
ENDBRANCH   7   8
ENDBRANCH   6   7
ENDBRANCH   5   6
ENDBRANCH   4   5
ENDBRANCH   3   4
ENDBRANCH   2   3
ENDBRANCH   1   2
BRANCH   1  18
ATOM     18  C   UNL     1      13.205  -5.957   4.129  1.00  0.00     0.000 C 
BRANCH  18  19
ATOM     19  C   UNL     1      13.610  -5.161   2.875  1.00  0.00     0.000 C 
BRANCH  19  20
ATOM     20  C   UNL     1      14.928  -4.370   2.998  1.00  0.00     0.000 C 
BRANCH  20  21
ATOM     21  C   UNL     1      16.196  -5.242   2.875  1.00  0.00     0.000 C 
BRANCH  21  22
ATOM     22  C   UNL     1      17.469  -4.488   3.294  1.00  0.00     0.000 C 
BRANCH  22  23
ATOM     23  C   UNL     1      17.759  -4.611   4.800  1.00  0.00     0.000 C 
BRANCH  23  24
ATOM     24  C   UNL     1      16.634  -5.337   5.558  1.00  0.00    -0.000 C 
BRANCH  24  25
ATOM     25  C   UNL     1      17.187  -6.518   6.367  1.00  0.00    -0.000 C 
BRANCH  25  26
ATOM     26  C   UNL     1      17.263  -7.788   5.505  1.00  0.00    -0.000 C 
BRANCH  26  27
ATOM     27  C   UNL     1      17.283  -7.487   3.998  1.00  0.00    -0.000 C 
BRANCH  27  28
ATOM     28  C   UNL     1      17.781  -8.681   3.166  1.00  0.00    -0.000 C 
BRANCH  28  29
ATOM     29  C   UNL     1      17.318 -10.038   3.726  1.00  0.00    -0.000 C 
BRANCH  29  30
ATOM     30  C   UNL     1      15.865 -10.076   4.248  1.00  0.00    -0.000 C 
BRANCH  30  31
ATOM     31  C   UNL     1      14.823  -9.426   3.321  1.00  0.00    -0.003 C 
ATOM     32  C   UNL     1      13.394  -9.869   3.628  1.00  0.00     0.004 C 
ENDBRANCH  30  31
ENDBRANCH  29  30
ENDBRANCH  28  29
ENDBRANCH  27  28
ENDBRANCH  26  27
ENDBRANCH  25  26
ENDBRANCH  24  25
ENDBRANCH  23  24
ENDBRANCH  22  23
ENDBRANCH  21  22
ENDBRANCH  20  21
ENDBRANCH  19  20
ENDBRANCH  18  19
ENDBRANCH   1  18
TORSDOF 28
ENDMDL
MODEL 4
REMARK VINA RESULT:    -1.740      1.798      3.396
REMARK INTER + INTRA:          -5.825
REMARK INTER:                  -4.822
REMARK INTRA:                  -1.003
REMARK UNBOUND:                -1.237
REMARK SMILES CCCCCCCCCCCCCCCCCCCCCCCCCCCCCC(=O)[O-]
REMARK SMILES IDX 16 1 17 2 18 3 19 4 20 5 21 6 22 7 23 8 24 9 25 10 26 11
REMARK SMILES IDX 27 12 28 13 29 14 30 15 31 16 32 17 15 18 14 19 13 20 12 21
REMARK SMILES IDX 11 22 10 23 9 24 8 25 7 26 6 27 5 28 4 29 3 30 2 31 1 32
REMARK H PARENT
REMARK Flexibility Score: inf
ROOT
ATOM      1  C   UNL     1      10.338  -6.407   3.483  1.00  0.00     0.000 C 
ENDROOT
BRANCH   1   2
ATOM      2  C   UNL     1       8.955  -6.900   3.960  1.00  0.00     0.000 C 
BRANCH   2   3
ATOM      3  C   UNL     1       8.243  -7.769   2.910  1.00  0.00     0.000 C 
BRANCH   3   4
ATOM      4  C   UNL     1       6.727  -7.858   3.156  1.00  0.00     0.000 C 
BRANCH   4   5
ATOM      5  C   UNL     1       6.172  -6.587   3.825  1.00  0.00     0.000 C 
BRANCH   5   6
ATOM      6  C   UNL     1       6.490  -5.317   3.023  1.00  0.00     0.000 C 
BRANCH   6   7
ATOM      7  C   UNL     1       5.509  -4.170   3.323  1.00  0.00     0.000 C 
BRANCH   7   8
ATOM      8  C   UNL     1       4.265  -4.640   4.097  1.00  0.00     0.000 C 
BRANCH   8   9
ATOM      9  C   UNL     1       3.202  -5.365   3.244  1.00  0.00     0.000 C 
BRANCH   9  10
ATOM     10  C   UNL     1       2.632  -6.651   3.874  1.00  0.00     0.000 C 
BRANCH  10  11
ATOM     11  C   UNL     1       2.845  -7.930   3.039  1.00  0.00     0.000 C 
BRANCH  11  12
ATOM     12  C   UNL     1       2.712  -9.232   3.860  1.00  0.00     0.000 C 
BRANCH  12  13
ATOM     13  C   UNL     1       3.056  -9.027   5.344  1.00  0.00     0.006 C 
BRANCH  13  14
ATOM     14  C   UNL     1       4.565  -8.854   5.541  1.00  0.00     0.053 C 
BRANCH  14  15
ATOM     15  C   UNL     1       4.878  -8.434   6.943  1.00  0.00     0.041 C 
ATOM     16  O   UNL     1       4.706  -9.238   7.899  1.00  0.00    -0.550 OA
ATOM     17  O   UNL     1       5.356  -7.152   7.198  1.00  0.00    -0.550 OA
ENDBRANCH  14  15
ENDBRANCH  13  14
ENDBRANCH  12  13
ENDBRANCH  11  12
ENDBRANCH  10  11
ENDBRANCH   9  10
ENDBRANCH   8   9
ENDBRANCH   7   8
ENDBRANCH   6   7
ENDBRANCH   5   6
ENDBRANCH   4   5
ENDBRANCH   3   4
ENDBRANCH   2   3
ENDBRANCH   1   2
BRANCH   1  18
ATOM     18  C   UNL     1      11.275  -5.956   4.621  1.00  0.00     0.000 C 
BRANCH  18  19
ATOM     19  C   UNL     1      12.748  -6.376   4.465  1.00  0.00     0.000 C 
BRANCH  19  20
ATOM     20  C   UNL     1      13.676  -5.954   5.621  1.00  0.00     0.000 C 
BRANCH  20  21
ATOM     21  C   UNL     1      15.110  -5.595   5.175  1.00  0.00     0.000 C 
BRANCH  21  22
ATOM     22  C   UNL     1      15.136  -4.834   3.840  1.00  0.00     0.000 C 
BRANCH  22  23
ATOM     23  C   UNL     1      16.207  -5.372   2.875  1.00  0.00     0.000 C 
BRANCH  23  24
ATOM     24  C   UNL     1      17.493  -5.797   3.603  1.00  0.00    -0.000 C 
BRANCH  24  25
ATOM     25  C   UNL     1      17.410  -7.260   4.060  1.00  0.00    -0.000 C 
BRANCH  25  26
ATOM     26  C   UNL     1      17.960  -8.206   2.982  1.00  0.00    -0.000 C 
BRANCH  26  27
ATOM     27  C   UNL     1      18.038  -9.667   3.452  1.00  0.00    -0.000 C 
BRANCH  27  28
ATOM     28  C   UNL     1      17.262  -9.908   4.759  1.00  0.00    -0.000 C 
BRANCH  28  29
ATOM     29  C   UNL     1      15.755 -10.125   4.531  1.00  0.00    -0.000 C 
BRANCH  29  30
ATOM     30  C   UNL     1      15.257  -9.842   3.097  1.00  0.00    -0.000 C 
BRANCH  30  31
ATOM     31  C   UNL     1      13.931  -9.066   3.010  1.00  0.00    -0.003 C 
ATOM     32  C   UNL     1      12.704  -9.962   3.173  1.00  0.00     0.004 C 
ENDBRANCH  30  31
ENDBRANCH  29  30
ENDBRANCH  28  29
ENDBRANCH  27  28
ENDBRANCH  26  27
ENDBRANCH  25  26
ENDBRANCH  24  25
ENDBRANCH  23  24
ENDBRANCH  22  23
ENDBRANCH  21  22
ENDBRANCH  20  21
ENDBRANCH  19  20
ENDBRANCH  18  19
ENDBRANCH   1  18
TORSDOF 28
ENDMDL
MODEL 5
REMARK VINA RESULT:    -1.516      1.959      4.468
REMARK INTER + INTRA:          -5.235
REMARK INTER:                  -4.384
REMARK INTRA:                  -0.851
REMARK UNBOUND:                -1.237
REMARK SMILES CCCCCCCCCCCCCCCCCCCCCCCCCCCCCC(=O)[O-]
REMARK SMILES IDX 16 1 17 2 18 3 19 4 20 5 21 6 22 7 23 8 24 9 25 10 26 11
REMARK SMILES IDX 27 12 28 13 29 14 30 15 31 16 32 17 15 18 14 19 13 20 12 21
REMARK SMILES IDX 11 22 10 23 9 24 8 25 7 26 6 27 5 28 4 29 3 30 2 31 1 32
REMARK H PARENT
REMARK Flexibility Score: inf
ROOT
ATOM      1  C   UNL     1      12.501  -6.222   5.395  1.00  0.00     0.000 C 
ENDROOT
BRANCH   1   2
ATOM      2  C   UNL     1      11.141  -6.420   4.691  1.00  0.00     0.000 C 
BRANCH   2   3
ATOM      3  C   UNL     1      10.948  -5.465   3.501  1.00  0.00     0.000 C 
BRANCH   3   4
ATOM      4  C   UNL     1       9.464  -5.184   3.212  1.00  0.00     0.000 C 
BRANCH   4   5
ATOM      5  C   UNL     1       8.530  -6.080   4.047  1.00  0.00     0.000 C 
BRANCH   5   6
ATOM      6  C   UNL     1       7.244  -5.353   4.469  1.00  0.00     0.000 C 
BRANCH   6   7
ATOM      7  C   UNL     1       6.480  -4.764   3.270  1.00  0.00     0.000 C 
BRANCH   7   8
ATOM      8  C   UNL     1       4.996  -4.503   3.581  1.00  0.00     0.000 C 
BRANCH   8   9
ATOM      9  C   UNL     1       4.148  -5.770   3.820  1.00  0.00     0.000 C 
BRANCH   9  10
ATOM     10  C   UNL     1       4.457  -6.947   2.875  1.00  0.00     0.000 C 
BRANCH  10  11
ATOM     11  C   UNL     1       3.650  -8.231   3.156  1.00  0.00     0.000 C 
BRANCH  11  12
ATOM     12  C   UNL     1       2.670  -8.096   4.342  1.00  0.00     0.000 C 
BRANCH  12  13
ATOM     13  C   UNL     1       3.040  -9.015   5.517  1.00  0.00     0.006 C 
BRANCH  13  14
ATOM     14  C   UNL     1       4.446  -9.595   5.341  1.00  0.00     0.053 C 
BRANCH  14  15
ATOM     15  C   UNL     1       5.466  -8.750   6.040  1.00  0.00     0.041 C 
ATOM     16  O   UNL     1       5.100  -7.796   6.777  1.00  0.00    -0.550 OA
ATOM     17  O   UNL     1       6.823  -9.014   5.875  1.00  0.00    -0.550 OA
ENDBRANCH  14  15
ENDBRANCH  13  14
ENDBRANCH  12  13
ENDBRANCH  11  12
ENDBRANCH  10  11
ENDBRANCH   9  10
ENDBRANCH   8   9
ENDBRANCH   7   8
ENDBRANCH   6   7
ENDBRANCH   5   6
ENDBRANCH   4   5
ENDBRANCH   3   4
ENDBRANCH   2   3
ENDBRANCH   1   2
BRANCH   1  18
ATOM     18  C   UNL     1      13.591  -5.601   4.500  1.00  0.00     0.000 C 
BRANCH  18  19
ATOM     19  C   UNL     1      14.115  -6.511   3.375  1.00  0.00     0.000 C 
BRANCH  19  20
ATOM     20  C   UNL     1      13.177  -7.668   2.977  1.00  0.00     0.000 C 
BRANCH  20  21
ATOM     21  C   UNL     1      13.371  -8.950   3.816  1.00  0.00     0.000 C 
BRANCH  21  22
ATOM     22  C   UNL     1      14.752  -9.590   3.600  1.00  0.00     0.000 C 
BRANCH  22  23
ATOM     23  C   UNL     1      15.560  -9.705   4.904  1.00  0.00     0.000 C 
BRANCH  23  24
ATOM     24  C   UNL     1      17.075  -9.781   4.651  1.00  0.00    -0.000 C 
BRANCH  24  25
ATOM     25  C   UNL     1      17.753  -8.439   4.962  1.00  0.00    -0.000 C 
BRANCH  25  26
ATOM     26  C   UNL     1      18.395  -7.842   3.701  1.00  0.00    -0.000 C 
BRANCH  26  27
ATOM     27  C   UNL     1      17.483  -6.830   2.988  1.00  0.00    -0.000 C 
BRANCH  27  28
ATOM     28  C   UNL     1      18.125  -5.436   2.875  1.00  0.00    -0.000 C 
BRANCH  28  29
ATOM     29  C   UNL     1      17.740  -4.503   4.037  1.00  0.00    -0.000 C 
BRANCH  29  30
ATOM     30  C   UNL     1      16.502  -4.937   4.851  1.00  0.00    -0.000 C 
BRANCH  30  31
ATOM     31  C   UNL     1      16.813  -5.605   6.202  1.00  0.00    -0.003 C 
ATOM     32  C   UNL     1      17.289  -4.613   7.262  1.00  0.00     0.004 C 
ENDBRANCH  30  31
ENDBRANCH  29  30
ENDBRANCH  28  29
ENDBRANCH  27  28
ENDBRANCH  26  27
ENDBRANCH  25  26
ENDBRANCH  24  25
ENDBRANCH  23  24
ENDBRANCH  22  23
ENDBRANCH  21  22
ENDBRANCH  20  21
ENDBRANCH  19  20
ENDBRANCH  18  19
ENDBRANCH   1  18
TORSDOF 28
ENDMDL
MODEL 6
REMARK VINA RESULT:    -1.209      3.194     11.712
REMARK INTER + INTRA:          -4.424
REMARK INTER:                  -3.609
REMARK INTRA:                  -0.816
REMARK UNBOUND:                -1.237
REMARK SMILES CCCCCCCCCCCCCCCCCCCCCCCCCCCCCC(=O)[O-]
REMARK SMILES IDX 16 1 17 2 18 3 19 4 20 5 21 6 22 7 23 8 24 9 25 10 26 11
REMARK SMILES IDX 27 12 28 13 29 14 30 15 31 16 32 17 15 18 14 19 13 20 12 21
REMARK SMILES IDX 11 22 10 23 9 24 8 25 7 26 6 27 5 28 4 29 3 30 2 31 1 32
REMARK H PARENT
REMARK Flexibility Score: inf
ROOT
ATOM      1  C   UNL     1      11.227  -5.849   4.456  1.00  0.00     0.000 C 
ENDROOT
BRANCH   1   2
ATOM      2  C   UNL     1      12.215  -5.823   3.270  1.00  0.00     0.000 C 
BRANCH   2   3
ATOM      3  C   UNL     1      12.774  -7.216   2.935  1.00  0.00     0.000 C 
BRANCH   3   4
ATOM      4  C   UNL     1      13.691  -7.759   4.044  1.00  0.00     0.000 C 
BRANCH   4   5
ATOM      5  C   UNL     1      13.799  -9.294   4.010  1.00  0.00     0.000 C 
BRANCH   5   6
ATOM      6  C   UNL     1      15.225  -9.788   4.296  1.00  0.00     0.000 C 
BRANCH   6   7
ATOM      7  C   UNL     1      16.001 -10.124   3.010  1.00  0.00     0.000 C 
BRANCH   7   8
ATOM      8  C   UNL     1      17.305  -9.319   2.876  1.00  0.00     0.000 C 
BRANCH   8   9
ATOM      9  C   UNL     1      17.145  -7.790   3.012  1.00  0.00     0.000 C 
BRANCH   9  10
ATOM     10  C   UNL     1      18.255  -7.091   3.821  1.00  0.00     0.000 C 
BRANCH  10  11
ATOM     11  C   UNL     1      18.912  -5.889   3.112  1.00  0.00     0.000 C 
BRANCH  11  12
ATOM     12  C   UNL     1      18.097  -4.582   3.233  1.00  0.00     0.000 C 
BRANCH  12  13
ATOM     13  C   UNL     1      17.554  -4.358   4.653  1.00  0.00     0.006 C 
BRANCH  13  14
ATOM     14  C   UNL     1      16.643  -5.511   5.082  1.00  0.00     0.053 C 
BRANCH  14  15
ATOM     15  C   UNL     1      15.717  -5.083   6.178  1.00  0.00     0.041 C 
ATOM     16  O   UNL     1      16.180  -4.700   7.285  1.00  0.00    -0.550 OA
ATOM     17  O   UNL     1      14.339  -5.110   5.978  1.00  0.00    -0.550 OA
ENDBRANCH  14  15
ENDBRANCH  13  14
ENDBRANCH  12  13
ENDBRANCH  11  12
ENDBRANCH  10  11
ENDBRANCH   9  10
ENDBRANCH   8   9
ENDBRANCH   7   8
ENDBRANCH   6   7
ENDBRANCH   5   6
ENDBRANCH   4   5
ENDBRANCH   3   4
ENDBRANCH   2   3
ENDBRANCH   1   2
BRANCH   1  18
ATOM     18  C   UNL     1       9.772  -5.515   4.073  1.00  0.00     0.000 C 
BRANCH  18  19
ATOM     19  C   UNL     1       9.203  -6.318   2.890  1.00  0.00     0.000 C 
BRANCH  19  20
ATOM     20  C   UNL     1       7.694  -6.625   2.971  1.00  0.00     0.000 C 
BRANCH  20  21
ATOM     21  C   UNL     1       7.369  -8.053   3.458  1.00  0.00     0.000 C 
BRANCH  21  22
ATOM     22  C   UNL     1       6.616  -8.059   4.798  1.00  0.00     0.000 C 
BRANCH  22  23
ATOM     23  C   UNL     1       5.716  -9.297   4.963  1.00  0.00     0.000 C 
BRANCH  23  24
ATOM     24  C   UNL     1       4.463  -9.234   4.073  1.00  0.00    -0.000 C 
BRANCH  24  25
ATOM     25  C   UNL     1       3.250  -9.845   4.788  1.00  0.00    -0.000 C 
BRANCH  25  26
ATOM     26  C   UNL     1       1.947  -9.510   4.047  1.00  0.00    -0.000 C 
BRANCH  26  27
ATOM     27  C   UNL     1       2.140  -8.450   2.950  1.00  0.00    -0.000 C 
BRANCH  27  28
ATOM     28  C   UNL     1       1.907  -7.020   3.465  1.00  0.00    -0.000 C 
BRANCH  28  29
ATOM     29  C   UNL     1       2.952  -6.017   2.945  1.00  0.00    -0.000 C 
BRANCH  29  30
ATOM     30  C   UNL     1       4.234  -5.897   3.797  1.00  0.00    -0.000 C 
BRANCH  30  31
ATOM     31  C   UNL     1       4.668  -4.456   4.120  1.00  0.00    -0.003 C 
ATOM     32  C   UNL     1       4.236  -3.450   3.055  1.00  0.00     0.004 C 
ENDBRANCH  30  31
ENDBRANCH  29  30
ENDBRANCH  28  29
ENDBRANCH  27  28
ENDBRANCH  26  27
ENDBRANCH  25  26
ENDBRANCH  24  25
ENDBRANCH  23  24
ENDBRANCH  22  23
ENDBRANCH  21  22
ENDBRANCH  20  21
ENDBRANCH  19  20
ENDBRANCH  18  19
ENDBRANCH   1  18
TORSDOF 28
ENDMDL
MODEL 7
REMARK VINA RESULT:    -0.912      2.016      3.940
REMARK INTER + INTRA:          -3.641
REMARK INTER:                  -4.231
REMARK INTRA:                   0.590
REMARK UNBOUND:                -1.237
REMARK SMILES CCCCCCCCCCCCCCCCCCCCCCCCCCCCCC(=O)[O-]
REMARK SMILES IDX 16 1 17 2 18 3 19 4 20 5 21 6 22 7 23 8 24 9 25 10 26 11
REMARK SMILES IDX 27 12 28 13 29 14 30 15 31 16 32 17 15 18 14 19 13 20 12 21
REMARK SMILES IDX 11 22 10 23 9 24 8 25 7 26 6 27 5 28 4 29 3 30 2 31 1 32
REMARK H PARENT
REMARK Flexibility Score: inf
ROOT
ATOM      1  C   UNL     1      10.063  -6.644   3.394  1.00  0.00     0.000 C 
ENDROOT
BRANCH   1   2
ATOM      2  C   UNL     1       8.750  -7.296   3.879  1.00  0.00     0.000 C 
BRANCH   2   3
ATOM      3  C   UNL     1       8.191  -8.318   2.875  1.00  0.00     0.000 C 
BRANCH   3   4
ATOM      4  C   UNL     1       6.702  -8.619   3.117  1.00  0.00     0.000 C 
BRANCH   4   5
ATOM      5  C   UNL     1       5.922  -7.371   3.569  1.00  0.00     0.000 C 
BRANCH   5   6
ATOM      6  C   UNL     1       6.425  -6.088   2.890  1.00  0.00     0.000 C 
BRANCH   6   7
ATOM      7  C   UNL     1       5.627  -4.843   3.319  1.00  0.00     0.000 C 
BRANCH   7   8
ATOM      8  C   UNL     1       4.379  -5.195   4.147  1.00  0.00     0.000 C 
BRANCH   8   9
ATOM      9  C   UNL     1       3.167  -5.682   3.326  1.00  0.00     0.000 C 
BRANCH   9  10
ATOM     10  C   UNL     1       2.410  -6.879   3.934  1.00  0.00     0.000 C 
BRANCH  10  11
ATOM     11  C   UNL     1       1.924  -7.925   2.910  1.00  0.00     0.000 C 
BRANCH  11  12
ATOM     12  C   UNL     1       1.985  -9.376   3.435  1.00  0.00     0.000 C 
BRANCH  12  13
ATOM     13  C   UNL     1       2.429  -9.451   4.905  1.00  0.00     0.006 C 
BRANCH  13  14
ATOM     14  C   UNL     1       3.886  -9.009   5.063  1.00  0.00     0.053 C 
BRANCH  14  15
ATOM     15  C   UNL     1       4.276  -8.955   6.507  1.00  0.00     0.041 C 
ATOM     16  O   UNL     1       3.468  -9.334   7.396  1.00  0.00    -0.550 OA
ATOM     17  O   UNL     1       5.533  -8.481   6.874  1.00  0.00    -0.550 OA
ENDBRANCH  14  15
ENDBRANCH  13  14
ENDBRANCH  12  13
ENDBRANCH  11  12
ENDBRANCH  10  11
ENDBRANCH   9  10
ENDBRANCH   8   9
ENDBRANCH   7   8
ENDBRANCH   6   7
ENDBRANCH   5   6
ENDBRANCH   4   5
ENDBRANCH   3   4
ENDBRANCH   2   3
ENDBRANCH   1   2
BRANCH   1  18
ATOM     18  C   UNL     1      10.823  -5.867   4.486  1.00  0.00     0.000 C 
BRANCH  18  19
ATOM     19  C   UNL     1      12.311  -6.232   4.637  1.00  0.00     0.000 C 
BRANCH  19  20
ATOM     20  C   UNL     1      13.121  -6.239   3.325  1.00  0.00     0.000 C 
BRANCH  20  21
ATOM     21  C   UNL     1      14.124  -7.408   3.213  1.00  0.00     0.000 C 
BRANCH  21  22
ATOM     22  C   UNL     1      13.425  -8.770   3.078  1.00  0.00     0.000 C 
BRANCH  22  23
ATOM     23  C   UNL     1      14.263  -9.923   3.657  1.00  0.00     0.000 C 
BRANCH  23  24
ATOM     24  C   UNL     1      15.587 -10.125   2.901  1.00  0.00    -0.000 C 
BRANCH  24  25
ATOM     25  C   UNL     1      16.752  -9.454   3.642  1.00  0.00    -0.000 C 
BRANCH  25  26
ATOM     26  C   UNL     1      16.695  -9.757   5.146  1.00  0.00    -0.000 C 
BRANCH  26  27
ATOM     27  C   UNL     1      17.555  -8.796   5.982  1.00  0.00    -0.000 C 
BRANCH  27  28
ATOM     28  C   UNL     1      18.032  -7.576   5.174  1.00  0.00    -0.000 C 
BRANCH  28  29
ATOM     29  C   UNL     1      17.113  -6.352   5.337  1.00  0.00    -0.000 C 
BRANCH  29  30
ATOM     30  C   UNL     1      16.285  -5.976   4.089  1.00  0.00    -0.000 C 
BRANCH  30  31
ATOM     31  C   UNL     1      16.933  -4.927   3.170  1.00  0.00    -0.003 C 
ATOM     32  C   UNL     1      18.413  -5.198   2.906  1.00  0.00     0.004 C 
ENDBRANCH  30  31
ENDBRANCH  29  30
ENDBRANCH  28  29
ENDBRANCH  27  28
ENDBRANCH  26  27
ENDBRANCH  25  26
ENDBRANCH  24  25
ENDBRANCH  23  24
ENDBRANCH  22  23
ENDBRANCH  21  22
ENDBRANCH  20  21
ENDBRANCH  19  20
ENDBRANCH  18  19
ENDBRANCH   1  18
TORSDOF 28
ENDMDL
MODEL 8
REMARK VINA RESULT:    -0.780      2.012      3.565
REMARK INTER + INTRA:          -3.293
REMARK INTER:                  -3.514
REMARK INTRA:                   0.221
REMARK UNBOUND:                -1.237
REMARK SMILES CCCCCCCCCCCCCCCCCCCCCCCCCCCCCC(=O)[O-]
REMARK SMILES IDX 16 1 17 2 18 3 19 4 20 5 21 6 22 7 23 8 24 9 25 10 26 11
REMARK SMILES IDX 27 12 28 13 29 14 30 15 31 16 32 17 15 18 14 19 13 20 12 21
REMARK SMILES IDX 11 22 10 23 9 24 8 25 7 26 6 27 5 28 4 29 3 30 2 31 1 32
REMARK H PARENT
REMARK Flexibility Score: inf
ROOT
ATOM      1  C   UNL     1       7.365  -5.669   4.982  1.00  0.00     0.000 C 
ENDROOT
BRANCH   1   2
ATOM      2  C   UNL     1       6.030  -5.426   4.245  1.00  0.00     0.000 C 
BRANCH   2   3
ATOM      3  C   UNL     1       6.031  -4.119   3.434  1.00  0.00     0.000 C 
BRANCH   3   4
ATOM      4  C   UNL     1       4.628  -3.745   2.928  1.00  0.00     0.000 C 
BRANCH   4   5
ATOM      5  C   UNL     1       3.668  -3.395   4.080  1.00  0.00     0.000 C 
BRANCH   5   6
ATOM      6  C   UNL     1       3.819  -4.346   5.277  1.00  0.00     0.000 C 
BRANCH   6   7
ATOM      7  C   UNL     1       3.359  -5.779   4.951  1.00  0.00     0.000 C 
BRANCH   7   8
ATOM      8  C   UNL     1       3.030  -5.972   3.461  1.00  0.00     0.000 C 
BRANCH   8   9
ATOM      9  C   UNL     1       2.362  -7.318   3.110  1.00  0.00     0.000 C 
BRANCH   9  10
ATOM     10  C   UNL     1       3.334  -8.500   2.935  1.00  0.00     0.000 C 
BRANCH  10  11
ATOM     11  C   UNL     1       4.825  -8.108   2.875  1.00  0.00     0.000 C 
BRANCH  11  12
ATOM     12  C   UNL     1       5.772  -9.198   3.425  1.00  0.00     0.000 C 
BRANCH  12  13
ATOM     13  C   UNL     1       5.307  -9.748   4.783  1.00  0.00     0.006 C 
BRANCH  13  14
ATOM     14  C   UNL     1       5.359  -8.664   5.863  1.00  0.00     0.053 C 
BRANCH  14  15
ATOM     15  C   UNL     1       4.406  -8.971   6.977  1.00  0.00     0.041 C 
ATOM     16  O   UNL     1       3.171  -9.064   6.746  1.00  0.00    -0.550 OA
ATOM     17  O   UNL     1       4.881  -9.152   8.272  1.00  0.00    -0.550 OA
ENDBRANCH  14  15
ENDBRANCH  13  14
ENDBRANCH  12  13
ENDBRANCH  11  12
ENDBRANCH  10  11
ENDBRANCH   9  10
ENDBRANCH   8   9
ENDBRANCH   7   8
ENDBRANCH   6   7
ENDBRANCH   5   6
ENDBRANCH   4   5
ENDBRANCH   3   4
ENDBRANCH   2   3
ENDBRANCH   1   2
BRANCH   1  18
ATOM     18  C   UNL     1       8.616  -5.425   4.116  1.00  0.00     0.000 C 
BRANCH  18  19
ATOM     19  C   UNL     1       9.364  -6.695   3.669  1.00  0.00     0.000 C 
BRANCH  19  20
ATOM     20  C   UNL     1      10.661  -6.447   2.875  1.00  0.00     0.000 C 
BRANCH  20  21
ATOM     21  C   UNL     1      11.671  -7.613   2.943  1.00  0.00     0.000 C 
BRANCH  21  22
ATOM     22  C   UNL     1      13.129  -7.127   2.954  1.00  0.00     0.000 C 
BRANCH  22  23
ATOM     23  C   UNL     1      13.274  -5.708   3.533  1.00  0.00     0.000 C 
BRANCH  23  24
ATOM     24  C   UNL     1      14.576  -5.530   4.331  1.00  0.00    -0.000 C 
BRANCH  24  25
ATOM     25  C   UNL     1      14.312  -5.613   5.841  1.00  0.00    -0.000 C 
BRANCH  25  26
ATOM     26  C   UNL     1      15.535  -5.139   6.640  1.00  0.00    -0.000 C 
BRANCH  26  27
ATOM     27  C   UNL     1      16.867  -5.496   5.963  1.00  0.00    -0.000 C 
BRANCH  27  28
ATOM     28  C   UNL     1      17.244  -6.976   6.147  1.00  0.00    -0.000 C 
BRANCH  28  29
ATOM     29  C   UNL     1      17.825  -7.611   4.870  1.00  0.00    -0.000 C 
BRANCH  29  30
ATOM     30  C   UNL     1      16.967  -7.438   3.598  1.00  0.00    -0.000 C 
BRANCH  30  31
ATOM     31  C   UNL     1      16.189  -8.693   3.162  1.00  0.00    -0.003 C 
ATOM     32  C   UNL     1      16.238  -9.814   4.198  1.00  0.00     0.004 C 
ENDBRANCH  30  31
ENDBRANCH  29  30
ENDBRANCH  28  29
ENDBRANCH  27  28
ENDBRANCH  26  27
ENDBRANCH  25  26
ENDBRANCH  24  25
ENDBRANCH  23  24
ENDBRANCH  22  23
ENDBRANCH  21  22
ENDBRANCH  20  21
ENDBRANCH  19  20
ENDBRANCH  18  19
ENDBRANCH   1  18
TORSDOF 28
ENDMDL
MODEL 9
REMARK VINA RESULT:    -0.448      3.539     11.885
REMARK INTER + INTRA:          -2.419
REMARK INTER:                  -0.870
REMARK INTRA:                  -1.548
REMARK UNBOUND:                -1.237
REMARK SMILES CCCCCCCCCCCCCCCCCCCCCCCCCCCCCC(=O)[O-]
REMARK SMILES IDX 16 1 17 2 18 3 19 4 20 5 21 6 22 7 23 8 24 9 25 10 26 11
REMARK SMILES IDX 27 12 28 13 29 14 30 15 31 16 32 17 15 18 14 19 13 20 12 21
REMARK SMILES IDX 11 22 10 23 9 24 8 25 7 26 6 27 5 28 4 29 3 30 2 31 1 32
REMARK H PARENT
REMARK Flexibility Score: inf
ROOT
ATOM      1  C   UNL     1      13.567  -5.884   3.947  1.00  0.00     0.000 C 
ENDROOT
BRANCH   1   2
ATOM      2  C   UNL     1      14.857  -6.073   3.119  1.00  0.00     0.000 C 
BRANCH   2   3
ATOM      3  C   UNL     1      15.605  -4.750   2.880  1.00  0.00     0.000 C 
BRANCH   3   4
ATOM      4  C   UNL     1      17.106  -4.863   3.197  1.00  0.00     0.000 C 
BRANCH   4   5
ATOM      5  C   UNL     1      17.611  -3.682   4.046  1.00  0.00     0.000 C 
BRANCH   5   6
ATOM      6  C   UNL     1      18.362  -4.143   5.304  1.00  0.00     0.000 C 
BRANCH   6   7
ATOM      7  C   UNL     1      17.408  -4.529   6.449  1.00  0.00     0.000 C 
BRANCH   7   8
ATOM      8  C   UNL     1      16.692  -5.867   6.200  1.00  0.00     0.000 C 
BRANCH   8   9
ATOM      9  C   UNL     1      17.261  -7.069   6.984  1.00  0.00     0.000 C 
BRANCH   9  10
ATOM     10  C   UNL     1      17.212  -8.414   6.235  1.00  0.00     0.000 C 
BRANCH  10  11
ATOM     11  C   UNL     1      18.398  -8.669   5.283  1.00  0.00     0.000 C 
BRANCH  11  12
ATOM     12  C   UNL     1      18.330  -7.844   3.979  1.00  0.00     0.000 C 
BRANCH  12  13
ATOM     13  C   UNL     1      17.531  -8.554   2.875  1.00  0.00     0.006 C 
BRANCH  13  14
ATOM     14  C   UNL     1      16.961  -9.884   3.377  1.00  0.00     0.053 C 
BRANCH  14  15
ATOM     15  C   UNL     1      15.520  -9.740   3.756  1.00  0.00     0.041 C 
ATOM     16  O   UNL     1      14.680  -9.330   2.911  1.00  0.00    -0.550 OA
ATOM     17  O   UNL     1      15.102 -10.056   5.046  1.00  0.00    -0.550 OA
ENDBRANCH  14  15
ENDBRANCH  13  14
ENDBRANCH  12  13
ENDBRANCH  11  12
ENDBRANCH  10  11
ENDBRANCH   9  10
ENDBRANCH   8   9
ENDBRANCH   7   8
ENDBRANCH   6   7
ENDBRANCH   5   6
ENDBRANCH   4   5
ENDBRANCH   3   4
ENDBRANCH   2   3
ENDBRANCH   1   2
BRANCH   1  18
ATOM     18  C   UNL     1      12.518  -4.972   3.281  1.00  0.00     0.000 C 
BRANCH  18  19
ATOM     19  C   UNL     1      11.175  -5.647   2.952  1.00  0.00     0.000 C 
BRANCH  19  20
ATOM     20  C   UNL     1       9.955  -4.704   2.930  1.00  0.00     0.000 C 
BRANCH  20  21
ATOM     21  C   UNL     1       8.754  -5.212   3.756  1.00  0.00     0.000 C 
BRANCH  21  22
ATOM     22  C   UNL     1       8.193  -6.540   3.221  1.00  0.00     0.000 C 
BRANCH  22  23
ATOM     23  C   UNL     1       6.856  -6.923   3.879  1.00  0.00     0.000 C 
BRANCH  23  24
ATOM     24  C   UNL     1       7.046  -7.797   5.130  1.00  0.00    -0.000 C 
BRANCH  24  25
ATOM     25  C   UNL     1       5.734  -8.491   5.521  1.00  0.00    -0.000 C 
BRANCH  25  26
ATOM     26  C   UNL     1       4.880  -8.792   4.281  1.00  0.00    -0.000 C 
BRANCH  26  27
ATOM     27  C   UNL     1       3.445  -9.218   4.633  1.00  0.00    -0.000 C 
BRANCH  27  28
ATOM     28  C   UNL     1       2.393  -8.214   4.131  1.00  0.00    -0.000 C 
BRANCH  28  29
ATOM     29  C   UNL     1       3.008  -7.041   3.347  1.00  0.00    -0.000 C 
BRANCH  29  30
ATOM     30  C   UNL     1       2.754  -5.641   3.946  1.00  0.00    -0.000 C 
BRANCH  30  31
ATOM     31  C   UNL     1       4.020  -4.811   4.222  1.00  0.00    -0.003 C 
ATOM     32  C   UNL     1       3.814  -3.751   5.302  1.00  0.00     0.004 C 
ENDBRANCH  30  31
ENDBRANCH  29  30
ENDBRANCH  28  29
ENDBRANCH  27  28
ENDBRANCH  26  27
ENDBRANCH  25  26
ENDBRANCH  24  25
ENDBRANCH  23  24
ENDBRANCH  22  23
ENDBRANCH  21  22
ENDBRANCH  20  21
ENDBRANCH  19  20
ENDBRANCH  18  19
ENDBRANCH   1  18
TORSDOF 28
ENDMDL
