MODEL 1
REMARK VINA RESULT:    -4.111      0.000      0.000
REMARK INTER + INTRA:         -10.915
REMARK INTER:                  -8.917
REMARK INTRA:                  -1.999
REMARK UNBOUND:                -1.999
REMARK SMILES CCCCCCCCCCCCCCCCCCCCCC(=O)[O-]
REMARK SMILES IDX 12 1 11 2 10 3 9 4 8 5 7 6 6 7 5 8 4 9 3 10 2 11 1 12 13 13
REMARK SMILES IDX 14 14 15 15 16 16 17 17 18 18 19 19 20 20 21 21 22 22 23 23
REMARK SMILES IDX 24 24
REMARK H PARENT
REMARK Flexibility Score: inf
ROOT
ATOM      1  C   UNL     1     159.308 157.689 149.890  1.00  0.00     0.000 C 
ENDROOT
BRANCH   1   2
ATOM      2  C   UNL     1     160.796 157.648 150.296  1.00  0.00     0.000 C 
BRANCH   2   3
ATOM      3  C   UNL     1     161.372 158.983 150.806  1.00  0.00     0.000 C 
BRANCH   3   4
ATOM      4  C   UNL     1     162.693 158.809 151.573  1.00  0.00    -0.000 C 
BRANCH   4   5
ATOM      5  C   UNL     1     163.776 159.811 151.133  1.00  0.00    -0.000 C 
BRANCH   5   6
ATOM      6  C   UNL     1     165.177 159.572 151.731  1.00  0.00    -0.000 C 
BRANCH   6   7
ATOM      7  C   UNL     1     165.225 158.563 152.893  1.00  0.00    -0.000 C 
BRANCH   7   8
ATOM      8  C   UNL     1     166.156 159.014 154.032  1.00  0.00    -0.000 C 
BRANCH   8   9
ATOM      9  C   UNL     1     167.184 157.938 154.416  1.00  0.00    -0.000 C 
BRANCH   9  10
ATOM     10  C   UNL     1     166.522 156.647 154.930  1.00  0.00    -0.000 C 
BRANCH  10  11
ATOM     11  C   UNL     1     166.946 155.409 154.126  1.00  0.00    -0.003 C 
ATOM     12  C   UNL     1     167.703 155.762 152.846  1.00  0.00     0.004 C 
ENDBRANCH  10  11
ENDBRANCH   9  10
ENDBRANCH   8   9
ENDBRANCH   7   8
ENDBRANCH   6   7
ENDBRANCH   5   6
ENDBRANCH   4   5
ENDBRANCH   3   4
ENDBRANCH   2   3
ENDBRANCH   1   2
BRANCH   1  13
ATOM     13  C   UNL     1     158.428 158.652 150.711  1.00  0.00     0.000 C 
BRANCH  13  14
ATOM     14  C   UNL     1     157.152 158.021 151.299  1.00  0.00     0.000 C 
BRANCH  14  15
ATOM     15  C   UNL     1     156.797 156.675 150.645  1.00  0.00     0.000 C 
BRANCH  15  16
ATOM     16  C   UNL     1     156.808 155.514 151.662  1.00  0.00     0.000 C 
BRANCH  16  17
ATOM     17  C   UNL     1     157.769 154.374 151.287  1.00  0.00     0.000 C 
BRANCH  17  18
ATOM     18  C   UNL     1     159.204 154.613 151.790  1.00  0.00     0.000 C 
BRANCH  18  19
ATOM     19  C   UNL     1     159.231 155.342 153.151  1.00  0.00     0.000 C 
BRANCH  19  20
ATOM     20  C   UNL     1     159.821 154.496 154.291  1.00  0.00     0.006 C 
BRANCH  20  21
ATOM     21  C   UNL     1     161.346 154.619 154.398  1.00  0.00     0.053 C 
BRANCH  21  22
ATOM     22  C   UNL     1     161.819 154.123 155.728  1.00  0.00     0.041 C 
ATOM     23  O   UNL     1     162.486 153.058 155.807  1.00  0.00    -0.550 OA
ATOM     24  O   UNL     1     161.567 154.866 156.875  1.00  0.00    -0.550 OA
ENDBRANCH  21  22
ENDBRANCH  20  21
ENDBRANCH  19  20
ENDBRANCH  18  19
ENDBRANCH  17  18
ENDBRANCH  16  17
ENDBRANCH  15  16
ENDBRANCH  14  15
ENDBRANCH  13  14
ENDBRANCH   1  13
TORSDOF 20
ENDMDL
MODEL 2
REMARK VINA RESULT:    -4.027      2.058      6.458
REMARK INTER + INTRA:         -10.734
REMARK INTER:                  -9.060
REMARK INTRA:                  -1.674
REMARK UNBOUND:                -1.999
REMARK SMILES CCCCCCCCCCCCCCCCCCCCCC(=O)[O-]
REMARK SMILES IDX 12 1 11 2 10 3 9 4 8 5 7 6 6 7 5 8 4 9 3 10 2 11 1 12 13 13
REMARK SMILES IDX 14 14 15 15 16 16 17 17 18 18 19 19 20 20 21 21 22 22 23 23
REMARK SMILES IDX 24 24
REMARK H PARENT
REMARK Flexibility Score: inf
ROOT
ATOM      1  C   UNL     1     158.246 158.575 150.621  1.00  0.00     0.000 C 
ENDROOT
BRANCH   1   2
ATOM      2  C   UNL     1     156.840 158.033 150.956  1.00  0.00     0.000 C 
BRANCH   2   3
ATOM      3  C   UNL     1     156.500 156.667 150.333  1.00  0.00     0.000 C 
BRANCH   3   4
ATOM      4  C   UNL     1     155.860 155.694 151.338  1.00  0.00    -0.000 C 
BRANCH   4   5
ATOM      5  C   UNL     1     156.800 155.332 152.501  1.00  0.00    -0.000 C 
BRANCH   5   6
ATOM      6  C   UNL     1     158.241 154.963 152.094  1.00  0.00    -0.000 C 
BRANCH   6   7
ATOM      7  C   UNL     1     159.292 155.122 153.207  1.00  0.00    -0.000 C 
BRANCH   7   8
ATOM      8  C   UNL     1     160.519 154.217 152.997  1.00  0.00    -0.000 C 
BRANCH   8   9
ATOM      9  C   UNL     1     160.869 153.397 154.249  1.00  0.00    -0.000 C 
BRANCH   9  10
ATOM     10  C   UNL     1     161.397 154.272 155.399  1.00  0.00    -0.000 C 
BRANCH  10  11
ATOM     11  C   UNL     1     162.871 153.989 155.723  1.00  0.00    -0.003 C 
ATOM     12  C   UNL     1     163.748 155.238 155.649  1.00  0.00     0.004 C 
ENDBRANCH  10  11
ENDBRANCH   9  10
ENDBRANCH   8   9
ENDBRANCH   7   8
ENDBRANCH   6   7
ENDBRANCH   5   6
ENDBRANCH   4   5
ENDBRANCH   3   4
ENDBRANCH   2   3
ENDBRANCH   1   2
BRANCH   1  13
ATOM     13  C   UNL     1     159.207 157.558 149.973  1.00  0.00     0.000 C 
BRANCH  13  14
ATOM     14  C   UNL     1     160.610 157.501 150.604  1.00  0.00     0.000 C 
BRANCH  14  15
ATOM     15  C   UNL     1     161.255 158.889 150.752  1.00  0.00     0.000 C 
BRANCH  15  16
ATOM     16  C   UNL     1     162.697 158.922 150.204  1.00  0.00     0.000 C 
BRANCH  16  17
ATOM     17  C   UNL     1     163.623 159.889 150.960  1.00  0.00     0.000 C 
BRANCH  17  18
ATOM     18  C   UNL     1     164.649 159.164 151.848  1.00  0.00     0.000 C 
BRANCH  18  19
ATOM     19  C   UNL     1     166.002 159.906 151.901  1.00  0.00     0.000 C 
BRANCH  19  20
ATOM     20  C   UNL     1     167.089 159.150 152.682  1.00  0.00     0.006 C 
BRANCH  20  21
ATOM     21  C   UNL     1     166.634 158.731 154.085  1.00  0.00     0.053 C 
BRANCH  21  22
ATOM     22  C   UNL     1     167.161 157.372 154.422  1.00  0.00     0.041 C 
ATOM     23  O   UNL     1     167.945 156.782 153.633  1.00  0.00    -0.550 OA
ATOM     24  O   UNL     1     166.826 156.778 155.633  1.00  0.00    -0.550 OA
ENDBRANCH  21  22
ENDBRANCH  20  21
ENDBRANCH  19  20
ENDBRANCH  18  19
ENDBRANCH  17  18
ENDBRANCH  16  17
ENDBRANCH  15  16
ENDBRANCH  14  15
ENDBRANCH  13  14
ENDBRANCH   1  13
TORSDOF 20
ENDMDL
MODEL 3
REMARK VINA RESULT:    -3.984      2.337      7.294
REMARK INTER + INTRA:         -10.640
REMARK INTER:                  -8.709
REMARK INTRA:                  -1.931
REMARK UNBOUND:                -1.999
REMARK SMILES CCCCCCCCCCCCCCCCCCCCCC(=O)[O-]
REMARK SMILES IDX 12 1 11 2 10 3 9 4 8 5 7 6 6 7 5 8 4 9 3 10 2 11 1 12 13 13
REMARK SMILES IDX 14 14 15 15 16 16 17 17 18 18 19 19 20 20 21 21 22 22 23 23
REMARK SMILES IDX 24 24
REMARK H PARENT
REMARK Flexibility Score: inf
ROOT
ATOM      1  C   UNL     1     157.545 158.262 151.380  1.00  0.00     0.000 C 
ENDROOT
BRANCH   1   2
ATOM      2  C   UNL     1     156.474 157.535 150.539  1.00  0.00     0.000 C 
BRANCH   2   3
ATOM      3  C   UNL     1     156.435 156.005 150.710  1.00  0.00     0.000 C 
BRANCH   3   4
ATOM      4  C   UNL     1     155.099 155.502 151.282  1.00  0.00    -0.000 C 
BRANCH   4   5
ATOM      5  C   UNL     1     155.042 153.969 151.408  1.00  0.00    -0.000 C 
BRANCH   5   6
ATOM      6  C   UNL     1     155.392 153.409 152.800  1.00  0.00    -0.000 C 
BRANCH   6   7
ATOM      7  C   UNL     1     156.897 153.236 153.072  1.00  0.00    -0.000 C 
BRANCH   7   8
ATOM      8  C   UNL     1     157.376 154.040 154.293  1.00  0.00    -0.000 C 
BRANCH   8   9
ATOM      9  C   UNL     1     158.847 154.471 154.176  1.00  0.00    -0.000 C 
BRANCH   9  10
ATOM     10  C   UNL     1     159.630 153.628 153.154  1.00  0.00    -0.000 C 
BRANCH  10  11
ATOM     11  C   UNL     1     160.149 154.466 151.977  1.00  0.00    -0.003 C 
ATOM     12  C   UNL     1     159.512 154.077 150.643  1.00  0.00     0.004 C 
ENDBRANCH  10  11
ENDBRANCH   9  10
ENDBRANCH   8   9
ENDBRANCH   7   8
ENDBRANCH   6   7
ENDBRANCH   5   6
ENDBRANCH   4   5
ENDBRANCH   3   4
ENDBRANCH   2   3
ENDBRANCH   1   2
BRANCH   1  13
ATOM     13  C   UNL     1     158.731 158.838 150.580  1.00  0.00     0.000 C 
BRANCH  13  14
ATOM     14  C   UNL     1     159.608 157.787 149.875  1.00  0.00     0.000 C 
BRANCH  14  15
ATOM     15  C   UNL     1     160.968 157.586 150.564  1.00  0.00     0.000 C 
BRANCH  15  16
ATOM     16  C   UNL     1     161.512 158.897 151.169  1.00  0.00     0.000 C 
BRANCH  16  17
ATOM     17  C   UNL     1     162.514 159.628 150.259  1.00  0.00     0.000 C 
BRANCH  17  18
ATOM     18  C   UNL     1     163.789 160.061 151.002  1.00  0.00     0.000 C 
BRANCH  18  19
ATOM     19  C   UNL     1     164.493 158.874 151.694  1.00  0.00     0.000 C 
BRANCH  19  20
ATOM     20  C   UNL     1     165.805 159.260 152.398  1.00  0.00     0.006 C 
BRANCH  20  21
ATOM     21  C   UNL     1     165.927 158.657 153.803  1.00  0.00     0.053 C 
BRANCH  21  22
ATOM     22  C   UNL     1     166.916 157.535 153.806  1.00  0.00     0.041 C 
ATOM     23  O   UNL     1     167.204 156.940 152.734  1.00  0.00    -0.550 OA
ATOM     24  O   UNL     1     167.559 157.179 154.986  1.00  0.00    -0.550 OA
ENDBRANCH  21  22
ENDBRANCH  20  21
ENDBRANCH  19  20
ENDBRANCH  18  19
ENDBRANCH  17  18
ENDBRANCH  16  17
ENDBRANCH  15  16
ENDBRANCH  14  15
ENDBRANCH  13  14
ENDBRANCH   1  13
TORSDOF 20
ENDMDL
MODEL 4
REMARK VINA RESULT:    -3.908      8.633     12.774
REMARK INTER + INTRA:         -10.475
REMARK INTER:                  -6.683
REMARK INTRA:                  -3.793
REMARK UNBOUND:                -1.999
REMARK SMILES CCCCCCCCCCCCCCCCCCCCCC(=O)[O-]
REMARK SMILES IDX 12 1 11 2 10 3 9 4 8 5 7 6 6 7 5 8 4 9 3 10 2 11 1 12 13 13
REMARK SMILES IDX 14 14 15 15 16 16 17 17 18 18 19 19 20 20 21 21 22 22 23 23
REMARK SMILES IDX 24 24
REMARK H PARENT
REMARK Flexibility Score: inf
ROOT
ATOM      1  C   UNL     1     165.345 151.876 165.098  1.00  0.00     0.000 C 
ENDROOT
BRANCH   1   2
ATOM      2  C   UNL     1     164.531 151.020 164.104  1.00  0.00     0.000 C 
BRANCH   2   3
ATOM      3  C   UNL     1     163.014 151.285 164.102  1.00  0.00     0.000 C 
BRANCH   3   4
ATOM      4  C   UNL     1     162.655 152.698 163.613  1.00  0.00    -0.000 C 
BRANCH   4   5
ATOM      5  C   UNL     1     161.232 152.786 163.033  1.00  0.00    -0.000 C 
BRANCH   5   6
ATOM      6  C   UNL     1     161.113 153.535 161.691  1.00  0.00    -0.000 C 
BRANCH   6   7
ATOM      7  C   UNL     1     161.844 154.888 161.634  1.00  0.00    -0.000 C 
BRANCH   7   8
ATOM      8  C   UNL     1     163.050 154.872 160.678  1.00  0.00    -0.000 C 
BRANCH   8   9
ATOM      9  C   UNL     1     162.669 154.431 159.255  1.00  0.00    -0.000 C 
BRANCH   9  10
ATOM     10  C   UNL     1     163.438 153.177 158.802  1.00  0.00    -0.000 C 
BRANCH  10  11
ATOM     11  C   UNL     1     164.351 152.618 159.902  1.00  0.00    -0.003 C 
ATOM     12  C   UNL     1     163.901 151.249 160.410  1.00  0.00     0.004 C 
ENDBRANCH  10  11
ENDBRANCH   9  10
ENDBRANCH   8   9
ENDBRANCH   7   8
ENDBRANCH   6   7
ENDBRANCH   5   6
ENDBRANCH   4   5
ENDBRANCH   3   4
ENDBRANCH   2   3
ENDBRANCH   1   2
BRANCH   1  13
ATOM     13  C   UNL     1     166.556 152.613 164.493  1.00  0.00     0.000 C 
BRANCH  13  14
ATOM     14  C   UNL     1     166.400 153.012 163.014  1.00  0.00     0.000 C 
BRANCH  14  15
ATOM     15  C   UNL     1     165.931 154.465 162.834  1.00  0.00     0.000 C 
BRANCH  15  16
ATOM     16  C   UNL     1     166.603 155.422 163.841  1.00  0.00     0.000 C 
BRANCH  16  17
ATOM     17  C   UNL     1     165.610 156.127 164.780  1.00  0.00     0.000 C 
BRANCH  17  18
ATOM     18  C   UNL     1     164.160 155.653 164.581  1.00  0.00     0.000 C 
BRANCH  18  19
ATOM     19  C   UNL     1     163.259 156.009 165.784  1.00  0.00     0.000 C 
BRANCH  19  20
ATOM     20  C   UNL     1     161.771 156.141 165.421  1.00  0.00     0.006 C 
BRANCH  20  21
ATOM     21  C   UNL     1     161.515 157.177 164.320  1.00  0.00     0.053 C 
BRANCH  21  22
ATOM     22  C   UNL     1     161.478 158.557 164.899  1.00  0.00     0.041 C 
ATOM     23  O   UNL     1     160.384 159.059 165.270  1.00  0.00    -0.550 OA
ATOM     24  O   UNL     1     162.658 159.268 165.076  1.00  0.00    -0.550 OA
ENDBRANCH  21  22
ENDBRANCH  20  21
ENDBRANCH  19  20
ENDBRANCH  18  19
ENDBRANCH  17  18
ENDBRANCH  16  17
ENDBRANCH  15  16
ENDBRANCH  14  15
ENDBRANCH  13  14
ENDBRANCH   1  13
TORSDOF 20
ENDMDL
MODEL 5
REMARK VINA RESULT:    -3.903      5.194      7.433
REMARK INTER + INTRA:         -10.466
REMARK INTER:                  -6.683
REMARK INTRA:                  -3.782
REMARK UNBOUND:                -1.999
REMARK SMILES CCCCCCCCCCCCCCCCCCCCCC(=O)[O-]
REMARK SMILES IDX 12 1 11 2 10 3 9 4 8 5 7 6 6 7 5 8 4 9 3 10 2 11 1 12 13 13
REMARK SMILES IDX 14 14 15 15 16 16 17 17 18 18 19 19 20 20 21 21 22 22 23 23
REMARK SMILES IDX 24 24
REMARK H PARENT
REMARK Flexibility Score: inf
ROOT
ATOM      1  C   UNL     1     160.235 157.099 150.361  1.00  0.00     0.000 C 
ENDROOT
BRANCH   1   2
ATOM      2  C   UNL     1     159.432 155.844 149.959  1.00  0.00     0.000 C 
BRANCH   2   3
ATOM      3  C   UNL     1     159.246 154.800 151.076  1.00  0.00     0.000 C 
BRANCH   3   4
ATOM      4  C   UNL     1     160.305 154.918 152.186  1.00  0.00    -0.000 C 
BRANCH   4   5
ATOM      5  C   UNL     1     159.698 154.855 153.599  1.00  0.00    -0.000 C 
BRANCH   5   6
ATOM      6  C   UNL     1     158.173 155.071 153.672  1.00  0.00    -0.000 C 
BRANCH   6   7
ATOM      7  C   UNL     1     157.407 154.023 154.499  1.00  0.00    -0.000 C 
BRANCH   7   8
ATOM      8  C   UNL     1     158.341 153.009 155.183  1.00  0.00    -0.000 C 
BRANCH   8   9
ATOM      9  C   UNL     1     158.198 151.591 154.606  1.00  0.00    -0.000 C 
BRANCH   9  10
ATOM     10  C   UNL     1     157.742 151.596 153.136  1.00  0.00    -0.000 C 
BRANCH  10  11
ATOM     11  C   UNL     1     158.865 151.186 152.172  1.00  0.00    -0.003 C 
ATOM     12  C   UNL     1     158.455 151.289 150.703  1.00  0.00     0.004 C 
ENDBRANCH  10  11
ENDBRANCH   9  10
ENDBRANCH   8   9
ENDBRANCH   7   8
ENDBRANCH   6   7
ENDBRANCH   5   6
ENDBRANCH   4   5
ENDBRANCH   3   4
ENDBRANCH   2   3
ENDBRANCH   1   2
BRANCH   1  13
ATOM     13  C   UNL     1     159.400 158.379 150.563  1.00  0.00     0.000 C 
BRANCH  13  14
ATOM     14  C   UNL     1     158.230 158.239 151.555  1.00  0.00     0.000 C 
BRANCH  14  15
ATOM     15  C   UNL     1     156.866 158.543 150.914  1.00  0.00     0.000 C 
BRANCH  15  16
ATOM     16  C   UNL     1     156.262 157.306 150.217  1.00  0.00     0.000 C 
BRANCH  16  17
ATOM     17  C   UNL     1     155.812 156.206 151.194  1.00  0.00     0.000 C 
BRANCH  17  18
ATOM     18  C   UNL     1     155.184 154.996 150.482  1.00  0.00     0.000 C 
BRANCH  18  19
ATOM     19  C   UNL     1     155.483 153.669 151.213  1.00  0.00     0.000 C 
BRANCH  19  20
ATOM     20  C   UNL     1     154.503 153.361 152.356  1.00  0.00     0.006 C 
BRANCH  20  21
ATOM     21  C   UNL     1     153.102 153.938 152.113  1.00  0.00     0.053 C 
BRANCH  21  22
ATOM     22  C   UNL     1     152.263 152.966 151.345  1.00  0.00     0.041 C 
ATOM     23  O   UNL     1     151.879 151.895 151.884  1.00  0.00    -0.550 OA
ATOM     24  O   UNL     1     151.861 153.269 150.049  1.00  0.00    -0.550 OA
ENDBRANCH  21  22
ENDBRANCH  20  21
ENDBRANCH  19  20
ENDBRANCH  18  19
ENDBRANCH  17  18
ENDBRANCH  16  17
ENDBRANCH  15  16
ENDBRANCH  14  15
ENDBRANCH  13  14
ENDBRANCH   1  13
TORSDOF 20
ENDMDL
MODEL 6
REMARK VINA RESULT:    -3.855      8.691     11.829
REMARK INTER + INTRA:         -10.360
REMARK INTER:                  -6.422
REMARK INTRA:                  -3.938
REMARK UNBOUND:                -1.999
REMARK SMILES CCCCCCCCCCCCCCCCCCCCCC(=O)[O-]
REMARK SMILES IDX 12 1 11 2 10 3 9 4 8 5 7 6 6 7 5 8 4 9 3 10 2 11 1 12 13 13
REMARK SMILES IDX 14 14 15 15 16 16 17 17 18 18 19 19 20 20 21 21 22 22 23 23
REMARK SMILES IDX 24 24
REMARK H PARENT
REMARK Flexibility Score: inf
ROOT
ATOM      1  C   UNL     1     161.876 156.592 163.630  1.00  0.00     0.000 C 
ENDROOT
BRANCH   1   2
ATOM      2  C   UNL     1     161.698 156.516 165.161  1.00  0.00     0.000 C 
BRANCH   2   3
ATOM      3  C   UNL     1     162.868 157.084 165.986  1.00  0.00     0.000 C 
BRANCH   3   4
ATOM      4  C   UNL     1     163.599 156.008 166.806  1.00  0.00    -0.000 C 
BRANCH   4   5
ATOM      5  C   UNL     1     164.489 155.098 165.939  1.00  0.00    -0.000 C 
BRANCH   5   6
ATOM      6  C   UNL     1     165.381 155.830 164.916  1.00  0.00    -0.000 C 
BRANCH   6   7
ATOM      7  C   UNL     1     165.690 155.033 163.636  1.00  0.00    -0.000 C 
BRANCH   7   8
ATOM      8  C   UNL     1     167.131 154.496 163.605  1.00  0.00    -0.000 C 
BRANCH   8   9
ATOM      9  C   UNL     1     167.233 153.047 164.108  1.00  0.00    -0.000 C 
BRANCH   9  10
ATOM     10  C   UNL     1     166.117 152.149 163.547  1.00  0.00    -0.000 C 
BRANCH  10  11
ATOM     11  C   UNL     1     165.718 151.030 164.521  1.00  0.00    -0.003 C 
ATOM     12  C   UNL     1     165.798 151.459 165.985  1.00  0.00     0.004 C 
ENDBRANCH  10  11
ENDBRANCH   9  10
ENDBRANCH   8   9
ENDBRANCH   7   8
ENDBRANCH   6   7
ENDBRANCH   5   6
ENDBRANCH   4   5
ENDBRANCH   3   4
ENDBRANCH   2   3
ENDBRANCH   1   2
BRANCH   1  13
ATOM     13  C   UNL     1     161.822 155.240 162.892  1.00  0.00     0.000 C 
BRANCH  13  14
ATOM     14  C   UNL     1     161.463 154.032 163.778  1.00  0.00     0.000 C 
BRANCH  14  15
ATOM     15  C   UNL     1     162.563 152.958 163.797  1.00  0.00     0.000 C 
BRANCH  15  16
ATOM     16  C   UNL     1     162.123 151.663 163.082  1.00  0.00     0.000 C 
BRANCH  16  17
ATOM     17  C   UNL     1     162.851 151.417 161.749  1.00  0.00     0.000 C 
BRANCH  17  18
ATOM     18  C   UNL     1     162.250 152.221 160.584  1.00  0.00     0.000 C 
BRANCH  18  19
ATOM     19  C   UNL     1     163.337 152.906 159.727  1.00  0.00     0.000 C 
BRANCH  19  20
ATOM     20  C   UNL     1     164.410 153.630 160.556  1.00  0.00     0.006 C 
BRANCH  20  21
ATOM     21  C   UNL     1     165.082 154.777 159.789  1.00  0.00     0.053 C 
BRANCH  21  22
ATOM     22  C   UNL     1     166.313 154.288 159.093  1.00  0.00     0.041 C 
ATOM     23  O   UNL     1     166.760 153.134 159.329  1.00  0.00    -0.550 OA
ATOM     24  O   UNL     1     166.938 155.088 158.144  1.00  0.00    -0.550 OA
ENDBRANCH  21  22
ENDBRANCH  20  21
ENDBRANCH  19  20
ENDBRANCH  18  19
ENDBRANCH  17  18
ENDBRANCH  16  17
ENDBRANCH  15  16
ENDBRANCH  14  15
ENDBRANCH  13  14
ENDBRANCH   1  13
TORSDOF 20
ENDMDL
MODEL 7
REMARK VINA RESULT:    -3.840      3.687      6.947
REMARK INTER + INTRA:         -10.329
REMARK INTER:                  -6.541
REMARK INTRA:                  -3.788
REMARK UNBOUND:                -1.999
REMARK SMILES CCCCCCCCCCCCCCCCCCCCCC(=O)[O-]
REMARK SMILES IDX 12 1 11 2 10 3 9 4 8 5 7 6 6 7 5 8 4 9 3 10 2 11 1 12 13 13
REMARK SMILES IDX 14 14 15 15 16 16 17 17 18 18 19 19 20 20 21 21 22 22 23 23
REMARK SMILES IDX 24 24
REMARK H PARENT
REMARK Flexibility Score: inf
ROOT
ATOM      1  C   UNL     1     159.247 157.091 151.009  1.00  0.00     0.000 C 
ENDROOT
BRANCH   1   2
ATOM      2  C   UNL     1     158.019 157.498 151.850  1.00  0.00     0.000 C 
BRANCH   2   3
ATOM      3  C   UNL     1     156.864 158.137 151.056  1.00  0.00     0.000 C 
BRANCH   3   4
ATOM      4  C   UNL     1     156.126 157.128 150.160  1.00  0.00    -0.000 C 
BRANCH   4   5
ATOM      5  C   UNL     1     155.681 155.867 150.922  1.00  0.00    -0.000 C 
BRANCH   5   6
ATOM      6  C   UNL     1     155.902 154.535 150.177  1.00  0.00    -0.000 C 
BRANCH   6   7
ATOM      7  C   UNL     1     156.056 153.301 151.083  1.00  0.00    -0.000 C 
BRANCH   7   8
ATOM      8  C   UNL     1     155.738 153.604 152.558  1.00  0.00    -0.000 C 
BRANCH   8   9
ATOM      9  C   UNL     1     156.908 153.268 153.496  1.00  0.00    -0.000 C 
BRANCH   9  10
ATOM     10  C   UNL     1     157.562 154.524 154.098  1.00  0.00    -0.000 C 
BRANCH  10  11
ATOM     11  C   UNL     1     157.796 154.396 155.611  1.00  0.00    -0.003 C 
ATOM     12  C   UNL     1     156.769 153.498 156.298  1.00  0.00     0.004 C 
ENDBRANCH  10  11
ENDBRANCH   9  10
ENDBRANCH   8   9
ENDBRANCH   7   8
ENDBRANCH   6   7
ENDBRANCH   5   6
ENDBRANCH   4   5
ENDBRANCH   3   4
ENDBRANCH   2   3
ENDBRANCH   1   2
BRANCH   1  13
ATOM     13  C   UNL     1     159.868 155.726 151.368  1.00  0.00     0.000 C 
BRANCH  13  14
ATOM     14  C   UNL     1     159.523 154.582 150.397  1.00  0.00     0.000 C 
BRANCH  14  15
ATOM     15  C   UNL     1     159.741 153.190 151.014  1.00  0.00     0.000 C 
BRANCH  15  16
ATOM     16  C   UNL     1     160.631 153.246 152.274  1.00  0.00     0.000 C 
BRANCH  16  17
ATOM     17  C   UNL     1     160.411 152.068 153.238  1.00  0.00     0.000 C 
BRANCH  17  18
ATOM     18  C   UNL     1     160.809 152.399 154.686  1.00  0.00     0.000 C 
BRANCH  18  19
ATOM     19  C   UNL     1     161.362 153.833 154.827  1.00  0.00     0.000 C 
BRANCH  19  20
ATOM     20  C   UNL     1     162.851 153.886 155.205  1.00  0.00     0.006 C 
BRANCH  20  21
ATOM     21  C   UNL     1     163.516 152.504 155.202  1.00  0.00     0.053 C 
BRANCH  21  22
ATOM     22  C   UNL     1     164.441 152.370 154.033  1.00  0.00     0.041 C 
ATOM     23  O   UNL     1     165.581 152.904 154.063  1.00  0.00    -0.550 OA
ATOM     24  O   UNL     1     164.063 151.613 152.932  1.00  0.00    -0.550 OA
ENDBRANCH  21  22
ENDBRANCH  20  21
ENDBRANCH  19  20
ENDBRANCH  18  19
ENDBRANCH  17  18
ENDBRANCH  16  17
ENDBRANCH  15  16
ENDBRANCH  14  15
ENDBRANCH  13  14
ENDBRANCH   1  13
TORSDOF 20
ENDMDL
MODEL 8
REMARK VINA RESULT:    -3.836      7.791     12.056
REMARK INTER + INTRA:         -10.319
REMARK INTER:                  -7.066
REMARK INTRA:                  -3.252
REMARK UNBOUND:                -1.999
REMARK SMILES CCCCCCCCCCCCCCCCCCCCCC(=O)[O-]
REMARK SMILES IDX 12 1 11 2 10 3 9 4 8 5 7 6 6 7 5 8 4 9 3 10 2 11 1 12 13 13
REMARK SMILES IDX 14 14 15 15 16 16 17 17 18 18 19 19 20 20 21 21 22 22 23 23
REMARK SMILES IDX 24 24
REMARK H PARENT
REMARK Flexibility Score: inf
ROOT
ATOM      1  C   UNL     1     164.388 154.877 165.402  1.00  0.00     0.000 C 
ENDROOT
BRANCH   1   2
ATOM      2  C   UNL     1     164.308 155.666 166.725  1.00  0.00     0.000 C 
BRANCH   2   3
ATOM      3  C   UNL     1     162.931 156.281 167.039  1.00  0.00     0.000 C 
BRANCH   3   4
ATOM      4  C   UNL     1     162.836 157.765 166.647  1.00  0.00    -0.000 C 
BRANCH   4   5
ATOM      5  C   UNL     1     161.745 158.036 165.595  1.00  0.00    -0.000 C 
BRANCH   5   6
ATOM      6  C   UNL     1     162.060 157.532 164.173  1.00  0.00    -0.000 C 
BRANCH   6   7
ATOM      7  C   UNL     1     161.322 156.246 163.761  1.00  0.00    -0.000 C 
BRANCH   7   8
ATOM      8  C   UNL     1     162.033 155.493 162.623  1.00  0.00    -0.000 C 
BRANCH   8   9
ATOM      9  C   UNL     1     161.476 154.075 162.414  1.00  0.00    -0.000 C 
BRANCH   9  10
ATOM     10  C   UNL     1     161.678 153.175 163.646  1.00  0.00    -0.000 C 
BRANCH  10  11
ATOM     11  C   UNL     1     161.301 151.712 163.372  1.00  0.00    -0.003 C 
ATOM     12  C   UNL     1     162.221 150.718 164.081  1.00  0.00     0.004 C 
ENDBRANCH  10  11
ENDBRANCH   9  10
ENDBRANCH   8   9
ENDBRANCH   7   8
ENDBRANCH   6   7
ENDBRANCH   5   6
ENDBRANCH   4   5
ENDBRANCH   3   4
ENDBRANCH   2   3
ENDBRANCH   1   2
BRANCH   1  13
ATOM     13  C   UNL     1     165.411 155.409 164.378  1.00  0.00     0.000 C 
BRANCH  13  14
ATOM     14  C   UNL     1     166.132 154.323 163.559  1.00  0.00     0.000 C 
BRANCH  14  15
ATOM     15  C   UNL     1     165.212 153.149 163.185  1.00  0.00     0.000 C 
BRANCH  15  16
ATOM     16  C   UNL     1     165.147 152.923 161.660  1.00  0.00     0.000 C 
BRANCH  16  17
ATOM     17  C   UNL     1     165.706 154.097 160.838  1.00  0.00     0.000 C 
BRANCH  17  18
ATOM     18  C   UNL     1     164.618 154.846 160.050  1.00  0.00     0.000 C 
BRANCH  18  19
ATOM     19  C   UNL     1     163.590 153.884 159.415  1.00  0.00     0.000 C 
BRANCH  19  20
ATOM     20  C   UNL     1     162.342 154.592 158.862  1.00  0.00     0.006 C 
BRANCH  20  21
ATOM     21  C   UNL     1     162.539 155.118 157.435  1.00  0.00     0.053 C 
BRANCH  21  22
ATOM     22  C   UNL     1     161.753 154.297 156.462  1.00  0.00     0.041 C 
ATOM     23  O   UNL     1     161.360 153.143 156.778  1.00  0.00    -0.550 OA
ATOM     24  O   UNL     1     161.409 154.827 155.224  1.00  0.00    -0.550 OA
ENDBRANCH  21  22
ENDBRANCH  20  21
ENDBRANCH  19  20
ENDBRANCH  18  19
ENDBRANCH  17  18
ENDBRANCH  16  17
ENDBRANCH  15  16
ENDBRANCH  14  15
ENDBRANCH  13  14
ENDBRANCH   1  13
TORSDOF 20
ENDMDL
