MODEL 1
REMARK VINA RESULT:    -4.565      0.000      0.000
REMARK INTER + INTRA:         -13.600
REMARK INTER:                  -9.902
REMARK INTRA:                  -3.698
REMARK UNBOUND:                -3.698
REMARK SMILES CCCCCCCCCCCCCCCCCCCCCC(=O)[O-]
REMARK SMILES IDX 12 1 11 2 10 3 9 4 8 5 7 6 6 7 5 8 4 9 3 10 2 11 1 12 13 13
REMARK SMILES IDX 14 14 15 15 16 16 17 17 18 18 19 19 20 20 21 21 22 22 23 23
REMARK SMILES IDX 24 24
REMARK H PARENT
REMARK Flexibility Score: inf
ROOT
ATOM      1  C   UNL     1      63.049  14.832  36.345  1.00  0.00     0.000 C 
ENDROOT
BRANCH   1   2
ATOM      2  C   UNL     1      62.867  14.701  37.866  1.00  0.00     0.000 C 
BRANCH   2   3
ATOM      3  C   UNL     1      63.863  13.716  38.496  1.00  0.00     0.000 C 
BRANCH   3   4
ATOM      4  C   UNL     1      63.207  12.925  39.638  1.00  0.00    -0.000 C 
BRANCH   4   5
ATOM      5  C   UNL     1      61.875  13.538  40.109  1.00  0.00    -0.000 C 
BRANCH   5   6
ATOM      6  C   UNL     1      60.811  12.523  40.567  1.00  0.00    -0.000 C 
BRANCH   6   7
ATOM      7  C   UNL     1      59.472  12.684  39.827  1.00  0.00    -0.000 C 
BRANCH   7   8
ATOM      8  C   UNL     1      59.606  13.478  38.515  1.00  0.00    -0.000 C 
BRANCH   8   9
ATOM      9  C   UNL     1      59.443  12.649  37.224  1.00  0.00    -0.000 C 
BRANCH   9  10
ATOM     10  C   UNL     1      60.721  11.943  36.731  1.00  0.00    -0.000 C 
BRANCH  10  11
ATOM     11  C   UNL     1      60.737  10.418  36.936  1.00  0.00    -0.003 C 
ATOM     12  C   UNL     1      61.673   9.978  38.062  1.00  0.00     0.004 C 
ENDBRANCH  10  11
ENDBRANCH   9  10
ENDBRANCH   8   9
ENDBRANCH   7   8
ENDBRANCH   6   7
ENDBRANCH   5   6
ENDBRANCH   4   5
ENDBRANCH   3   4
ENDBRANCH   2   3
ENDBRANCH   1   2
BRANCH   1  13
ATOM     13  C   UNL     1      64.497  15.163  35.950  1.00  0.00     0.000 C 
BRANCH  13  14
ATOM     14  C   UNL     1      64.631  16.636  35.546  1.00  0.00     0.000 C 
BRANCH  14  15
ATOM     15  C   UNL     1      65.317  17.451  36.652  1.00  0.00     0.000 C 
BRANCH  15  16
ATOM     16  C   UNL     1      64.318  18.104  37.624  1.00  0.00     0.000 C 
BRANCH  16  17
ATOM     17  C   UNL     1      64.530  17.750  39.108  1.00  0.00     0.000 C 
BRANCH  17  18
ATOM     18  C   UNL     1      63.388  18.245  40.013  1.00  0.00     0.000 C 
BRANCH  18  19
ATOM     19  C   UNL     1      62.568  17.077  40.602  1.00  0.00     0.000 C 
BRANCH  19  20
ATOM     20  C   UNL     1      61.067  17.157  40.280  1.00  0.00     0.006 C 
BRANCH  20  21
ATOM     21  C   UNL     1      60.646  18.523  39.724  1.00  0.00     0.053 C 
BRANCH  21  22
ATOM     22  C   UNL     1      60.240  18.403  38.289  1.00  0.00     0.041 C 
ATOM     23  O   UNL     1      60.902  18.990  37.392  1.00  0.00    -0.550 OA
ATOM     24  O   UNL     1      59.101  17.684  37.946  1.00  0.00    -0.550 OA
ENDBRANCH  21  22
ENDBRANCH  20  21
ENDBRANCH  19  20
ENDBRANCH  18  19
ENDBRANCH  17  18
ENDBRANCH  16  17
ENDBRANCH  15  16
ENDBRANCH  14  15
ENDBRANCH  13  14
ENDBRANCH   1  13
TORSDOF 20
ENDMDL
MODEL 2
REMARK VINA RESULT:    -4.547      2.479      5.874
REMARK INTER + INTRA:         -13.562
REMARK INTER:                 -10.165
REMARK INTRA:                  -3.397
REMARK UNBOUND:                -3.698
REMARK SMILES CCCCCCCCCCCCCCCCCCCCCC(=O)[O-]
REMARK SMILES IDX 12 1 11 2 10 3 9 4 8 5 7 6 6 7 5 8 4 9 3 10 2 11 1 12 13 13
REMARK SMILES IDX 14 14 15 15 16 16 17 17 18 18 19 19 20 20 21 21 22 22 23 23
REMARK SMILES IDX 24 24
REMARK H PARENT
REMARK Flexibility Score: inf
ROOT
ATOM      1  C   UNL     1      62.077  18.598  38.223  1.00  0.00     0.000 C 
ENDROOT
BRANCH   1   2
ATOM      2  C   UNL     1      62.757  19.071  39.519  1.00  0.00     0.000 C 
BRANCH   2   3
ATOM      3  C   UNL     1      63.809  18.075  40.030  1.00  0.00     0.000 C 
BRANCH   3   4
ATOM      4  C   UNL     1      63.146  16.784  40.533  1.00  0.00    -0.000 C 
BRANCH   4   5
ATOM      5  C   UNL     1      62.959  15.731  39.425  1.00  0.00    -0.000 C 
BRANCH   5   6
ATOM      6  C   UNL     1      63.478  14.321  39.766  1.00  0.00    -0.000 C 
BRANCH   6   7
ATOM      7  C   UNL     1      64.115  13.610  38.560  1.00  0.00    -0.000 C 
BRANCH   7   8
ATOM      8  C   UNL     1      65.026  14.535  37.733  1.00  0.00    -0.000 C 
BRANCH   8   9
ATOM      9  C   UNL     1      64.504  14.883  36.324  1.00  0.00    -0.000 C 
BRANCH   9  10
ATOM     10  C   UNL     1      64.311  16.388  36.048  1.00  0.00    -0.000 C 
BRANCH  10  11
ATOM     11  C   UNL     1      65.297  17.311  36.785  1.00  0.00    -0.003 C 
ATOM     12  C   UNL     1      66.251  18.040  35.839  1.00  0.00     0.004 C 
ENDBRANCH  10  11
ENDBRANCH   9  10
ENDBRANCH   8   9
ENDBRANCH   7   8
ENDBRANCH   6   7
ENDBRANCH   5   6
ENDBRANCH   4   5
ENDBRANCH   3   4
ENDBRANCH   2   3
ENDBRANCH   1   2
BRANCH   1  13
ATOM     13  C   UNL     1      60.548  18.741  38.273  1.00  0.00     0.000 C 
BRANCH  13  14
ATOM     14  C   UNL     1      60.095  19.318  39.620  1.00  0.00     0.000 C 
BRANCH  14  15
ATOM     15  C   UNL     1      59.035  18.421  40.275  1.00  0.00     0.000 C 
BRANCH  15  16
ATOM     16  C   UNL     1      59.611  17.091  40.794  1.00  0.00     0.000 C 
BRANCH  16  17
ATOM     17  C   UNL     1      58.781  15.843  40.441  1.00  0.00     0.000 C 
BRANCH  17  18
ATOM     18  C   UNL     1      59.540  14.851  39.543  1.00  0.00     0.000 C 
BRANCH  18  19
ATOM     19  C   UNL     1      59.473  15.249  38.053  1.00  0.00     0.000 C 
BRANCH  19  20
ATOM     20  C   UNL     1      59.575  14.053  37.092  1.00  0.00     0.006 C 
BRANCH  20  21
ATOM     21  C   UNL     1      60.964  13.403  37.091  1.00  0.00     0.053 C 
BRANCH  21  22
ATOM     22  C   UNL     1      60.859  11.940  37.386  1.00  0.00     0.041 C 
ATOM     23  O   UNL     1      60.313  11.164  36.557  1.00  0.00    -0.550 OA
ATOM     24  O   UNL     1      61.317  11.440  38.598  1.00  0.00    -0.550 OA
ENDBRANCH  21  22
ENDBRANCH  20  21
ENDBRANCH  19  20
ENDBRANCH  18  19
ENDBRANCH  17  18
ENDBRANCH  16  17
ENDBRANCH  15  16
ENDBRANCH  14  15
ENDBRANCH  13  14
ENDBRANCH   1  13
TORSDOF 20
ENDMDL
MODEL 3
REMARK VINA RESULT:    -4.541      2.323      4.921
REMARK INTER + INTRA:         -13.549
REMARK INTER:                 -10.008
REMARK INTRA:                  -3.541
REMARK UNBOUND:                -3.698
REMARK SMILES CCCCCCCCCCCCCCCCCCCCCC(=O)[O-]
REMARK SMILES IDX 12 1 11 2 10 3 9 4 8 5 7 6 6 7 5 8 4 9 3 10 2 11 1 12 13 13
REMARK SMILES IDX 14 14 15 15 16 16 17 17 18 18 19 19 20 20 21 21 22 22 23 23
REMARK SMILES IDX 24 24
REMARK H PARENT
REMARK Flexibility Score: inf
ROOT
ATOM      1  C   UNL     1      62.928  18.867  39.434  1.00  0.00     0.000 C 
ENDROOT
BRANCH   1   2
ATOM      2  C   UNL     1      62.288  18.714  38.045  1.00  0.00     0.000 C 
BRANCH   2   3
ATOM      3  C   UNL     1      60.753  18.770  38.094  1.00  0.00     0.000 C 
BRANCH   3   4
ATOM      4  C   UNL     1      60.264  19.262  39.464  1.00  0.00    -0.000 C 
BRANCH   4   5
ATOM      5  C   UNL     1      59.237  18.315  40.113  1.00  0.00    -0.000 C 
BRANCH   5   6
ATOM      6  C   UNL     1      59.638  16.829  40.139  1.00  0.00    -0.000 C 
BRANCH   6   7
ATOM      7  C   UNL     1      58.465  15.886  39.820  1.00  0.00    -0.000 C 
BRANCH   7   8
ATOM      8  C   UNL     1      58.726  15.004  38.586  1.00  0.00    -0.000 C 
BRANCH   8   9
ATOM      9  C   UNL     1      59.892  15.463  37.685  1.00  0.00    -0.000 C 
BRANCH   9  10
ATOM     10  C   UNL     1      60.638  14.331  36.949  1.00  0.00    -0.000 C 
BRANCH  10  11
ATOM     11  C   UNL     1      60.572  12.958  37.641  1.00  0.00    -0.003 C 
ATOM     12  C   UNL     1      60.675  11.791  36.659  1.00  0.00     0.004 C 
ENDBRANCH  10  11
ENDBRANCH   9  10
ENDBRANCH   8   9
ENDBRANCH   7   8
ENDBRANCH   6   7
ENDBRANCH   5   6
ENDBRANCH   4   5
ENDBRANCH   3   4
ENDBRANCH   2   3
ENDBRANCH   1   2
BRANCH   1  13
ATOM     13  C   UNL     1      63.956  17.766  39.735  1.00  0.00     0.000 C 
BRANCH  13  14
ATOM     14  C   UNL     1      63.317  16.622  40.531  1.00  0.00     0.000 C 
BRANCH  14  15
ATOM     15  C   UNL     1      62.795  15.524  39.594  1.00  0.00     0.000 C 
BRANCH  15  16
ATOM     16  C   UNL     1      63.509  14.175  39.792  1.00  0.00     0.000 C 
BRANCH  16  17
ATOM     17  C   UNL     1      64.032  13.521  38.500  1.00  0.00     0.000 C 
BRANCH  17  18
ATOM     18  C   UNL     1      65.013  14.419  37.726  1.00  0.00     0.000 C 
BRANCH  18  19
ATOM     19  C   UNL     1      64.474  14.800  36.331  1.00  0.00     0.000 C 
BRANCH  19  20
ATOM     20  C   UNL     1      64.122  16.291  36.195  1.00  0.00     0.006 C 
BRANCH  20  21
ATOM     21  C   UNL     1      65.031  17.033  35.208  1.00  0.00     0.053 C 
BRANCH  21  22
ATOM     22  C   UNL     1      66.082  17.805  35.941  1.00  0.00     0.041 C 
ATOM     23  O   UNL     1      66.199  17.689  37.189  1.00  0.00    -0.550 OA
ATOM     24  O   UNL     1      66.899  18.693  35.252  1.00  0.00    -0.550 OA
ENDBRANCH  21  22
ENDBRANCH  20  21
ENDBRANCH  19  20
ENDBRANCH  18  19
ENDBRANCH  17  18
ENDBRANCH  16  17
ENDBRANCH  15  16
ENDBRANCH  14  15
ENDBRANCH  13  14
ENDBRANCH   1  13
TORSDOF 20
ENDMDL
MODEL 4
REMARK VINA RESULT:    -4.496      2.913      6.438
REMARK INTER + INTRA:         -13.451
REMARK INTER:                  -9.672
REMARK INTRA:                  -3.779
REMARK UNBOUND:                -3.698
REMARK SMILES CCCCCCCCCCCCCCCCCCCCCC(=O)[O-]
REMARK SMILES IDX 12 1 11 2 10 3 9 4 8 5 7 6 6 7 5 8 4 9 3 10 2 11 1 12 13 13
REMARK SMILES IDX 14 14 15 15 16 16 17 17 18 18 19 19 20 20 21 21 22 22 23 23
REMARK SMILES IDX 24 24
REMARK H PARENT
REMARK Flexibility Score: inf
ROOT
ATOM      1  C   UNL     1      60.879  18.853  37.977  1.00  0.00     0.000 C 
ENDROOT
BRANCH   1   2
ATOM      2  C   UNL     1      61.299  18.964  39.451  1.00  0.00     0.000 C 
BRANCH   2   3
ATOM      3  C   UNL     1      62.802  19.238  39.617  1.00  0.00     0.000 C 
BRANCH   3   4
ATOM      4  C   UNL     1      63.510  18.041  40.269  1.00  0.00    -0.000 C 
BRANCH   4   5
ATOM      5  C   UNL     1      62.623  16.785  40.348  1.00  0.00    -0.000 C 
BRANCH   5   6
ATOM      6  C   UNL     1      63.126  15.575  39.539  1.00  0.00    -0.000 C 
BRANCH   6   7
ATOM      7  C   UNL     1      62.501  15.491  38.136  1.00  0.00    -0.000 C 
BRANCH   7   8
ATOM      8  C   UNL     1      63.354  14.673  37.150  1.00  0.00    -0.000 C 
BRANCH   8   9
ATOM      9  C   UNL     1      64.150  15.506  36.123  1.00  0.00    -0.000 C 
BRANCH   9  10
ATOM     10  C   UNL     1      64.012  17.035  36.268  1.00  0.00    -0.000 C 
BRANCH  10  11
ATOM     11  C   UNL     1      65.342  17.790  36.435  1.00  0.00    -0.003 C 
ATOM     12  C   UNL     1      66.127  17.350  37.670  1.00  0.00     0.004 C 
ENDBRANCH  10  11
ENDBRANCH   9  10
ENDBRANCH   8   9
ENDBRANCH   7   8
ENDBRANCH   6   7
ENDBRANCH   5   6
ENDBRANCH   4   5
ENDBRANCH   3   4
ENDBRANCH   2   3
ENDBRANCH   1   2
BRANCH   1  13
ATOM     13  C   UNL     1      59.712  17.876  37.768  1.00  0.00     0.000 C 
BRANCH  13  14
ATOM     14  C   UNL     1      59.100  17.458  39.111  1.00  0.00     0.000 C 
BRANCH  14  15
ATOM     15  C   UNL     1      59.043  15.929  39.238  1.00  0.00     0.000 C 
BRANCH  15  16
ATOM     16  C   UNL     1      58.694  15.457  40.661  1.00  0.00     0.000 C 
BRANCH  16  17
ATOM     17  C   UNL     1      59.152  14.027  41.001  1.00  0.00     0.000 C 
BRANCH  17  18
ATOM     18  C   UNL     1      60.196  13.479  40.013  1.00  0.00     0.000 C 
BRANCH  18  19
ATOM     19  C   UNL     1      60.771  12.121  40.470  1.00  0.00     0.000 C 
BRANCH  19  20
ATOM     20  C   UNL     1      62.305  12.112  40.589  1.00  0.00     0.006 C 
BRANCH  20  21
ATOM     21  C   UNL     1      63.000  11.630  39.310  1.00  0.00     0.053 C 
BRANCH  21  22
ATOM     22  C   UNL     1      62.602  10.222  38.996  1.00  0.00     0.041 C 
ATOM     23  O   UNL     1      63.007   9.273  39.718  1.00  0.00    -0.550 OA
ATOM     24  O   UNL     1      61.825   9.953  37.876  1.00  0.00    -0.550 OA
ENDBRANCH  21  22
ENDBRANCH  20  21
ENDBRANCH  19  20
ENDBRANCH  18  19
ENDBRANCH  17  18
ENDBRANCH  16  17
ENDBRANCH  15  16
ENDBRANCH  14  15
ENDBRANCH  13  14
ENDBRANCH   1  13
TORSDOF 20
ENDMDL
MODEL 5
REMARK VINA RESULT:    -4.470      2.031      3.520
REMARK INTER + INTRA:         -13.394
REMARK INTER:                  -9.562
REMARK INTRA:                  -3.832
REMARK UNBOUND:                -3.698
REMARK SMILES CCCCCCCCCCCCCCCCCCCCCC(=O)[O-]
REMARK SMILES IDX 12 1 11 2 10 3 9 4 8 5 7 6 6 7 5 8 4 9 3 10 2 11 1 12 13 13
REMARK SMILES IDX 14 14 15 15 16 16 17 17 18 18 19 19 20 20 21 21 22 22 23 23
REMARK SMILES IDX 24 24
REMARK H PARENT
REMARK Flexibility Score: inf
ROOT
ATOM      1  C   UNL     1      61.509  14.891  38.139  1.00  0.00     0.000 C 
ENDROOT
BRANCH   1   2
ATOM      2  C   UNL     1      62.867  14.173  38.204  1.00  0.00     0.000 C 
BRANCH   2   3
ATOM      3  C   UNL     1      63.203  13.674  39.617  1.00  0.00     0.000 C 
BRANCH   3   4
ATOM      4  C   UNL     1      63.318  12.143  39.647  1.00  0.00    -0.000 C 
BRANCH   4   5
ATOM      5  C   UNL     1      62.398  11.489  40.695  1.00  0.00    -0.000 C 
BRANCH   5   6
ATOM      6  C   UNL     1      60.918  11.907  40.621  1.00  0.00    -0.000 C 
BRANCH   6   7
ATOM      7  C   UNL     1      60.084  10.999  39.701  1.00  0.00    -0.000 C 
BRANCH   7   8
ATOM      8  C   UNL     1      60.080  11.474  38.237  1.00  0.00    -0.000 C 
BRANCH   8   9
ATOM      9  C   UNL     1      60.913  10.614  37.264  1.00  0.00    -0.000 C 
BRANCH   9  10
ATOM     10  C   UNL     1      61.210   9.180  37.745  1.00  0.00    -0.000 C 
BRANCH  10  11
ATOM     11  C   UNL     1      62.701   8.800  37.761  1.00  0.00    -0.003 C 
ATOM     12  C   UNL     1      63.171   8.286  39.121  1.00  0.00     0.004 C 
ENDBRANCH  10  11
ENDBRANCH   9  10
ENDBRANCH   8   9
ENDBRANCH   7   8
ENDBRANCH   6   7
ENDBRANCH   5   6
ENDBRANCH   4   5
ENDBRANCH   3   4
ENDBRANCH   2   3
ENDBRANCH   1   2
BRANCH   1  13
ATOM     13  C   UNL     1      61.001  15.319  39.525  1.00  0.00     0.000 C 
BRANCH  13  14
ATOM     14  C   UNL     1      60.057  16.523  39.414  1.00  0.00     0.000 C 
BRANCH  14  15
ATOM     15  C   UNL     1      60.236  17.241  38.069  1.00  0.00     0.000 C 
BRANCH  15  16
ATOM     16  C   UNL     1      60.455  18.758  38.223  1.00  0.00     0.000 C 
BRANCH  16  17
ATOM     17  C   UNL     1      60.987  19.201  39.598  1.00  0.00     0.000 C 
BRANCH  17  18
ATOM     18  C   UNL     1      62.513  19.402  39.616  1.00  0.00     0.000 C 
BRANCH  18  19
ATOM     19  C   UNL     1      63.248  18.207  40.261  1.00  0.00     0.000 C 
BRANCH  19  20
ATOM     20  C   UNL     1      64.182  17.464  39.291  1.00  0.00     0.006 C 
BRANCH  20  21
ATOM     21  C   UNL     1      64.008  17.910  37.834  1.00  0.00     0.053 C 
BRANCH  21  22
ATOM     22  C   UNL     1      65.120  17.376  36.987  1.00  0.00     0.041 C 
ATOM     23  O   UNL     1      66.244  17.129  37.499  1.00  0.00    -0.550 OA
ATOM     24  O   UNL     1      64.930  17.199  35.622  1.00  0.00    -0.550 OA
ENDBRANCH  21  22
ENDBRANCH  20  21
ENDBRANCH  19  20
ENDBRANCH  18  19
ENDBRANCH  17  18
ENDBRANCH  16  17
ENDBRANCH  15  16
ENDBRANCH  14  15
ENDBRANCH  13  14
ENDBRANCH   1  13
TORSDOF 20
ENDMDL
MODEL 6
REMARK VINA RESULT:    -4.465      1.819      4.439
REMARK INTER + INTRA:         -13.383
REMARK INTER:                  -9.373
REMARK INTRA:                  -4.010
REMARK UNBOUND:                -3.698
REMARK SMILES CCCCCCCCCCCCCCCCCCCCCC(=O)[O-]
REMARK SMILES IDX 12 1 11 2 10 3 9 4 8 5 7 6 6 7 5 8 4 9 3 10 2 11 1 12 13 13
REMARK SMILES IDX 14 14 15 15 16 16 17 17 18 18 19 19 20 20 21 21 22 22 23 23
REMARK SMILES IDX 24 24
REMARK H PARENT
REMARK Flexibility Score: inf
ROOT
ATOM      1  C   UNL     1      60.912  18.840  38.254  1.00  0.00     0.000 C 
ENDROOT
BRANCH   1   2
ATOM      2  C   UNL     1      60.171  19.193  39.554  1.00  0.00     0.000 C 
BRANCH   2   3
ATOM      3  C   UNL     1      58.970  18.273  39.816  1.00  0.00     0.000 C 
BRANCH   3   4
ATOM      4  C   UNL     1      59.220  17.375  41.037  1.00  0.00    -0.000 C 
BRANCH   4   5
ATOM      5  C   UNL     1      58.962  15.884  40.751  1.00  0.00    -0.000 C 
BRANCH   5   6
ATOM      6  C   UNL     1      59.099  15.464  39.276  1.00  0.00    -0.000 C 
BRANCH   6   7
ATOM      7  C   UNL     1      59.232  13.943  39.096  1.00  0.00    -0.000 C 
BRANCH   7   8
ATOM      8  C   UNL     1      59.905  13.256  40.298  1.00  0.00    -0.000 C 
BRANCH   8   9
ATOM      9  C   UNL     1      60.802  12.050  39.948  1.00  0.00    -0.000 C 
BRANCH   9  10
ATOM     10  C   UNL     1      60.135  10.965  39.079  1.00  0.00    -0.000 C 
BRANCH  10  11
ATOM     11  C   UNL     1      60.924  10.570  37.819  1.00  0.00    -0.003 C 
ATOM     12  C   UNL     1      60.691  11.523  36.647  1.00  0.00     0.004 C 
ENDBRANCH  10  11
ENDBRANCH   9  10
ENDBRANCH   8   9
ENDBRANCH   7   8
ENDBRANCH   6   7
ENDBRANCH   5   6
ENDBRANCH   4   5
ENDBRANCH   3   4
ENDBRANCH   2   3
ENDBRANCH   1   2
BRANCH   1  13
ATOM     13  C   UNL     1      62.391  18.497  38.492  1.00  0.00     0.000 C 
BRANCH  13  14
ATOM     14  C   UNL     1      62.749  18.620  39.978  1.00  0.00     0.000 C 
BRANCH  14  15
ATOM     15  C   UNL     1      63.303  17.296  40.522  1.00  0.00     0.000 C 
BRANCH  15  16
ATOM     16  C   UNL     1      62.604  16.061  39.925  1.00  0.00     0.000 C 
BRANCH  16  17
ATOM     17  C   UNL     1      63.411  14.752  40.014  1.00  0.00     0.000 C 
BRANCH  17  18
ATOM     18  C   UNL     1      63.491  14.003  38.672  1.00  0.00     0.000 C 
BRANCH  18  19
ATOM     19  C   UNL     1      62.464  14.533  37.650  1.00  0.00     0.000 C 
BRANCH  19  20
ATOM     20  C   UNL     1      63.031  14.680  36.228  1.00  0.00     0.006 C 
BRANCH  20  21
ATOM     21  C   UNL     1      64.523  15.034  36.213  1.00  0.00     0.053 C 
BRANCH  21  22
ATOM     22  C   UNL     1      64.714  16.508  36.383  1.00  0.00     0.041 C 
ATOM     23  O   UNL     1      64.213  17.312  35.553  1.00  0.00    -0.550 OA
ATOM     24  O   UNL     1      65.487  16.993  37.431  1.00  0.00    -0.550 OA
ENDBRANCH  21  22
ENDBRANCH  20  21
ENDBRANCH  19  20
ENDBRANCH  18  19
ENDBRANCH  17  18
ENDBRANCH  16  17
ENDBRANCH  15  16
ENDBRANCH  14  15
ENDBRANCH  13  14
ENDBRANCH   1  13
TORSDOF 20
ENDMDL
MODEL 7
REMARK VINA RESULT:    -4.409      1.055      2.054
REMARK INTER + INTRA:         -13.262
REMARK INTER:                  -9.900
REMARK INTRA:                  -3.363
REMARK UNBOUND:                -3.698
REMARK SMILES CCCCCCCCCCCCCCCCCCCCCC(=O)[O-]
REMARK SMILES IDX 12 1 11 2 10 3 9 4 8 5 7 6 6 7 5 8 4 9 3 10 2 11 1 12 13 13
REMARK SMILES IDX 14 14 15 15 16 16 17 17 18 18 19 19 20 20 21 21 22 22 23 23
REMARK SMILES IDX 24 24
REMARK H PARENT
REMARK Flexibility Score: inf
ROOT
ATOM      1  C   UNL     1      64.766  14.504  36.731  1.00  0.00     0.000 C 
ENDROOT
BRANCH   1   2
ATOM      2  C   UNL     1      64.412  14.107  38.173  1.00  0.00     0.000 C 
BRANCH   2   3
ATOM      3  C   UNL     1      62.947  14.409  38.524  1.00  0.00     0.000 C 
BRANCH   3   4
ATOM      4  C   UNL     1      62.619  13.953  39.954  1.00  0.00    -0.000 C 
BRANCH   4   5
ATOM      5  C   UNL     1      62.728  12.428  40.140  1.00  0.00    -0.000 C 
BRANCH   5   6
ATOM      6  C   UNL     1      61.423  11.722  40.552  1.00  0.00    -0.000 C 
BRANCH   6   7
ATOM      7  C   UNL     1      61.313  10.294  39.991  1.00  0.00    -0.000 C 
BRANCH   7   8
ATOM      8  C   UNL     1      62.270  10.039  38.813  1.00  0.00    -0.000 C 
BRANCH   8   9
ATOM      9  C   UNL     1      61.590   9.634  37.489  1.00  0.00    -0.000 C 
BRANCH   9  10
ATOM     10  C   UNL     1      60.424  10.539  37.046  1.00  0.00    -0.000 C 
BRANCH  10  11
ATOM     11  C   UNL     1      60.825  11.983  36.693  1.00  0.00    -0.003 C 
ATOM     12  C   UNL     1      59.732  13.001  37.020  1.00  0.00     0.004 C 
ENDBRANCH  10  11
ENDBRANCH   9  10
ENDBRANCH   8   9
ENDBRANCH   7   8
ENDBRANCH   6   7
ENDBRANCH   5   6
ENDBRANCH   4   5
ENDBRANCH   3   4
ENDBRANCH   2   3
ENDBRANCH   1   2
BRANCH   1  13
ATOM     13  C   UNL     1      63.820  15.574  36.163  1.00  0.00     0.000 C 
BRANCH  13  14
ATOM     14  C   UNL     1      64.599  16.825  35.741  1.00  0.00     0.000 C 
BRANCH  14  15
ATOM     15  C   UNL     1      65.206  17.534  36.960  1.00  0.00     0.000 C 
BRANCH  15  16
ATOM     16  C   UNL     1      64.142  18.086  37.925  1.00  0.00     0.000 C 
BRANCH  16  17
ATOM     17  C   UNL     1      64.347  17.707  39.404  1.00  0.00     0.000 C 
BRANCH  17  18
ATOM     18  C   UNL     1      63.198  18.182  40.311  1.00  0.00     0.000 C 
BRANCH  18  19
ATOM     19  C   UNL     1      62.326  19.257  39.628  1.00  0.00     0.000 C 
BRANCH  19  20
ATOM     20  C   UNL     1      60.846  18.860  39.503  1.00  0.00     0.006 C 
BRANCH  20  21
ATOM     21  C   UNL     1      60.537  17.496  40.133  1.00  0.00     0.053 C 
BRANCH  21  22
ATOM     22  C   UNL     1      59.966  16.564  39.112  1.00  0.00     0.041 C 
ATOM     23  O   UNL     1      60.164  16.769  37.885  1.00  0.00    -0.550 OA
ATOM     24  O   UNL     1      59.173  15.496  39.513  1.00  0.00    -0.550 OA
ENDBRANCH  21  22
ENDBRANCH  20  21
ENDBRANCH  19  20
ENDBRANCH  18  19
ENDBRANCH  17  18
ENDBRANCH  16  17
ENDBRANCH  15  16
ENDBRANCH  14  15
ENDBRANCH  13  14
ENDBRANCH   1  13
TORSDOF 20
ENDMDL
MODEL 8
REMARK VINA RESULT:    -4.365      1.940      4.156
REMARK INTER + INTRA:         -13.167
REMARK INTER:                  -9.309
REMARK INTRA:                  -3.858
REMARK UNBOUND:                -3.698
REMARK SMILES CCCCCCCCCCCCCCCCCCCCCC(=O)[O-]
REMARK SMILES IDX 12 1 11 2 10 3 9 4 8 5 7 6 6 7 5 8 4 9 3 10 2 11 1 12 13 13
REMARK SMILES IDX 14 14 15 15 16 16 17 17 18 18 19 19 20 20 21 21 22 22 23 23
REMARK SMILES IDX 24 24
REMARK H PARENT
REMARK Flexibility Score: inf
ROOT
ATOM      1  C   UNL     1      59.566  18.401  39.310  1.00  0.00     0.000 C 
ENDROOT
BRANCH   1   2
ATOM      2  C   UNL     1      59.705  17.496  38.074  1.00  0.00     0.000 C 
BRANCH   2   3
ATOM      3  C   UNL     1      59.308  16.040  38.363  1.00  0.00     0.000 C 
BRANCH   3   4
ATOM      4  C   UNL     1      58.856  15.872  39.821  1.00  0.00    -0.000 C 
BRANCH   4   5
ATOM      5  C   UNL     1      59.371  14.572  40.466  1.00  0.00    -0.000 C 
BRANCH   5   6
ATOM      6  C   UNL     1      59.841  13.489  39.476  1.00  0.00    -0.000 C 
BRANCH   6   7
ATOM      7  C   UNL     1      60.596  12.338  40.162  1.00  0.00    -0.000 C 
BRANCH   7   8
ATOM      8  C   UNL     1      61.209  11.345  39.158  1.00  0.00    -0.000 C 
BRANCH   8   9
ATOM      9  C   UNL     1      61.029  11.716  37.672  1.00  0.00    -0.000 C 
BRANCH   9  10
ATOM     10  C   UNL     1      60.255  10.685  36.826  1.00  0.00    -0.000 C 
BRANCH  10  11
ATOM     11  C   UNL     1      58.741  10.939  36.722  1.00  0.00    -0.003 C 
ATOM     12  C   UNL     1      58.405  12.370  36.304  1.00  0.00     0.004 C 
ENDBRANCH  10  11
ENDBRANCH   9  10
ENDBRANCH   8   9
ENDBRANCH   7   8
ENDBRANCH   6   7
ENDBRANCH   5   6
ENDBRANCH   4   5
ENDBRANCH   3   4
ENDBRANCH   2   3
ENDBRANCH   1   2
BRANCH   1  13
ATOM     13  C   UNL     1      60.766  19.345  39.487  1.00  0.00     0.000 C 
BRANCH  13  14
ATOM     14  C   UNL     1      62.046  18.716  38.922  1.00  0.00     0.000 C 
BRANCH  14  15
ATOM     15  C   UNL     1      63.180  18.756  39.956  1.00  0.00     0.000 C 
BRANCH  15  16
ATOM     16  C   UNL     1      63.481  17.378  40.573  1.00  0.00     0.000 C 
BRANCH  16  17
ATOM     17  C   UNL     1      62.603  16.227  40.048  1.00  0.00     0.000 C 
BRANCH  17  18
ATOM     18  C   UNL     1      63.356  14.887  39.963  1.00  0.00     0.000 C 
BRANCH  18  19
ATOM     19  C   UNL     1      63.381  14.326  38.525  1.00  0.00     0.000 C 
BRANCH  19  20
ATOM     20  C   UNL     1      62.878  15.323  37.468  1.00  0.00     0.006 C 
BRANCH  20  21
ATOM     21  C   UNL     1      63.751  15.350  36.208  1.00  0.00     0.053 C 
BRANCH  21  22
ATOM     22  C   UNL     1      64.596  16.584  36.182  1.00  0.00     0.041 C 
ATOM     23  O   UNL     1      65.020  17.085  37.257  1.00  0.00    -0.550 OA
ATOM     24  O   UNL     1      64.873  17.212  34.974  1.00  0.00    -0.550 OA
ENDBRANCH  21  22
ENDBRANCH  20  21
ENDBRANCH  19  20
ENDBRANCH  18  19
ENDBRANCH  17  18
ENDBRANCH  16  17
ENDBRANCH  15  16
ENDBRANCH  14  15
ENDBRANCH  13  14
ENDBRANCH   1  13
TORSDOF 20
ENDMDL
MODEL 9
REMARK VINA RESULT:    -4.327      3.085      7.052
REMARK INTER + INTRA:         -13.084
REMARK INTER:                  -9.328
REMARK INTRA:                  -3.756
REMARK UNBOUND:                -3.698
REMARK SMILES CCCCCCCCCCCCCCCCCCCCCC(=O)[O-]
REMARK SMILES IDX 12 1 11 2 10 3 9 4 8 5 7 6 6 7 5 8 4 9 3 10 2 11 1 12 13 13
REMARK SMILES IDX 14 14 15 15 16 16 17 17 18 18 19 19 20 20 21 21 22 22 23 23
REMARK SMILES IDX 24 24
REMARK H PARENT
REMARK Flexibility Score: inf
ROOT
ATOM      1  C   UNL     1      60.829  14.829  37.762  1.00  0.00     0.000 C 
ENDROOT
BRANCH   1   2
ATOM      2  C   UNL     1      62.175  14.873  37.019  1.00  0.00     0.000 C 
BRANCH   2   3
ATOM      3  C   UNL     1      63.367  14.578  37.942  1.00  0.00     0.000 C 
BRANCH   3   4
ATOM      4  C   UNL     1      64.684  15.052  37.308  1.00  0.00    -0.000 C 
BRANCH   4   5
ATOM      5  C   UNL     1      64.514  15.535  35.855  1.00  0.00    -0.000 C 
BRANCH   5   6
ATOM      6  C   UNL     1      64.926  16.996  35.597  1.00  0.00    -0.000 C 
BRANCH   6   7
ATOM      7  C   UNL     1      64.963  17.844  36.879  1.00  0.00    -0.000 C 
BRANCH   7   8
ATOM      8  C   UNL     1      63.666  18.642  37.105  1.00  0.00    -0.000 C 
BRANCH   8   9
ATOM      9  C   UNL     1      62.969  18.395  38.459  1.00  0.00    -0.000 C 
BRANCH   9  10
ATOM     10  C   UNL     1      63.902  17.970  39.610  1.00  0.00    -0.000 C 
BRANCH  10  11
ATOM     11  C   UNL     1      63.200  17.268  40.785  1.00  0.00    -0.003 C 
ATOM     12  C   UNL     1      61.736  16.939  40.494  1.00  0.00     0.004 C 
ENDBRANCH  10  11
ENDBRANCH   9  10
ENDBRANCH   8   9
ENDBRANCH   7   8
ENDBRANCH   6   7
ENDBRANCH   5   6
ENDBRANCH   4   5
ENDBRANCH   3   4
ENDBRANCH   2   3
ENDBRANCH   1   2
BRANCH   1  13
ATOM     13  C   UNL     1      59.830  13.856  37.116  1.00  0.00     0.000 C 
BRANCH  13  14
ATOM     14  C   UNL     1      60.442  12.457  36.973  1.00  0.00     0.000 C 
BRANCH  14  15
ATOM     15  C   UNL     1      59.519  11.389  37.577  1.00  0.00     0.000 C 
BRANCH  15  16
ATOM     16  C   UNL     1      58.789  11.872  38.844  1.00  0.00     0.000 C 
BRANCH  16  17
ATOM     17  C   UNL     1      59.438  11.439  40.172  1.00  0.00     0.000 C 
BRANCH  17  18
ATOM     18  C   UNL     1      60.206  12.578  40.865  1.00  0.00     0.000 C 
BRANCH  18  19
ATOM     19  C   UNL     1      61.694  12.607  40.454  1.00  0.00     0.000 C 
BRANCH  19  20
ATOM     20  C   UNL     1      62.401  11.250  40.610  1.00  0.00     0.006 C 
BRANCH  20  21
ATOM     21  C   UNL     1      62.888  10.673  39.275  1.00  0.00     0.053 C 
BRANCH  21  22
ATOM     22  C   UNL     1      62.598   9.207  39.200  1.00  0.00     0.041 C 
ATOM     23  O   UNL     1      61.418   8.802  39.029  1.00  0.00    -0.550 OA
ATOM     24  O   UNL     1      63.624   8.286  39.371  1.00  0.00    -0.550 OA
ENDBRANCH  21  22
ENDBRANCH  20  21
ENDBRANCH  19  20
ENDBRANCH  18  19
ENDBRANCH  17  18
ENDBRANCH  16  17
ENDBRANCH  15  16
ENDBRANCH  14  15
ENDBRANCH  13  14
ENDBRANCH   1  13
TORSDOF 20
ENDMDL
