MODEL 1
REMARK VINA RESULT:    -5.345      0.000      0.000
REMARK INTER + INTRA:         -14.277
REMARK INTER:                 -11.593
REMARK INTRA:                  -2.683
REMARK UNBOUND:                -2.683
REMARK SMILES CCCCCCCCCCCCCCCCCCCCCC(=O)[O-]
REMARK SMILES IDX 12 1 11 2 10 3 9 4 8 5 7 6 6 7 5 8 4 9 3 10 2 11 1 12 13 13
REMARK SMILES IDX 14 14 15 15 16 16 17 17 18 18 19 19 20 20 21 21 22 22 23 23
REMARK SMILES IDX 24 24
REMARK H PARENT
REMARK Flexibility Score: inf
ROOT
ATOM      1  C   UNL     1      28.142 -10.606  15.378  1.00  0.00     0.000 C 
ENDROOT
BRANCH   1   2
ATOM      2  C   UNL     1      29.568 -10.029  15.319  1.00  0.00     0.000 C 
BRANCH   2   3
ATOM      3  C   UNL     1      30.480 -10.580  16.425  1.00  0.00     0.000 C 
BRANCH   3   4
ATOM      4  C   UNL     1      30.900  -9.469  17.396  1.00  0.00    -0.000 C 
BRANCH   4   5
ATOM      5  C   UNL     1      32.412  -9.224  17.330  1.00  0.00    -0.000 C 
BRANCH   5   6
ATOM      6  C   UNL     1      32.797  -8.502  16.033  1.00  0.00    -0.000 C 
BRANCH   6   7
ATOM      7  C   UNL     1      32.253  -7.066  16.022  1.00  0.00    -0.000 C 
BRANCH   7   8
ATOM      8  C   UNL     1      31.510  -6.719  14.722  1.00  0.00    -0.000 C 
BRANCH   8   9
ATOM      9  C   UNL     1      30.126  -6.069  14.918  1.00  0.00    -0.000 C 
BRANCH   9  10
ATOM     10  C   UNL     1      29.674  -5.999  16.392  1.00  0.00    -0.000 C 
BRANCH  10  11
ATOM     11  C   UNL     1      28.402  -6.819  16.652  1.00  0.00    -0.003 C 
ATOM     12  C   UNL     1      28.225  -7.098  18.143  1.00  0.00     0.004 C 
ENDBRANCH  10  11
ENDBRANCH   9  10
ENDBRANCH   8   9
ENDBRANCH   7   8
ENDBRANCH   6   7
ENDBRANCH   5   6
ENDBRANCH   4   5
ENDBRANCH   3   4
ENDBRANCH   2   3
ENDBRANCH   1   2
BRANCH   1  13
ATOM     13  C   UNL     1      27.733 -11.188  16.746  1.00  0.00     0.000 C 
BRANCH  13  14
ATOM     14  C   UNL     1      26.724 -10.338  17.544  1.00  0.00     0.000 C 
BRANCH  14  15
ATOM     15  C   UNL     1      25.268 -10.835  17.498  1.00  0.00     0.000 C 
BRANCH  15  16
ATOM     16  C   UNL     1      25.006 -11.822  16.347  1.00  0.00     0.000 C 
BRANCH  16  17
ATOM     17  C   UNL     1      23.923 -12.855  16.703  1.00  0.00     0.000 C 
BRANCH  17  18
ATOM     18  C   UNL     1      23.084 -12.432  17.918  1.00  0.00     0.000 C 
BRANCH  18  19
ATOM     19  C   UNL     1      23.250 -13.431  19.073  1.00  0.00     0.000 C 
BRANCH  19  20
ATOM     20  C   UNL     1      22.705 -12.882  20.407  1.00  0.00     0.006 C 
BRANCH  20  21
ATOM     21  C   UNL     1      22.461 -11.365  20.388  1.00  0.00     0.053 C 
BRANCH  21  22
ATOM     22  C   UNL     1      23.360 -10.633  21.336  1.00  0.00     0.041 C 
ATOM     23  O   UNL     1      23.260 -10.821  22.578  1.00  0.00    -0.550 OA
ATOM     24  O   UNL     1      24.296  -9.727  20.849  1.00  0.00    -0.550 OA
ENDBRANCH  21  22
ENDBRANCH  20  21
ENDBRANCH  19  20
ENDBRANCH  18  19
ENDBRANCH  17  18
ENDBRANCH  16  17
ENDBRANCH  15  16
ENDBRANCH  14  15
ENDBRANCH  13  14
ENDBRANCH   1  13
TORSDOF 20
ENDMDL
MODEL 2
REMARK VINA RESULT:    -5.328      2.082      3.704
REMARK INTER + INTRA:         -14.240
REMARK INTER:                 -11.392
REMARK INTRA:                  -2.848
REMARK UNBOUND:                -2.683
REMARK SMILES CCCCCCCCCCCCCCCCCCCCCC(=O)[O-]
REMARK SMILES IDX 12 1 11 2 10 3 9 4 8 5 7 6 6 7 5 8 4 9 3 10 2 11 1 12 13 13
REMARK SMILES IDX 14 14 15 15 16 16 17 17 18 18 19 19 20 20 21 21 22 22 23 23
REMARK SMILES IDX 24 24
REMARK H PARENT
REMARK Flexibility Score: inf
ROOT
ATOM      1  C   UNL     1      27.020  -9.498  18.046  1.00  0.00     0.000 C 
ENDROOT
BRANCH   1   2
ATOM      2  C   UNL     1      27.284  -9.717  16.545  1.00  0.00     0.000 C 
BRANCH   2   3
ATOM      3  C   UNL     1      27.903 -11.091  16.244  1.00  0.00     0.000 C 
BRANCH   3   4
ATOM      4  C   UNL     1      28.662 -11.071  14.911  1.00  0.00    -0.000 C 
BRANCH   4   5
ATOM      5  C   UNL     1      29.952 -10.251  15.024  1.00  0.00    -0.000 C 
BRANCH   5   6
ATOM      6  C   UNL     1      30.788 -10.702  16.228  1.00  0.00    -0.000 C 
BRANCH   6   7
ATOM      7  C   UNL     1      31.595  -9.530  16.806  1.00  0.00    -0.000 C 
BRANCH   7   8
ATOM      8  C   UNL     1      30.847  -8.783  17.922  1.00  0.00    -0.000 C 
BRANCH   8   9
ATOM      9  C   UNL     1      30.136  -7.491  17.475  1.00  0.00    -0.000 C 
BRANCH   9  10
ATOM     10  C   UNL     1      30.889  -6.714  16.374  1.00  0.00    -0.000 C 
BRANCH  10  11
ATOM     11  C   UNL     1      30.121  -6.695  15.044  1.00  0.00    -0.003 C 
ATOM     12  C   UNL     1      28.618  -6.568  15.279  1.00  0.00     0.004 C 
ENDBRANCH  10  11
ENDBRANCH   9  10
ENDBRANCH   8   9
ENDBRANCH   7   8
ENDBRANCH   6   7
ENDBRANCH   5   6
ENDBRANCH   4   5
ENDBRANCH   3   4
ENDBRANCH   2   3
ENDBRANCH   1   2
BRANCH   1  13
ATOM     13  C   UNL     1      25.687 -10.076  18.563  1.00  0.00     0.000 C 
BRANCH  13  14
ATOM     14  C   UNL     1      25.305  -9.659  19.997  1.00  0.00     0.000 C 
BRANCH  14  15
ATOM     15  C   UNL     1      23.810  -9.783  20.339  1.00  0.00     0.000 C 
BRANCH  15  16
ATOM     16  C   UNL     1      23.561 -10.287  21.771  1.00  0.00     0.000 C 
BRANCH  16  17
ATOM     17  C   UNL     1      22.758 -11.599  21.793  1.00  0.00     0.000 C 
BRANCH  17  18
ATOM     18  C   UNL     1      22.231 -11.990  20.405  1.00  0.00     0.000 C 
BRANCH  18  19
ATOM     19  C   UNL     1      22.748 -13.375  19.991  1.00  0.00     0.000 C 
BRANCH  19  20
ATOM     20  C   UNL     1      23.612 -13.323  18.715  1.00  0.00     0.006 C 
BRANCH  20  21
ATOM     21  C   UNL     1      23.063 -12.366  17.646  1.00  0.00     0.053 C 
BRANCH  21  22
ATOM     22  C   UNL     1      23.788 -12.496  16.342  1.00  0.00     0.041 C 
ATOM     23  O   UNL     1      24.006 -13.635  15.848  1.00  0.00    -0.550 OA
ATOM     24  O   UNL     1      24.242 -11.359  15.681  1.00  0.00    -0.550 OA
ENDBRANCH  21  22
ENDBRANCH  20  21
ENDBRANCH  19  20
ENDBRANCH  18  19
ENDBRANCH  17  18
ENDBRANCH  16  17
ENDBRANCH  15  16
ENDBRANCH  14  15
ENDBRANCH  13  14
ENDBRANCH   1  13
TORSDOF 20
ENDMDL
MODEL 3
REMARK VINA RESULT:    -5.279      4.080      8.900
REMARK INTER + INTRA:         -14.134
REMARK INTER:                 -11.777
REMARK INTRA:                  -2.357
REMARK UNBOUND:                -2.683
REMARK SMILES CCCCCCCCCCCCCCCCCCCCCC(=O)[O-]
REMARK SMILES IDX 12 1 11 2 10 3 9 4 8 5 7 6 6 7 5 8 4 9 3 10 2 11 1 12 13 13
REMARK SMILES IDX 14 14 15 15 16 16 17 17 18 18 19 19 20 20 21 21 22 22 23 23
REMARK SMILES IDX 24 24
REMARK H PARENT
REMARK Flexibility Score: inf
ROOT
ATOM      1  C   UNL     1      29.538 -11.065  16.280  1.00  0.00     0.000 C 
ENDROOT
BRANCH   1   2
ATOM      2  C   UNL     1      28.723 -10.958  14.978  1.00  0.00     0.000 C 
BRANCH   2   3
ATOM      3  C   UNL     1      27.233 -10.683  15.230  1.00  0.00     0.000 C 
BRANCH   3   4
ATOM      4  C   UNL     1      26.808 -11.186  16.615  1.00  0.00    -0.000 C 
BRANCH   4   5
ATOM      5  C   UNL     1      25.306 -10.975  16.840  1.00  0.00    -0.000 C 
BRANCH   5   6
ATOM      6  C   UNL     1      24.481 -11.728  15.789  1.00  0.00    -0.000 C 
BRANCH   6   7
ATOM      7  C   UNL     1      23.405 -12.598  16.457  1.00  0.00    -0.000 C 
BRANCH   7   8
ATOM      8  C   UNL     1      23.684 -12.853  17.947  1.00  0.00    -0.000 C 
BRANCH   8   9
ATOM      9  C   UNL     1      22.617 -12.299  18.912  1.00  0.00    -0.000 C 
BRANCH   9  10
ATOM     10  C   UNL     1      22.704 -12.883  20.338  1.00  0.00    -0.000 C 
BRANCH  10  11
ATOM     11  C   UNL     1      22.669 -11.793  21.418  1.00  0.00    -0.003 C 
ATOM     12  C   UNL     1      23.379 -10.526  20.944  1.00  0.00     0.004 C 
ENDBRANCH  10  11
ENDBRANCH   9  10
ENDBRANCH   8   9
ENDBRANCH   7   8
ENDBRANCH   6   7
ENDBRANCH   5   6
ENDBRANCH   4   5
ENDBRANCH   3   4
ENDBRANCH   2   3
ENDBRANCH   1   2
BRANCH   1  13
ATOM     13  C   UNL     1      30.683 -10.042  16.416  1.00  0.00     0.000 C 
BRANCH  13  14
ATOM     14  C   UNL     1      30.397  -8.862  17.366  1.00  0.00     0.000 C 
BRANCH  14  15
ATOM     15  C   UNL     1      29.047  -8.926  18.102  1.00  0.00     0.000 C 
BRANCH  15  16
ATOM     16  C   UNL     1      28.020  -7.915  17.562  1.00  0.00     0.000 C 
BRANCH  16  17
ATOM     17  C   UNL     1      28.693  -6.676  16.947  1.00  0.00     0.000 C 
BRANCH  17  18
ATOM     18  C   UNL     1      28.464  -6.573  15.432  1.00  0.00     0.000 C 
BRANCH  18  19
ATOM     19  C   UNL     1      29.595  -5.782  14.759  1.00  0.00     0.000 C 
BRANCH  19  20
ATOM     20  C   UNL     1      30.742  -6.692  14.274  1.00  0.00     0.006 C 
BRANCH  20  21
ATOM     21  C   UNL     1      32.124  -6.252  14.780  1.00  0.00     0.053 C 
BRANCH  21  22
ATOM     22  C   UNL     1      32.975  -5.684  13.686  1.00  0.00     0.041 C 
ATOM     23  O   UNL     1      32.605  -4.650  13.067  1.00  0.00    -0.550 OA
ATOM     24  O   UNL     1      34.167  -6.309  13.335  1.00  0.00    -0.550 OA
ENDBRANCH  21  22
ENDBRANCH  20  21
ENDBRANCH  19  20
ENDBRANCH  18  19
ENDBRANCH  17  18
ENDBRANCH  16  17
ENDBRANCH  15  16
ENDBRANCH  14  15
ENDBRANCH  13  14
ENDBRANCH   1  13
TORSDOF 20
ENDMDL
MODEL 4
REMARK VINA RESULT:    -5.212      1.039      2.093
REMARK INTER + INTRA:         -13.990
REMARK INTER:                 -11.313
REMARK INTRA:                  -2.677
REMARK UNBOUND:                -2.683
REMARK SMILES CCCCCCCCCCCCCCCCCCCCCC(=O)[O-]
REMARK SMILES IDX 12 1 11 2 10 3 9 4 8 5 7 6 6 7 5 8 4 9 3 10 2 11 1 12 13 13
REMARK SMILES IDX 14 14 15 15 16 16 17 17 18 18 19 19 20 20 21 21 22 22 23 23
REMARK SMILES IDX 24 24
REMARK H PARENT
REMARK Flexibility Score: inf
ROOT
ATOM      1  C   UNL     1      29.884 -11.165  16.031  1.00  0.00     0.000 C 
ENDROOT
BRANCH   1   2
ATOM      2  C   UNL     1      31.214 -10.405  15.881  1.00  0.00     0.000 C 
BRANCH   2   3
ATOM      3  C   UNL     1      31.525  -9.505  17.086  1.00  0.00     0.000 C 
BRANCH   3   4
ATOM      4  C   UNL     1      30.807  -8.155  16.964  1.00  0.00    -0.000 C 
BRANCH   4   5
ATOM      5  C   UNL     1      31.705  -7.114  16.286  1.00  0.00    -0.000 C 
BRANCH   5   6
ATOM      6  C   UNL     1      30.919  -6.296  15.255  1.00  0.00    -0.000 C 
BRANCH   6   7
ATOM      7  C   UNL     1      29.545  -6.928  14.984  1.00  0.00    -0.000 C 
BRANCH   7   8
ATOM      8  C   UNL     1      28.406  -5.896  14.968  1.00  0.00    -0.000 C 
BRANCH   8   9
ATOM      9  C   UNL     1      28.523  -4.782  16.026  1.00  0.00    -0.000 C 
BRANCH   9  10
ATOM     10  C   UNL     1      27.622  -4.997  17.260  1.00  0.00    -0.000 C 
BRANCH  10  11
ATOM     11  C   UNL     1      28.328  -5.793  18.367  1.00  0.00    -0.003 C 
ATOM     12  C   UNL     1      27.807  -7.227  18.431  1.00  0.00     0.004 C 
ENDBRANCH  10  11
ENDBRANCH   9  10
ENDBRANCH   8   9
ENDBRANCH   7   8
ENDBRANCH   6   7
ENDBRANCH   5   6
ENDBRANCH   4   5
ENDBRANCH   3   4
ENDBRANCH   2   3
ENDBRANCH   1   2
BRANCH   1  13
ATOM     13  C   UNL     1      28.770 -10.725  15.060  1.00  0.00     0.000 C 
BRANCH  13  14
ATOM     14  C   UNL     1      27.559 -10.037  15.720  1.00  0.00     0.000 C 
BRANCH  14  15
ATOM     15  C   UNL     1      27.164 -10.590  17.101  1.00  0.00     0.000 C 
BRANCH  15  16
ATOM     16  C   UNL     1      25.650 -10.824  17.244  1.00  0.00     0.000 C 
BRANCH  16  17
ATOM     17  C   UNL     1      25.027 -11.392  15.958  1.00  0.00     0.000 C 
BRANCH  17  18
ATOM     18  C   UNL     1      23.806 -12.281  16.238  1.00  0.00     0.000 C 
BRANCH  18  19
ATOM     19  C   UNL     1      23.864 -12.860  17.659  1.00  0.00     0.000 C 
BRANCH  19  20
ATOM     20  C   UNL     1      22.644 -12.453  18.510  1.00  0.00     0.006 C 
BRANCH  20  21
ATOM     21  C   UNL     1      22.831 -12.723  20.011  1.00  0.00     0.053 C 
BRANCH  21  22
ATOM     22  C   UNL     1      23.039 -11.462  20.793  1.00  0.00     0.041 C 
ATOM     23  O   UNL     1      23.519 -10.440  20.231  1.00  0.00    -0.550 OA
ATOM     24  O   UNL     1      22.724 -11.422  22.146  1.00  0.00    -0.550 OA
ENDBRANCH  21  22
ENDBRANCH  20  21
ENDBRANCH  19  20
ENDBRANCH  18  19
ENDBRANCH  17  18
ENDBRANCH  16  17
ENDBRANCH  15  16
ENDBRANCH  14  15
ENDBRANCH  13  14
ENDBRANCH   1  13
TORSDOF 20
ENDMDL
MODEL 5
REMARK VINA RESULT:    -5.093      2.907      8.057
REMARK INTER + INTRA:         -13.732
REMARK INTER:                 -11.898
REMARK INTRA:                  -1.833
REMARK UNBOUND:                -2.683
REMARK SMILES CCCCCCCCCCCCCCCCCCCCCC(=O)[O-]
REMARK SMILES IDX 12 1 11 2 10 3 9 4 8 5 7 6 6 7 5 8 4 9 3 10 2 11 1 12 13 13
REMARK SMILES IDX 14 14 15 15 16 16 17 17 18 18 19 19 20 20 21 21 22 22 23 23
REMARK SMILES IDX 24 24
REMARK H PARENT
REMARK Flexibility Score: inf
ROOT
ATOM      1  C   UNL     1      29.483 -11.246  16.369  1.00  0.00     0.000 C 
ENDROOT
BRANCH   1   2
ATOM      2  C   UNL     1      28.366 -10.346  16.928  1.00  0.00     0.000 C 
BRANCH   2   3
ATOM      3  C   UNL     1      27.420  -9.824  15.836  1.00  0.00     0.000 C 
BRANCH   3   4
ATOM      4  C   UNL     1      26.795 -10.983  15.050  1.00  0.00    -0.000 C 
BRANCH   4   5
ATOM      5  C   UNL     1      25.277 -11.033  15.258  1.00  0.00    -0.000 C 
BRANCH   5   6
ATOM      6  C   UNL     1      24.930 -11.495  16.678  1.00  0.00    -0.000 C 
BRANCH   6   7
ATOM      7  C   UNL     1      23.902 -12.637  16.648  1.00  0.00    -0.000 C 
BRANCH   7   8
ATOM      8  C   UNL     1      22.698 -12.380  17.569  1.00  0.00    -0.000 C 
BRANCH   8   9
ATOM      9  C   UNL     1      22.933 -12.714  19.055  1.00  0.00    -0.000 C 
BRANCH   9  10
ATOM     10  C   UNL     1      23.056 -11.470  19.961  1.00  0.00    -0.000 C 
BRANCH  10  11
ATOM     11  C   UNL     1      22.641 -11.761  21.411  1.00  0.00    -0.003 C 
ATOM     12  C   UNL     1      23.009 -10.600  22.331  1.00  0.00     0.004 C 
ENDBRANCH  10  11
ENDBRANCH   9  10
ENDBRANCH   8   9
ENDBRANCH   7   8
ENDBRANCH   6   7
ENDBRANCH   5   6
ENDBRANCH   4   5
ENDBRANCH   3   4
ENDBRANCH   2   3
ENDBRANCH   1   2
BRANCH   1  13
ATOM     13  C   UNL     1      30.718 -10.493  15.835  1.00  0.00     0.000 C 
BRANCH  13  14
ATOM     14  C   UNL     1      31.713 -10.018  16.913  1.00  0.00     0.000 C 
BRANCH  14  15
ATOM     15  C   UNL     1      31.633  -8.522  17.265  1.00  0.00     0.000 C 
BRANCH  15  16
ATOM     16  C   UNL     1      30.943  -7.684  16.174  1.00  0.00     0.000 C 
BRANCH  16  17
ATOM     17  C   UNL     1      30.320  -6.396  16.739  1.00  0.00     0.000 C 
BRANCH  17  18
ATOM     18  C   UNL     1      29.488  -6.651  18.004  1.00  0.00     0.000 C 
BRANCH  18  19
ATOM     19  C   UNL     1      28.054  -6.129  17.832  1.00  0.00     0.000 C 
BRANCH  19  20
ATOM     20  C   UNL     1      27.789  -5.595  16.409  1.00  0.00     0.006 C 
BRANCH  20  21
ATOM     21  C   UNL     1      27.253  -4.156  16.389  1.00  0.00     0.053 C 
BRANCH  21  22
ATOM     22  C   UNL     1      26.214  -3.951  15.329  1.00  0.00     0.041 C 
ATOM     23  O   UNL     1      25.072  -3.515  15.635  1.00  0.00    -0.550 OA
ATOM     24  O   UNL     1      26.501  -4.263  14.004  1.00  0.00    -0.550 OA
ENDBRANCH  21  22
ENDBRANCH  20  21
ENDBRANCH  19  20
ENDBRANCH  18  19
ENDBRANCH  17  18
ENDBRANCH  16  17
ENDBRANCH  15  16
ENDBRANCH  14  15
ENDBRANCH  13  14
ENDBRANCH   1  13
TORSDOF 20
ENDMDL
MODEL 6
REMARK VINA RESULT:    -5.056      1.067      3.023
REMARK INTER + INTRA:         -13.650
REMARK INTER:                 -10.643
REMARK INTRA:                  -3.007
REMARK UNBOUND:                -2.683
REMARK SMILES CCCCCCCCCCCCCCCCCCCCCC(=O)[O-]
REMARK SMILES IDX 12 1 11 2 10 3 9 4 8 5 7 6 6 7 5 8 4 9 3 10 2 11 1 12 13 13
REMARK SMILES IDX 14 14 15 15 16 16 17 17 18 18 19 19 20 20 21 21 22 22 23 23
REMARK SMILES IDX 24 24
REMARK H PARENT
REMARK Flexibility Score: inf
ROOT
ATOM      1  C   UNL     1      28.023  -8.438  18.215  1.00  0.00     0.000 C 
ENDROOT
BRANCH   1   2
ATOM      2  C   UNL     1      28.174  -7.680  16.883  1.00  0.00     0.000 C 
BRANCH   2   3
ATOM      3  C   UNL     1      28.747  -6.267  17.064  1.00  0.00     0.000 C 
BRANCH   3   4
ATOM      4  C   UNL     1      28.755  -5.502  15.735  1.00  0.00    -0.000 C 
BRANCH   4   5
ATOM      5  C   UNL     1      30.177  -5.392  15.172  1.00  0.00    -0.000 C 
BRANCH   5   6
ATOM      6  C   UNL     1      30.615  -6.710  14.521  1.00  0.00    -0.000 C 
BRANCH   6   7
ATOM      7  C   UNL     1      32.048  -7.077  14.936  1.00  0.00    -0.000 C 
BRANCH   7   8
ATOM      8  C   UNL     1      32.222  -7.173  16.460  1.00  0.00    -0.000 C 
BRANCH   8   9
ATOM      9  C   UNL     1      31.726  -8.490  17.089  1.00  0.00    -0.000 C 
BRANCH   9  10
ATOM     10  C   UNL     1      31.803  -9.702  16.138  1.00  0.00    -0.000 C 
BRANCH  10  11
ATOM     11  C   UNL     1      30.560 -10.600  16.233  1.00  0.00    -0.003 C 
ATOM     12  C   UNL     1      29.914 -10.791  14.863  1.00  0.00     0.004 C 
ENDBRANCH  10  11
ENDBRANCH   9  10
ENDBRANCH   8   9
ENDBRANCH   7   8
ENDBRANCH   6   7
ENDBRANCH   5   6
ENDBRANCH   4   5
ENDBRANCH   3   4
ENDBRANCH   2   3
ENDBRANCH   1   2
BRANCH   1  13
ATOM     13  C   UNL     1      26.890  -9.483  18.244  1.00  0.00     0.000 C 
BRANCH  13  14
ATOM     14  C   UNL     1      27.337 -10.941  18.022  1.00  0.00     0.000 C 
BRANCH  14  15
ATOM     15  C   UNL     1      26.865 -11.578  16.703  1.00  0.00     0.000 C 
BRANCH  15  16
ATOM     16  C   UNL     1      26.020 -10.622  15.843  1.00  0.00     0.000 C 
BRANCH  16  17
ATOM     17  C   UNL     1      24.654 -11.226  15.476  1.00  0.00     0.000 C 
BRANCH  17  18
ATOM     18  C   UNL     1      24.365 -12.531  16.233  1.00  0.00     0.000 C 
BRANCH  18  19
ATOM     19  C   UNL     1      23.231 -12.336  17.249  1.00  0.00     0.000 C 
BRANCH  19  20
ATOM     20  C   UNL     1      23.754 -12.193  18.693  1.00  0.00     0.006 C 
BRANCH  20  21
ATOM     21  C   UNL     1      22.636 -11.998  19.729  1.00  0.00     0.053 C 
BRANCH  21  22
ATOM     22  C   UNL     1      23.075 -11.154  20.886  1.00  0.00     0.041 C 
ATOM     23  O   UNL     1      22.752 -11.473  22.062  1.00  0.00    -0.550 OA
ATOM     24  O   UNL     1      23.823 -10.003  20.664  1.00  0.00    -0.550 OA
ENDBRANCH  21  22
ENDBRANCH  20  21
ENDBRANCH  19  20
ENDBRANCH  18  19
ENDBRANCH  17  18
ENDBRANCH  16  17
ENDBRANCH  15  16
ENDBRANCH  14  15
ENDBRANCH  13  14
ENDBRANCH   1  13
TORSDOF 20
ENDMDL
MODEL 7
REMARK VINA RESULT:    -5.051      1.325      2.206
REMARK INTER + INTRA:         -13.641
REMARK INTER:                 -11.210
REMARK INTRA:                  -2.431
REMARK UNBOUND:                -2.683
REMARK SMILES CCCCCCCCCCCCCCCCCCCCCC(=O)[O-]
REMARK SMILES IDX 12 1 11 2 10 3 9 4 8 5 7 6 6 7 5 8 4 9 3 10 2 11 1 12 13 13
REMARK SMILES IDX 14 14 15 15 16 16 17 17 18 18 19 19 20 20 21 21 22 22 23 23
REMARK SMILES IDX 24 24
REMARK H PARENT
REMARK Flexibility Score: inf
ROOT
ATOM      1  C   UNL     1      28.537 -11.009  14.858  1.00  0.00     0.000 C 
ENDROOT
BRANCH   1   2
ATOM      2  C   UNL     1      29.784 -11.224  15.734  1.00  0.00     0.000 C 
BRANCH   2   3
ATOM      3  C   UNL     1      30.850 -10.138  15.529  1.00  0.00     0.000 C 
BRANCH   3   4
ATOM      4  C   UNL     1      31.394  -9.641  16.874  1.00  0.00    -0.000 C 
BRANCH   4   5
ATOM      5  C   UNL     1      30.671  -8.365  17.323  1.00  0.00    -0.000 C 
BRANCH   5   6
ATOM      6  C   UNL     1      30.187  -7.553  16.116  1.00  0.00    -0.000 C 
BRANCH   6   7
ATOM      7  C   UNL     1      28.907  -6.774  16.456  1.00  0.00    -0.000 C 
BRANCH   7   8
ATOM      8  C   UNL     1      28.679  -6.634  17.970  1.00  0.00    -0.000 C 
BRANCH   8   9
ATOM      9  C   UNL     1      28.243  -5.230  18.434  1.00  0.00    -0.000 C 
BRANCH   9  10
ATOM     10  C   UNL     1      28.176  -4.191  17.295  1.00  0.00    -0.000 C 
BRANCH  10  11
ATOM     11  C   UNL     1      29.236  -3.089  17.447  1.00  0.00    -0.003 C 
ATOM     12  C   UNL     1      30.498  -3.427  16.658  1.00  0.00     0.004 C 
ENDBRANCH  10  11
ENDBRANCH   9  10
ENDBRANCH   8   9
ENDBRANCH   7   8
ENDBRANCH   6   7
ENDBRANCH   5   6
ENDBRANCH   4   5
ENDBRANCH   3   4
ENDBRANCH   2   3
ENDBRANCH   1   2
BRANCH   1  13
ATOM     13  C   UNL     1      27.486 -10.047  15.448  1.00  0.00     0.000 C 
BRANCH  13  14
ATOM     14  C   UNL     1      27.451  -9.980  16.988  1.00  0.00     0.000 C 
BRANCH  14  15
ATOM     15  C   UNL     1      26.409 -10.892  17.659  1.00  0.00     0.000 C 
BRANCH  15  16
ATOM     16  C   UNL     1      25.012 -10.778  17.023  1.00  0.00     0.000 C 
BRANCH  16  17
ATOM     17  C   UNL     1      24.517 -12.124  16.467  1.00  0.00     0.000 C 
BRANCH  17  18
ATOM     18  C   UNL     1      23.183 -12.563  17.089  1.00  0.00     0.000 C 
BRANCH  18  19
ATOM     19  C   UNL     1      23.344 -12.848  18.589  1.00  0.00     0.000 C 
BRANCH  19  20
ATOM     20  C   UNL     1      22.396 -11.992  19.455  1.00  0.00     0.006 C 
BRANCH  20  21
ATOM     21  C   UNL     1      22.763 -11.999  20.947  1.00  0.00     0.053 C 
BRANCH  21  22
ATOM     22  C   UNL     1      23.306 -10.679  21.404  1.00  0.00     0.041 C 
ATOM     23  O   UNL     1      23.219 -10.343  22.616  1.00  0.00    -0.550 OA
ATOM     24  O   UNL     1      23.889  -9.812  20.487  1.00  0.00    -0.550 OA
ENDBRANCH  21  22
ENDBRANCH  20  21
ENDBRANCH  19  20
ENDBRANCH  18  19
ENDBRANCH  17  18
ENDBRANCH  16  17
ENDBRANCH  15  16
ENDBRANCH  14  15
ENDBRANCH  13  14
ENDBRANCH   1  13
TORSDOF 20
ENDMDL
MODEL 8
REMARK VINA RESULT:    -4.966      3.090      8.682
REMARK INTER + INTRA:         -13.457
REMARK INTER:                 -11.607
REMARK INTRA:                  -1.850
REMARK UNBOUND:                -2.683
REMARK SMILES CCCCCCCCCCCCCCCCCCCCCC(=O)[O-]
REMARK SMILES IDX 12 1 11 2 10 3 9 4 8 5 7 6 6 7 5 8 4 9 3 10 2 11 1 12 13 13
REMARK SMILES IDX 14 14 15 15 16 16 17 17 18 18 19 19 20 20 21 21 22 22 23 23
REMARK SMILES IDX 24 24
REMARK H PARENT
REMARK Flexibility Score: inf
ROOT
ATOM      1  C   UNL     1      28.487  -9.262  17.311  1.00  0.00     0.000 C 
ENDROOT
BRANCH   1   2
ATOM      2  C   UNL     1      27.842  -9.700  15.984  1.00  0.00     0.000 C 
BRANCH   2   3
ATOM      3  C   UNL     1      27.187 -11.087  16.070  1.00  0.00     0.000 C 
BRANCH   3   4
ATOM      4  C   UNL     1      25.790 -10.996  16.696  1.00  0.00    -0.000 C 
BRANCH   4   5
ATOM      5  C   UNL     1      24.702 -11.312  15.663  1.00  0.00    -0.000 C 
BRANCH   5   6
ATOM      6  C   UNL     1      23.744 -12.390  16.184  1.00  0.00    -0.000 C 
BRANCH   6   7
ATOM      7  C   UNL     1      23.961 -12.640  17.684  1.00  0.00    -0.000 C 
BRANCH   7   8
ATOM      8  C   UNL     1      22.654 -12.598  18.492  1.00  0.00    -0.000 C 
BRANCH   8   9
ATOM      9  C   UNL     1      22.782 -11.995  19.905  1.00  0.00    -0.000 C 
BRANCH   9  10
ATOM     10  C   UNL     1      23.531 -10.647  19.941  1.00  0.00    -0.000 C 
BRANCH  10  11
ATOM     11  C   UNL     1      23.730 -10.127  21.373  1.00  0.00    -0.003 C 
ATOM     12  C   UNL     1      22.973 -10.989  22.380  1.00  0.00     0.004 C 
ENDBRANCH  10  11
ENDBRANCH   9  10
ENDBRANCH   8   9
ENDBRANCH   7   8
ENDBRANCH   6   7
ENDBRANCH   5   6
ENDBRANCH   4   5
ENDBRANCH   3   4
ENDBRANCH   2   3
ENDBRANCH   1   2
BRANCH   1  13
ATOM     13  C   UNL     1      27.862  -8.008  17.955  1.00  0.00     0.000 C 
BRANCH  13  14
ATOM     14  C   UNL     1      28.653  -6.701  17.745  1.00  0.00     0.000 C 
BRANCH  14  15
ATOM     15  C   UNL     1      27.952  -5.645  16.874  1.00  0.00     0.000 C 
BRANCH  15  16
ATOM     16  C   UNL     1      28.665  -5.402  15.532  1.00  0.00     0.000 C 
BRANCH  16  17
ATOM     17  C   UNL     1      29.483  -6.624  15.080  1.00  0.00     0.000 C 
BRANCH  17  18
ATOM     18  C   UNL     1      30.937  -6.267  14.741  1.00  0.00     0.000 C 
BRANCH  18  19
ATOM     19  C   UNL     1      31.698  -5.813  15.995  1.00  0.00     0.000 C 
BRANCH  19  20
ATOM     20  C   UNL     1      32.976  -6.640  16.240  1.00  0.00     0.006 C 
BRANCH  20  21
ATOM     21  C   UNL     1      33.008  -7.959  15.452  1.00  0.00     0.053 C 
BRANCH  21  22
ATOM     22  C   UNL     1      32.521  -9.118  16.266  1.00  0.00     0.041 C 
ATOM     23  O   UNL     1      31.661  -9.909  15.791  1.00  0.00    -0.550 OA
ATOM     24  O   UNL     1      33.000  -9.313  17.557  1.00  0.00    -0.550 OA
ENDBRANCH  21  22
ENDBRANCH  20  21
ENDBRANCH  19  20
ENDBRANCH  18  19
ENDBRANCH  17  18
ENDBRANCH  16  17
ENDBRANCH  15  16
ENDBRANCH  14  15
ENDBRANCH  13  14
ENDBRANCH   1  13
TORSDOF 20
ENDMDL
MODEL 9
REMARK VINA RESULT:    -4.928      3.945      8.683
REMARK INTER + INTRA:         -13.374
REMARK INTER:                 -11.739
REMARK INTRA:                  -1.635
REMARK UNBOUND:                -2.683
REMARK SMILES CCCCCCCCCCCCCCCCCCCCCC(=O)[O-]
REMARK SMILES IDX 12 1 11 2 10 3 9 4 8 5 7 6 6 7 5 8 4 9 3 10 2 11 1 12 13 13
REMARK SMILES IDX 14 14 15 15 16 16 17 17 18 18 19 19 20 20 21 21 22 22 23 23
REMARK SMILES IDX 24 24
REMARK H PARENT
REMARK Flexibility Score: inf
ROOT
ATOM      1  C   UNL     1      29.757 -10.876  16.283  1.00  0.00     0.000 C 
ENDROOT
BRANCH   1   2
ATOM      2  C   UNL     1      29.001 -11.013  14.950  1.00  0.00     0.000 C 
BRANCH   2   3
ATOM      3  C   UNL     1      27.475 -10.973  15.124  1.00  0.00     0.000 C 
BRANCH   3   4
ATOM      4  C   UNL     1      27.093 -10.892  16.607  1.00  0.00    -0.000 C 
BRANCH   4   5
ATOM      5  C   UNL     1      25.570 -10.894  16.783  1.00  0.00    -0.000 C 
BRANCH   5   6
ATOM      6  C   UNL     1      24.880 -11.584  15.600  1.00  0.00    -0.000 C 
BRANCH   6   7
ATOM      7  C   UNL     1      23.655 -12.383  16.070  1.00  0.00    -0.000 C 
BRANCH   7   8
ATOM      8  C   UNL     1      23.775 -12.860  17.526  1.00  0.00    -0.000 C 
BRANCH   8   9
ATOM      9  C   UNL     1      22.610 -12.446  18.445  1.00  0.00    -0.000 C 
BRANCH   9  10
ATOM     10  C   UNL     1      22.613 -13.157  19.814  1.00  0.00    -0.000 C 
BRANCH  10  11
ATOM     11  C   UNL     1      22.785 -12.174  20.982  1.00  0.00    -0.003 C 
ATOM     12  C   UNL     1      23.277 -10.816  20.489  1.00  0.00     0.004 C 
ENDBRANCH  10  11
ENDBRANCH   9  10
ENDBRANCH   8   9
ENDBRANCH   7   8
ENDBRANCH   6   7
ENDBRANCH   5   6
ENDBRANCH   4   5
ENDBRANCH   3   4
ENDBRANCH   2   3
ENDBRANCH   1   2
BRANCH   1  13
ATOM     13  C   UNL     1      31.040 -10.023  16.218  1.00  0.00     0.000 C 
BRANCH  13  14
ATOM     14  C   UNL     1      30.823  -8.540  15.858  1.00  0.00     0.000 C 
BRANCH  14  15
ATOM     15  C   UNL     1      29.720  -7.826  16.658  1.00  0.00     0.000 C 
BRANCH  15  16
ATOM     16  C   UNL     1      28.456  -7.551  15.824  1.00  0.00     0.000 C 
BRANCH  16  17
ATOM     17  C   UNL     1      28.499  -6.172  15.142  1.00  0.00     0.000 C 
BRANCH  17  18
ATOM     18  C   UNL     1      28.139  -5.029  16.102  1.00  0.00     0.000 C 
BRANCH  18  19
ATOM     19  C   UNL     1      26.906  -4.262  15.604  1.00  0.00     0.000 C 
BRANCH  19  20
ATOM     20  C   UNL     1      26.818  -4.226  14.065  1.00  0.00     0.006 C 
BRANCH  20  21
ATOM     21  C   UNL     1      26.752  -2.802  13.492  1.00  0.00     0.053 C 
BRANCH  21  22
ATOM     22  C   UNL     1      25.777  -2.690  12.360  1.00  0.00     0.041 C 
ATOM     23  O   UNL     1      26.192  -2.594  11.173  1.00  0.00    -0.550 OA
ATOM     24  O   UNL     1      24.411  -2.672  12.617  1.00  0.00    -0.550 OA
ENDBRANCH  21  22
ENDBRANCH  20  21
ENDBRANCH  19  20
ENDBRANCH  18  19
ENDBRANCH  17  18
ENDBRANCH  16  17
ENDBRANCH  15  16
ENDBRANCH  14  15
ENDBRANCH  13  14
ENDBRANCH   1  13
TORSDOF 20
ENDMDL
