MODEL 1
REMARK VINA RESULT:    14.679      0.000      0.000
REMARK INTER + INTRA:          19.755
REMARK INTER:                  19.399
REMARK INTRA:                   0.356
REMARK UNBOUND:                 0.356
REMARK SMILES CC[C@@H](C=C[C@H](C)[C@H]1CC[C@@H]2[C@@H]3CC=C4C[C@@H](O)CC[C@]4(C)[C@H]3CC[C@@]21C)C(C)C
REMARK SMILES IDX 6 1 7 2 5 3 4 4 3 5 2 6 1 7 28 8 29 9 30 10 8 11 9 12 26 13
REMARK SMILES IDX 10 14 11 15 25 16 27 17 12 18 24 19 23 20 13 21 21 22 14 23
REMARK SMILES IDX 15 24 20 25 22 26 16 27 19 28 17 29 18 30
REMARK H PARENT 18 31
REMARK Flexibility Score: inf
ROOT
ATOM      1  C   UNL     1     131.934 134.354 137.662  1.00  0.00     0.012 C 
ATOM      2  C   UNL     1     131.497 135.181 136.431  1.00  0.00     0.012 C 
ENDROOT
BRANCH   1   3
ATOM      3  C   UNL     1     132.277 132.954 137.200  1.00  0.00    -0.028 C 
ATOM      4  C   UNL     1     131.888 131.864 137.884  1.00  0.00    -0.027 C 
BRANCH   4   5
ATOM      5  C   UNL     1     132.194 130.456 137.404  1.00  0.00     0.014 C 
BRANCH   5   6
ATOM      6  C   UNL     1     132.332 130.466 135.854  1.00  0.00     0.004 C 
ATOM      7  C   UNL     1     133.703 130.935 135.355  1.00  0.00     0.004 C 
ENDBRANCH   5   6
BRANCH   5   8
ATOM      8  C   UNL     1     131.127 129.440 137.936  1.00  0.00    -0.011 C 
ATOM      9  C   UNL     1     130.849 129.648 139.438  1.00  0.00     0.008 C 
ATOM     10  C   UNL     1     131.541 127.979 137.701  1.00  0.00     0.008 C 
ENDBRANCH   5   8
ENDBRANCH   4   5
ENDBRANCH   1   3
BRANCH   1  11
ATOM     11  C   UNL     1     133.127 134.961 138.489  1.00  0.00     0.002 C 
ATOM     12  C   UNL     1     132.886 134.895 140.010  1.00  0.00     0.005 C 
ATOM     13  C   UNL     1     134.553 134.345 138.285  1.00  0.00    -0.026 C 
ATOM     14  C   UNL     1     133.856 133.857 140.580  1.00  0.00     0.005 C 
ATOM     15  C   UNL     1     134.649 133.278 139.394  1.00  0.00    -0.001 C 
ATOM     16  C   UNL     1     135.607 135.473 138.536  1.00  0.00     0.007 C 
ATOM     17  C   UNL     1     134.780 133.754 136.870  1.00  0.00     0.012 C 
ATOM     18  C   UNL     1     136.098 132.798 139.714  1.00  0.00     0.000 C 
ATOM     19  C   UNL     1     137.030 134.950 138.757  1.00  0.00     0.005 C 
ATOM     20  C   UNL     1     137.103 133.958 139.943  1.00  0.00     0.003 C 
ATOM     21  C   UNL     1     136.100 131.816 140.897  1.00  0.00     0.031 C 
ATOM     22  C   UNL     1     138.565 133.415 140.207  1.00  0.00    -0.008 C 
ATOM     23  C   UNL     1     137.471 131.479 141.402  1.00  0.00    -0.027 C 
ATOM     24  C   UNL     1     138.554 132.258 141.212  1.00  0.00    -0.065 C 
ATOM     25  C   UNL     1     139.417 134.545 140.850  1.00  0.00     0.014 C 
ATOM     26  C   UNL     1     139.228 132.926 138.887  1.00  0.00     0.016 C 
ATOM     27  C   UNL     1     139.737 132.022 142.137  1.00  0.00     0.063 C 
ATOM     28  C   UNL     1     140.872 134.134 141.134  1.00  0.00     0.033 C 
ATOM     29  C   UNL     1     141.049 132.715 141.720  1.00  0.00     0.118 C 
BRANCH  29  30
ATOM     30  O   UNL     1     141.743 131.912 140.796  1.00  0.00    -0.393 OA
ATOM     31  H   UNL     1     141.589 130.967 141.057  1.00  0.00     0.210 HD
ENDBRANCH  29  30
ENDBRANCH   1  11
TORSDOF 6
ENDMDL
MODEL 2
REMARK VINA RESULT:    14.769      0.946      1.943
REMARK INTER + INTRA:          19.874
REMARK INTER:                  19.835
REMARK INTRA:                   0.039
REMARK UNBOUND:                 0.356
REMARK SMILES CC[C@@H](C=C[C@H](C)[C@H]1CC[C@@H]2[C@@H]3CC=C4C[C@@H](O)CC[C@]4(C)[C@H]3CC[C@@]21C)C(C)C
REMARK SMILES IDX 6 1 7 2 5 3 4 4 3 5 2 6 1 7 28 8 29 9 30 10 8 11 9 12 26 13
REMARK SMILES IDX 10 14 11 15 25 16 27 17 12 18 24 19 23 20 13 21 21 22 14 23
REMARK SMILES IDX 15 24 20 25 22 26 16 27 19 28 17 29 18 30
REMARK H PARENT 18 31
REMARK Flexibility Score: inf
ROOT
ATOM      1  C   UNL     1     132.099 132.856 136.895  1.00  0.00     0.012 C 
ATOM      2  C   UNL     1     132.806 132.138 135.723  1.00  0.00     0.012 C 
ENDROOT
BRANCH   1   3
ATOM      3  C   UNL     1     131.378 131.816 137.728  1.00  0.00    -0.028 C 
ATOM      4  C   UNL     1     131.473 130.502 137.462  1.00  0.00    -0.027 C 
BRANCH   4   5
ATOM      5  C   UNL     1     130.786 129.453 138.318  1.00  0.00     0.014 C 
BRANCH   5   6
ATOM      6  C   UNL     1     130.932 129.844 139.817  1.00  0.00     0.004 C 
ATOM      7  C   UNL     1     130.822 128.660 140.783  1.00  0.00     0.004 C 
ENDBRANCH   5   6
BRANCH   5   8
ATOM      8  C   UNL     1     131.323 128.020 137.984  1.00  0.00    -0.011 C 
ATOM      9  C   UNL     1     132.104 128.005 136.655  1.00  0.00     0.008 C 
ATOM     10  C   UNL     1     130.199 126.974 137.917  1.00  0.00     0.008 C 
ENDBRANCH   5   8
ENDBRANCH   4   5
ENDBRANCH   1   3
BRANCH   1  11
ATOM     11  C   UNL     1     133.036 133.729 137.809  1.00  0.00     0.002 C 
ATOM     12  C   UNL     1     132.648 133.651 139.299  1.00  0.00     0.005 C 
ATOM     13  C   UNL     1     134.573 133.435 137.783  1.00  0.00    -0.026 C 
ATOM     14  C   UNL     1     133.747 132.864 140.016  1.00  0.00     0.005 C 
ATOM     15  C   UNL     1     134.773 132.443 138.948  1.00  0.00    -0.001 C 
ATOM     16  C   UNL     1     135.327 134.772 138.085  1.00  0.00     0.007 C 
ATOM     17  C   UNL     1     135.078 132.872 136.429  1.00  0.00     0.012 C 
ATOM     18  C   UNL     1     136.246 132.300 139.437  1.00  0.00     0.000 C 
ATOM     19  C   UNL     1     136.795 134.578 138.477  1.00  0.00     0.005 C 
ATOM     20  C   UNL     1     136.948 133.656 139.711  1.00  0.00     0.003 C 
ATOM     21  C   UNL     1     136.328 131.372 140.661  1.00  0.00     0.031 C 
ATOM     22  C   UNL     1     138.454 133.453 140.150  1.00  0.00    -0.008 C 
ATOM     23  C   UNL     1     137.674 131.355 141.320  1.00  0.00    -0.027 C 
ATOM     24  C   UNL     1     138.579 132.347 141.204  1.00  0.00    -0.065 C 
ATOM     25  C   UNL     1     138.967 134.757 140.822  1.00  0.00     0.014 C 
ATOM     26  C   UNL     1     139.348 133.087 138.930  1.00  0.00     0.016 C 
ATOM     27  C   UNL     1     139.676 132.398 142.256  1.00  0.00     0.063 C 
ATOM     28  C   UNL     1     140.436 134.682 141.272  1.00  0.00     0.033 C 
ATOM     29  C   UNL     1     140.847 133.350 141.942  1.00  0.00     0.118 C 
BRANCH  29  30
ATOM     30  O   UNL     1     141.794 132.696 141.135  1.00  0.00    -0.393 OA
ATOM     31  H   UNL     1     141.332 132.431 140.297  1.00  0.00     0.210 HD
ENDBRANCH  29  30
ENDBRANCH   1  11
TORSDOF 6
ENDMDL
MODEL 3
REMARK VINA RESULT:    15.510      0.955      1.517
REMARK INTER + INTRA:          20.853
REMARK INTER:                  20.311
REMARK INTRA:                   0.542
REMARK UNBOUND:                 0.356
REMARK SMILES CC[C@@H](C=C[C@H](C)[C@H]1CC[C@@H]2[C@@H]3CC=C4C[C@@H](O)CC[C@]4(C)[C@H]3CC[C@@]21C)C(C)C
REMARK SMILES IDX 6 1 7 2 5 3 4 4 3 5 2 6 1 7 28 8 29 9 30 10 8 11 9 12 26 13
REMARK SMILES IDX 10 14 11 15 25 16 27 17 12 18 24 19 23 20 13 21 21 22 14 23
REMARK SMILES IDX 15 24 20 25 22 26 16 27 19 28 17 29 18 30
REMARK H PARENT 18 31
REMARK Flexibility Score: inf
ROOT
ATOM      1  C   UNL     1     131.916 132.925 137.354  1.00  0.00     0.012 C 
ATOM      2  C   UNL     1     132.251 132.702 135.862  1.00  0.00     0.012 C 
ENDROOT
BRANCH   1   3
ATOM      3  C   UNL     1     131.771 131.572 138.019  1.00  0.00    -0.028 C 
ATOM      4  C   UNL     1     131.869 130.425 137.325  1.00  0.00    -0.027 C 
BRANCH   4   5
ATOM      5  C   UNL     1     131.765 129.064 137.993  1.00  0.00     0.014 C 
BRANCH   5   6
ATOM      6  C   UNL     1     131.836 127.956 136.903  1.00  0.00     0.004 C 
ATOM      7  C   UNL     1     131.883 126.532 137.467  1.00  0.00     0.004 C 
ENDBRANCH   5   6
BRANCH   5   8
ATOM      8  C   UNL     1     130.489 128.981 138.897  1.00  0.00    -0.011 C 
ATOM      9  C   UNL     1     130.855 128.699 140.367  1.00  0.00     0.008 C 
ATOM     10  C   UNL     1     129.497 127.912 138.413  1.00  0.00     0.008 C 
ENDBRANCH   5   8
ENDBRANCH   4   5
ENDBRANCH   1   3
BRANCH   1  11
ATOM     11  C   UNL     1     132.946 133.811 138.147  1.00  0.00     0.002 C 
ATOM     12  C   UNL     1     132.671 133.823 139.664  1.00  0.00     0.005 C 
ATOM     13  C   UNL     1     134.468 133.464 138.021  1.00  0.00    -0.026 C 
ATOM     14  C   UNL     1     133.799 133.037 140.337  1.00  0.00     0.005 C 
ATOM     15  C   UNL     1     134.726 132.526 139.219  1.00  0.00    -0.001 C 
ATOM     16  C   UNL     1     135.282 134.788 138.194  1.00  0.00     0.007 C 
ATOM     17  C   UNL     1     134.849 132.815 136.666  1.00  0.00     0.012 C 
ATOM     18  C   UNL     1     136.228 132.359 139.604  1.00  0.00     0.000 C 
ATOM     19  C   UNL     1     136.770 134.565 138.484  1.00  0.00     0.005 C 
ATOM     20  C   UNL     1     136.989 133.703 139.751  1.00  0.00     0.003 C 
ATOM     21  C   UNL     1     136.376 131.492 140.865  1.00  0.00     0.031 C 
ATOM     22  C   UNL     1     138.517 133.471 140.086  1.00  0.00    -0.008 C 
ATOM     23  C   UNL     1     137.767 131.464 141.421  1.00  0.00    -0.027 C 
ATOM     24  C   UNL     1     138.690 132.417 141.185  1.00  0.00    -0.065 C 
ATOM     25  C   UNL     1     139.119 134.790 140.646  1.00  0.00     0.014 C 
ATOM     26  C   UNL     1     139.304 133.013 138.824  1.00  0.00     0.016 C 
ATOM     27  C   UNL     1     139.865 132.485 142.147  1.00  0.00     0.063 C 
ATOM     28  C   UNL     1     140.616 134.688 140.989  1.00  0.00     0.033 C 
ATOM     29  C   UNL     1     141.037 133.379 141.696  1.00  0.00     0.118 C 
BRANCH  29  30
ATOM     30  O   UNL     1     141.899 132.653 140.856  1.00  0.00    -0.393 OA
ATOM     31  H   UNL     1     141.386 131.876 140.511  1.00  0.00     0.210 HD
ENDBRANCH  29  30
ENDBRANCH   1  11
TORSDOF 6
ENDMDL
MODEL 4
REMARK VINA RESULT:    16.129      1.234      2.082
REMARK INTER + INTRA:          21.671
REMARK INTER:                  18.849
REMARK INTRA:                   2.822
REMARK UNBOUND:                 0.356
REMARK SMILES CC[C@@H](C=C[C@H](C)[C@H]1CC[C@@H]2[C@@H]3CC=C4C[C@@H](O)CC[C@]4(C)[C@H]3CC[C@@]21C)C(C)C
REMARK SMILES IDX 6 1 7 2 5 3 4 4 3 5 2 6 1 7 28 8 29 9 30 10 8 11 9 12 26 13
REMARK SMILES IDX 10 14 11 15 25 16 27 17 12 18 24 19 23 20 13 21 21 22 14 23
REMARK SMILES IDX 15 24 20 25 22 26 16 27 19 28 17 29 18 30
REMARK H PARENT 18 31
REMARK Flexibility Score: inf
ROOT
ATOM      1  C   UNL     1     132.098 134.278 137.778  1.00  0.00     0.012 C 
ATOM      2  C   UNL     1     131.152 135.090 136.865  1.00  0.00     0.012 C 
ENDROOT
BRANCH   1   3
ATOM      3  C   UNL     1     131.945 132.810 137.440  1.00  0.00    -0.028 C 
ATOM      4  C   UNL     1     131.370 131.941 138.289  1.00  0.00    -0.027 C 
BRANCH   4   5
ATOM      5  C   UNL     1     131.176 130.476 137.938  1.00  0.00     0.014 C 
BRANCH   5   6
ATOM      6  C   UNL     1     130.901 129.673 139.243  1.00  0.00     0.004 C 
ATOM      7  C   UNL     1     130.561 128.198 139.005  1.00  0.00     0.004 C 
ENDBRANCH   5   6
BRANCH   5   8
ATOM      8  C   UNL     1     132.388 129.935 137.107  1.00  0.00    -0.011 C 
ATOM      9  C   UNL     1     132.599 130.754 135.818  1.00  0.00     0.008 C 
ATOM     10  C   UNL     1     132.231 128.452 136.739  1.00  0.00     0.008 C 
ENDBRANCH   5   8
ENDBRANCH   4   5
ENDBRANCH   1   3
BRANCH   1  11
ATOM     11  C   UNL     1     133.614 134.695 137.713  1.00  0.00     0.002 C 
ATOM     12  C   UNL     1     133.879 136.065 138.367  1.00  0.00     0.005 C 
ATOM     13  C   UNL     1     134.670 133.735 138.358  1.00  0.00    -0.026 C 
ATOM     14  C   UNL     1     134.663 135.811 139.656  1.00  0.00     0.005 C 
ATOM     15  C   UNL     1     134.834 134.287 139.790  1.00  0.00    -0.001 C 
ATOM     16  C   UNL     1     136.012 133.892 137.569  1.00  0.00     0.007 C 
ATOM     17  C   UNL     1     134.250 132.243 138.340  1.00  0.00     0.012 C 
ATOM     18  C   UNL     1     136.120 133.809 140.530  1.00  0.00     0.000 C 
ATOM     19  C   UNL     1     137.230 133.326 138.305  1.00  0.00     0.005 C 
ATOM     20  C   UNL     1     137.418 133.977 139.697  1.00  0.00     0.003 C 
ATOM     21  C   UNL     1     136.246 134.489 141.903  1.00  0.00     0.031 C 
ATOM     22  C   UNL     1     138.682 133.425 140.473  1.00  0.00    -0.008 C 
ATOM     23  C   UNL     1     137.561 134.247 142.581  1.00  0.00    -0.027 C 
ATOM     24  C   UNL     1     138.689 133.901 141.930  1.00  0.00    -0.065 C 
ATOM     25  C   UNL     1     139.970 133.999 139.819  1.00  0.00     0.014 C 
ATOM     26  C   UNL     1     138.715 131.869 140.455  1.00  0.00     0.016 C 
ATOM     27  C   UNL     1     140.000 134.127 142.666  1.00  0.00     0.063 C 
ATOM     28  C   UNL     1     141.268 133.509 140.482  1.00  0.00     0.033 C 
ATOM     29  C   UNL     1     141.237 133.466 142.027  1.00  0.00     0.118 C 
BRANCH  29  30
ATOM     30  O   UNL     1     141.344 132.132 142.458  1.00  0.00    -0.393 OA
ATOM     31  H   UNL     1     140.473 131.886 142.867  1.00  0.00     0.210 HD
ENDBRANCH  29  30
ENDBRANCH   1  11
TORSDOF 6
ENDMDL
MODEL 5
REMARK VINA RESULT:    16.704      2.820      7.947
REMARK INTER + INTRA:          22.431
REMARK INTER:                  22.292
REMARK INTRA:                   0.139
REMARK UNBOUND:                 0.356
REMARK SMILES CC[C@@H](C=C[C@H](C)[C@H]1CC[C@@H]2[C@@H]3CC=C4C[C@@H](O)CC[C@]4(C)[C@H]3CC[C@@]21C)C(C)C
REMARK SMILES IDX 6 1 7 2 5 3 4 4 3 5 2 6 1 7 28 8 29 9 30 10 8 11 9 12 26 13
REMARK SMILES IDX 10 14 11 15 25 16 27 17 12 18 24 19 23 20 13 21 21 22 14 23
REMARK SMILES IDX 15 24 20 25 22 26 16 27 19 28 17 29 18 30
REMARK H PARENT 18 31
REMARK Flexibility Score: inf
ROOT
ATOM      1  C   UNL     1     134.948 134.965 138.128  1.00  0.00     0.012 C 
ATOM      2  C   UNL     1     134.923 136.125 139.150  1.00  0.00     0.012 C 
ENDROOT
BRANCH   1   3
ATOM      3  C   UNL     1     135.915 133.911 138.624  1.00  0.00    -0.028 C 
ATOM      4  C   UNL     1     136.862 134.188 139.538  1.00  0.00    -0.027 C 
BRANCH   4   5
ATOM      5  C   UNL     1     137.807 133.125 140.070  1.00  0.00     0.014 C 
BRANCH   5   6
ATOM      6  C   UNL     1     137.049 132.239 141.100  1.00  0.00     0.004 C 
ATOM      7  C   UNL     1     137.067 130.744 140.766  1.00  0.00     0.004 C 
ENDBRANCH   5   6
BRANCH   5   8
ATOM      8  C   UNL     1     139.115 133.774 140.636  1.00  0.00    -0.011 C 
ATOM      9  C   UNL     1     140.258 132.745 140.737  1.00  0.00     0.008 C 
ATOM     10  C   UNL     1     138.900 134.420 142.014  1.00  0.00     0.008 C 
ENDBRANCH   5   8
ENDBRANCH   4   5
ENDBRANCH   1   3
BRANCH   1  11
ATOM     11  C   UNL     1     133.550 134.316 137.818  1.00  0.00     0.002 C 
ATOM     12  C   UNL     1     133.344 134.045 136.314  1.00  0.00     0.005 C 
ATOM     13  C   UNL     1     133.195 132.960 138.518  1.00  0.00    -0.026 C 
ATOM     14  C   UNL     1     133.379 132.528 136.115  1.00  0.00     0.005 C 
ATOM     15  C   UNL     1     133.642 131.896 137.494  1.00  0.00    -0.001 C 
ATOM     16  C   UNL     1     131.643 132.903 138.704  1.00  0.00     0.007 C 
ATOM     17  C   UNL     1     133.872 132.777 139.900  1.00  0.00     0.012 C 
ATOM     18  C   UNL     1     133.033 130.478 137.719  1.00  0.00     0.000 C 
ATOM     19  C   UNL     1     131.109 131.501 139.011  1.00  0.00     0.005 C 
ATOM     20  C   UNL     1     131.493 130.483 137.909  1.00  0.00     0.003 C 
ATOM     21  C   UNL     1     133.454 129.517 136.596  1.00  0.00     0.031 C 
ATOM     22  C   UNL     1     130.939 129.028 138.190  1.00  0.00    -0.008 C 
ATOM     23  C   UNL     1     132.738 128.201 136.624  1.00  0.00    -0.027 C 
ATOM     24  C   UNL     1     131.545 128.007 137.222  1.00  0.00    -0.065 C 
ATOM     25  C   UNL     1     129.405 129.012 137.938  1.00  0.00     0.014 C 
ATOM     26  C   UNL     1     131.249 128.582 139.649  1.00  0.00     0.016 C 
ATOM     27  C   UNL     1     130.758 126.779 136.794  1.00  0.00     0.063 C 
ATOM     28  C   UNL     1     128.751 127.645 138.201  1.00  0.00     0.033 C 
ATOM     29  C   UNL     1     129.550 126.427 137.685  1.00  0.00     0.118 C 
BRANCH  29  30
ATOM     30  O   UNL     1     129.971 125.648 138.777  1.00  0.00    -0.393 OA
ATOM     31  H   UNL     1     129.516 126.006 139.584  1.00  0.00     0.210 HD
ENDBRANCH  29  30
ENDBRANCH   1  11
TORSDOF 6
ENDMDL
