MODEL 1
REMARK VINA RESULT:    -5.754      0.000      0.000
REMARK INTER + INTRA:         -12.732
REMARK INTER:                 -11.135
REMARK INTRA:                  -1.597
REMARK UNBOUND:                -1.597
REMARK SMILES CCCCCCCCCCCCCCCCCC(=O)[O-]
REMARK SMILES IDX 10 1 11 2 12 3 13 4 14 5 15 6 16 7 17 8 18 9 19 10 20 11
REMARK SMILES IDX 9 12 8 13 7 14 6 15 5 16 4 17 3 18 2 19 1 20
REMARK H PARENT
REMARK Flexibility Score: inf
ROOT
ATOM      1  C   UNL     1     -10.101  -1.777  -8.852  1.00  0.00     0.000 C 
ENDROOT
BRANCH   1   2
ATOM      2  C   UNL     1     -10.775  -0.530  -9.448  1.00  0.00     0.000 C 
BRANCH   2   3
ATOM      3  C   UNL     1     -11.691  -0.861 -10.640  1.00  0.00     0.000 C 
BRANCH   3   4
ATOM      4  C   UNL     1     -13.158  -1.039 -10.220  1.00  0.00     0.000 C 
BRANCH   4   5
ATOM      5  C   UNL     1     -14.024   0.184 -10.569  1.00  0.00     0.000 C 
BRANCH   5   6
ATOM      6  C   UNL     1     -14.492   0.959  -9.325  1.00  0.00     0.000 C 
BRANCH   6   7
ATOM      7  C   UNL     1     -14.054   2.437  -9.274  1.00  0.00     0.006 C 
BRANCH   7   8
ATOM      8  C   UNL     1     -12.537   2.657  -9.380  1.00  0.00     0.053 C 
BRANCH   8   9
ATOM      9  C   UNL     1     -12.097   3.892  -8.657  1.00  0.00     0.041 C 
ATOM     10  O   UNL     1     -12.890   4.861  -8.523  1.00  0.00    -0.550 OA
ATOM     11  O   UNL     1     -10.804   3.987  -8.160  1.00  0.00    -0.550 OA
ENDBRANCH   8   9
ENDBRANCH   7   8
ENDBRANCH   6   7
ENDBRANCH   5   6
ENDBRANCH   4   5
ENDBRANCH   3   4
ENDBRANCH   2   3
ENDBRANCH   1   2
BRANCH   1  12
ATOM     12  C   UNL     1     -10.407  -3.055  -9.652  1.00  0.00     0.000 C 
BRANCH  12  13
ATOM     13  C   UNL     1     -10.972  -4.190  -8.778  1.00  0.00    -0.000 C 
BRANCH  13  14
ATOM     14  C   UNL     1     -10.086  -5.446  -8.686  1.00  0.00    -0.000 C 
BRANCH  14  15
ATOM     15  C   UNL     1      -9.824  -5.887  -7.237  1.00  0.00    -0.000 C 
BRANCH  15  16
ATOM     16  C   UNL     1     -10.605  -5.050  -6.208  1.00  0.00    -0.000 C 
BRANCH  16  17
ATOM     17  C   UNL     1     -11.371  -5.870  -5.152  1.00  0.00    -0.000 C 
BRANCH  17  18
ATOM     18  C   UNL     1     -12.317  -6.909  -5.772  1.00  0.00    -0.000 C 
BRANCH  18  19
ATOM     19  C   UNL     1     -13.483  -6.227  -6.498  1.00  0.00    -0.003 C 
ATOM     20  C   UNL     1     -13.587  -6.706  -7.944  1.00  0.00     0.004 C 
ENDBRANCH  18  19
ENDBRANCH  17  18
ENDBRANCH  16  17
ENDBRANCH  15  16
ENDBRANCH  14  15
ENDBRANCH  13  14
ENDBRANCH  12  13
ENDBRANCH   1  12
TORSDOF 16
ENDMDL
MODEL 2
REMARK VINA RESULT:    -5.601      3.736      8.335
REMARK INTER + INTRA:         -12.437
REMARK INTER:                 -11.041
REMARK INTRA:                  -1.396
REMARK UNBOUND:                -1.597
REMARK SMILES CCCCCCCCCCCCCCCCCC(=O)[O-]
REMARK SMILES IDX 10 1 11 2 12 3 13 4 14 5 15 6 16 7 17 8 18 9 19 10 20 11
REMARK SMILES IDX 9 12 8 13 7 14 6 15 5 16 4 17 3 18 2 19 1 20
REMARK H PARENT
REMARK Flexibility Score: inf
ROOT
ATOM      1  C   UNL     1     -10.556  -2.171  -9.130  1.00  0.00     0.000 C 
ENDROOT
BRANCH   1   2
ATOM      2  C   UNL     1      -9.592  -2.459  -7.967  1.00  0.00     0.000 C 
BRANCH   2   3
ATOM      3  C   UNL     1      -9.837  -3.833  -7.318  1.00  0.00     0.000 C 
BRANCH   3   4
ATOM      4  C   UNL     1      -9.326  -4.992  -8.187  1.00  0.00     0.000 C 
BRANCH   4   5
ATOM      5  C   UNL     1     -10.458  -5.928  -8.647  1.00  0.00     0.000 C 
BRANCH   5   6
ATOM      6  C   UNL     1     -10.239  -7.388  -8.212  1.00  0.00     0.000 C 
BRANCH   6   7
ATOM      7  C   UNL     1     -11.465  -8.066  -7.567  1.00  0.00     0.006 C 
BRANCH   7   8
ATOM      8  C   UNL     1     -12.342  -7.129  -6.721  1.00  0.00     0.053 C 
BRANCH   8   9
ATOM      9  C   UNL     1     -11.775  -6.913  -5.353  1.00  0.00     0.041 C 
ATOM     10  O   UNL     1     -11.547  -7.897  -4.601  1.00  0.00    -0.550 OA
ATOM     11  O   UNL     1     -11.527  -5.625  -4.895  1.00  0.00    -0.550 OA
ENDBRANCH   8   9
ENDBRANCH   7   8
ENDBRANCH   6   7
ENDBRANCH   5   6
ENDBRANCH   4   5
ENDBRANCH   3   4
ENDBRANCH   2   3
ENDBRANCH   1   2
BRANCH   1  12
ATOM     12  C   UNL     1     -10.608  -0.679  -9.500  1.00  0.00     0.000 C 
BRANCH  12  13
ATOM     13  C   UNL     1     -11.556  -0.384 -10.677  1.00  0.00    -0.000 C 
BRANCH  13  14
ATOM     14  C   UNL     1     -12.820  -1.262 -10.732  1.00  0.00    -0.000 C 
BRANCH  14  15
ATOM     15  C   UNL     1     -14.119  -0.439 -10.738  1.00  0.00    -0.000 C 
BRANCH  15  16
ATOM     16  C   UNL     1     -14.705  -0.239  -9.329  1.00  0.00    -0.000 C 
BRANCH  16  17
ATOM     17  C   UNL     1     -14.812   1.229  -8.874  1.00  0.00    -0.000 C 
BRANCH  17  18
ATOM     18  C   UNL     1     -14.109   2.204  -9.829  1.00  0.00    -0.000 C 
BRANCH  18  19
ATOM     19  C   UNL     1     -12.806   2.732  -9.216  1.00  0.00    -0.003 C 
ATOM     20  C   UNL     1     -13.030   4.072  -8.520  1.00  0.00     0.004 C 
ENDBRANCH  18  19
ENDBRANCH  17  18
ENDBRANCH  16  17
ENDBRANCH  15  16
ENDBRANCH  14  15
ENDBRANCH  13  14
ENDBRANCH  12  13
ENDBRANCH   1  12
TORSDOF 16
ENDMDL
MODEL 3
REMARK VINA RESULT:    -5.580      3.594      8.331
REMARK INTER + INTRA:         -12.396
REMARK INTER:                 -10.963
REMARK INTRA:                  -1.433
REMARK UNBOUND:                -1.597
REMARK SMILES CCCCCCCCCCCCCCCCCC(=O)[O-]
REMARK SMILES IDX 10 1 11 2 12 3 13 4 14 5 15 6 16 7 17 8 18 9 19 10 20 11
REMARK SMILES IDX 9 12 8 13 7 14 6 15 5 16 4 17 3 18 2 19 1 20
REMARK H PARENT
REMARK Flexibility Score: inf
ROOT
ATOM      1  C   UNL     1      -9.921  -2.243  -9.568  1.00  0.00     0.000 C 
ENDROOT
BRANCH   1   2
ATOM      2  C   UNL     1     -10.584  -3.302  -8.673  1.00  0.00     0.000 C 
BRANCH   2   3
ATOM      3  C   UNL     1     -10.870  -4.617  -9.420  1.00  0.00     0.000 C 
BRANCH   3   4
ATOM      4  C   UNL     1     -10.166  -5.822  -8.777  1.00  0.00     0.000 C 
BRANCH   4   5
ATOM      5  C   UNL     1      -9.864  -5.602  -7.284  1.00  0.00     0.000 C 
BRANCH   5   6
ATOM      6  C   UNL     1      -9.874  -6.910  -6.473  1.00  0.00     0.000 C 
BRANCH   6   7
ATOM      7  C   UNL     1     -11.056  -7.060  -5.494  1.00  0.00     0.006 C 
BRANCH   7   8
ATOM      8  C   UNL     1     -12.083  -5.918  -5.552  1.00  0.00     0.053 C 
BRANCH   8   9
ATOM      9  C   UNL     1     -13.339  -6.328  -6.258  1.00  0.00     0.041 C 
ATOM     10  O   UNL     1     -13.517  -6.013  -7.464  1.00  0.00    -0.550 OA
ATOM     11  O   UNL     1     -14.324  -7.031  -5.577  1.00  0.00    -0.550 OA
ENDBRANCH   8   9
ENDBRANCH   7   8
ENDBRANCH   6   7
ENDBRANCH   5   6
ENDBRANCH   4   5
ENDBRANCH   3   4
ENDBRANCH   2   3
ENDBRANCH   1   2
BRANCH   1  12
ATOM     12  C   UNL     1     -10.629  -0.879  -9.496  1.00  0.00     0.000 C 
BRANCH  12  13
ATOM     13  C   UNL     1     -11.526  -0.601 -10.716  1.00  0.00    -0.000 C 
BRANCH  13  14
ATOM     14  C   UNL     1     -12.947  -1.188 -10.628  1.00  0.00    -0.000 C 
BRANCH  14  15
ATOM     15  C   UNL     1     -14.043  -0.111 -10.672  1.00  0.00    -0.000 C 
BRANCH  15  16
ATOM     16  C   UNL     1     -14.084   0.751  -9.398  1.00  0.00    -0.000 C 
BRANCH  16  17
ATOM     17  C   UNL     1     -13.807   2.250  -9.620  1.00  0.00    -0.000 C 
BRANCH  17  18
ATOM     18  C   UNL     1     -12.333   2.625  -9.407  1.00  0.00    -0.000 C 
BRANCH  18  19
ATOM     19  C   UNL     1     -12.201   4.058  -8.877  1.00  0.00    -0.003 C 
ATOM     20  C   UNL     1     -13.251   4.348  -7.808  1.00  0.00     0.004 C 
ENDBRANCH  18  19
ENDBRANCH  17  18
ENDBRANCH  16  17
ENDBRANCH  15  16
ENDBRANCH  14  15
ENDBRANCH  13  14
ENDBRANCH  12  13
ENDBRANCH   1  12
TORSDOF 16
ENDMDL
MODEL 4
REMARK VINA RESULT:    -5.490      1.111      2.164
REMARK INTER + INTRA:         -12.223
REMARK INTER:                 -10.363
REMARK INTRA:                  -1.860
REMARK UNBOUND:                -1.597
REMARK SMILES CCCCCCCCCCCCCCCCCC(=O)[O-]
REMARK SMILES IDX 10 1 11 2 12 3 13 4 14 5 15 6 16 7 17 8 18 9 19 10 20 11
REMARK SMILES IDX 9 12 8 13 7 14 6 15 5 16 4 17 3 18 2 19 1 20
REMARK H PARENT
REMARK Flexibility Score: inf
ROOT
ATOM      1  C   UNL     1      -9.840  -2.491  -7.815  1.00  0.00     0.000 C 
ENDROOT
BRANCH   1   2
ATOM      2  C   UNL     1     -10.291  -2.079  -9.225  1.00  0.00     0.000 C 
BRANCH   2   3
ATOM      3  C   UNL     1     -10.597  -0.575  -9.337  1.00  0.00     0.000 C 
BRANCH   3   4
ATOM      4  C   UNL     1     -11.580  -0.259 -10.475  1.00  0.00     0.000 C 
BRANCH   4   5
ATOM      5  C   UNL     1     -12.866  -1.102 -10.395  1.00  0.00     0.000 C 
BRANCH   5   6
ATOM      6  C   UNL     1     -14.102  -0.269 -10.012  1.00  0.00     0.000 C 
BRANCH   6   7
ATOM      7  C   UNL     1     -13.981   1.243 -10.292  1.00  0.00     0.006 C 
BRANCH   7   8
ATOM      8  C   UNL     1     -14.348   2.144  -9.103  1.00  0.00     0.053 C 
BRANCH   8   9
ATOM      9  C   UNL     1     -13.318   3.204  -8.863  1.00  0.00     0.041 C 
ATOM     10  O   UNL     1     -12.271   3.235  -9.561  1.00  0.00    -0.550 OA
ATOM     11  O   UNL     1     -13.498   4.136  -7.849  1.00  0.00    -0.550 OA
ENDBRANCH   8   9
ENDBRANCH   7   8
ENDBRANCH   6   7
ENDBRANCH   5   6
ENDBRANCH   4   5
ENDBRANCH   3   4
ENDBRANCH   2   3
ENDBRANCH   1   2
BRANCH   1  12
ATOM     12  C   UNL     1      -9.870  -4.015  -7.604  1.00  0.00     0.000 C 
BRANCH  12  13
ATOM     13  C   UNL     1      -9.763  -4.806  -8.920  1.00  0.00    -0.000 C 
BRANCH  13  14
ATOM     14  C   UNL     1     -10.947  -5.747  -9.213  1.00  0.00    -0.000 C 
BRANCH  14  15
ATOM     15  C   UNL     1     -12.277  -5.230  -8.643  1.00  0.00    -0.000 C 
BRANCH  15  16
ATOM     16  C   UNL     1     -13.134  -6.347  -8.021  1.00  0.00    -0.000 C 
BRANCH  16  17
ATOM     17  C   UNL     1     -13.432  -6.175  -6.519  1.00  0.00    -0.000 C 
BRANCH  17  18
ATOM     18  C   UNL     1     -12.174  -6.275  -5.644  1.00  0.00    -0.000 C 
BRANCH  18  19
ATOM     19  C   UNL     1     -11.457  -7.612  -5.861  1.00  0.00    -0.003 C 
ATOM     20  C   UNL     1      -9.958  -7.407  -6.065  1.00  0.00     0.004 C 
ENDBRANCH  18  19
ENDBRANCH  17  18
ENDBRANCH  16  17
ENDBRANCH  15  16
ENDBRANCH  14  15
ENDBRANCH  13  14
ENDBRANCH  12  13
ENDBRANCH   1  12
TORSDOF 16
ENDMDL
MODEL 5
REMARK VINA RESULT:    -5.470      1.360      2.025
REMARK INTER + INTRA:         -12.184
REMARK INTER:                 -10.203
REMARK INTRA:                  -1.982
REMARK UNBOUND:                -1.597
REMARK SMILES CCCCCCCCCCCCCCCCCC(=O)[O-]
REMARK SMILES IDX 10 1 11 2 12 3 13 4 14 5 15 6 16 7 17 8 18 9 19 10 20 11
REMARK SMILES IDX 9 12 8 13 7 14 6 15 5 16 4 17 3 18 2 19 1 20
REMARK H PARENT
REMARK Flexibility Score: inf
ROOT
ATOM      1  C   UNL     1      -9.803  -3.257  -9.881  1.00  0.00     0.000 C 
ENDROOT
BRANCH   1   2
ATOM      2  C   UNL     1     -10.500  -2.019  -9.295  1.00  0.00     0.000 C 
BRANCH   2   3
ATOM      3  C   UNL     1     -10.563  -0.845 -10.288  1.00  0.00     0.000 C 
BRANCH   3   4
ATOM      4  C   UNL     1     -11.684   0.150  -9.952  1.00  0.00     0.000 C 
BRANCH   4   5
ATOM      5  C   UNL     1     -13.082  -0.403 -10.283  1.00  0.00     0.000 C 
BRANCH   5   6
ATOM      6  C   UNL     1     -14.218   0.480  -9.736  1.00  0.00     0.000 C 
BRANCH   6   7
ATOM      7  C   UNL     1     -14.008   1.998  -9.916  1.00  0.00     0.006 C 
BRANCH   7   8
ATOM      8  C   UNL     1     -14.022   2.804  -8.608  1.00  0.00     0.053 C 
BRANCH   8   9
ATOM      9  C   UNL     1     -12.928   3.825  -8.566  1.00  0.00     0.041 C 
ATOM     10  O   UNL     1     -13.210   5.051  -8.514  1.00  0.00    -0.550 OA
ATOM     11  O   UNL     1     -11.599   3.426  -8.616  1.00  0.00    -0.550 OA
ENDBRANCH   8   9
ENDBRANCH   7   8
ENDBRANCH   6   7
ENDBRANCH   5   6
ENDBRANCH   4   5
ENDBRANCH   3   4
ENDBRANCH   2   3
ENDBRANCH   1   2
BRANCH   1  12
ATOM     12  C   UNL     1      -9.021  -4.053  -8.821  1.00  0.00     0.000 C 
BRANCH  12  13
ATOM     13  C   UNL     1      -9.331  -3.605  -7.382  1.00  0.00    -0.000 C 
BRANCH  13  14
ATOM     14  C   UNL     1     -10.200  -4.581  -6.567  1.00  0.00    -0.000 C 
BRANCH  14  15
ATOM     15  C   UNL     1      -9.832  -6.054  -6.809  1.00  0.00    -0.000 C 
BRANCH  15  16
ATOM     16  C   UNL     1     -11.008  -6.880  -7.359  1.00  0.00    -0.000 C 
BRANCH  16  17
ATOM     17  C   UNL     1     -10.934  -7.188  -8.867  1.00  0.00    -0.000 C 
BRANCH  17  18
ATOM     18  C   UNL     1     -12.011  -6.456  -9.681  1.00  0.00    -0.000 C 
BRANCH  18  19
ATOM     19  C   UNL     1     -12.885  -5.581  -8.775  1.00  0.00    -0.003 C 
ATOM     20  C   UNL     1     -13.439  -4.380  -9.539  1.00  0.00     0.004 C 
ENDBRANCH  18  19
ENDBRANCH  17  18
ENDBRANCH  16  17
ENDBRANCH  15  16
ENDBRANCH  14  15
ENDBRANCH  13  14
ENDBRANCH  12  13
ENDBRANCH   1  12
TORSDOF 16
ENDMDL
MODEL 6
REMARK VINA RESULT:    -5.469      1.270      3.039
REMARK INTER + INTRA:         -12.182
REMARK INTER:                 -10.580
REMARK INTRA:                  -1.603
REMARK UNBOUND:                -1.597
REMARK SMILES CCCCCCCCCCCCCCCCCC(=O)[O-]
REMARK SMILES IDX 10 1 11 2 12 3 13 4 14 5 15 6 16 7 17 8 18 9 19 10 20 11
REMARK SMILES IDX 9 12 8 13 7 14 6 15 5 16 4 17 3 18 2 19 1 20
REMARK H PARENT
REMARK Flexibility Score: inf
ROOT
ATOM      1  C   UNL     1     -13.549  -3.650  -9.635  1.00  0.00     0.000 C 
ENDROOT
BRANCH   1   2
ATOM      2  C   UNL     1     -14.893  -2.921  -9.796  1.00  0.00     0.000 C 
BRANCH   2   3
ATOM      3  C   UNL     1     -14.825  -1.766 -10.811  1.00  0.00     0.000 C 
BRANCH   3   4
ATOM      4  C   UNL     1     -13.395  -1.242 -11.010  1.00  0.00     0.000 C 
BRANCH   4   5
ATOM      5  C   UNL     1     -13.063  -0.062 -10.079  1.00  0.00     0.000 C 
BRANCH   5   6
ATOM      6  C   UNL     1     -14.296   0.794  -9.739  1.00  0.00     0.000 C 
BRANCH   6   7
ATOM      7  C   UNL     1     -13.989   2.261  -9.372  1.00  0.00     0.006 C 
BRANCH   7   8
ATOM      8  C   UNL     1     -12.512   2.659  -9.513  1.00  0.00     0.053 C 
BRANCH   8   9
ATOM      9  C   UNL     1     -12.168   3.848  -8.671  1.00  0.00     0.041 C 
ATOM     10  O   UNL     1     -11.048   3.915  -8.101  1.00  0.00    -0.550 OA
ATOM     11  O   UNL     1     -13.095   4.867  -8.490  1.00  0.00    -0.550 OA
ENDBRANCH   8   9
ENDBRANCH   7   8
ENDBRANCH   6   7
ENDBRANCH   5   6
ENDBRANCH   4   5
ENDBRANCH   3   4
ENDBRANCH   2   3
ENDBRANCH   1   2
BRANCH   1  12
ATOM     12  C   UNL     1     -13.719  -5.163  -9.408  1.00  0.00     0.000 C 
BRANCH  12  13
ATOM     13  C   UNL     1     -13.893  -5.532  -7.924  1.00  0.00    -0.000 C 
BRANCH  13  14
ATOM     14  C   UNL     1     -12.792  -6.438  -7.343  1.00  0.00    -0.000 C 
BRANCH  14  15
ATOM     15  C   UNL     1     -12.513  -6.163  -5.857  1.00  0.00    -0.000 C 
BRANCH  15  16
ATOM     16  C   UNL     1     -11.113  -5.573  -5.612  1.00  0.00    -0.000 C 
BRANCH  16  17
ATOM     17  C   UNL     1     -10.244  -5.419  -6.875  1.00  0.00    -0.000 C 
BRANCH  17  18
ATOM     18  C   UNL     1     -10.225  -3.982  -7.416  1.00  0.00    -0.000 C 
BRANCH  18  19
ATOM     19  C   UNL     1     -10.052  -3.971  -8.939  1.00  0.00    -0.003 C 
ATOM     20  C   UNL     1      -9.970  -2.542  -9.473  1.00  0.00     0.004 C 
ENDBRANCH  18  19
ENDBRANCH  17  18
ENDBRANCH  16  17
ENDBRANCH  15  16
ENDBRANCH  14  15
ENDBRANCH  13  14
ENDBRANCH  12  13
ENDBRANCH   1  12
TORSDOF 16
ENDMDL
MODEL 7
REMARK VINA RESULT:    -5.216      0.875      1.878
REMARK INTER + INTRA:         -11.691
REMARK INTER:                 -10.413
REMARK INTRA:                  -1.279
REMARK UNBOUND:                -1.597
REMARK SMILES CCCCCCCCCCCCCCCCCC(=O)[O-]
REMARK SMILES IDX 10 1 11 2 12 3 13 4 14 5 15 6 16 7 17 8 18 9 19 10 20 11
REMARK SMILES IDX 9 12 8 13 7 14 6 15 5 16 4 17 3 18 2 19 1 20
REMARK H PARENT
REMARK Flexibility Score: inf
ROOT
ATOM      1  C   UNL     1      -9.187  -3.398  -9.162  1.00  0.00     0.000 C 
ENDROOT
BRANCH   1   2
ATOM      2  C   UNL     1     -10.192  -2.391  -8.581  1.00  0.00     0.000 C 
BRANCH   2   3
ATOM      3  C   UNL     1     -10.592  -1.300  -9.590  1.00  0.00     0.000 C 
BRANCH   3   4
ATOM      4  C   UNL     1     -12.058  -1.420 -10.034  1.00  0.00     0.000 C 
BRANCH   4   5
ATOM      5  C   UNL     1     -12.602  -0.112 -10.635  1.00  0.00     0.000 C 
BRANCH   5   6
ATOM      6  C   UNL     1     -13.858   0.401  -9.908  1.00  0.00     0.000 C 
BRANCH   6   7
ATOM      7  C   UNL     1     -13.735   1.821  -9.318  1.00  0.00     0.006 C 
BRANCH   7   8
ATOM      8  C   UNL     1     -12.357   2.474  -9.507  1.00  0.00     0.053 C 
BRANCH   8   9
ATOM      9  C   UNL     1     -12.183   3.681  -8.638  1.00  0.00     0.041 C 
ATOM     10  O   UNL     1     -11.061   3.936  -8.129  1.00  0.00    -0.550 OA
ATOM     11  O   UNL     1     -13.267   4.505  -8.364  1.00  0.00    -0.550 OA
ENDBRANCH   8   9
ENDBRANCH   7   8
ENDBRANCH   6   7
ENDBRANCH   5   6
ENDBRANCH   4   5
ENDBRANCH   3   4
ENDBRANCH   2   3
ENDBRANCH   1   2
BRANCH   1  12
ATOM     12  C   UNL     1      -8.913  -4.577  -8.212  1.00  0.00     0.000 C 
BRANCH  12  13
ATOM     13  C   UNL     1     -10.191  -5.132  -7.558  1.00  0.00    -0.000 C 
BRANCH  13  14
ATOM     14  C   UNL     1     -10.101  -5.355  -6.037  1.00  0.00    -0.000 C 
BRANCH  14  15
ATOM     15  C   UNL     1     -11.473  -5.607  -5.388  1.00  0.00    -0.000 C 
BRANCH  15  16
ATOM     16  C   UNL     1     -11.825  -7.103  -5.299  1.00  0.00    -0.000 C 
BRANCH  16  17
ATOM     17  C   UNL     1     -13.178  -7.488  -5.926  1.00  0.00    -0.000 C 
BRANCH  17  18
ATOM     18  C   UNL     1     -14.059  -6.271  -6.245  1.00  0.00    -0.000 C 
BRANCH  18  19
ATOM     19  C   UNL     1     -14.524  -6.296  -7.706  1.00  0.00    -0.003 C 
ATOM     20  C   UNL     1     -13.595  -5.471  -8.593  1.00  0.00     0.004 C 
ENDBRANCH  18  19
ENDBRANCH  17  18
ENDBRANCH  16  17
ENDBRANCH  15  16
ENDBRANCH  14  15
ENDBRANCH  13  14
ENDBRANCH  12  13
ENDBRANCH   1  12
TORSDOF 16
ENDMDL
MODEL 8
REMARK VINA RESULT:    -5.192      3.205      8.125
REMARK INTER + INTRA:         -11.646
REMARK INTER:                 -10.418
REMARK INTRA:                  -1.227
REMARK UNBOUND:                -1.597
REMARK SMILES CCCCCCCCCCCCCCCCCC(=O)[O-]
REMARK SMILES IDX 10 1 11 2 12 3 13 4 14 5 15 6 16 7 17 8 18 9 19 10 20 11
REMARK SMILES IDX 9 12 8 13 7 14 6 15 5 16 4 17 3 18 2 19 1 20
REMARK H PARENT
REMARK Flexibility Score: inf
ROOT
ATOM      1  C   UNL     1     -10.796  -3.680  -9.381  1.00  0.00     0.000 C 
ENDROOT
BRANCH   1   2
ATOM      2  C   UNL     1     -11.483  -5.054  -9.396  1.00  0.00     0.000 C 
BRANCH   2   3
ATOM      3  C   UNL     1     -13.005  -4.961  -9.192  1.00  0.00     0.000 C 
BRANCH   3   4
ATOM      4  C   UNL     1     -13.589  -6.226  -8.544  1.00  0.00     0.000 C 
BRANCH   4   5
ATOM      5  C   UNL     1     -14.151  -5.961  -7.136  1.00  0.00     0.000 C 
BRANCH   5   6
ATOM      6  C   UNL     1     -13.831  -7.093  -6.143  1.00  0.00     0.000 C 
BRANCH   6   7
ATOM      7  C   UNL     1     -12.356  -7.173  -5.700  1.00  0.00     0.006 C 
BRANCH   7   8
ATOM      8  C   UNL     1     -11.734  -5.825  -5.303  1.00  0.00     0.053 C 
BRANCH   8   9
ATOM      9  C   UNL     1     -10.453  -5.562  -6.031  1.00  0.00     0.041 C 
ATOM     10  O   UNL     1      -9.774  -6.522  -6.481  1.00  0.00    -0.550 OA
ATOM     11  O   UNL     1      -9.992  -4.261  -6.185  1.00  0.00    -0.550 OA
ENDBRANCH   8   9
ENDBRANCH   7   8
ENDBRANCH   6   7
ENDBRANCH   5   6
ENDBRANCH   4   5
ENDBRANCH   3   4
ENDBRANCH   2   3
ENDBRANCH   1   2
BRANCH   1  12
ATOM     12  C   UNL     1     -11.695  -2.562  -9.937  1.00  0.00     0.000 C 
BRANCH  12  13
ATOM     13  C   UNL     1     -11.091  -1.158  -9.754  1.00  0.00    -0.000 C 
BRANCH  13  14
ATOM     14  C   UNL     1     -11.950  -0.002 -10.300  1.00  0.00    -0.000 C 
BRANCH  14  15
ATOM     15  C   UNL     1     -13.438  -0.141  -9.938  1.00  0.00    -0.000 C 
BRANCH  15  16
ATOM     16  C   UNL     1     -14.156   1.217  -9.832  1.00  0.00    -0.000 C 
BRANCH  16  17
ATOM     17  C   UNL     1     -13.235   2.414  -9.528  1.00  0.00    -0.000 C 
BRANCH  17  18
ATOM     18  C   UNL     1     -13.842   3.393  -8.512  1.00  0.00    -0.000 C 
BRANCH  18  19
ATOM     19  C   UNL     1     -12.787   4.380  -8.000  1.00  0.00    -0.003 C 
ATOM     20  C   UNL     1     -11.381   3.938  -8.399  1.00  0.00     0.004 C 
ENDBRANCH  18  19
ENDBRANCH  17  18
ENDBRANCH  16  17
ENDBRANCH  15  16
ENDBRANCH  14  15
ENDBRANCH  13  14
ENDBRANCH  12  13
ENDBRANCH   1  12
TORSDOF 16
ENDMDL
MODEL 9
REMARK VINA RESULT:    -5.114      3.635      8.158
REMARK INTER + INTRA:         -11.495
REMARK INTER:                 -10.296
REMARK INTRA:                  -1.199
REMARK UNBOUND:                -1.597
REMARK SMILES CCCCCCCCCCCCCCCCCC(=O)[O-]
REMARK SMILES IDX 10 1 11 2 12 3 13 4 14 5 15 6 16 7 17 8 18 9 19 10 20 11
REMARK SMILES IDX 9 12 8 13 7 14 6 15 5 16 4 17 3 18 2 19 1 20
REMARK H PARENT
REMARK Flexibility Score: inf
ROOT
ATOM      1  C   UNL     1      -8.629  -3.247  -8.463  1.00  0.00     0.000 C 
ENDROOT
BRANCH   1   2
ATOM      2  C   UNL     1      -8.742  -4.671  -7.898  1.00  0.00     0.000 C 
BRANCH   2   3
ATOM      3  C   UNL     1      -9.958  -5.436  -8.450  1.00  0.00     0.000 C 
BRANCH   3   4
ATOM      4  C   UNL     1     -10.520  -6.451  -7.442  1.00  0.00     0.000 C 
BRANCH   4   5
ATOM      5  C   UNL     1     -10.918  -5.798  -6.107  1.00  0.00     0.000 C 
BRANCH   5   6
ATOM      6  C   UNL     1     -11.559  -6.794  -5.123  1.00  0.00     0.000 C 
BRANCH   6   7
ATOM      7  C   UNL     1     -12.899  -7.399  -5.590  1.00  0.00     0.006 C 
BRANCH   7   8
ATOM      8  C   UNL     1     -13.965  -6.364  -5.981  1.00  0.00     0.053 C 
BRANCH   8   9
ATOM      9  C   UNL     1     -14.299  -6.427  -7.440  1.00  0.00     0.041 C 
ATOM     10  O   UNL     1     -15.086  -7.310  -7.870  1.00  0.00    -0.550 OA
ATOM     11  O   UNL     1     -13.717  -5.530  -8.328  1.00  0.00    -0.550 OA
ENDBRANCH   8   9
ENDBRANCH   7   8
ENDBRANCH   6   7
ENDBRANCH   5   6
ENDBRANCH   4   5
ENDBRANCH   3   4
ENDBRANCH   2   3
ENDBRANCH   1   2
BRANCH   1  12
ATOM     12  C   UNL     1      -9.908  -2.419  -8.244  1.00  0.00     0.000 C 
BRANCH  12  13
ATOM     13  C   UNL     1     -10.399  -1.720  -9.525  1.00  0.00    -0.000 C 
BRANCH  13  14
ATOM     14  C   UNL     1     -11.798  -2.148 -10.007  1.00  0.00    -0.000 C 
BRANCH  14  15
ATOM     15  C   UNL     1     -12.540  -1.030 -10.756  1.00  0.00    -0.000 C 
BRANCH  15  16
ATOM     16  C   UNL     1     -12.612   0.281  -9.954  1.00  0.00    -0.000 C 
BRANCH  16  17
ATOM     17  C   UNL     1     -14.001   0.946  -9.922  1.00  0.00    -0.000 C 
BRANCH  17  18
ATOM     18  C   UNL     1     -13.976   2.357  -9.317  1.00  0.00    -0.000 C 
BRANCH  18  19
ATOM     19  C   UNL     1     -12.555   2.934  -9.326  1.00  0.00    -0.003 C 
ATOM     20  C   UNL     1     -12.490   4.249  -8.552  1.00  0.00     0.004 C 
ENDBRANCH  18  19
ENDBRANCH  17  18
ENDBRANCH  16  17
ENDBRANCH  15  16
ENDBRANCH  14  15
ENDBRANCH  13  14
ENDBRANCH  12  13
ENDBRANCH   1  12
TORSDOF 16
ENDMDL
