MODEL 1
REMARK VINA RESULT:     3.159      0.000      0.000
REMARK INTER + INTRA:           3.421
REMARK INTER:                   3.713
REMARK INTRA:                  -0.292
REMARK UNBOUND:                -0.292
REMARK SMILES O=c1cc(-c2ccc(O)c(O)c2)oc2cc(O)cc(O)c12
REMARK SMILES IDX 4 1 3 2 2 3 1 4 21 5 19 6 18 7 16 8 15 9 14 10 13 11 5 12
REMARK SMILES IDX 6 13 7 14 8 15 12 16 10 17 9 18 11 20 20 22 17 24
REMARK H PARENT 9 19 11 21 20 23 17 25
REMARK Flexibility Score: inf
ROOT
ATOM      1  C   UNL     1     -37.992 -35.342 -34.865  1.00  0.00     0.138 A 
ATOM      2  C   UNL     1     -38.918 -35.739 -35.839  1.00  0.00     0.100 A 
ATOM      3  C   UNL     1     -38.523 -35.817 -37.176  1.00  0.00     0.197 A 
ATOM      4  O   UNL     1     -39.393 -36.116 -38.035  1.00  0.00    -0.289 OA
ATOM      5  C   UNL     1     -37.185 -35.525 -37.531  1.00  0.00     0.107 A 
ATOM      6  C   UNL     1     -36.659 -35.611 -38.856  1.00  0.00     0.134 A 
ATOM      7  C   UNL     1     -35.349 -35.186 -39.107  1.00  0.00     0.093 A 
ATOM      8  C   UNL     1     -34.526 -34.735 -38.070  1.00  0.00     0.123 A 
ATOM      9  C   UNL     1     -35.013 -34.699 -36.766  1.00  0.00     0.094 A 
ATOM     10  C   UNL     1     -36.327 -35.084 -36.489  1.00  0.00     0.146 A 
ATOM     11  O   UNL     1     -36.757 -35.021 -35.233  1.00  0.00    -0.456 OA
ENDROOT
BRANCH   1  12
ATOM     12  C   UNL     1     -38.359 -35.243 -33.430  1.00  0.00     0.021 A 
ATOM     13  C   UNL     1     -39.562 -34.613 -33.064  1.00  0.00     0.016 A 
ATOM     14  C   UNL     1     -39.925 -34.500 -31.720  1.00  0.00     0.051 A 
ATOM     15  C   UNL     1     -39.089 -35.005 -30.716  1.00  0.00     0.157 A 
ATOM     16  C   UNL     1     -37.516 -35.736 -32.415  1.00  0.00     0.062 A 
ATOM     17  C   UNL     1     -37.877 -35.622 -31.067  1.00  0.00     0.158 A 
BRANCH  15  18
ATOM     18  O   UNL     1     -39.455 -34.893 -29.376  1.00  0.00    -0.504 OA
ATOM     19  H   UNL     1     -39.466 -35.698 -28.760  1.00  0.00     0.293 HD
ENDBRANCH  15  18
BRANCH  17  20
ATOM     20  O   UNL     1     -37.016 -36.125 -30.091  1.00  0.00    -0.504 OA
ATOM     21  H   UNL     1     -36.041 -35.853 -30.041  1.00  0.00     0.293 HD
ENDBRANCH  17  20
ENDBRANCH   1  12
BRANCH   6  22
ATOM     22  O   UNL     1     -37.368 -36.125 -39.946  1.00  0.00    -0.507 OA
ATOM     23  H   UNL     1     -37.783 -37.044 -39.982  1.00  0.00     0.293 HD
ENDBRANCH   6  22
BRANCH   8  24
ATOM     24  O   UNL     1     -33.219 -34.328 -38.328  1.00  0.00    -0.508 OA
ATOM     25  H   UNL     1     -32.966 -33.348 -38.366  1.00  0.00     0.293 HD
ENDBRANCH   8  24
TORSDOF 5
ENDMDL
MODEL 2
REMARK VINA RESULT:     4.510      3.999      5.788
REMARK INTER + INTRA:           5.009
REMARK INTER:                   5.306
REMARK INTRA:                  -0.297
REMARK UNBOUND:                -0.292
REMARK SMILES O=c1cc(-c2ccc(O)c(O)c2)oc2cc(O)cc(O)c12
REMARK SMILES IDX 4 1 3 2 2 3 1 4 21 5 19 6 18 7 16 8 15 9 14 10 13 11 5 12
REMARK SMILES IDX 6 13 7 14 8 15 12 16 10 17 9 18 11 20 20 22 17 24
REMARK H PARENT 9 19 11 21 20 23 17 25
REMARK Flexibility Score: inf
ROOT
ATOM      1  C   UNL     1     -33.921 -35.978 -34.214  1.00  0.00     0.138 A 
ATOM      2  C   UNL     1     -35.046 -35.877 -33.386  1.00  0.00     0.100 A 
ATOM      3  C   UNL     1     -36.322 -35.872 -33.952  1.00  0.00     0.197 A 
ATOM      4  O   UNL     1     -37.311 -35.718 -33.188  1.00  0.00    -0.289 OA
ATOM      5  C   UNL     1     -36.470 -36.002 -35.353  1.00  0.00     0.107 A 
ATOM      6  C   UNL     1     -37.722 -36.051 -36.037  1.00  0.00     0.134 A 
ATOM      7  C   UNL     1     -37.744 -36.064 -37.437  1.00  0.00     0.093 A 
ATOM      8  C   UNL     1     -36.557 -36.090 -38.176  1.00  0.00     0.123 A 
ATOM      9  C   UNL     1     -35.331 -36.096 -37.517  1.00  0.00     0.094 A 
ATOM     10  C   UNL     1     -35.276 -36.050 -36.121  1.00  0.00     0.146 A 
ATOM     11  O   UNL     1     -34.085 -36.043 -35.531  1.00  0.00    -0.456 OA
ENDROOT
BRANCH   1  12
ATOM     12  C   UNL     1     -32.541 -35.988 -33.666  1.00  0.00     0.021 A 
ATOM     13  C   UNL     1     -31.449 -36.105 -34.543  1.00  0.00     0.016 A 
ATOM     14  C   UNL     1     -30.141 -36.125 -34.050  1.00  0.00     0.051 A 
ATOM     15  C   UNL     1     -29.902 -36.038 -32.673  1.00  0.00     0.157 A 
ATOM     16  C   UNL     1     -32.295 -35.915 -32.281  1.00  0.00     0.062 A 
ATOM     17  C   UNL     1     -30.986 -35.937 -31.785  1.00  0.00     0.158 A 
BRANCH  15  18
ATOM     18  O   UNL     1     -28.597 -36.056 -32.185  1.00  0.00    -0.504 OA
ATOM     19  H   UNL     1     -28.047 -36.908 -32.172  1.00  0.00     0.293 HD
ENDBRANCH  15  18
BRANCH  17  20
ATOM     20  O   UNL     1     -30.782 -35.860 -30.408  1.00  0.00    -0.504 OA
ATOM     21  H   UNL     1     -30.161 -35.176 -29.992  1.00  0.00     0.293 HD
ENDBRANCH  17  20
ENDBRANCH   1  12
BRANCH   6  22
ATOM     22  O   UNL     1     -38.962 -36.115 -35.393  1.00  0.00    -0.507 OA
ATOM     23  H   UNL     1     -39.750 -35.520 -35.600  1.00  0.00     0.293 HD
ENDBRANCH   6  22
BRANCH   8  24
ATOM     24  O   UNL     1     -36.589 -36.118 -39.569  1.00  0.00    -0.508 OA
ATOM     25  H   UNL     1     -36.728 -36.982 -40.079  1.00  0.00     0.293 HD
ENDBRANCH   8  24
TORSDOF 5
ENDMDL
MODEL 3
REMARK VINA RESULT:     5.319      3.997      6.259
REMARK INTER + INTRA:           5.960
REMARK INTER:                   6.278
REMARK INTRA:                  -0.318
REMARK UNBOUND:                -0.292
REMARK SMILES O=c1cc(-c2ccc(O)c(O)c2)oc2cc(O)cc(O)c12
REMARK SMILES IDX 4 1 3 2 2 3 1 4 21 5 19 6 18 7 16 8 15 9 14 10 13 11 5 12
REMARK SMILES IDX 6 13 7 14 8 15 12 16 10 17 9 18 11 20 20 22 17 24
REMARK H PARENT 9 19 11 21 20 23 17 25
REMARK Flexibility Score: inf
ROOT
ATOM      1  C   UNL     1     -33.869 -36.006 -34.350  1.00  0.00     0.138 A 
ATOM      2  C   UNL     1     -34.095 -36.043 -35.732  1.00  0.00     0.100 A 
ATOM      3  C   UNL     1     -35.404 -36.021 -36.219  1.00  0.00     0.197 A 
ATOM      4  O   UNL     1     -35.577 -36.119 -37.462  1.00  0.00    -0.289 OA
ATOM      5  C   UNL     1     -36.488 -35.929 -35.314  1.00  0.00     0.107 A 
ATOM      6  C   UNL     1     -37.861 -35.857 -35.697  1.00  0.00     0.134 A 
ATOM      7  C   UNL     1     -38.855 -35.886 -34.711  1.00  0.00     0.093 A 
ATOM      8  C   UNL     1     -38.523 -35.922 -33.354  1.00  0.00     0.123 A 
ATOM      9  C   UNL     1     -37.185 -35.938 -32.969  1.00  0.00     0.094 A 
ATOM     10  C   UNL     1     -36.171 -35.945 -33.930  1.00  0.00     0.146 A 
ATOM     11  O   UNL     1     -34.907 -35.975 -33.521  1.00  0.00    -0.456 OA
ENDROOT
BRANCH   1  12
ATOM     12  C   UNL     1     -32.499 -36.027 -33.779  1.00  0.00     0.021 A 
ATOM     13  C   UNL     1     -31.391 -36.094 -34.642  1.00  0.00     0.016 A 
ATOM     14  C   UNL     1     -30.091 -36.123 -34.129  1.00  0.00     0.051 A 
ATOM     15  C   UNL     1     -29.876 -36.095 -32.746  1.00  0.00     0.157 A 
ATOM     16  C   UNL     1     -32.276 -36.013 -32.389  1.00  0.00     0.062 A 
ATOM     17  C   UNL     1     -30.975 -36.044 -31.873  1.00  0.00     0.158 A 
BRANCH  15  18
ATOM     18  O   UNL     1     -28.579 -36.121 -32.237  1.00  0.00    -0.504 OA
ATOM     19  H   UNL     1     -27.887 -35.432 -32.510  1.00  0.00     0.293 HD
ENDBRANCH  15  18
BRANCH  17  20
ATOM     20  O   UNL     1     -30.795 -36.027 -30.489  1.00  0.00    -0.504 OA
ATOM     21  H   UNL     1     -30.842 -35.169 -29.951  1.00  0.00     0.293 HD
ENDBRANCH  17  20
ENDBRANCH   1  12
BRANCH   6  22
ATOM     22  O   UNL     1     -38.298 -35.732 -37.019  1.00  0.00    -0.507 OA
ATOM     23  H   UNL     1     -39.249 -35.540 -37.297  1.00  0.00     0.293 HD
ENDBRANCH   6  22
BRANCH   8  24
ATOM     24  O   UNL     1     -39.519 -35.936 -32.379  1.00  0.00    -0.508 OA
ATOM     25  H   UNL     1     -40.108 -36.747 -32.234  1.00  0.00     0.293 HD
ENDBRANCH   8  24
TORSDOF 5
ENDMDL
