MODEL 1
REMARK VINA RESULT:    -2.910      0.000      0.000
REMARK INTER + INTRA:          -7.376
REMARK INTER:                  -5.291
REMARK INTRA:                  -2.085
REMARK UNBOUND:                -2.085
REMARK SMILES CCCCCCCCCCCCCCCC(=O)[O-]
REMARK SMILES IDX 9 1 10 2 11 3 12 4 13 5 14 6 15 7 16 8 17 9 18 10 8 11 7 12
REMARK SMILES IDX 6 13 5 14 4 15 3 16 2 17 1 18
REMARK H PARENT
REMARK Flexibility Score: inf
ROOT
ATOM      1  C   UNL     1      20.771   7.201  15.627  1.00  0.00     0.000 C 
ENDROOT
BRANCH   1   2
ATOM      2  C   UNL     1      19.252   7.428  15.636  1.00  0.00     0.000 C 
BRANCH   2   3
ATOM      3  C   UNL     1      18.649   7.376  17.052  1.00  0.00     0.000 C 
BRANCH   3   4
ATOM      4  C   UNL     1      18.273   8.779  17.577  1.00  0.00     0.000 C 
BRANCH   4   5
ATOM      5  C   UNL     1      19.482   9.607  18.052  1.00  0.00     0.000 C 
BRANCH   5   6
ATOM      6  C   UNL     1      19.784  10.852  17.200  1.00  0.00     0.006 C 
BRANCH   6   7
ATOM      7  C   UNL     1      21.231  11.339  17.353  1.00  0.00     0.053 C 
BRANCH   7   8
ATOM      8  C   UNL     1      21.302  12.822  17.177  1.00  0.00     0.041 C 
ATOM      9  O   UNL     1      21.068  13.588  18.149  1.00  0.00    -0.550 OA
ATOM     10  O   UNL     1      21.676  13.360  15.952  1.00  0.00    -0.550 OA
ENDBRANCH   7   8
ENDBRANCH   6   7
ENDBRANCH   5   6
ENDBRANCH   4   5
ENDBRANCH   3   4
ENDBRANCH   2   3
ENDBRANCH   1   2
BRANCH   1  11
ATOM     11  C   UNL     1      21.229   6.217  16.718  1.00  0.00     0.000 C 
BRANCH  11  12
ATOM     12  C   UNL     1      22.315   6.812  17.629  1.00  0.00    -0.000 C 
BRANCH  12  13
ATOM     13  C   UNL     1      22.953   8.081  17.042  1.00  0.00    -0.000 C 
BRANCH  13  14
ATOM     14  C   UNL     1      24.484   7.958  17.007  1.00  0.00    -0.000 C 
BRANCH  14  15
ATOM     15  C   UNL     1      24.958   6.559  16.584  1.00  0.00    -0.000 C 
BRANCH  15  16
ATOM     16  C   UNL     1      25.014   6.391  15.055  1.00  0.00    -0.000 C 
BRANCH  16  17
ATOM     17  C   UNL     1      24.258   5.144  14.573  1.00  0.00    -0.003 C 
ATOM     18  C   UNL     1      23.152   5.472  13.569  1.00  0.00     0.004 C 
ENDBRANCH  16  17
ENDBRANCH  15  16
ENDBRANCH  14  15
ENDBRANCH  13  14
ENDBRANCH  12  13
ENDBRANCH  11  12
ENDBRANCH   1  11
TORSDOF 14
ENDMDL
MODEL 2
REMARK VINA RESULT:    -2.796      1.238      1.941
REMARK INTER + INTRA:          -7.169
REMARK INTER:                  -5.048
REMARK INTRA:                  -2.122
REMARK UNBOUND:                -2.085
REMARK SMILES CCCCCCCCCCCCCCCC(=O)[O-]
REMARK SMILES IDX 9 1 10 2 11 3 12 4 13 5 14 6 15 7 16 8 17 9 18 10 8 11 7 12
REMARK SMILES IDX 6 13 5 14 4 15 3 16 2 17 1 18
REMARK H PARENT
REMARK Flexibility Score: inf
ROOT
ATOM      1  C   UNL     1      20.317   7.822  15.717  1.00  0.00     0.000 C 
ENDROOT
BRANCH   1   2
ATOM      2  C   UNL     1      19.010   7.312  16.343  1.00  0.00     0.000 C 
BRANCH   2   3
ATOM      3  C   UNL     1      18.223   8.420  17.066  1.00  0.00     0.000 C 
BRANCH   3   4
ATOM      4  C   UNL     1      18.247   9.755  16.289  1.00  0.00     0.000 C 
BRANCH   4   5
ATOM      5  C   UNL     1      18.637  10.968  17.155  1.00  0.00     0.000 C 
BRANCH   5   6
ATOM      6  C   UNL     1      19.970  10.821  17.908  1.00  0.00     0.006 C 
BRANCH   6   7
ATOM      7  C   UNL     1      21.183  11.195  17.046  1.00  0.00     0.053 C 
BRANCH   7   8
ATOM      8  C   UNL     1      21.384  12.677  17.047  1.00  0.00     0.041 C 
ATOM      9  O   UNL     1      21.367  13.318  18.131  1.00  0.00    -0.550 OA
ATOM     10  O   UNL     1      21.641  13.345  15.856  1.00  0.00    -0.550 OA
ENDBRANCH   7   8
ENDBRANCH   6   7
ENDBRANCH   5   6
ENDBRANCH   4   5
ENDBRANCH   3   4
ENDBRANCH   2   3
ENDBRANCH   1   2
BRANCH   1  11
ATOM     11  C   UNL     1      21.567   7.293  16.443  1.00  0.00     0.000 C 
BRANCH  11  12
ATOM     12  C   UNL     1      21.250   6.762  17.851  1.00  0.00    -0.000 C 
BRANCH  12  13
ATOM     13  C   UNL     1      21.817   7.657  18.964  1.00  0.00    -0.000 C 
BRANCH  13  14
ATOM     14  C   UNL     1      23.032   8.452  18.461  1.00  0.00    -0.000 C 
BRANCH  14  15
ATOM     15  C   UNL     1      24.328   8.088  19.203  1.00  0.00    -0.000 C 
BRANCH  15  16
ATOM     16  C   UNL     1      25.471   7.709  18.244  1.00  0.00    -0.000 C 
BRANCH  16  17
ATOM     17  C   UNL     1      25.110   7.960  16.772  1.00  0.00    -0.003 C 
ATOM     18  C   UNL     1      25.195   6.696  15.916  1.00  0.00     0.004 C 
ENDBRANCH  16  17
ENDBRANCH  15  16
ENDBRANCH  14  15
ENDBRANCH  13  14
ENDBRANCH  12  13
ENDBRANCH  11  12
ENDBRANCH   1  11
TORSDOF 14
ENDMDL
MODEL 3
REMARK VINA RESULT:    -2.760      1.360      3.859
REMARK INTER + INTRA:          -7.105
REMARK INTER:                  -4.653
REMARK INTRA:                  -2.452
REMARK UNBOUND:                -2.085
REMARK SMILES CCCCCCCCCCCCCCCC(=O)[O-]
REMARK SMILES IDX 9 1 10 2 11 3 12 4 13 5 14 6 15 7 16 8 17 9 18 10 8 11 7 12
REMARK SMILES IDX 6 13 5 14 4 15 3 16 2 17 1 18
REMARK H PARENT
REMARK Flexibility Score: inf
ROOT
ATOM      1  C   UNL     1      25.651   7.867  17.749  1.00  0.00     0.000 C 
ENDROOT
BRANCH   1   2
ATOM      2  C   UNL     1      24.802   7.962  19.027  1.00  0.00     0.000 C 
BRANCH   2   3
ATOM      3  C   UNL     1      23.702   6.887  19.092  1.00  0.00     0.000 C 
BRANCH   3   4
ATOM      4  C   UNL     1      22.293   7.504  19.240  1.00  0.00     0.000 C 
BRANCH   4   5
ATOM      5  C   UNL     1      22.261   9.031  19.030  1.00  0.00     0.000 C 
BRANCH   5   6
ATOM      6  C   UNL     1      21.070   9.542  18.201  1.00  0.00     0.006 C 
BRANCH   6   7
ATOM      7  C   UNL     1      21.505  10.394  17.002  1.00  0.00     0.053 C 
BRANCH   7   8
ATOM      8  C   UNL     1      21.134  11.826  17.220  1.00  0.00     0.041 C 
ATOM      9  O   UNL     1      20.554  12.176  18.281  1.00  0.00    -0.550 OA
ATOM     10  O   UNL     1      21.473  12.784  16.272  1.00  0.00    -0.550 OA
ENDBRANCH   7   8
ENDBRANCH   6   7
ENDBRANCH   5   6
ENDBRANCH   4   5
ENDBRANCH   3   4
ENDBRANCH   2   3
ENDBRANCH   1   2
BRANCH   1  11
ATOM     11  C   UNL     1      24.793   7.789  16.474  1.00  0.00     0.000 C 
BRANCH  11  12
ATOM     12  C   UNL     1      25.117   6.551  15.622  1.00  0.00    -0.000 C 
BRANCH  12  13
ATOM     13  C   UNL     1      23.864   5.917  14.997  1.00  0.00    -0.000 C 
BRANCH  13  14
ATOM     14  C   UNL     1      23.172   4.975  15.994  1.00  0.00    -0.000 C 
BRANCH  14  15
ATOM     15  C   UNL     1      21.710   5.366  16.265  1.00  0.00    -0.000 C 
BRANCH  15  16
ATOM     16  C   UNL     1      21.348   6.742  15.678  1.00  0.00    -0.000 C 
BRANCH  16  17
ATOM     17  C   UNL     1      19.839   7.024  15.727  1.00  0.00    -0.003 C 
ATOM     18  C   UNL     1      19.196   6.584  17.042  1.00  0.00     0.004 C 
ENDBRANCH  16  17
ENDBRANCH  15  16
ENDBRANCH  14  15
ENDBRANCH  13  14
ENDBRANCH  12  13
ENDBRANCH  11  12
ENDBRANCH   1  11
TORSDOF 14
ENDMDL
MODEL 4
REMARK VINA RESULT:    -2.744      3.087      6.685
REMARK INTER + INTRA:          -7.075
REMARK INTER:                  -5.101
REMARK INTRA:                  -1.974
REMARK UNBOUND:                -2.085
REMARK SMILES CCCCCCCCCCCCCCCC(=O)[O-]
REMARK SMILES IDX 9 1 10 2 11 3 12 4 13 5 14 6 15 7 16 8 17 9 18 10 8 11 7 12
REMARK SMILES IDX 6 13 5 14 4 15 3 16 2 17 1 18
REMARK H PARENT
REMARK Flexibility Score: inf
ROOT
ATOM      1  C   UNL     1      21.942   9.249  18.507  1.00  0.00     0.000 C 
ENDROOT
BRANCH   1   2
ATOM      2  C   UNL     1      22.712   8.289  19.427  1.00  0.00     0.000 C 
BRANCH   2   3
ATOM      3  C   UNL     1      24.019   8.899  19.965  1.00  0.00     0.000 C 
BRANCH   3   4
ATOM      4  C   UNL     1      25.258   8.072  19.559  1.00  0.00     0.000 C 
BRANCH   4   5
ATOM      5  C   UNL     1      25.597   8.161  18.058  1.00  0.00     0.000 C 
BRANCH   5   6
ATOM      6  C   UNL     1      25.802   6.804  17.362  1.00  0.00     0.006 C 
BRANCH   6   7
ATOM      7  C   UNL     1      24.478   6.104  17.028  1.00  0.00     0.053 C 
BRANCH   7   8
ATOM      8  C   UNL     1      24.240   6.121  15.551  1.00  0.00     0.041 C 
ATOM      9  O   UNL     1      25.190   6.352  14.758  1.00  0.00    -0.550 OA
ATOM     10  O   UNL     1      22.978   5.830  15.048  1.00  0.00    -0.550 OA
ENDBRANCH   7   8
ENDBRANCH   6   7
ENDBRANCH   5   6
ENDBRANCH   4   5
ENDBRANCH   3   4
ENDBRANCH   2   3
ENDBRANCH   1   2
BRANCH   1  11
ATOM     11  C   UNL     1      22.098   8.896  17.018  1.00  0.00     0.000 C 
BRANCH  11  12
ATOM     12  C   UNL     1      20.753   8.584  16.341  1.00  0.00    -0.000 C 
BRANCH  12  13
ATOM     13  C   UNL     1      19.589   8.505  17.343  1.00  0.00    -0.000 C 
BRANCH  13  14
ATOM     14  C   UNL     1      18.338   9.201  16.784  1.00  0.00    -0.000 C 
BRANCH  14  15
ATOM     15  C   UNL     1      18.053  10.549  17.465  1.00  0.00    -0.000 C 
BRANCH  15  16
ATOM     16  C   UNL     1      18.757  11.725  16.766  1.00  0.00    -0.000 C 
BRANCH  16  17
ATOM     17  C   UNL     1      19.920  12.291  17.595  1.00  0.00    -0.003 C 
ATOM     18  C   UNL     1      21.177  12.540  16.762  1.00  0.00     0.004 C 
ENDBRANCH  16  17
ENDBRANCH  15  16
ENDBRANCH  14  15
ENDBRANCH  13  14
ENDBRANCH  12  13
ENDBRANCH  11  12
ENDBRANCH   1  11
TORSDOF 14
ENDMDL
MODEL 5
REMARK VINA RESULT:    -2.736      2.959      6.007
REMARK INTER + INTRA:          -7.060
REMARK INTER:                  -5.261
REMARK INTRA:                  -1.799
REMARK UNBOUND:                -2.085
REMARK SMILES CCCCCCCCCCCCCCCC(=O)[O-]
REMARK SMILES IDX 9 1 10 2 11 3 12 4 13 5 14 6 15 7 16 8 17 9 18 10 8 11 7 12
REMARK SMILES IDX 6 13 5 14 4 15 3 16 2 17 1 18
REMARK H PARENT
REMARK Flexibility Score: inf
ROOT
ATOM      1  C   UNL     1      20.389   7.442  15.624  1.00  0.00     0.000 C 
ENDROOT
BRANCH   1   2
ATOM      2  C   UNL     1      21.434   6.553  16.314  1.00  0.00     0.000 C 
BRANCH   2   3
ATOM      3  C   UNL     1      22.505   6.026  15.341  1.00  0.00     0.000 C 
BRANCH   3   4
ATOM      4  C   UNL     1      23.852   5.756  16.048  1.00  0.00     0.000 C 
BRANCH   4   5
ATOM      5  C   UNL     1      24.944   6.792  15.716  1.00  0.00     0.000 C 
BRANCH   5   6
ATOM      6  C   UNL     1      24.955   8.030  16.628  1.00  0.00     0.006 C 
BRANCH   6   7
ATOM      7  C   UNL     1      24.752   7.679  18.108  1.00  0.00     0.053 C 
BRANCH   7   8
ATOM      8  C   UNL     1      26.042   7.806  18.854  1.00  0.00     0.041 C 
ATOM      9  O   UNL     1      26.504   6.825  19.495  1.00  0.00    -0.550 OA
ATOM     10  O   UNL     1      26.761   8.994  18.802  1.00  0.00    -0.550 OA
ENDBRANCH   7   8
ENDBRANCH   6   7
ENDBRANCH   5   6
ENDBRANCH   4   5
ENDBRANCH   3   4
ENDBRANCH   2   3
ENDBRANCH   1   2
BRANCH   1  11
ATOM     11  C   UNL     1      19.152   7.693  16.503  1.00  0.00     0.000 C 
BRANCH  11  12
ATOM     12  C   UNL     1      18.309   8.881  16.011  1.00  0.00    -0.000 C 
BRANCH  12  13
ATOM     13  C   UNL     1      18.001   9.893  17.126  1.00  0.00    -0.000 C 
BRANCH  13  14
ATOM     14  C   UNL     1      18.509  11.293  16.750  1.00  0.00    -0.000 C 
BRANCH  14  15
ATOM     15  C   UNL     1      19.600  11.807  17.704  1.00  0.00    -0.000 C 
BRANCH  15  16
ATOM     16  C   UNL     1      20.992  11.836  17.049  1.00  0.00    -0.000 C 
BRANCH  16  17
ATOM     17  C   UNL     1      21.652  10.449  17.010  1.00  0.00    -0.003 C 
ATOM     18  C   UNL     1      21.650   9.752  18.371  1.00  0.00     0.004 C 
ENDBRANCH  16  17
ENDBRANCH  15  16
ENDBRANCH  14  15
ENDBRANCH  13  14
ENDBRANCH  12  13
ENDBRANCH  11  12
ENDBRANCH   1  11
TORSDOF 14
ENDMDL
MODEL 6
REMARK VINA RESULT:    -2.711      3.372      5.160
REMARK INTER + INTRA:          -7.016
REMARK INTER:                  -4.459
REMARK INTRA:                  -2.556
REMARK UNBOUND:                -2.085
REMARK SMILES CCCCCCCCCCCCCCCC(=O)[O-]
REMARK SMILES IDX 9 1 10 2 11 3 12 4 13 5 14 6 15 7 16 8 17 9 18 10 8 11 7 12
REMARK SMILES IDX 6 13 5 14 4 15 3 16 2 17 1 18
REMARK H PARENT
REMARK Flexibility Score: inf
ROOT
ATOM      1  C   UNL     1      21.640   9.264  17.353  1.00  0.00     0.000 C 
ENDROOT
BRANCH   1   2
ATOM      2  C   UNL     1      20.194   8.762  17.475  1.00  0.00     0.000 C 
BRANCH   2   3
ATOM      3  C   UNL     1      19.659   8.157  16.164  1.00  0.00     0.000 C 
BRANCH   3   4
ATOM      4  C   UNL     1      20.673   7.190  15.513  1.00  0.00     0.000 C 
BRANCH   4   5
ATOM      5  C   UNL     1      20.804   5.843  16.248  1.00  0.00     0.000 C 
BRANCH   5   6
ATOM      6  C   UNL     1      22.237   5.289  16.328  1.00  0.00     0.006 C 
BRANCH   6   7
ATOM      7  C   UNL     1      23.296   6.327  15.935  1.00  0.00     0.053 C 
BRANCH   7   8
ATOM      8  C   UNL     1      24.045   5.872  14.723  1.00  0.00     0.041 C 
ATOM      9  O   UNL     1      25.280   6.098  14.620  1.00  0.00    -0.550 OA
ATOM     10  O   UNL     1      23.390   5.155  13.730  1.00  0.00    -0.550 OA
ENDBRANCH   7   8
ENDBRANCH   6   7
ENDBRANCH   5   6
ENDBRANCH   4   5
ENDBRANCH   3   4
ENDBRANCH   2   3
ENDBRANCH   1   2
BRANCH   1  11
ATOM     11  C   UNL     1      22.491   8.925  18.589  1.00  0.00     0.000 C 
BRANCH  11  12
ATOM     12  C   UNL     1      22.021   7.642  19.295  1.00  0.00    -0.000 C 
BRANCH  12  13
ATOM     13  C   UNL     1      23.071   7.080  20.266  1.00  0.00    -0.000 C 
BRANCH  13  14
ATOM     14  C   UNL     1      23.820   5.895  19.636  1.00  0.00    -0.000 C 
BRANCH  14  15
ATOM     15  C   UNL     1      25.266   6.244  19.249  1.00  0.00    -0.000 C 
BRANCH  15  16
ATOM     16  C   UNL     1      25.773   7.518  19.947  1.00  0.00    -0.000 C 
BRANCH  16  17
ATOM     17  C   UNL     1      26.387   8.523  18.961  1.00  0.00    -0.003 C 
ATOM     18  C   UNL     1      26.025   8.224  17.506  1.00  0.00     0.004 C 
ENDBRANCH  16  17
ENDBRANCH  15  16
ENDBRANCH  14  15
ENDBRANCH  13  14
ENDBRANCH  12  13
ENDBRANCH  11  12
ENDBRANCH   1  11
TORSDOF 14
ENDMDL
MODEL 7
REMARK VINA RESULT:    -2.709      2.844      6.289
REMARK INTER + INTRA:          -7.012
REMARK INTER:                  -4.818
REMARK INTRA:                  -2.194
REMARK UNBOUND:                -2.085
REMARK SMILES CCCCCCCCCCCCCCCC(=O)[O-]
REMARK SMILES IDX 9 1 10 2 11 3 12 4 13 5 14 6 15 7 16 8 17 9 18 10 8 11 7 12
REMARK SMILES IDX 6 13 5 14 4 15 3 16 2 17 1 18
REMARK H PARENT
REMARK Flexibility Score: inf
ROOT
ATOM      1  C   UNL     1      21.519   8.998  17.031  1.00  0.00     0.000 C 
ENDROOT
BRANCH   1   2
ATOM      2  C   UNL     1      21.381   8.636  18.517  1.00  0.00     0.000 C 
BRANCH   2   3
ATOM      3  C   UNL     1      22.346   9.430  19.417  1.00  0.00     0.000 C 
BRANCH   3   4
ATOM      4  C   UNL     1      23.676   8.679  19.651  1.00  0.00     0.000 C 
BRANCH   4   5
ATOM      5  C   UNL     1      23.552   7.148  19.528  1.00  0.00     0.000 C 
BRANCH   5   6
ATOM      6  C   UNL     1      24.582   6.492  18.592  1.00  0.00     0.006 C 
BRANCH   6   7
ATOM      7  C   UNL     1      23.997   6.145  17.217  1.00  0.00     0.053 C 
BRANCH   7   8
ATOM      8  C   UNL     1      24.625   6.991  16.156  1.00  0.00     0.041 C 
ATOM      9  O   UNL     1      24.907   8.196  16.391  1.00  0.00    -0.550 OA
ATOM     10  O   UNL     1      24.945   6.436  14.923  1.00  0.00    -0.550 OA
ENDBRANCH   7   8
ENDBRANCH   6   7
ENDBRANCH   5   6
ENDBRANCH   4   5
ENDBRANCH   3   4
ENDBRANCH   2   3
ENDBRANCH   1   2
BRANCH   1  11
ATOM     11  C   UNL     1      20.535   8.222  16.139  1.00  0.00     0.000 C 
BRANCH  11  12
ATOM     12  C   UNL     1      19.093   8.270  16.671  1.00  0.00    -0.000 C 
BRANCH  12  13
ATOM     13  C   UNL     1      18.327   9.516  16.199  1.00  0.00    -0.000 C 
BRANCH  13  14
ATOM     14  C   UNL     1      17.944  10.407  17.392  1.00  0.00    -0.000 C 
BRANCH  14  15
ATOM     15  C   UNL     1      18.643  11.776  17.360  1.00  0.00    -0.000 C 
BRANCH  15  16
ATOM     16  C   UNL     1      19.701  11.925  18.468  1.00  0.00    -0.000 C 
BRANCH  16  17
ATOM     17  C   UNL     1      20.821  12.903  18.083  1.00  0.00    -0.003 C 
ATOM     18  C   UNL     1      21.337  12.684  16.661  1.00  0.00     0.004 C 
ENDBRANCH  16  17
ENDBRANCH  15  16
ENDBRANCH  14  15
ENDBRANCH  13  14
ENDBRANCH  12  13
ENDBRANCH  11  12
ENDBRANCH   1  11
TORSDOF 14
ENDMDL
MODEL 8
REMARK VINA RESULT:    -2.706      1.706      3.189
REMARK INTER + INTRA:          -7.006
REMARK INTER:                  -4.801
REMARK INTRA:                  -2.205
REMARK UNBOUND:                -2.085
REMARK SMILES CCCCCCCCCCCCCCCC(=O)[O-]
REMARK SMILES IDX 9 1 10 2 11 3 12 4 13 5 14 6 15 7 16 8 17 9 18 10 8 11 7 12
REMARK SMILES IDX 6 13 5 14 4 15 3 16 2 17 1 18
REMARK H PARENT
REMARK Flexibility Score: inf
ROOT
ATOM      1  C   UNL     1      23.681   7.480  20.008  1.00  0.00     0.000 C 
ENDROOT
BRANCH   1   2
ATOM      2  C   UNL     1      22.388   7.771  19.230  1.00  0.00     0.000 C 
BRANCH   2   3
ATOM      3  C   UNL     1      22.359   9.188  18.629  1.00  0.00     0.000 C 
BRANCH   3   4
ATOM      4  C   UNL     1      21.916   9.184  17.150  1.00  0.00     0.000 C 
BRANCH   4   5
ATOM      5  C   UNL     1      20.429   9.537  16.948  1.00  0.00     0.000 C 
BRANCH   5   6
ATOM      6  C   UNL     1      19.922  10.707  17.809  1.00  0.00     0.006 C 
BRANCH   6   7
ATOM      7  C   UNL     1      19.857  12.029  17.033  1.00  0.00     0.053 C 
BRANCH   7   8
ATOM      8  C   UNL     1      21.165  12.748  17.120  1.00  0.00     0.041 C 
ATOM      9  O   UNL     1      21.650  13.307  16.101  1.00  0.00    -0.550 OA
ATOM     10  O   UNL     1      21.824  12.846  18.339  1.00  0.00    -0.550 OA
ENDBRANCH   7   8
ENDBRANCH   6   7
ENDBRANCH   5   6
ENDBRANCH   4   5
ENDBRANCH   3   4
ENDBRANCH   2   3
ENDBRANCH   1   2
BRANCH   1  11
ATOM     11  C   UNL     1      24.742   8.579  19.824  1.00  0.00     0.000 C 
BRANCH  11  12
ATOM     12  C   UNL     1      26.104   8.016  19.387  1.00  0.00    -0.000 C 
BRANCH  12  13
ATOM     13  C   UNL     1      25.976   6.725  18.563  1.00  0.00    -0.000 C 
BRANCH  13  14
ATOM     14  C   UNL     1      26.177   7.009  17.066  1.00  0.00    -0.000 C 
BRANCH  14  15
ATOM     15  C   UNL     1      24.852   7.061  16.288  1.00  0.00    -0.000 C 
BRANCH  15  16
ATOM     16  C   UNL     1      23.963   5.833  16.554  1.00  0.00    -0.000 C 
BRANCH  16  17
ATOM     17  C   UNL     1      22.663   5.861  15.736  1.00  0.00    -0.003 C 
ATOM     18  C   UNL     1      21.451   5.374  16.530  1.00  0.00     0.004 C 
ENDBRANCH  16  17
ENDBRANCH  15  16
ENDBRANCH  14  15
ENDBRANCH  13  14
ENDBRANCH  12  13
ENDBRANCH  11  12
ENDBRANCH   1  11
TORSDOF 14
ENDMDL
MODEL 9
REMARK VINA RESULT:    -2.704      2.882      5.559
REMARK INTER + INTRA:          -7.003
REMARK INTER:                  -4.736
REMARK INTRA:                  -2.267
REMARK UNBOUND:                -2.085
REMARK SMILES CCCCCCCCCCCCCCCC(=O)[O-]
REMARK SMILES IDX 9 1 10 2 11 3 12 4 13 5 14 6 15 7 16 8 17 9 18 10 8 11 7 12
REMARK SMILES IDX 6 13 5 14 4 15 3 16 2 17 1 18
REMARK H PARENT
REMARK Flexibility Score: inf
ROOT
ATOM      1  C   UNL     1      18.489   7.759  16.611  1.00  0.00     0.000 C 
ENDROOT
BRANCH   1   2
ATOM      2  C   UNL     1      19.580   6.994  15.846  1.00  0.00     0.000 C 
BRANCH   2   3
ATOM      3  C   UNL     1      19.862   5.603  16.441  1.00  0.00     0.000 C 
BRANCH   3   4
ATOM      4  C   UNL     1      21.365   5.249  16.411  1.00  0.00     0.000 C 
BRANCH   4   5
ATOM      5  C   UNL     1      22.249   6.356  15.803  1.00  0.00     0.000 C 
BRANCH   5   6
ATOM      6  C   UNL     1      23.757   6.187  16.055  1.00  0.00     0.006 C 
BRANCH   6   7
ATOM      7  C   UNL     1      24.153   6.483  17.507  1.00  0.00     0.053 C 
BRANCH   7   8
ATOM      8  C   UNL     1      25.513   7.102  17.559  1.00  0.00     0.041 C 
ATOM      9  O   UNL     1      26.500   6.432  17.964  1.00  0.00    -0.550 OA
ATOM     10  O   UNL     1      25.702   8.404  17.113  1.00  0.00    -0.550 OA
ENDBRANCH   7   8
ENDBRANCH   6   7
ENDBRANCH   5   6
ENDBRANCH   4   5
ENDBRANCH   3   4
ENDBRANCH   2   3
ENDBRANCH   1   2
BRANCH   1  11
ATOM     11  C   UNL     1      18.267   9.180  16.063  1.00  0.00     0.000 C 
BRANCH  11  12
ATOM     12  C   UNL     1      18.005  10.207  17.176  1.00  0.00    -0.000 C 
BRANCH  12  13
ATOM     13  C   UNL     1      18.780  11.518  16.968  1.00  0.00    -0.000 C 
BRANCH  13  14
ATOM     14  C   UNL     1      20.089  11.513  17.772  1.00  0.00    -0.000 C 
BRANCH  14  15
ATOM     15  C   UNL     1      21.303  11.092  16.928  1.00  0.00    -0.000 C 
BRANCH  15  16
ATOM     16  C   UNL     1      21.800   9.676  17.273  1.00  0.00    -0.000 C 
BRANCH  16  17
ATOM     17  C   UNL     1      21.732   9.380  18.779  1.00  0.00    -0.003 C 
ATOM     18  C   UNL     1      21.095   8.026  19.089  1.00  0.00     0.004 C 
ENDBRANCH  16  17
ENDBRANCH  15  16
ENDBRANCH  14  15
ENDBRANCH  13  14
ENDBRANCH  12  13
ENDBRANCH  11  12
ENDBRANCH   1  11
TORSDOF 14
ENDMDL
