MODEL 1
REMARK VINA RESULT:    -3.661      0.000      0.000
REMARK INTER + INTRA:          -9.762
REMARK INTER:                  -6.871
REMARK INTRA:                  -2.890
REMARK UNBOUND:                -2.890
REMARK SMILES CCCCCCCCC=CCCCCCCCC(=O)[O-]
REMARK SMILES IDX 10 1 9 2 11 3 12 4 13 5 14 6 15 7 16 8 17 9 18 10 19 11
REMARK SMILES IDX 20 12 8 13 7 14 6 15 5 16 4 17 3 18 2 19 1 20
REMARK H PARENT
REMARK Flexibility Score: inf
ROOT
ATOM      1  C   UNL     1     136.386 130.626 149.021  1.00  0.00    -0.031 C 
ATOM      2  C   UNL     1     137.309 130.025 148.246  1.00  0.00    -0.031 C 
ENDROOT
BRANCH   1   3
ATOM      3  C   UNL     1     136.689 131.322 150.326  1.00  0.00     0.027 C 
BRANCH   3   4
ATOM      4  C   UNL     1     136.853 132.846 150.155  1.00  0.00     0.004 C 
BRANCH   4   5
ATOM      5  C   UNL     1     138.319 133.305 150.082  1.00  0.00     0.000 C 
BRANCH   5   6
ATOM      6  C   UNL     1     139.002 133.344 151.460  1.00  0.00     0.000 C 
BRANCH   6   7
ATOM      7  C   UNL     1     140.428 132.775 151.429  1.00  0.00     0.000 C 
BRANCH   7   8
ATOM      8  C   UNL     1     140.961 132.594 149.997  1.00  0.00     0.006 C 
BRANCH   8   9
ATOM      9  C   UNL     1     142.176 133.486 149.714  1.00  0.00     0.053 C 
BRANCH   9  10
ATOM     10  C   UNL     1     141.782 134.757 149.025  1.00  0.00     0.041 C 
ATOM     11  O   UNL     1     141.015 135.576 149.596  1.00  0.00    -0.550 OA
ATOM     12  O   UNL     1     142.236 135.019 147.739  1.00  0.00    -0.550 OA
ENDBRANCH   9  10
ENDBRANCH   8   9
ENDBRANCH   7   8
ENDBRANCH   6   7
ENDBRANCH   5   6
ENDBRANCH   4   5
ENDBRANCH   3   4
ENDBRANCH   1   3
BRANCH   2  13
ATOM     13  C   UNL     1     138.767 129.898 148.605  1.00  0.00     0.027 C 
BRANCH  13  14
ATOM     14  C   UNL     1     139.652 130.078 147.362  1.00  0.00     0.004 C 
BRANCH  14  15
ATOM     15  C   UNL     1     139.145 131.202 146.446  1.00  0.00     0.000 C 
BRANCH  15  16
ATOM     16  C   UNL     1     140.011 132.467 146.551  1.00  0.00     0.000 C 
BRANCH  16  17
ATOM     17  C   UNL     1     139.145 133.734 146.543  1.00  0.00    -0.000 C 
BRANCH  17  18
ATOM     18  C   UNL     1     137.641 133.411 146.408  1.00  0.00    -0.000 C 
BRANCH  18  19
ATOM     19  C   UNL     1     137.011 133.938 145.108  1.00  0.00    -0.003 C 
ATOM     20  C   UNL     1     136.881 135.459 145.075  1.00  0.00     0.004 C 
ENDBRANCH  18  19
ENDBRANCH  17  18
ENDBRANCH  16  17
ENDBRANCH  15  16
ENDBRANCH  14  15
ENDBRANCH  13  14
ENDBRANCH   2  13
TORSDOF 15
ENDMDL
MODEL 2
REMARK VINA RESULT:    -3.643      2.332      5.190
REMARK INTER + INTRA:          -9.728
REMARK INTER:                  -7.162
REMARK INTRA:                  -2.566
REMARK UNBOUND:                -2.890
REMARK SMILES CCCCCCCCC=CCCCCCCCC(=O)[O-]
REMARK SMILES IDX 10 1 9 2 11 3 12 4 13 5 14 6 15 7 16 8 17 9 18 10 19 11
REMARK SMILES IDX 20 12 8 13 7 14 6 15 5 16 4 17 3 18 2 19 1 20
REMARK H PARENT
REMARK Flexibility Score: inf
ROOT
ATOM      1  C   UNL     1     136.761 132.441 149.781  1.00  0.00    -0.031 C 
ATOM      2  C   UNL     1     137.576 133.362 150.330  1.00  0.00    -0.031 C 
ENDROOT
BRANCH   1   3
ATOM      3  C   UNL     1     136.702 130.993 150.204  1.00  0.00     0.027 C 
BRANCH   3   4
ATOM      4  C   UNL     1     137.756 130.127 149.485  1.00  0.00     0.004 C 
BRANCH   4   5
ATOM      5  C   UNL     1     137.869 130.415 147.978  1.00  0.00     0.000 C 
BRANCH   5   6
ATOM      6  C   UNL     1     139.250 130.962 147.577  1.00  0.00     0.000 C 
BRANCH   6   7
ATOM      7  C   UNL     1     139.158 132.115 146.567  1.00  0.00     0.000 C 
BRANCH   7   8
ATOM      8  C   UNL     1     137.704 132.477 146.215  1.00  0.00     0.006 C 
BRANCH   8   9
ATOM      9  C   UNL     1     137.443 133.985 146.312  1.00  0.00     0.053 C 
BRANCH   9  10
ATOM     10  C   UNL     1     136.905 134.537 145.027  1.00  0.00     0.041 C 
ATOM     11  O   UNL     1     136.697 135.774 144.906  1.00  0.00    -0.550 OA
ATOM     12  O   UNL     1     136.603 133.682 143.976  1.00  0.00    -0.550 OA
ENDBRANCH   9  10
ENDBRANCH   8   9
ENDBRANCH   7   8
ENDBRANCH   6   7
ENDBRANCH   5   6
ENDBRANCH   4   5
ENDBRANCH   3   4
ENDBRANCH   1   3
BRANCH   2  13
ATOM     13  C   UNL     1     138.598 133.064 151.396  1.00  0.00     0.027 C 
BRANCH  13  14
ATOM     14  C   UNL     1     140.023 133.255 150.854  1.00  0.00     0.004 C 
BRANCH  14  15
ATOM     15  C   UNL     1     140.041 134.038 149.533  1.00  0.00     0.000 C 
BRANCH  15  16
ATOM     16  C   UNL     1     141.073 135.176 149.550  1.00  0.00     0.000 C 
BRANCH  16  17
ATOM     17  C   UNL     1     142.108 135.003 148.429  1.00  0.00    -0.000 C 
BRANCH  17  18
ATOM     18  C   UNL     1     142.562 133.535 148.276  1.00  0.00    -0.000 C 
BRANCH  18  19
ATOM     19  C   UNL     1     143.898 133.227 148.974  1.00  0.00    -0.003 C 
ATOM     20  C   UNL     1     143.724 132.624 150.366  1.00  0.00     0.004 C 
ENDBRANCH  18  19
ENDBRANCH  17  18
ENDBRANCH  16  17
ENDBRANCH  15  16
ENDBRANCH  14  15
ENDBRANCH  13  14
ENDBRANCH   2  13
TORSDOF 15
ENDMDL
MODEL 3
REMARK VINA RESULT:    -3.612      1.951      2.383
REMARK INTER + INTRA:          -9.670
REMARK INTER:                  -6.756
REMARK INTRA:                  -2.914
REMARK UNBOUND:                -2.890
REMARK SMILES CCCCCCCCC=CCCCCCCCC(=O)[O-]
REMARK SMILES IDX 10 1 9 2 11 3 12 4 13 5 14 6 15 7 16 8 17 9 18 10 19 11
REMARK SMILES IDX 20 12 8 13 7 14 6 15 5 16 4 17 3 18 2 19 1 20
REMARK H PARENT
REMARK Flexibility Score: inf
ROOT
ATOM      1  C   UNL     1     137.646 130.812 150.803  1.00  0.00    -0.031 C 
ATOM      2  C   UNL     1     138.420 129.956 150.109  1.00  0.00    -0.031 C 
ENDROOT
BRANCH   1   3
ATOM      3  C   UNL     1     136.741 131.845 150.177  1.00  0.00     0.027 C 
BRANCH   3   4
ATOM      4  C   UNL     1     137.309 133.274 150.295  1.00  0.00     0.004 C 
BRANCH   4   5
ATOM      5  C   UNL     1     138.634 133.349 151.072  1.00  0.00     0.000 C 
BRANCH   5   6
ATOM      6  C   UNL     1     139.753 134.043 150.277  1.00  0.00     0.000 C 
BRANCH   6   7
ATOM      7  C   UNL     1     141.101 133.316 150.397  1.00  0.00     0.000 C 
BRANCH   7   8
ATOM      8  C   UNL     1     141.169 132.398 151.630  1.00  0.00     0.006 C 
BRANCH   8   9
ATOM      9  C   UNL     1     141.895 131.080 151.331  1.00  0.00     0.053 C 
BRANCH   9  10
ATOM     10  C   UNL     1     143.218 131.314 150.668  1.00  0.00     0.041 C 
ATOM     11  O   UNL     1     143.434 130.870 149.510  1.00  0.00    -0.550 OA
ATOM     12  O   UNL     1     144.222 131.996 151.344  1.00  0.00    -0.550 OA
ENDBRANCH   9  10
ENDBRANCH   8   9
ENDBRANCH   7   8
ENDBRANCH   6   7
ENDBRANCH   5   6
ENDBRANCH   4   5
ENDBRANCH   3   4
ENDBRANCH   1   3
BRANCH   2  13
ATOM     13  C   UNL     1     138.549 129.955 148.607  1.00  0.00     0.027 C 
BRANCH  13  14
ATOM     14  C   UNL     1     139.897 130.554 148.175  1.00  0.00     0.004 C 
BRANCH  14  15
ATOM     15  C   UNL     1     139.722 131.814 147.314  1.00  0.00     0.000 C 
BRANCH  15  16
ATOM     16  C   UNL     1     138.322 131.896 146.688  1.00  0.00     0.000 C 
BRANCH  16  17
ATOM     17  C   UNL     1     137.736 133.308 146.822  1.00  0.00    -0.000 C 
BRANCH  17  18
ATOM     18  C   UNL     1     138.077 134.200 145.609  1.00  0.00    -0.000 C 
BRANCH  18  19
ATOM     19  C   UNL     1     136.870 134.504 144.707  1.00  0.00    -0.003 C 
ATOM     20  C   UNL     1     136.572 133.391 143.705  1.00  0.00     0.004 C 
ENDBRANCH  18  19
ENDBRANCH  17  18
ENDBRANCH  16  17
ENDBRANCH  15  16
ENDBRANCH  14  15
ENDBRANCH  13  14
ENDBRANCH   2  13
TORSDOF 15
ENDMDL
MODEL 4
REMARK VINA RESULT:    -3.609      1.988      3.174
REMARK INTER + INTRA:          -9.665
REMARK INTER:                  -6.988
REMARK INTRA:                  -2.677
REMARK UNBOUND:                -2.890
REMARK SMILES CCCCCCCCC=CCCCCCCCC(=O)[O-]
REMARK SMILES IDX 10 1 9 2 11 3 12 4 13 5 14 6 15 7 16 8 17 9 18 10 19 11
REMARK SMILES IDX 20 12 8 13 7 14 6 15 5 16 4 17 3 18 2 19 1 20
REMARK H PARENT
REMARK Flexibility Score: inf
ROOT
ATOM      1  C   UNL     1     137.383 133.317 150.247  1.00  0.00    -0.031 C 
ATOM      2  C   UNL     1     136.567 132.335 149.817  1.00  0.00    -0.031 C 
ENDROOT
BRANCH   1   3
ATOM      3  C   UNL     1     138.529 133.114 151.208  1.00  0.00     0.027 C 
BRANCH   3   4
ATOM      4  C   UNL     1     139.746 133.997 150.866  1.00  0.00     0.004 C 
BRANCH   4   5
ATOM      5  C   UNL     1     140.236 133.839 149.416  1.00  0.00     0.000 C 
BRANCH   5   6
ATOM      6  C   UNL     1     141.370 134.815 149.059  1.00  0.00     0.000 C 
BRANCH   6   7
ATOM      7  C   UNL     1     142.756 134.156 149.115  1.00  0.00     0.000 C 
BRANCH   7   8
ATOM      8  C   UNL     1     142.678 132.632 149.309  1.00  0.00     0.006 C 
BRANCH   8   9
ATOM      9  C   UNL     1     143.314 132.183 150.631  1.00  0.00     0.053 C 
BRANCH   9  10
ATOM     10  C   UNL     1     142.299 131.591 151.560  1.00  0.00     0.041 C 
ATOM     11  O   UNL     1     142.221 131.991 152.752  1.00  0.00    -0.550 OA
ATOM     12  O   UNL     1     141.461 130.575 151.118  1.00  0.00    -0.550 OA
ENDBRANCH   9  10
ENDBRANCH   8   9
ENDBRANCH   7   8
ENDBRANCH   6   7
ENDBRANCH   5   6
ENDBRANCH   4   5
ENDBRANCH   3   4
ENDBRANCH   1   3
BRANCH   2  13
ATOM     13  C   UNL     1     136.635 130.906 150.291  1.00  0.00     0.027 C 
BRANCH  13  14
ATOM     14  C   UNL     1     137.160 129.987 149.176  1.00  0.00     0.004 C 
BRANCH  14  15
ATOM     15  C   UNL     1     138.690 130.040 149.054  1.00  0.00     0.000 C 
BRANCH  15  16
ATOM     16  C   UNL     1     139.142 130.627 147.708  1.00  0.00     0.000 C 
BRANCH  16  17
ATOM     17  C   UNL     1     138.078 130.407 146.623  1.00  0.00    -0.000 C 
BRANCH  17  18
ATOM     18  C   UNL     1     137.800 131.690 145.810  1.00  0.00    -0.000 C 
BRANCH  18  19
ATOM     19  C   UNL     1     138.236 132.980 146.524  1.00  0.00    -0.003 C 
ATOM     20  C   UNL     1     137.250 134.132 146.339  1.00  0.00     0.004 C 
ENDBRANCH  18  19
ENDBRANCH  17  18
ENDBRANCH  16  17
ENDBRANCH  15  16
ENDBRANCH  14  15
ENDBRANCH  13  14
ENDBRANCH   2  13
TORSDOF 15
ENDMDL
MODEL 5
REMARK VINA RESULT:    -3.607      0.885      2.570
REMARK INTER + INTRA:          -9.660
REMARK INTER:                  -6.676
REMARK INTRA:                  -2.984
REMARK UNBOUND:                -2.890
REMARK SMILES CCCCCCCCC=CCCCCCCCC(=O)[O-]
REMARK SMILES IDX 10 1 9 2 11 3 12 4 13 5 14 6 15 7 16 8 17 9 18 10 19 11
REMARK SMILES IDX 20 12 8 13 7 14 6 15 5 16 4 17 3 18 2 19 1 20
REMARK H PARENT
REMARK Flexibility Score: inf
ROOT
ATOM      1  C   UNL     1     137.209 133.428 150.062  1.00  0.00    -0.031 C 
ATOM      2  C   UNL     1     136.437 132.325 150.088  1.00  0.00    -0.031 C 
ENDROOT
BRANCH   1   3
ATOM      3  C   UNL     1     138.718 133.413 150.011  1.00  0.00     0.027 C 
BRANCH   3   4
ATOM      4  C   UNL     1     139.354 133.474 151.414  1.00  0.00     0.004 C 
BRANCH   4   5
ATOM      5  C   UNL     1     140.665 132.679 151.533  1.00  0.00     0.000 C 
BRANCH   5   6
ATOM      6  C   UNL     1     140.824 131.620 150.429  1.00  0.00     0.000 C 
BRANCH   6   7
ATOM      7  C   UNL     1     142.207 131.664 149.762  1.00  0.00     0.000 C 
BRANCH   7   8
ATOM      8  C   UNL     1     142.871 133.048 149.870  1.00  0.00     0.006 C 
BRANCH   8   9
ATOM      9  C   UNL     1     142.927 133.771 148.518  1.00  0.00     0.053 C 
BRANCH   9  10
ATOM     10  C   UNL     1     141.831 134.785 148.387  1.00  0.00     0.041 C 
ATOM     11  O   UNL     1     141.296 134.999 147.268  1.00  0.00    -0.550 OA
ATOM     12  O   UNL     1     141.424 135.515 149.496  1.00  0.00    -0.550 OA
ENDBRANCH   9  10
ENDBRANCH   8   9
ENDBRANCH   7   8
ENDBRANCH   6   7
ENDBRANCH   5   6
ENDBRANCH   4   5
ENDBRANCH   3   4
ENDBRANCH   1   3
BRANCH   2  13
ATOM     13  C   UNL     1     136.970 130.917 150.144  1.00  0.00     0.027 C 
BRANCH  13  14
ATOM     14  C   UNL     1     136.234 130.015 149.140  1.00  0.00     0.004 C 
BRANCH  14  15
ATOM     15  C   UNL     1     137.036 129.813 147.845  1.00  0.00     0.000 C 
BRANCH  15  16
ATOM     16  C   UNL     1     138.547 129.970 148.072  1.00  0.00     0.000 C 
BRANCH  16  17
ATOM     17  C   UNL     1     139.150 130.996 147.102  1.00  0.00    -0.000 C 
BRANCH  17  18
ATOM     18  C   UNL     1     138.065 131.839 146.397  1.00  0.00    -0.000 C 
BRANCH  18  19
ATOM     19  C   UNL     1     138.359 133.349 146.398  1.00  0.00    -0.003 C 
ATOM     20  C   UNL     1     137.124 134.202 146.119  1.00  0.00     0.004 C 
ENDBRANCH  18  19
ENDBRANCH  17  18
ENDBRANCH  16  17
ENDBRANCH  15  16
ENDBRANCH  14  15
ENDBRANCH  13  14
ENDBRANCH   2  13
TORSDOF 15
ENDMDL
MODEL 6
REMARK VINA RESULT:    -3.590      1.637      3.025
REMARK INTER + INTRA:          -9.629
REMARK INTER:                  -6.663
REMARK INTRA:                  -2.966
REMARK UNBOUND:                -2.890
REMARK SMILES CCCCCCCCC=CCCCCCCCC(=O)[O-]
REMARK SMILES IDX 10 1 9 2 11 3 12 4 13 5 14 6 15 7 16 8 17 9 18 10 19 11
REMARK SMILES IDX 20 12 8 13 7 14 6 15 5 16 4 17 3 18 2 19 1 20
REMARK H PARENT
REMARK Flexibility Score: inf
ROOT
ATOM      1  C   UNL     1     136.824 132.410 150.248  1.00  0.00    -0.031 C 
ATOM      2  C   UNL     1     137.371 133.385 149.497  1.00  0.00    -0.031 C 
ENDROOT
BRANCH   1   3
ATOM      3  C   UNL     1     136.288 131.109 149.701  1.00  0.00     0.027 C 
BRANCH   3   4
ATOM      4  C   UNL     1     136.425 129.947 150.705  1.00  0.00     0.004 C 
BRANCH   4   5
ATOM      5  C   UNL     1     137.741 129.162 150.565  1.00  0.00     0.000 C 
BRANCH   5   6
ATOM      6  C   UNL     1     138.330 129.233 149.146  1.00  0.00     0.000 C 
BRANCH   6   7
ATOM      7  C   UNL     1     139.747 129.827 149.124  1.00  0.00     0.000 C 
BRANCH   7   8
ATOM      8  C   UNL     1     140.068 130.636 150.393  1.00  0.00     0.006 C 
BRANCH   8   9
ATOM      9  C   UNL     1     141.096 131.743 150.129  1.00  0.00     0.053 C 
BRANCH   9  10
ATOM     10  C   UNL     1     140.856 132.940 150.998  1.00  0.00     0.041 C 
ATOM     11  O   UNL     1     140.626 134.064 150.479  1.00  0.00    -0.550 OA
ATOM     12  O   UNL     1     140.918 132.819 152.380  1.00  0.00    -0.550 OA
ENDBRANCH   9  10
ENDBRANCH   8   9
ENDBRANCH   7   8
ENDBRANCH   6   7
ENDBRANCH   5   6
ENDBRANCH   4   5
ENDBRANCH   3   4
ENDBRANCH   1   3
BRANCH   2  13
ATOM     13  C   UNL     1     137.459 133.349 147.992  1.00  0.00     0.027 C 
BRANCH  13  14
ATOM     14  C   UNL     1     138.907 133.112 147.537  1.00  0.00     0.004 C 
BRANCH  14  15
ATOM     15  C   UNL     1     138.990 132.144 146.347  1.00  0.00     0.000 C 
BRANCH  15  16
ATOM     16  C   UNL     1     137.609 131.608 145.941  1.00  0.00     0.000 C 
BRANCH  16  17
ATOM     17  C   UNL     1     137.394 131.722 144.425  1.00  0.00    -0.000 C 
BRANCH  17  18
ATOM     18  C   UNL     1     136.458 132.893 144.055  1.00  0.00    -0.000 C 
BRANCH  18  19
ATOM     19  C   UNL     1     137.196 134.218 143.803  1.00  0.00    -0.003 C 
ATOM     20  C   UNL     1     136.925 135.272 144.875  1.00  0.00     0.004 C 
ENDBRANCH  18  19
ENDBRANCH  17  18
ENDBRANCH  16  17
ENDBRANCH  15  16
ENDBRANCH  14  15
ENDBRANCH  13  14
ENDBRANCH   2  13
TORSDOF 15
ENDMDL
MODEL 7
REMARK VINA RESULT:    -3.574      2.272      3.715
REMARK INTER + INTRA:          -9.598
REMARK INTER:                  -6.452
REMARK INTRA:                  -3.146
REMARK UNBOUND:                -2.890
REMARK SMILES CCCCCCCCC=CCCCCCCCC(=O)[O-]
REMARK SMILES IDX 10 1 9 2 11 3 12 4 13 5 14 6 15 7 16 8 17 9 18 10 19 11
REMARK SMILES IDX 20 12 8 13 7 14 6 15 5 16 4 17 3 18 2 19 1 20
REMARK H PARENT
REMARK Flexibility Score: inf
ROOT
ATOM      1  C   UNL     1     136.734 132.581 149.815  1.00  0.00    -0.031 C 
ATOM      2  C   UNL     1     137.624 133.376 150.440  1.00  0.00    -0.031 C 
ENDROOT
BRANCH   1   3
ATOM      3  C   UNL     1     136.569 131.105 150.086  1.00  0.00     0.027 C 
BRANCH   3   4
ATOM      4  C   UNL     1     136.727 130.252 148.812  1.00  0.00     0.004 C 
BRANCH   4   5
ATOM      5  C   UNL     1     138.187 129.896 148.483  1.00  0.00     0.000 C 
BRANCH   5   6
ATOM      6  C   UNL     1     139.054 129.709 149.740  1.00  0.00     0.000 C 
BRANCH   6   7
ATOM      7  C   UNL     1     140.524 130.087 149.506  1.00  0.00     0.000 C 
BRANCH   7   8
ATOM      8  C   UNL     1     141.325 130.182 150.815  1.00  0.00     0.006 C 
BRANCH   8   9
ATOM      9  C   UNL     1     142.625 130.978 150.643  1.00  0.00     0.053 C 
BRANCH   9  10
ATOM     10  C   UNL     1     143.158 131.458 151.959  1.00  0.00     0.041 C 
ATOM     11  O   UNL     1     142.367 131.815 152.872  1.00  0.00    -0.550 OA
ATOM     12  O   UNL     1     144.529 131.541 152.165  1.00  0.00    -0.550 OA
ENDBRANCH   9  10
ENDBRANCH   8   9
ENDBRANCH   7   8
ENDBRANCH   6   7
ENDBRANCH   5   6
ENDBRANCH   4   5
ENDBRANCH   3   4
ENDBRANCH   1   3
BRANCH   2  13
ATOM     13  C   UNL     1     138.634 132.891 151.448  1.00  0.00     0.027 C 
BRANCH  13  14
ATOM     14  C   UNL     1     139.977 133.615 151.265  1.00  0.00     0.004 C 
BRANCH  14  15
ATOM     15  C   UNL     1     140.063 134.347 149.918  1.00  0.00     0.000 C 
BRANCH  15  16
ATOM     16  C   UNL     1     141.341 133.987 149.145  1.00  0.00     0.000 C 
BRANCH  16  17
ATOM     17  C   UNL     1     141.027 133.657 147.679  1.00  0.00    -0.000 C 
BRANCH  17  18
ATOM     18  C   UNL     1     139.518 133.430 147.442  1.00  0.00    -0.000 C 
BRANCH  18  19
ATOM     19  C   UNL     1     139.213 132.447 146.299  1.00  0.00    -0.003 C 
ATOM     20  C   UNL     1     137.775 132.540 145.794  1.00  0.00     0.004 C 
ENDBRANCH  18  19
ENDBRANCH  17  18
ENDBRANCH  16  17
ENDBRANCH  15  16
ENDBRANCH  14  15
ENDBRANCH  13  14
ENDBRANCH   2  13
TORSDOF 15
ENDMDL
MODEL 8
REMARK VINA RESULT:    -3.559      2.993      6.138
REMARK INTER + INTRA:          -9.570
REMARK INTER:                  -6.955
REMARK INTRA:                  -2.615
REMARK UNBOUND:                -2.890
REMARK SMILES CCCCCCCCC=CCCCCCCCC(=O)[O-]
REMARK SMILES IDX 10 1 9 2 11 3 12 4 13 5 14 6 15 7 16 8 17 9 18 10 19 11
REMARK SMILES IDX 20 12 8 13 7 14 6 15 5 16 4 17 3 18 2 19 1 20
REMARK H PARENT
REMARK Flexibility Score: inf
ROOT
ATOM      1  C   UNL     1     138.452 130.359 149.129  1.00  0.00    -0.031 C 
ATOM      2  C   UNL     1     137.796 130.815 150.213  1.00  0.00    -0.031 C 
ENDROOT
BRANCH   1   3
ATOM      3  C   UNL     1     138.305 130.929 147.739  1.00  0.00     0.027 C 
BRANCH   3   4
ATOM      4  C   UNL     1     139.477 131.855 147.356  1.00  0.00     0.004 C 
BRANCH   4   5
ATOM      5  C   UNL     1     139.033 133.222 146.809  1.00  0.00     0.000 C 
BRANCH   5   6
ATOM      6  C   UNL     1     137.506 133.335 146.654  1.00  0.00     0.000 C 
BRANCH   6   7
ATOM      7  C   UNL     1     137.086 134.558 145.825  1.00  0.00     0.000 C 
BRANCH   7   8
ATOM      8  C   UNL     1     137.167 134.302 144.310  1.00  0.00     0.006 C 
BRANCH   8   9
ATOM      9  C   UNL     1     136.453 133.007 143.903  1.00  0.00     0.053 C 
BRANCH   9  10
ATOM     10  C   UNL     1     136.649 132.701 142.449  1.00  0.00     0.041 C 
ATOM     11  O   UNL     1     135.961 131.806 141.891  1.00  0.00    -0.550 OA
ATOM     12  O   UNL     1     137.615 133.382 141.720  1.00  0.00    -0.550 OA
ENDBRANCH   9  10
ENDBRANCH   8   9
ENDBRANCH   7   8
ENDBRANCH   6   7
ENDBRANCH   5   6
ENDBRANCH   4   5
ENDBRANCH   3   4
ENDBRANCH   1   3
BRANCH   2  13
ATOM     13  C   UNL     1     136.764 131.913 150.182  1.00  0.00     0.027 C 
BRANCH  13  14
ATOM     14  C   UNL     1     137.426 133.288 150.365  1.00  0.00     0.004 C 
BRANCH  14  15
ATOM     15  C   UNL     1     138.729 133.201 151.174  1.00  0.00     0.000 C 
BRANCH  15  16
ATOM     16  C   UNL     1     139.870 133.993 150.516  1.00  0.00     0.000 C 
BRANCH  16  17
ATOM     17  C   UNL     1     141.140 133.138 150.397  1.00  0.00    -0.000 C 
BRANCH  17  18
ATOM     18  C   UNL     1     141.310 132.176 151.592  1.00  0.00    -0.000 C 
BRANCH  18  19
ATOM     19  C   UNL     1     142.129 130.917 151.260  1.00  0.00    -0.003 C 
ATOM     20  C   UNL     1     142.184 130.613 149.765  1.00  0.00     0.004 C 
ENDBRANCH  18  19
ENDBRANCH  17  18
ENDBRANCH  16  17
ENDBRANCH  15  16
ENDBRANCH  14  15
ENDBRANCH  13  14
ENDBRANCH   2  13
TORSDOF 15
ENDMDL
MODEL 9
REMARK VINA RESULT:    -3.549      3.315      5.464
REMARK INTER + INTRA:          -9.552
REMARK INTER:                  -6.847
REMARK INTRA:                  -2.705
REMARK UNBOUND:                -2.890
REMARK SMILES CCCCCCCCC=CCCCCCCCC(=O)[O-]
REMARK SMILES IDX 10 1 9 2 11 3 12 4 13 5 14 6 15 7 16 8 17 9 18 10 19 11
REMARK SMILES IDX 20 12 8 13 7 14 6 15 5 16 4 17 3 18 2 19 1 20
REMARK H PARENT
REMARK Flexibility Score: inf
ROOT
ATOM      1  C   UNL     1     141.824 133.256 148.721  1.00  0.00    -0.031 C 
ATOM      2  C   UNL     1     141.500 134.249 149.572  1.00  0.00    -0.031 C 
ENDROOT
BRANCH   1   3
ATOM      3  C   UNL     1     140.827 132.319 148.083  1.00  0.00     0.027 C 
BRANCH   3   4
ATOM      4  C   UNL     1     140.671 131.002 148.870  1.00  0.00     0.004 C 
BRANCH   4   5
ATOM      5  C   UNL     1     141.931 130.120 148.854  1.00  0.00     0.000 C 
BRANCH   5   6
ATOM      6  C   UNL     1     142.534 129.915 150.254  1.00  0.00     0.000 C 
BRANCH   6   7
ATOM      7  C   UNL     1     141.742 130.644 151.351  1.00  0.00     0.000 C 
BRANCH   7   8
ATOM      8  C   UNL     1     142.599 131.666 152.117  1.00  0.00     0.006 C 
BRANCH   8   9
ATOM      9  C   UNL     1     144.100 131.443 151.899  1.00  0.00     0.053 C 
BRANCH   9  10
ATOM     10  C   UNL     1     144.758 130.873 153.119  1.00  0.00     0.041 C 
ATOM     11  O   UNL     1     145.557 131.574 153.795  1.00  0.00    -0.550 OA
ATOM     12  O   UNL     1     144.512 129.558 153.491  1.00  0.00    -0.550 OA
ENDBRANCH   9  10
ENDBRANCH   8   9
ENDBRANCH   7   8
ENDBRANCH   6   7
ENDBRANCH   5   6
ENDBRANCH   4   5
ENDBRANCH   3   4
ENDBRANCH   1   3
BRANCH   2  13
ATOM     13  C   UNL     1     140.102 134.521 150.066  1.00  0.00     0.027 C 
BRANCH  13  14
ATOM     14  C   UNL     1     139.818 133.735 151.356  1.00  0.00     0.004 C 
BRANCH  14  15
ATOM     15  C   UNL     1     138.471 132.999 151.302  1.00  0.00     0.000 C 
BRANCH  15  16
ATOM     16  C   UNL     1     137.673 133.346 150.036  1.00  0.00     0.000 C 
BRANCH  16  17
ATOM     17  C   UNL     1     136.900 132.126 149.516  1.00  0.00    -0.000 C 
BRANCH  17  18
ATOM     18  C   UNL     1     137.203 130.852 150.333  1.00  0.00    -0.000 C 
BRANCH  18  19
ATOM     19  C   UNL     1     135.974 129.957 150.562  1.00  0.00    -0.003 C 
ATOM     20  C   UNL     1     135.240 129.601 149.271  1.00  0.00     0.004 C 
ENDBRANCH  18  19
ENDBRANCH  17  18
ENDBRANCH  16  17
ENDBRANCH  15  16
ENDBRANCH  14  15
ENDBRANCH  13  14
ENDBRANCH   2  13
TORSDOF 15
ENDMDL
