MODEL 1
REMARK VINA RESULT:    14.644      0.000      0.000
REMARK INTER + INTRA:          30.535
REMARK INTER:                  31.766
REMARK INTRA:                  -1.231
REMARK UNBOUND:                -1.231
REMARK SMILES CCCCCCCCCCCCCCCCCCCCCC(=O)[O-]
REMARK SMILES IDX 12 1 11 2 10 3 9 4 8 5 7 6 6 7 5 8 4 9 3 10 2 11 1 12 13 13
REMARK SMILES IDX 14 14 15 15 16 16 17 17 18 18 19 19 20 20 21 21 22 22 23 23
REMARK SMILES IDX 24 24
REMARK H PARENT
REMARK Flexibility Score: inf
ROOT
ATOM      1  C   UNL     1      98.795  99.763  10.775  1.00  0.00     0.000 C 
ENDROOT
BRANCH   1   2
ATOM      2  C   UNL     1      98.350  98.782  11.870  1.00  0.00     0.000 C 
BRANCH   2   3
ATOM      3  C   UNL     1      97.099  99.259  12.630  1.00  0.00     0.000 C 
BRANCH   3   4
ATOM      4  C   UNL     1      96.530 100.616  12.166  1.00  0.00    -0.000 C 
BRANCH   4   5
ATOM      5  C   UNL     1      95.123 100.555  11.544  1.00  0.00    -0.000 C 
BRANCH   5   6
ATOM      6  C   UNL     1      95.132 100.773  10.024  1.00  0.00    -0.000 C 
BRANCH   6   7
ATOM      7  C   UNL     1      95.880  99.636   9.309  1.00  0.00    -0.000 C 
BRANCH   7   8
ATOM      8  C   UNL     1      95.414  99.449   7.849  1.00  0.00    -0.000 C 
BRANCH   8   9
ATOM      9  C   UNL     1      93.952  98.983   7.718  1.00  0.00    -0.000 C 
BRANCH   9  10
ATOM     10  C   UNL     1      93.326  99.180   6.326  1.00  0.00    -0.000 C 
BRANCH  10  11
ATOM     11  C   UNL     1      92.340 100.358   6.220  1.00  0.00    -0.003 C 
ATOM     12  C   UNL     1      90.877  99.917   6.275  1.00  0.00     0.004 C 
ENDBRANCH  10  11
ENDBRANCH   9  10
ENDBRANCH   8   9
ENDBRANCH   7   8
ENDBRANCH   6   7
ENDBRANCH   5   6
ENDBRANCH   4   5
ENDBRANCH   3   4
ENDBRANCH   2   3
ENDBRANCH   1   2
BRANCH   1  13
ATOM     13  C   UNL     1     100.134 100.418  11.142  1.00  0.00     0.000 C 
BRANCH  13  14
ATOM     14  C   UNL     1     101.085 100.542   9.941  1.00  0.00     0.000 C 
BRANCH  14  15
ATOM     15  C   UNL     1     101.995  99.311   9.778  1.00  0.00     0.000 C 
BRANCH  15  16
ATOM     16  C   UNL     1     101.735  98.240  10.849  1.00  0.00     0.000 C 
BRANCH  16  17
ATOM     17  C   UNL     1     102.083  96.822  10.359  1.00  0.00     0.000 C 
BRANCH  17  18
ATOM     18  C   UNL     1     100.839  95.949  10.115  1.00  0.00     0.000 C 
BRANCH  18  19
ATOM     19  C   UNL     1     101.001  94.461  10.478  1.00  0.00     0.000 C 
BRANCH  19  20
ATOM     20  C   UNL     1      99.759  93.873  11.169  1.00  0.00     0.006 C 
BRANCH  20  21
ATOM     21  C   UNL     1      98.677  94.934  11.413  1.00  0.00     0.053 C 
BRANCH  21  22
ATOM     22  C   UNL     1      98.328  95.047  12.865  1.00  0.00     0.041 C 
ATOM     23  O   UNL     1      97.805  96.101  13.313  1.00  0.00    -0.550 OA
ATOM     24  O   UNL     1      98.558  93.977  13.721  1.00  0.00    -0.550 OA
ENDBRANCH  21  22
ENDBRANCH  20  21
ENDBRANCH  19  20
ENDBRANCH  18  19
ENDBRANCH  17  18
ENDBRANCH  16  17
ENDBRANCH  15  16
ENDBRANCH  14  15
ENDBRANCH  13  14
ENDBRANCH   1  13
TORSDOF 20
ENDMDL
MODEL 2
REMARK VINA RESULT:    14.949      3.110      7.801
REMARK INTER + INTRA:          31.196
REMARK INTER:                  32.108
REMARK INTRA:                  -0.913
REMARK UNBOUND:                -1.231
REMARK SMILES CCCCCCCCCCCCCCCCCCCCCC(=O)[O-]
REMARK SMILES IDX 12 1 11 2 10 3 9 4 8 5 7 6 6 7 5 8 4 9 3 10 2 11 1 12 13 13
REMARK SMILES IDX 14 14 15 15 16 16 17 17 18 18 19 19 20 20 21 21 22 22 23 23
REMARK SMILES IDX 24 24
REMARK H PARENT
REMARK Flexibility Score: inf
ROOT
ATOM      1  C   UNL     1      98.863  99.429  10.991  1.00  0.00     0.000 C 
ENDROOT
BRANCH   1   2
ATOM      2  C   UNL     1     100.044 100.333  11.377  1.00  0.00     0.000 C 
BRANCH   2   3
ATOM      3  C   UNL     1     100.885 100.770  10.165  1.00  0.00     0.000 C 
BRANCH   3   4
ATOM      4  C   UNL     1     101.696  99.644   9.491  1.00  0.00    -0.000 C 
BRANCH   4   5
ATOM      5  C   UNL     1     102.082  98.476  10.416  1.00  0.00    -0.000 C 
BRANCH   5   6
ATOM      6  C   UNL     1     101.105  97.294  10.327  1.00  0.00    -0.000 C 
BRANCH   6   7
ATOM      7  C   UNL     1     101.815  95.967  10.634  1.00  0.00    -0.000 C 
BRANCH   7   8
ATOM      8  C   UNL     1     101.048  94.745  10.085  1.00  0.00    -0.000 C 
BRANCH   8   9
ATOM      9  C   UNL     1     100.045  94.141  11.086  1.00  0.00    -0.000 C 
BRANCH   9  10
ATOM     10  C   UNL     1      98.712  94.902  11.214  1.00  0.00    -0.000 C 
BRANCH  10  11
ATOM     11  C   UNL     1      98.390  95.409  12.632  1.00  0.00    -0.003 C 
ATOM     12  C   UNL     1      98.407  94.296  13.680  1.00  0.00     0.004 C 
ENDBRANCH  10  11
ENDBRANCH   9  10
ENDBRANCH   8   9
ENDBRANCH   7   8
ENDBRANCH   6   7
ENDBRANCH   5   6
ENDBRANCH   4   5
ENDBRANCH   3   4
ENDBRANCH   2   3
ENDBRANCH   1   2
BRANCH   1  13
ATOM     13  C   UNL     1      98.195  98.842  12.242  1.00  0.00     0.000 C 
BRANCH  13  14
ATOM     14  C   UNL     1      97.351  99.874  13.007  1.00  0.00     0.000 C 
BRANCH  14  15
ATOM     15  C   UNL     1      95.850  99.768  12.682  1.00  0.00     0.000 C 
BRANCH  15  16
ATOM     16  C   UNL     1      95.387 100.838  11.680  1.00  0.00     0.000 C 
BRANCH  16  17
ATOM     17  C   UNL     1      94.572 100.241  10.517  1.00  0.00     0.000 C 
BRANCH  17  18
ATOM     18  C   UNL     1      95.287 100.361   9.160  1.00  0.00     0.000 C 
BRANCH  18  19
ATOM     19  C   UNL     1      95.049  99.190   8.189  1.00  0.00     0.000 C 
BRANCH  19  20
ATOM     20  C   UNL     1      93.580  98.736   8.145  1.00  0.00     0.006 C 
BRANCH  20  21
ATOM     21  C   UNL     1      92.625  99.896   7.835  1.00  0.00     0.053 C 
BRANCH  21  22
ATOM     22  C   UNL     1      92.414 100.064   6.362  1.00  0.00     0.041 C 
ATOM     23  O   UNL     1      91.458 100.762   5.932  1.00  0.00    -0.550 OA
ATOM     24  O   UNL     1      93.290  99.468   5.463  1.00  0.00    -0.550 OA
ENDBRANCH  21  22
ENDBRANCH  20  21
ENDBRANCH  19  20
ENDBRANCH  18  19
ENDBRANCH  17  18
ENDBRANCH  16  17
ENDBRANCH  15  16
ENDBRANCH  14  15
ENDBRANCH  13  14
ENDBRANCH   1  13
TORSDOF 20
ENDMDL
MODEL 3
REMARK VINA RESULT:    14.964      2.524      4.142
REMARK INTER + INTRA:          31.228
REMARK INTER:                  32.433
REMARK INTRA:                  -1.205
REMARK UNBOUND:                -1.231
REMARK SMILES CCCCCCCCCCCCCCCCCCCCCC(=O)[O-]
REMARK SMILES IDX 12 1 11 2 10 3 9 4 8 5 7 6 6 7 5 8 4 9 3 10 2 11 1 12 13 13
REMARK SMILES IDX 14 14 15 15 16 16 17 17 18 18 19 19 20 20 21 21 22 22 23 23
REMARK SMILES IDX 24 24
REMARK H PARENT
REMARK Flexibility Score: inf
ROOT
ATOM      1  C   UNL     1      97.932  96.799  12.902  1.00  0.00     0.000 C 
ENDROOT
BRANCH   1   2
ATOM      2  C   UNL     1      96.798  97.399  13.746  1.00  0.00     0.000 C 
BRANCH   2   3
ATOM      3  C   UNL     1      96.968  98.908  13.992  1.00  0.00     0.000 C 
BRANCH   3   4
ATOM      4  C   UNL     1      96.901  99.789  12.727  1.00  0.00    -0.000 C 
BRANCH   4   5
ATOM      5  C   UNL     1      95.483 100.037  12.181  1.00  0.00    -0.000 C 
BRANCH   5   6
ATOM      6  C   UNL     1      95.477 100.885  10.899  1.00  0.00    -0.000 C 
BRANCH   6   7
ATOM      7  C   UNL     1      94.558 100.265   9.835  1.00  0.00    -0.000 C 
BRANCH   7   8
ATOM      8  C   UNL     1      95.347  99.549   8.718  1.00  0.00    -0.000 C 
BRANCH   8   9
ATOM      9  C   UNL     1      94.455  98.938   7.621  1.00  0.00    -0.000 C 
BRANCH   9  10
ATOM     10  C   UNL     1      92.941  99.126   7.832  1.00  0.00    -0.000 C 
BRANCH  10  11
ATOM     11  C   UNL     1      92.367 100.440   7.270  1.00  0.00    -0.003 C 
ATOM     12  C   UNL     1      91.774 100.280   5.870  1.00  0.00     0.004 C 
ENDBRANCH  10  11
ENDBRANCH   9  10
ENDBRANCH   8   9
ENDBRANCH   7   8
ENDBRANCH   6   7
ENDBRANCH   5   6
ENDBRANCH   4   5
ENDBRANCH   3   4
ENDBRANCH   2   3
ENDBRANCH   1   2
BRANCH   1  13
ATOM     13  C   UNL     1      98.304  95.397  13.408  1.00  0.00     0.000 C 
BRANCH  13  14
ATOM     14  C   UNL     1      98.523  94.391  12.267  1.00  0.00     0.000 C 
BRANCH  14  15
ATOM     15  C   UNL     1      98.249  95.000  10.880  1.00  0.00     0.000 C 
BRANCH  15  16
ATOM     16  C   UNL     1      99.501  95.640  10.260  1.00  0.00     0.000 C 
BRANCH  16  17
ATOM     17  C   UNL     1     100.747  94.744  10.391  1.00  0.00     0.000 C 
BRANCH  17  18
ATOM     18  C   UNL     1     102.065  95.534  10.310  1.00  0.00     0.000 C 
BRANCH  18  19
ATOM     19  C   UNL     1     102.074  96.875  11.069  1.00  0.00     0.000 C 
BRANCH  19  20
ATOM     20  C   UNL     1     102.037  98.094  10.132  1.00  0.00     0.006 C 
BRANCH  20  21
ATOM     21  C   UNL     1     101.261  99.269  10.741  1.00  0.00     0.053 C 
BRANCH  21  22
ATOM     22  C   UNL     1     101.505 100.544   9.994  1.00  0.00     0.041 C 
ATOM     23  O   UNL     1     102.619 101.125  10.075  1.00  0.00    -0.550 OA
ATOM     24  O   UNL     1     100.509 101.078   9.186  1.00  0.00    -0.550 OA
ENDBRANCH  21  22
ENDBRANCH  20  21
ENDBRANCH  19  20
ENDBRANCH  18  19
ENDBRANCH  17  18
ENDBRANCH  16  17
ENDBRANCH  15  16
ENDBRANCH  14  15
ENDBRANCH  13  14
ENDBRANCH   1  13
TORSDOF 20
ENDMDL
MODEL 4
REMARK VINA RESULT:    15.098      0.870      1.587
REMARK INTER + INTRA:          31.520
REMARK INTER:                  31.088
REMARK INTRA:                   0.432
REMARK UNBOUND:                -1.231
REMARK SMILES CCCCCCCCCCCCCCCCCCCCCC(=O)[O-]
REMARK SMILES IDX 12 1 11 2 10 3 9 4 8 5 7 6 6 7 5 8 4 9 3 10 2 11 1 12 13 13
REMARK SMILES IDX 14 14 15 15 16 16 17 17 18 18 19 19 20 20 21 21 22 22 23 23
REMARK SMILES IDX 24 24
REMARK H PARENT
REMARK Flexibility Score: inf
ROOT
ATOM      1  C   UNL     1      97.896  98.573  11.653  1.00  0.00     0.000 C 
ENDROOT
BRANCH   1   2
ATOM      2  C   UNL     1      97.488  99.168  13.009  1.00  0.00     0.000 C 
BRANCH   2   3
ATOM      3  C   UNL     1      96.053  99.724  13.011  1.00  0.00     0.000 C 
BRANCH   3   4
ATOM      4  C   UNL     1      95.854 101.024  12.205  1.00  0.00    -0.000 C 
BRANCH   4   5
ATOM      5  C   UNL     1      94.517 101.125  11.449  1.00  0.00    -0.000 C 
BRANCH   5   6
ATOM      6  C   UNL     1      94.686 101.056   9.924  1.00  0.00    -0.000 C 
BRANCH   6   7
ATOM      7  C   UNL     1      95.413  99.768   9.509  1.00  0.00    -0.000 C 
BRANCH   7   8
ATOM      8  C   UNL     1      95.095  99.352   8.056  1.00  0.00    -0.000 C 
BRANCH   8   9
ATOM      9  C   UNL     1      93.589  99.208   7.767  1.00  0.00    -0.000 C 
BRANCH   9  10
ATOM     10  C   UNL     1      93.161  99.574   6.334  1.00  0.00    -0.000 C 
BRANCH  10  11
ATOM     11  C   UNL     1      91.874 100.415   6.238  1.00  0.00    -0.003 C 
ATOM     12  C   UNL     1      90.647  99.584   5.861  1.00  0.00     0.004 C 
ENDBRANCH  10  11
ENDBRANCH   9  10
ENDBRANCH   8   9
ENDBRANCH   7   8
ENDBRANCH   6   7
ENDBRANCH   5   6
ENDBRANCH   4   5
ENDBRANCH   3   4
ENDBRANCH   2   3
ENDBRANCH   1   2
BRANCH   1  13
ATOM     13  C   UNL     1      98.614  99.623  10.792  1.00  0.00     0.000 C 
BRANCH  13  14
ATOM     14  C   UNL     1     100.093  99.796  11.173  1.00  0.00     0.000 C 
BRANCH  14  15
ATOM     15  C   UNL     1     100.772 100.941  10.399  1.00  0.00     0.000 C 
BRANCH  15  16
ATOM     16  C   UNL     1     101.804 100.433   9.380  1.00  0.00     0.000 C 
BRANCH  16  17
ATOM     17  C   UNL     1     102.423  99.085   9.792  1.00  0.00     0.000 C 
BRANCH  17  18
ATOM     18  C   UNL     1     101.374  98.066  10.274  1.00  0.00     0.000 C 
BRANCH  18  19
ATOM     19  C   UNL     1     101.926  96.667  10.606  1.00  0.00     0.000 C 
BRANCH  19  20
ATOM     20  C   UNL     1     100.931  95.538  10.283  1.00  0.00     0.006 C 
BRANCH  20  21
ATOM     21  C   UNL     1      99.517  95.851  10.791  1.00  0.00     0.053 C 
BRANCH  21  22
ATOM     22  C   UNL     1      98.977  94.747  11.648  1.00  0.00     0.041 C 
ATOM     23  O   UNL     1      98.204  95.007  12.607  1.00  0.00    -0.550 OA
ATOM     24  O   UNL     1      99.311  93.427  11.371  1.00  0.00    -0.550 OA
ENDBRANCH  21  22
ENDBRANCH  20  21
ENDBRANCH  19  20
ENDBRANCH  18  19
ENDBRANCH  17  18
ENDBRANCH  16  17
ENDBRANCH  15  16
ENDBRANCH  14  15
ENDBRANCH  13  14
ENDBRANCH   1  13
TORSDOF 20
ENDMDL
MODEL 5
REMARK VINA RESULT:    15.776      3.120      7.935
REMARK INTER + INTRA:          32.989
REMARK INTER:                  34.087
REMARK INTRA:                  -1.097
REMARK UNBOUND:                -1.231
REMARK SMILES CCCCCCCCCCCCCCCCCCCCCC(=O)[O-]
REMARK SMILES IDX 12 1 11 2 10 3 9 4 8 5 7 6 6 7 5 8 4 9 3 10 2 11 1 12 13 13
REMARK SMILES IDX 14 14 15 15 16 16 17 17 18 18 19 19 20 20 21 21 22 22 23 23
REMARK SMILES IDX 24 24
REMARK H PARENT
REMARK Flexibility Score: inf
ROOT
ATOM      1  C   UNL     1     100.112 100.761  10.370  1.00  0.00     0.000 C 
ENDROOT
BRANCH   1   2
ATOM      2  C   UNL     1     101.507 100.253  10.763  1.00  0.00     0.000 C 
BRANCH   2   3
ATOM      3  C   UNL     1     101.939  99.012   9.961  1.00  0.00     0.000 C 
BRANCH   3   4
ATOM      4  C   UNL     1     101.954  97.691  10.756  1.00  0.00    -0.000 C 
BRANCH   4   5
ATOM      5  C   UNL     1     101.242  96.510  10.073  1.00  0.00    -0.000 C 
BRANCH   5   6
ATOM      6  C   UNL     1     101.903  95.157  10.377  1.00  0.00    -0.000 C 
BRANCH   6   7
ATOM      7  C   UNL     1     100.973  93.993   9.999  1.00  0.00    -0.000 C 
BRANCH   7   8
ATOM      8  C   UNL     1     100.006  93.614  11.142  1.00  0.00    -0.000 C 
BRANCH   8   9
ATOM      9  C   UNL     1      98.662  94.365  11.093  1.00  0.00    -0.000 C 
BRANCH   9  10
ATOM     10  C   UNL     1      98.617  95.677  11.897  1.00  0.00    -0.000 C 
BRANCH  10  11
ATOM     11  C   UNL     1      98.238  95.514  13.381  1.00  0.00    -0.003 C 
ATOM     12  C   UNL     1      98.379  94.075  13.877  1.00  0.00     0.004 C 
ENDBRANCH  10  11
ENDBRANCH   9  10
ENDBRANCH   8   9
ENDBRANCH   7   8
ENDBRANCH   6   7
ENDBRANCH   5   6
ENDBRANCH   4   5
ENDBRANCH   3   4
ENDBRANCH   2   3
ENDBRANCH   1   2
BRANCH   1  13
ATOM     13  C   UNL     1      99.023  99.795  10.858  1.00  0.00     0.000 C 
BRANCH  13  14
ATOM     14  C   UNL     1      98.264 100.322  12.086  1.00  0.00     0.000 C 
BRANCH  14  15
ATOM     15  C   UNL     1      96.920  99.603  12.303  1.00  0.00     0.000 C 
BRANCH  15  16
ATOM     16  C   UNL     1      95.722 100.565  12.252  1.00  0.00     0.000 C 
BRANCH  16  17
ATOM     17  C   UNL     1      95.377 100.998  10.816  1.00  0.00     0.000 C 
BRANCH  17  18
ATOM     18  C   UNL     1      94.498  99.974  10.074  1.00  0.00     0.000 C 
BRANCH  18  19
ATOM     19  C   UNL     1      94.797  99.822   8.571  1.00  0.00     0.000 C 
BRANCH  19  20
ATOM     20  C   UNL     1      93.813  98.879   7.857  1.00  0.00     0.006 C 
BRANCH  20  21
ATOM     21  C   UNL     1      93.399  99.412   6.479  1.00  0.00     0.053 C 
BRANCH  21  22
ATOM     22  C   UNL     1      92.107 100.167   6.540  1.00  0.00     0.041 C 
ATOM     23  O   UNL     1      91.291  99.955   7.475  1.00  0.00    -0.550 OA
ATOM     24  O   UNL     1      91.816 101.125   5.577  1.00  0.00    -0.550 OA
ENDBRANCH  21  22
ENDBRANCH  20  21
ENDBRANCH  19  20
ENDBRANCH  18  19
ENDBRANCH  17  18
ENDBRANCH  16  17
ENDBRANCH  15  16
ENDBRANCH  14  15
ENDBRANCH  13  14
ENDBRANCH   1  13
TORSDOF 20
ENDMDL
MODEL 6
REMARK VINA RESULT:    16.280      3.637      7.494
REMARK INTER + INTRA:          34.085
REMARK INTER:                  35.312
REMARK INTRA:                  -1.227
REMARK UNBOUND:                -1.231
REMARK SMILES CCCCCCCCCCCCCCCCCCCCCC(=O)[O-]
REMARK SMILES IDX 12 1 11 2 10 3 9 4 8 5 7 6 6 7 5 8 4 9 3 10 2 11 1 12 13 13
REMARK SMILES IDX 14 14 15 15 16 16 17 17 18 18 19 19 20 20 21 21 22 22 23 23
REMARK SMILES IDX 24 24
REMARK H PARENT
REMARK Flexibility Score: inf
ROOT
ATOM      1  C   UNL     1     100.573  95.499  10.472  1.00  0.00     0.000 C 
ENDROOT
BRANCH   1   2
ATOM      2  C   UNL     1     100.131  94.100  10.928  1.00  0.00     0.000 C 
BRANCH   2   3
ATOM      3  C   UNL     1      98.627  94.022  11.246  1.00  0.00     0.000 C 
BRANCH   3   4
ATOM      4  C   UNL     1      98.033  95.278  11.915  1.00  0.00    -0.000 C 
BRANCH   4   5
ATOM      5  C   UNL     1      98.381  95.450  13.404  1.00  0.00    -0.000 C 
BRANCH   5   6
ATOM      6  C   UNL     1      98.553  94.111  14.137  1.00  0.00    -0.000 C 
BRANCH   6   7
ATOM      7  C   UNL     1      99.287  94.305  15.473  1.00  0.00    -0.000 C 
BRANCH   7   8
ATOM      8  C   UNL     1      98.989  95.677  16.116  1.00  0.00    -0.000 C 
BRANCH   8   9
ATOM      9  C   UNL     1      99.743  95.919  17.438  1.00  0.00    -0.000 C 
BRANCH   9  10
ATOM     10  C   UNL     1      99.842  97.393  17.872  1.00  0.00    -0.000 C 
BRANCH  10  11
ATOM     11  C   UNL     1      98.497  98.141  17.934  1.00  0.00    -0.003 C 
ATOM     12  C   UNL     1      98.504  99.296  18.935  1.00  0.00     0.004 C 
ENDBRANCH  10  11
ENDBRANCH   9  10
ENDBRANCH   8   9
ENDBRANCH   7   8
ENDBRANCH   6   7
ENDBRANCH   5   6
ENDBRANCH   4   5
ENDBRANCH   3   4
ENDBRANCH   2   3
ENDBRANCH   1   2
BRANCH   1  13
ATOM     13  C   UNL     1     102.047  95.491  10.043  1.00  0.00     0.000 C 
BRANCH  13  14
ATOM     14  C   UNL     1     102.733  96.852  10.243  1.00  0.00     0.000 C 
BRANCH  14  15
ATOM     15  C   UNL     1     101.725  98.008  10.380  1.00  0.00     0.000 C 
BRANCH  15  16
ATOM     16  C   UNL     1     102.135  99.246   9.566  1.00  0.00     0.000 C 
BRANCH  16  17
ATOM     17  C   UNL     1     101.708 100.562  10.242  1.00  0.00     0.000 C 
BRANCH  17  18
ATOM     18  C   UNL     1     100.309 100.482  10.880  1.00  0.00     0.000 C 
BRANCH  18  19
ATOM     19  C   UNL     1      99.325  99.524  10.183  1.00  0.00     0.000 C 
BRANCH  19  20
ATOM     20  C   UNL     1      98.375  98.820  11.167  1.00  0.00     0.006 C 
BRANCH  20  21
ATOM     21  C   UNL     1      98.192  99.617  12.465  1.00  0.00     0.053 C 
BRANCH  21  22
ATOM     22  C   UNL     1      96.886  99.305  13.129  1.00  0.00     0.041 C 
ATOM     23  O   UNL     1      96.844  98.520  14.112  1.00  0.00    -0.550 OA
ATOM     24  O   UNL     1      95.716  99.903  12.676  1.00  0.00    -0.550 OA
ENDBRANCH  21  22
ENDBRANCH  20  21
ENDBRANCH  19  20
ENDBRANCH  18  19
ENDBRANCH  17  18
ENDBRANCH  16  17
ENDBRANCH  15  16
ENDBRANCH  14  15
ENDBRANCH  13  14
ENDBRANCH   1  13
TORSDOF 20
ENDMDL
MODEL 7
REMARK VINA RESULT:    16.498      3.377      7.875
REMARK INTER + INTRA:          34.557
REMARK INTER:                  34.852
REMARK INTRA:                  -0.295
REMARK UNBOUND:                -1.231
REMARK SMILES CCCCCCCCCCCCCCCCCCCCCC(=O)[O-]
REMARK SMILES IDX 12 1 11 2 10 3 9 4 8 5 7 6 6 7 5 8 4 9 3 10 2 11 1 12 13 13
REMARK SMILES IDX 14 14 15 15 16 16 17 17 18 18 19 19 20 20 21 21 22 22 23 23
REMARK SMILES IDX 24 24
REMARK H PARENT
REMARK Flexibility Score: inf
ROOT
ATOM      1  C   UNL     1      97.122  97.753  13.433  1.00  0.00     0.000 C 
ENDROOT
BRANCH   1   2
ATOM      2  C   UNL     1      98.340  97.096  12.766  1.00  0.00     0.000 C 
BRANCH   2   3
ATOM      3  C   UNL     1      98.200  95.569  12.636  1.00  0.00     0.000 C 
BRANCH   3   4
ATOM      4  C   UNL     1      98.542  94.997  11.245  1.00  0.00    -0.000 C 
BRANCH   4   5
ATOM      5  C   UNL     1      99.792  94.100  11.198  1.00  0.00    -0.000 C 
BRANCH   5   6
ATOM      6  C   UNL     1     101.010  94.803  10.581  1.00  0.00    -0.000 C 
BRANCH   6   7
ATOM      7  C   UNL     1     100.677  96.257  10.211  1.00  0.00    -0.000 C 
BRANCH   7   8
ATOM      8  C   UNL     1     101.702  97.262  10.781  1.00  0.00    -0.000 C 
BRANCH   8   9
ATOM      9  C   UNL     1     101.926  98.495   9.886  1.00  0.00    -0.000 C 
BRANCH   9  10
ATOM     10  C   UNL     1     101.705  99.853  10.578  1.00  0.00    -0.000 C 
BRANCH  10  11
ATOM     11  C   UNL     1     100.244 100.154  10.960  1.00  0.00    -0.003 C 
ATOM     12  C   UNL     1      99.285  99.023  10.587  1.00  0.00     0.004 C 
ENDBRANCH  10  11
ENDBRANCH   9  10
ENDBRANCH   8   9
ENDBRANCH   7   8
ENDBRANCH   6   7
ENDBRANCH   5   6
ENDBRANCH   4   5
ENDBRANCH   3   4
ENDBRANCH   2   3
ENDBRANCH   1   2
BRANCH   1  13
ATOM     13  C   UNL     1      97.056  99.249  13.095  1.00  0.00     0.000 C 
BRANCH  13  14
ATOM     14  C   UNL     1      95.617  99.757  12.917  1.00  0.00     0.000 C 
BRANCH  14  15
ATOM     15  C   UNL     1      95.478 100.740  11.739  1.00  0.00     0.000 C 
BRANCH  15  16
ATOM     16  C   UNL     1      94.780 100.108  10.524  1.00  0.00     0.000 C 
BRANCH  16  17
ATOM     17  C   UNL     1      95.452 100.495   9.193  1.00  0.00     0.000 C 
BRANCH  17  18
ATOM     18  C   UNL     1      95.859  99.274   8.349  1.00  0.00     0.000 C 
BRANCH  18  19
ATOM     19  C   UNL     1      94.687  98.459   7.770  1.00  0.00     0.000 C 
BRANCH  19  20
ATOM     20  C   UNL     1      93.925  99.208   6.663  1.00  0.00     0.006 C 
BRANCH  20  21
ATOM     21  C   UNL     1      92.854 100.148   7.233  1.00  0.00     0.053 C 
BRANCH  21  22
ATOM     22  C   UNL     1      91.702 100.314   6.290  1.00  0.00     0.041 C 
ATOM     23  O   UNL     1      91.782 101.121   5.326  1.00  0.00    -0.550 OA
ATOM     24  O   UNL     1      90.548  99.559   6.461  1.00  0.00    -0.550 OA
ENDBRANCH  21  22
ENDBRANCH  20  21
ENDBRANCH  19  20
ENDBRANCH  18  19
ENDBRANCH  17  18
ENDBRANCH  16  17
ENDBRANCH  15  16
ENDBRANCH  14  15
ENDBRANCH  13  14
ENDBRANCH   1  13
TORSDOF 20
ENDMDL
MODEL 8
REMARK VINA RESULT:    16.821      2.379      4.174
REMARK INTER + INTRA:          35.258
REMARK INTER:                  36.236
REMARK INTRA:                  -0.978
REMARK UNBOUND:                -1.231
REMARK SMILES CCCCCCCCCCCCCCCCCCCCCC(=O)[O-]
REMARK SMILES IDX 12 1 11 2 10 3 9 4 8 5 7 6 6 7 5 8 4 9 3 10 2 11 1 12 13 13
REMARK SMILES IDX 14 14 15 15 16 16 17 17 18 18 19 19 20 20 21 21 22 22 23 23
REMARK SMILES IDX 24 24
REMARK H PARENT
REMARK Flexibility Score: inf
ROOT
ATOM      1  C   UNL     1     100.985  97.239  10.334  1.00  0.00     0.000 C 
ENDROOT
BRANCH   1   2
ATOM      2  C   UNL     1     101.933  98.420  10.081  1.00  0.00     0.000 C 
BRANCH   2   3
ATOM      3  C   UNL     1     101.320  99.775  10.477  1.00  0.00     0.000 C 
BRANCH   3   4
ATOM      4  C   UNL     1      99.875  99.708  11.013  1.00  0.00    -0.000 C 
BRANCH   4   5
ATOM      5  C   UNL     1      98.802 100.278  10.068  1.00  0.00    -0.000 C 
BRANCH   5   6
ATOM      6  C   UNL     1      97.805  99.214   9.585  1.00  0.00    -0.000 C 
BRANCH   6   7
ATOM      7  C   UNL     1      96.422  99.833   9.326  1.00  0.00    -0.000 C 
BRANCH   7   8
ATOM      8  C   UNL     1      95.674  99.142   8.165  1.00  0.00    -0.000 C 
BRANCH   8   9
ATOM      9  C   UNL     1      94.154  99.394   8.169  1.00  0.00    -0.000 C 
BRANCH   9  10
ATOM     10  C   UNL     1      93.457  99.197   6.810  1.00  0.00    -0.000 C 
BRANCH  10  11
ATOM     11  C   UNL     1      91.999  99.689   6.754  1.00  0.00    -0.003 C 
ATOM     12  C   UNL     1      91.837 100.981   5.954  1.00  0.00     0.004 C 
ENDBRANCH  10  11
ENDBRANCH   9  10
ENDBRANCH   8   9
ENDBRANCH   7   8
ENDBRANCH   6   7
ENDBRANCH   5   6
ENDBRANCH   4   5
ENDBRANCH   3   4
ENDBRANCH   2   3
ENDBRANCH   1   2
BRANCH   1  13
ATOM     13  C   UNL     1     101.776  95.970  10.685  1.00  0.00     0.000 C 
BRANCH  13  14
ATOM     14  C   UNL     1     101.066  94.682  10.238  1.00  0.00     0.000 C 
BRANCH  14  15
ATOM     15  C   UNL     1      99.974  94.236  11.227  1.00  0.00     0.000 C 
BRANCH  15  16
ATOM     16  C   UNL     1      98.752  95.168  11.217  1.00  0.00     0.000 C 
BRANCH  16  17
ATOM     17  C   UNL     1      98.265  95.516  12.635  1.00  0.00     0.000 C 
BRANCH  17  18
ATOM     18  C   UNL     1      98.647  94.450  13.679  1.00  0.00     0.000 C 
BRANCH  18  19
ATOM     19  C   UNL     1      98.422  94.860  15.146  1.00  0.00     0.000 C 
BRANCH  19  20
ATOM     20  C   UNL     1      99.736  95.118  15.904  1.00  0.00     0.006 C 
BRANCH  20  21
ATOM     21  C   UNL     1      99.492  95.493  17.372  1.00  0.00     0.053 C 
BRANCH  21  22
ATOM     22  C   UNL     1      99.824  96.929  17.640  1.00  0.00     0.041 C 
ATOM     23  O   UNL     1      98.905  97.768  17.831  1.00  0.00    -0.550 OA
ATOM     24  O   UNL     1     101.151  97.335  17.704  1.00  0.00    -0.550 OA
ENDBRANCH  21  22
ENDBRANCH  20  21
ENDBRANCH  19  20
ENDBRANCH  18  19
ENDBRANCH  17  18
ENDBRANCH  16  17
ENDBRANCH  15  16
ENDBRANCH  14  15
ENDBRANCH  13  14
ENDBRANCH   1  13
TORSDOF 20
ENDMDL
MODEL 9
REMARK VINA RESULT:    17.158      3.793      6.209
REMARK INTER + INTRA:          35.988
REMARK INTER:                  34.342
REMARK INTRA:                   1.646
REMARK UNBOUND:                -1.231
REMARK SMILES CCCCCCCCCCCCCCCCCCCCCC(=O)[O-]
REMARK SMILES IDX 12 1 11 2 10 3 9 4 8 5 7 6 6 7 5 8 4 9 3 10 2 11 1 12 13 13
REMARK SMILES IDX 14 14 15 15 16 16 17 17 18 18 19 19 20 20 21 21 22 22 23 23
REMARK SMILES IDX 24 24
REMARK H PARENT
REMARK Flexibility Score: inf
ROOT
ATOM      1  C   UNL     1     100.689  94.912  10.638  1.00  0.00     0.000 C 
ENDROOT
BRANCH   1   2
ATOM      2  C   UNL     1     101.824  95.769  10.058  1.00  0.00     0.000 C 
BRANCH   2   3
ATOM      3  C   UNL     1     102.010  97.102  10.805  1.00  0.00     0.000 C 
BRANCH   3   4
ATOM      4  C   UNL     1     101.519  98.351  10.044  1.00  0.00    -0.000 C 
BRANCH   4   5
ATOM      5  C   UNL     1     102.627  99.327   9.610  1.00  0.00    -0.000 C 
BRANCH   5   6
ATOM      6  C   UNL     1     102.331 100.782  10.005  1.00  0.00    -0.000 C 
BRANCH   6   7
ATOM      7  C   UNL     1     100.822 101.070   9.954  1.00  0.00    -0.000 C 
BRANCH   7   8
ATOM      8  C   UNL     1     100.042 100.324  11.059  1.00  0.00    -0.000 C 
BRANCH   8   9
ATOM      9  C   UNL     1      98.778  99.606  10.549  1.00  0.00    -0.000 C 
BRANCH   9  10
ATOM     10  C   UNL     1      97.987  98.836  11.622  1.00  0.00    -0.000 C 
BRANCH  10  11
ATOM     11  C   UNL     1      97.737  99.615  12.927  1.00  0.00    -0.003 C 
ATOM     12  C   UNL     1      96.735  98.924  13.851  1.00  0.00     0.004 C 
ENDBRANCH  10  11
ENDBRANCH   9  10
ENDBRANCH   8   9
ENDBRANCH   7   8
ENDBRANCH   6   7
ENDBRANCH   5   6
ENDBRANCH   4   5
ENDBRANCH   3   4
ENDBRANCH   2   3
ENDBRANCH   1   2
BRANCH   1  13
ATOM     13  C   UNL     1      99.320  95.459  10.210  1.00  0.00     0.000 C 
BRANCH  13  14
ATOM     14  C   UNL     1      98.659  96.328  11.292  1.00  0.00     0.000 C 
BRANCH  14  15
ATOM     15  C   UNL     1      98.228  95.511  12.524  1.00  0.00     0.000 C 
BRANCH  15  16
ATOM     16  C   UNL     1      98.528  94.011  12.371  1.00  0.00     0.000 C 
BRANCH  16  17
ATOM     17  C   UNL     1      98.911  93.348  13.707  1.00  0.00     0.000 C 
BRANCH  17  18
ATOM     18  C   UNL     1      98.286  94.050  14.926  1.00  0.00     0.000 C 
BRANCH  18  19
ATOM     19  C   UNL     1      99.015  95.323  15.395  1.00  0.00     0.000 C 
BRANCH  19  20
ATOM     20  C   UNL     1      99.909  95.083  16.624  1.00  0.00     0.006 C 
BRANCH  20  21
ATOM     21  C   UNL     1      99.411  95.847  17.859  1.00  0.00     0.053 C 
BRANCH  21  22
ATOM     22  C   UNL     1      99.744  97.305  17.781  1.00  0.00     0.041 C 
ATOM     23  O   UNL     1     100.920  97.676  17.527  1.00  0.00    -0.550 OA
ATOM     24  O   UNL     1      98.747  98.255  17.965  1.00  0.00    -0.550 OA
ENDBRANCH  21  22
ENDBRANCH  20  21
ENDBRANCH  19  20
ENDBRANCH  18  19
ENDBRANCH  17  18
ENDBRANCH  16  17
ENDBRANCH  15  16
ENDBRANCH  14  15
ENDBRANCH  13  14
ENDBRANCH   1  13
TORSDOF 20
ENDMDL
