MODEL 1
REMARK VINA RESULT:    -6.614      0.000      0.000
REMARK INTER + INTRA:          -6.807
REMARK INTER:                  -6.807
REMARK INTRA:                   0.000
REMARK UNBOUND:                 0.000
REMARK SMILES O=c1ccc2ccc(O)cc2o1
REMARK SMILES IDX 6 1 7 2 8 3 10 4 11 5 5 6 4 7 3 8 2 9 1 10 12 11 9 12
REMARK H PARENT 9 13
REMARK Flexibility Score: inf
ROOT
ATOM      1  C   UNL     1       6.690   2.638   9.598  1.00  0.00     0.016 A 
ATOM      2  C   UNL     1       7.392   1.611  10.237  1.00  0.00     0.047 A 
ATOM      3  C   UNL     1       8.281   1.905  11.279  1.00  0.00     0.119 A 
ATOM      4  C   UNL     1       8.469   3.234  11.685  1.00  0.00     0.094 A 
ATOM      5  C   UNL     1       7.770   4.268  11.051  1.00  0.00     0.142 A 
ATOM      6  C   UNL     1       6.874   3.968  10.001  1.00  0.00     0.018 A 
ATOM      7  C   UNL     1       6.190   5.021   9.386  1.00  0.00     0.019 A 
ATOM      8  C   UNL     1       6.409   6.327   9.825  1.00  0.00     0.094 A 
ATOM      9  C   UNL     1       7.310   6.549  10.871  1.00  0.00     0.336 A 
ATOM     10  O   UNL     1       7.522   7.720  11.280  1.00  0.00    -0.246 OA
ATOM     11  O   UNL     1       7.949   5.529  11.439  1.00  0.00    -0.423 OA
ENDROOT
BRANCH   3  12
ATOM     12  O   UNL     1       8.973   0.869  11.904  1.00  0.00    -0.508 OA
ATOM     13  H   UNL     1       9.934   0.978  12.202  1.00  0.00     0.293 HD
ENDBRANCH   3  12
TORSDOF 1
ENDMDL
MODEL 2
REMARK VINA RESULT:    -6.476      0.801      4.225
REMARK INTER + INTRA:          -6.665
REMARK INTER:                  -6.665
REMARK INTRA:                   0.000
REMARK UNBOUND:                 0.000
REMARK SMILES O=c1ccc2ccc(O)cc2o1
REMARK SMILES IDX 6 1 7 2 8 3 10 4 11 5 5 6 4 7 3 8 2 9 1 10 12 11 9 12
REMARK H PARENT 9 13
REMARK Flexibility Score: inf
ROOT
ATOM      1  C   UNL     1       6.141   5.004   9.417  1.00  0.00     0.016 A 
ATOM      2  C   UNL     1       6.396   6.315   9.833  1.00  0.00     0.047 A 
ATOM      3  C   UNL     1       7.362   6.571  10.814  1.00  0.00     0.119 A 
ATOM      4  C   UNL     1       8.079   5.508  11.384  1.00  0.00     0.094 A 
ATOM      5  C   UNL     1       7.832   4.193  10.973  1.00  0.00     0.142 A 
ATOM      6  C   UNL     1       6.856   3.939   9.984  1.00  0.00     0.018 A 
ATOM      7  C   UNL     1       6.630   2.616   9.594  1.00  0.00     0.019 A 
ATOM      8  C   UNL     1       7.369   1.593  10.188  1.00  0.00     0.094 A 
ATOM      9  C   UNL     1       8.319   1.918  11.162  1.00  0.00     0.336 A 
ATOM     10  O   UNL     1       8.994   1.009  11.710  1.00  0.00    -0.246 OA
ATOM     11  O   UNL     1       8.514   3.187  11.515  1.00  0.00    -0.423 OA
ENDROOT
BRANCH   3  12
ATOM     12  O   UNL     1       7.601   7.883  11.216  1.00  0.00    -0.508 OA
ATOM     13  H   UNL     1       8.240   8.484  10.710  1.00  0.00     0.293 HD
ENDBRANCH   3  12
TORSDOF 1
ENDMDL
MODEL 3
REMARK VINA RESULT:    -6.086      1.471      2.253
REMARK INTER + INTRA:          -6.264
REMARK INTER:                  -6.264
REMARK INTRA:                   0.000
REMARK UNBOUND:                 0.000
REMARK SMILES O=c1ccc2ccc(O)cc2o1
REMARK SMILES IDX 6 1 7 2 8 3 10 4 11 5 5 6 4 7 3 8 2 9 1 10 12 11 9 12
REMARK H PARENT 9 13
REMARK Flexibility Score: inf
ROOT
ATOM      1  C   UNL     1       8.483   3.519  11.522  1.00  0.00     0.016 A 
ATOM      2  C   UNL     1       8.150   2.247  11.043  1.00  0.00     0.047 A 
ATOM      3  C   UNL     1       7.169   2.099  10.055  1.00  0.00     0.119 A 
ATOM      4  C   UNL     1       6.516   3.229   9.541  1.00  0.00     0.094 A 
ATOM      5  C   UNL     1       6.844   4.505  10.014  1.00  0.00     0.142 A 
ATOM      6  C   UNL     1       7.834   4.651  11.011  1.00  0.00     0.018 A 
ATOM      7  C   UNL     1       8.140   5.938  11.464  1.00  0.00     0.019 A 
ATOM      8  C   UNL     1       7.465   7.031  10.923  1.00  0.00     0.094 A 
ATOM      9  C   UNL     1       6.496   6.812   9.938  1.00  0.00     0.336 A 
ATOM     10  O   UNL     1       5.875   7.786   9.439  1.00  0.00    -0.246 OA
ATOM     11  O   UNL     1       6.223   5.576   9.525  1.00  0.00    -0.423 OA
ENDROOT
BRANCH   3  12
ATOM     12  O   UNL     1       6.849   0.824   9.591  1.00  0.00    -0.508 OA
ATOM     13  H   UNL     1       5.895   0.485   9.589  1.00  0.00     0.293 HD
ENDBRANCH   3  12
TORSDOF 1
ENDMDL
MODEL 4
REMARK VINA RESULT:    -5.206     11.955     13.352
REMARK INTER + INTRA:          -5.358
REMARK INTER:                  -5.358
REMARK INTRA:                   0.000
REMARK UNBOUND:                 0.000
REMARK SMILES O=c1ccc2ccc(O)cc2o1
REMARK SMILES IDX 6 1 7 2 8 3 10 4 11 5 5 6 4 7 3 8 2 9 1 10 12 11 9 12
REMARK H PARENT 9 13
REMARK Flexibility Score: inf
ROOT
ATOM      1  C   UNL     1       8.562  -5.447  19.126  1.00  0.00     0.016 A 
ATOM      2  C   UNL     1       8.566  -6.821  19.390  1.00  0.00     0.047 A 
ATOM      3  C   UNL     1       9.726  -7.445  19.868  1.00  0.00     0.119 A 
ATOM      4  C   UNL     1      10.888  -6.690  20.085  1.00  0.00     0.094 A 
ATOM      5  C   UNL     1      10.892  -5.315  19.824  1.00  0.00     0.142 A 
ATOM      6  C   UNL     1       9.721  -4.689  19.341  1.00  0.00     0.018 A 
ATOM      7  C   UNL     1       9.755  -3.315  19.090  1.00  0.00     0.019 A 
ATOM      8  C   UNL     1      10.933  -2.606  19.321  1.00  0.00     0.094 A 
ATOM      9  C   UNL     1      12.055  -3.292  19.800  1.00  0.00     0.336 A 
ATOM     10  O   UNL     1      13.128  -2.670  20.013  1.00  0.00    -0.246 OA
ATOM     11  O   UNL     1      11.996  -4.601  20.031  1.00  0.00    -0.423 OA
ENDROOT
BRANCH   3  12
ATOM     12  O   UNL     1       9.712  -8.814  20.125  1.00  0.00    -0.508 OA
ATOM     13  H   UNL     1      10.331  -9.450  19.638  1.00  0.00     0.293 HD
ENDBRANCH   3  12
TORSDOF 1
ENDMDL
MODEL 5
REMARK VINA RESULT:    -5.137     10.651     12.861
REMARK INTER + INTRA:          -5.287
REMARK INTER:                  -5.287
REMARK INTRA:                   0.000
REMARK UNBOUND:                 0.000
REMARK SMILES O=c1ccc2ccc(O)cc2o1
REMARK SMILES IDX 6 1 7 2 8 3 10 4 11 5 5 6 4 7 3 8 2 9 1 10 12 11 9 12
REMARK H PARENT 9 13
REMARK Flexibility Score: inf
ROOT
ATOM      1  C   UNL     1      11.302  -5.467  19.877  1.00  0.00     0.016 A 
ATOM      2  C   UNL     1      11.078  -6.826  20.124  1.00  0.00     0.047 A 
ATOM      3  C   UNL     1       9.822  -7.392  19.870  1.00  0.00     0.119 A 
ATOM      4  C   UNL     1       8.784  -6.596  19.365  1.00  0.00     0.094 A 
ATOM      5  C   UNL     1       9.000  -5.236  19.115  1.00  0.00     0.142 A 
ATOM      6  C   UNL     1      10.267  -4.668  19.372  1.00  0.00     0.018 A 
ATOM      7  C   UNL     1      10.453  -3.307  19.112  1.00  0.00     0.019 A 
ATOM      8  C   UNL     1       9.391  -2.556  18.609  1.00  0.00     0.094 A 
ATOM      9  C   UNL     1       8.163  -3.185  18.379  1.00  0.00     0.336 A 
ATOM     10  O   UNL     1       7.193  -2.524  17.927  1.00  0.00    -0.246 OA
ATOM     11  O   UNL     1       8.013  -4.483  18.635  1.00  0.00    -0.423 OA
ENDROOT
BRANCH   3  12
ATOM     12  O   UNL     1       9.617  -8.747  20.124  1.00  0.00    -0.508 OA
ATOM     13  H   UNL     1       9.201  -9.067  20.990  1.00  0.00     0.293 HD
ENDBRANCH   3  12
TORSDOF 1
ENDMDL
MODEL 6
REMARK VINA RESULT:    -4.596      7.981     10.620
REMARK INTER + INTRA:          -4.730
REMARK INTER:                  -4.730
REMARK INTRA:                   0.000
REMARK UNBOUND:                 0.000
REMARK SMILES O=c1ccc2ccc(O)cc2o1
REMARK SMILES IDX 6 1 7 2 8 3 10 4 11 5 5 6 4 7 3 8 2 9 1 10 12 11 9 12
REMARK H PARENT 9 13
REMARK Flexibility Score: inf
ROOT
ATOM      1  C   UNL     1       8.136  -3.470  17.089  1.00  0.00     0.016 A 
ATOM      2  C   UNL     1       7.957  -2.786  15.882  1.00  0.00     0.047 A 
ATOM      3  C   UNL     1       8.956  -1.931  15.399  1.00  0.00     0.119 A 
ATOM      4  C   UNL     1      10.143  -1.759  16.127  1.00  0.00     0.094 A 
ATOM      5  C   UNL     1      10.331  -2.440  17.335  1.00  0.00     0.142 A 
ATOM      6  C   UNL     1       9.321  -3.301  17.819  1.00  0.00     0.018 A 
ATOM      7  C   UNL     1       9.536  -3.968  19.029  1.00  0.00     0.019 A 
ATOM      8  C   UNL     1      10.733  -3.766  19.717  1.00  0.00     0.094 A 
ATOM      9  C   UNL     1      11.688  -2.898  19.177  1.00  0.00     0.336 A 
ATOM     10  O   UNL     1      12.773  -2.702  19.784  1.00  0.00    -0.246 OA
ATOM     11  O   UNL     1      11.457  -2.275  18.024  1.00  0.00    -0.423 OA
ENDROOT
BRANCH   3  12
ATOM     12  O   UNL     1       8.760  -1.257  14.195  1.00  0.00    -0.508 OA
ATOM     13  H   UNL     1       8.749  -0.246  14.150  1.00  0.00     0.293 HD
ENDBRANCH   3  12
TORSDOF 1
ENDMDL
MODEL 7
REMARK VINA RESULT:    -4.511      9.420     12.269
REMARK INTER + INTRA:          -4.643
REMARK INTER:                  -4.643
REMARK INTRA:                   0.000
REMARK UNBOUND:                 0.000
REMARK SMILES O=c1ccc2ccc(O)cc2o1
REMARK SMILES IDX 6 1 7 2 8 3 10 4 11 5 5 6 4 7 3 8 2 9 1 10 12 11 9 12
REMARK H PARENT 9 13
REMARK Flexibility Score: inf
ROOT
ATOM      1  C   UNL     1      12.104  -2.904  18.740  1.00  0.00     0.016 A 
ATOM      2  C   UNL     1      11.876  -1.821  17.884  1.00  0.00     0.047 A 
ATOM      3  C   UNL     1      10.629  -1.659  17.267  1.00  0.00     0.119 A 
ATOM      4  C   UNL     1       9.603  -2.584  17.507  1.00  0.00     0.094 A 
ATOM      5  C   UNL     1       9.822  -3.670  18.363  1.00  0.00     0.142 A 
ATOM      6  C   UNL     1      11.081  -3.831  18.984  1.00  0.00     0.018 A 
ATOM      7  C   UNL     1      11.271  -4.925  19.833  1.00  0.00     0.019 A 
ATOM      8  C   UNL     1      10.220  -5.818  20.042  1.00  0.00     0.094 A 
ATOM      9  C   UNL     1       9.001  -5.596  19.394  1.00  0.00     0.336 A 
ATOM     10  O   UNL     1       8.042  -6.392  19.568  1.00  0.00    -0.246 OA
ATOM     11  O   UNL     1       8.847  -4.546  18.589  1.00  0.00    -0.423 OA
ENDROOT
BRANCH   3  12
ATOM     12  O   UNL     1      10.421  -0.575  16.416  1.00  0.00    -0.508 OA
ATOM     13  H   UNL     1       9.489  -0.244  16.198  1.00  0.00     0.293 HD
ENDBRANCH   3  12
TORSDOF 1
ENDMDL
MODEL 8
REMARK VINA RESULT:    -4.465      8.117     10.500
REMARK INTER + INTRA:          -4.596
REMARK INTER:                  -4.596
REMARK INTRA:                   0.000
REMARK UNBOUND:                 0.000
REMARK SMILES O=c1ccc2ccc(O)cc2o1
REMARK SMILES IDX 6 1 7 2 8 3 10 4 11 5 5 6 4 7 3 8 2 9 1 10 12 11 9 12
REMARK H PARENT 9 13
REMARK Flexibility Score: inf
ROOT
ATOM      1  C   UNL     1       8.929  -3.315  17.661  1.00  0.00     0.016 A 
ATOM      2  C   UNL     1       8.395  -2.849  16.455  1.00  0.00     0.047 A 
ATOM      3  C   UNL     1       9.106  -1.925  15.678  1.00  0.00     0.119 A 
ATOM      4  C   UNL     1      10.359  -1.465  16.109  1.00  0.00     0.094 A 
ATOM      5  C   UNL     1      10.900  -1.926  17.314  1.00  0.00     0.142 A 
ATOM      6  C   UNL     1      10.181  -2.858  18.095  1.00  0.00     0.018 A 
ATOM      7  C   UNL     1      10.747  -3.302  19.294  1.00  0.00     0.019 A 
ATOM      8  C   UNL     1      11.996  -2.816  19.681  1.00  0.00     0.094 A 
ATOM      9  C   UNL     1      12.651  -1.894  18.858  1.00  0.00     0.336 A 
ATOM     10  O   UNL     1      13.778  -1.443  19.191  1.00  0.00    -0.246 OA
ATOM     11  O   UNL     1      12.089  -1.488  17.721  1.00  0.00    -0.423 OA
ENDROOT
BRANCH   3  12
ATOM     12  O   UNL     1       8.558  -1.471  14.480  1.00  0.00    -0.508 OA
ATOM     13  H   UNL     1       8.699  -0.521  14.160  1.00  0.00     0.293 HD
ENDBRANCH   3  12
TORSDOF 1
ENDMDL
