MODEL 1
REMARK VINA RESULT:    -4.373      0.000      0.000
REMARK INTER + INTRA:          -5.148
REMARK INTER:                  -5.012
REMARK INTRA:                  -0.136
REMARK UNBOUND:                -0.136
REMARK SMILES O=C([O-])C=Cc1ccc(O)cc1
REMARK SMILES IDX 6 1 7 2 12 3 8 4 11 5 9 6 5 7 4 8 2 9 1 10 3 11 10 12
REMARK H PARENT 10 13
REMARK Flexibility Score: inf
ROOT
ATOM      1  C   UNL     1     -11.674   4.113  -2.715  1.00  0.00    -0.025 A 
ATOM      2  C   UNL     1     -11.967   3.486  -1.492  1.00  0.00     0.012 A 
ATOM      3  C   UNL     1     -11.197   3.325  -3.784  1.00  0.00     0.012 A 
ATOM      4  C   UNL     1     -11.764   2.113  -1.328  1.00  0.00     0.047 A 
ATOM      5  C   UNL     1     -10.997   1.952  -3.617  1.00  0.00     0.047 A 
ATOM      6  C   UNL     1     -11.277   1.342  -2.387  1.00  0.00     0.115 A 
ENDROOT
BRANCH   1   7
ATOM      7  C   UNL     1     -11.915   5.571  -2.843  1.00  0.00     0.010 C 
ATOM      8  C   UNL     1     -10.990   6.504  -2.582  1.00  0.00     0.025 C 
BRANCH   8   9
ATOM      9  C   UNL     1     -11.277   7.942  -2.711  1.00  0.00     0.064 C 
ATOM     10  O   UNL     1     -12.125   8.334  -3.554  1.00  0.00    -0.545 OA
ATOM     11  O   UNL     1     -10.628   8.877  -1.911  1.00  0.00    -0.545 OA
ENDBRANCH   8   9
ENDBRANCH   1   7
BRANCH   6  12
ATOM     12  O   UNL     1     -11.080  -0.025  -2.210  1.00  0.00    -0.508 OA
ATOM     13  H   UNL     1     -10.258  -0.492  -2.572  1.00  0.00     0.293 HD
ENDBRANCH   6  12
TORSDOF 3
ENDMDL
MODEL 2
REMARK VINA RESULT:    -3.640      2.820      3.425
REMARK INTER + INTRA:          -4.309
REMARK INTER:                  -4.172
REMARK INTRA:                  -0.137
REMARK UNBOUND:                -0.136
REMARK SMILES O=C([O-])C=Cc1ccc(O)cc1
REMARK SMILES IDX 6 1 7 2 12 3 8 4 11 5 9 6 5 7 4 8 2 9 1 10 3 11 10 12
REMARK H PARENT 10 13
REMARK Flexibility Score: inf
ROOT
ATOM      1  C   UNL     1     -11.981   4.903  -5.139  1.00  0.00    -0.025 A 
ATOM      2  C   UNL     1     -11.960   3.553  -4.748  1.00  0.00     0.012 A 
ATOM      3  C   UNL     1     -11.900   5.213  -6.512  1.00  0.00     0.012 A 
ATOM      4  C   UNL     1     -11.836   2.537  -5.700  1.00  0.00     0.047 A 
ATOM      5  C   UNL     1     -11.777   4.194  -7.462  1.00  0.00     0.047 A 
ATOM      6  C   UNL     1     -11.741   2.853  -7.058  1.00  0.00     0.115 A 
ENDROOT
BRANCH   1   7
ATOM      7  C   UNL     1     -12.125   5.943  -4.092  1.00  0.00     0.010 C 
ATOM      8  C   UNL     1     -11.190   6.206  -3.168  1.00  0.00     0.025 C 
BRANCH   8   9
ATOM      9  C   UNL     1     -11.380   7.241  -2.139  1.00  0.00     0.064 C 
ATOM     10  O   UNL     1     -12.123   7.005  -1.152  1.00  0.00    -0.545 OA
ATOM     11  O   UNL     1     -10.749   8.476  -2.240  1.00  0.00    -0.545 OA
ENDBRANCH   8   9
ENDBRANCH   1   7
BRANCH   6  12
ATOM     12  O   UNL     1     -11.617   1.831  -7.995  1.00  0.00    -0.508 OA
ATOM     13  H   UNL     1     -10.933   1.093  -7.886  1.00  0.00     0.293 HD
ENDBRANCH   6  12
TORSDOF 3
ENDMDL
MODEL 3
REMARK VINA RESULT:    -3.446     14.149     15.818
REMARK INTER + INTRA:          -4.085
REMARK INTER:                  -3.936
REMARK INTRA:                  -0.150
REMARK UNBOUND:                -0.136
REMARK SMILES O=C([O-])C=Cc1ccc(O)cc1
REMARK SMILES IDX 6 1 7 2 12 3 8 4 11 5 9 6 5 7 4 8 2 9 1 10 3 11 10 12
REMARK H PARENT 10 13
REMARK Flexibility Score: inf
ROOT
ATOM      1  C   UNL     1       1.098  -2.631  -8.606  1.00  0.00    -0.025 A 
ATOM      2  C   UNL     1       0.102  -1.661  -8.403  1.00  0.00     0.012 A 
ATOM      3  C   UNL     1       0.720  -3.899  -9.094  1.00  0.00     0.012 A 
ATOM      4  C   UNL     1      -1.241  -1.954  -8.655  1.00  0.00     0.047 A 
ATOM      5  C   UNL     1      -0.625  -4.189  -9.346  1.00  0.00     0.047 A 
ATOM      6  C   UNL     1      -1.610  -3.217  -9.123  1.00  0.00     0.115 A 
ENDROOT
BRANCH   1   7
ATOM      7  C   UNL     1       2.510  -2.268  -8.335  1.00  0.00     0.010 C 
ATOM      8  C   UNL     1       2.880  -1.291  -7.497  1.00  0.00     0.025 C 
BRANCH   8   9
ATOM      9  C   UNL     1       4.295  -0.957  -7.266  1.00  0.00     0.064 C 
ATOM     10  O   UNL     1       5.036  -0.683  -8.245  1.00  0.00    -0.545 OA
ATOM     11  O   UNL     1       4.826  -0.934  -5.981  1.00  0.00    -0.545 OA
ENDBRANCH   8   9
ENDBRANCH   1   7
BRANCH   6  12
ATOM     12  O   UNL     1      -2.951  -3.496  -9.370  1.00  0.00    -0.508 OA
ATOM     13  H   UNL     1      -3.684  -2.850  -9.099  1.00  0.00     0.293 HD
ENDBRANCH   6  12
TORSDOF 3
ENDMDL
MODEL 4
REMARK VINA RESULT:    -3.445     16.907     18.563
REMARK INTER + INTRA:          -4.085
REMARK INTER:                  -3.943
REMARK INTRA:                  -0.141
REMARK UNBOUND:                -0.136
REMARK SMILES O=C([O-])C=Cc1ccc(O)cc1
REMARK SMILES IDX 6 1 7 2 12 3 8 4 11 5 9 6 5 7 4 8 2 9 1 10 3 11 10 12
REMARK H PARENT 10 13
REMARK Flexibility Score: inf
ROOT
ATOM      1  C   UNL     1       3.735  -4.469  -6.793  1.00  0.00    -0.025 A 
ATOM      2  C   UNL     1       3.783  -3.102  -7.117  1.00  0.00     0.012 A 
ATOM      3  C   UNL     1       2.846  -5.303  -7.501  1.00  0.00     0.012 A 
ATOM      4  C   UNL     1       2.948  -2.574  -8.105  1.00  0.00     0.047 A 
ATOM      5  C   UNL     1       2.012  -4.772  -8.490  1.00  0.00     0.047 A 
ATOM      6  C   UNL     1       2.058  -3.405  -8.792  1.00  0.00     0.115 A 
ENDROOT
BRANCH   1   7
ATOM      7  C   UNL     1       4.650  -4.983  -5.744  1.00  0.00     0.010 C 
ATOM      8  C   UNL     1       4.761  -4.443  -4.523  1.00  0.00     0.025 C 
BRANCH   8   9
ATOM      9  C   UNL     1       5.692  -4.979  -3.516  1.00  0.00     0.064 C 
ATOM     10  O   UNL     1       5.491  -6.122  -3.030  1.00  0.00    -0.545 OA
ATOM     11  O   UNL     1       6.794  -4.243  -3.095  1.00  0.00    -0.545 OA
ENDBRANCH   8   9
ENDBRANCH   1   7
BRANCH   6  12
ATOM     12  O   UNL     1       1.231  -2.865  -9.774  1.00  0.00    -0.508 OA
ATOM     13  H   UNL     1       1.594  -2.594 -10.680  1.00  0.00     0.293 HD
ENDBRANCH   6  12
TORSDOF 3
ENDMDL
MODEL 5
REMARK VINA RESULT:    -3.401     16.607     17.300
REMARK INTER + INTRA:          -4.035
REMARK INTER:                  -3.894
REMARK INTRA:                  -0.141
REMARK UNBOUND:                -0.136
REMARK SMILES O=C([O-])C=Cc1ccc(O)cc1
REMARK SMILES IDX 6 1 7 2 12 3 8 4 11 5 9 6 5 7 4 8 2 9 1 10 3 11 10 12
REMARK H PARENT 10 13
REMARK Flexibility Score: inf
ROOT
ATOM      1  C   UNL     1       4.112   5.491  -8.885  1.00  0.00    -0.025 A 
ATOM      2  C   UNL     1       3.332   4.326  -8.795  1.00  0.00     0.012 A 
ATOM      3  C   UNL     1       3.516   6.670  -9.378  1.00  0.00     0.012 A 
ATOM      4  C   UNL     1       1.998   4.327  -9.212  1.00  0.00     0.047 A 
ATOM      5  C   UNL     1       2.180   6.668  -9.792  1.00  0.00     0.047 A 
ATOM      6  C   UNL     1       1.419   5.496  -9.714  1.00  0.00     0.115 A 
ENDROOT
BRANCH   1   7
ATOM      7  C   UNL     1       5.520   5.442  -8.420  1.00  0.00     0.010 C 
ATOM      8  C   UNL     1       5.880   5.149  -7.163  1.00  0.00     0.025 C 
BRANCH   8   9
ATOM      9  C   UNL     1       7.290   5.123  -6.743  1.00  0.00     0.064 C 
ATOM     10  O   UNL     1       8.067   6.039  -7.118  1.00  0.00    -0.545 OA
ATOM     11  O   UNL     1       7.778   4.102  -5.934  1.00  0.00    -0.545 OA
ENDBRANCH   8   9
ENDBRANCH   1   7
BRANCH   6  12
ATOM     12  O   UNL     1       0.089   5.482 -10.125  1.00  0.00    -0.508 OA
ATOM     13  H   UNL     1      -0.548   4.750  -9.835  1.00  0.00     0.293 HD
ENDBRANCH   6  12
TORSDOF 3
ENDMDL
MODEL 6
REMARK VINA RESULT:    -3.399     15.318     17.149
REMARK INTER + INTRA:          -4.032
REMARK INTER:                  -3.896
REMARK INTRA:                  -0.136
REMARK UNBOUND:                -0.136
REMARK SMILES O=C([O-])C=Cc1ccc(O)cc1
REMARK SMILES IDX 6 1 7 2 12 3 8 4 11 5 9 6 5 7 4 8 2 9 1 10 3 11 10 12
REMARK H PARENT 10 13
REMARK Flexibility Score: inf
ROOT
ATOM      1  C   UNL     1       2.018  -4.128  -8.184  1.00  0.00    -0.025 A 
ATOM      2  C   UNL     1       2.442  -2.789  -8.168  1.00  0.00     0.012 A 
ATOM      3  C   UNL     1       2.767  -5.085  -7.468  1.00  0.00     0.012 A 
ATOM      4  C   UNL     1       3.597  -2.415  -7.478  1.00  0.00     0.047 A 
ATOM      5  C   UNL     1       3.922  -4.707  -6.776  1.00  0.00     0.047 A 
ATOM      6  C   UNL     1       4.342  -3.371  -6.782  1.00  0.00     0.115 A 
ENDROOT
BRANCH   1   7
ATOM      7  C   UNL     1       0.780  -4.473  -8.924  1.00  0.00     0.010 C 
ATOM      8  C   UNL     1      -0.409  -4.668  -8.336  1.00  0.00     0.025 C 
BRANCH   8   9
ATOM      9  C   UNL     1      -1.611  -5.021  -9.109  1.00  0.00     0.064 C 
ATOM     10  O   UNL     1      -1.944  -4.316 -10.096  1.00  0.00    -0.545 OA
ATOM     11  O   UNL     1      -2.384  -6.125  -8.766  1.00  0.00    -0.545 OA
ENDBRANCH   8   9
ENDBRANCH   1   7
BRANCH   6  12
ATOM     12  O   UNL     1       5.492  -2.984  -6.098  1.00  0.00    -0.508 OA
ATOM     13  H   UNL     1       5.708  -3.349  -5.178  1.00  0.00     0.293 HD
ENDBRANCH   6  12
TORSDOF 3
ENDMDL
MODEL 7
REMARK VINA RESULT:    -3.380     15.025     17.359
REMARK INTER + INTRA:          -4.010
REMARK INTER:                  -3.865
REMARK INTRA:                  -0.146
REMARK UNBOUND:                -0.136
REMARK SMILES O=C([O-])C=Cc1ccc(O)cc1
REMARK SMILES IDX 6 1 7 2 12 3 8 4 11 5 9 6 5 7 4 8 2 9 1 10 3 11 10 12
REMARK H PARENT 10 13
REMARK Flexibility Score: inf
ROOT
ATOM      1  C   UNL     1       1.038  -5.106  -8.273  1.00  0.00    -0.025 A 
ATOM      2  C   UNL     1       0.918  -3.762  -8.663  1.00  0.00     0.012 A 
ATOM      3  C   UNL     1      -0.108  -5.927  -8.306  1.00  0.00     0.012 A 
ATOM      4  C   UNL     1      -0.319  -3.240  -9.052  1.00  0.00     0.047 A 
ATOM      5  C   UNL     1      -1.344  -5.402  -8.697  1.00  0.00     0.047 A 
ATOM      6  C   UNL     1      -1.453  -4.056  -9.068  1.00  0.00     0.115 A 
ENDROOT
BRANCH   1   7
ATOM      7  C   UNL     1       2.374  -5.615  -7.878  1.00  0.00     0.010 C 
ATOM      8  C   UNL     1       3.232  -4.935  -7.105  1.00  0.00     0.025 C 
BRANCH   8   9
ATOM      9  C   UNL     1       4.554  -5.474  -6.748  1.00  0.00     0.064 C 
ATOM     10  O   UNL     1       5.284  -5.973  -7.643  1.00  0.00    -0.545 OA
ATOM     11  O   UNL     1       5.012  -5.437  -5.436  1.00  0.00    -0.545 OA
ENDBRANCH   8   9
ENDBRANCH   1   7
BRANCH   6  12
ATOM     12  O   UNL     1      -2.679  -3.523  -9.458  1.00  0.00    -0.508 OA
ATOM     13  H   UNL     1      -3.555  -3.941  -9.166  1.00  0.00     0.293 HD
ENDBRANCH   6  12
TORSDOF 3
ENDMDL
MODEL 8
REMARK VINA RESULT:    -2.777      3.723      6.083
REMARK INTER + INTRA:          -3.318
REMARK INTER:                  -3.185
REMARK INTRA:                  -0.133
REMARK UNBOUND:                -0.136
REMARK SMILES O=C([O-])C=Cc1ccc(O)cc1
REMARK SMILES IDX 6 1 7 2 12 3 8 4 11 5 9 6 5 7 4 8 2 9 1 10 3 11 10 12
REMARK H PARENT 10 13
REMARK Flexibility Score: inf
ROOT
ATOM      1  C   UNL     1     -12.020   3.015  -6.128  1.00  0.00    -0.025 A 
ATOM      2  C   UNL     1     -11.918   2.092  -7.182  1.00  0.00     0.012 A 
ATOM      3  C   UNL     1     -12.054   4.392  -6.433  1.00  0.00     0.012 A 
ATOM      4  C   UNL     1     -11.825   2.528  -8.506  1.00  0.00     0.047 A 
ATOM      5  C   UNL     1     -11.963   4.825  -7.759  1.00  0.00     0.047 A 
ATOM      6  C   UNL     1     -11.845   3.895  -8.799  1.00  0.00     0.115 A 
ENDROOT
BRANCH   1   7
ATOM      7  C   UNL     1     -12.125   2.502  -4.740  1.00  0.00     0.010 C 
ATOM      8  C   UNL     1     -11.070   2.293  -3.941  1.00  0.00     0.025 C 
BRANCH   8   9
ATOM      9  C   UNL     1     -11.221   1.770  -2.573  1.00  0.00     0.064 C 
ATOM     10  O   UNL     1     -11.554   2.549  -1.643  1.00  0.00    -0.545 OA
ATOM     11  O   UNL     1     -11.004   0.425  -2.293  1.00  0.00    -0.545 OA
ENDBRANCH   8   9
ENDBRANCH   1   7
BRANCH   6  12
ATOM     12  O   UNL     1     -11.752   4.316 -10.123  1.00  0.00    -0.508 OA
ATOM     13  H   UNL     1     -11.293   5.184 -10.372  1.00  0.00     0.293 HD
ENDBRANCH   6  12
TORSDOF 3
ENDMDL
