MODEL 1
REMARK VINA RESULT:    -3.582      0.000      0.000
REMARK INTER + INTRA:          -6.605
REMARK INTER:                  -5.676
REMARK INTRA:                  -0.929
REMARK UNBOUND:                -0.929
REMARK SMILES CCCCCCCCCCCC(=O)[O-]
REMARK SMILES IDX 7 1 8 2 9 3 10 4 11 5 12 6 13 7 14 8 6 9 5 10 4 11 3 12 2 13
REMARK SMILES IDX 1 14
REMARK H PARENT
REMARK Flexibility Score: inf
ROOT
ATOM      1  C   UNL     1      14.029   3.880  17.919  1.00  0.00     0.000 C 
ENDROOT
BRANCH   1   2
ATOM      2  C   UNL     1      14.914   4.428  16.781  1.00  0.00     0.000 C 
BRANCH   2   3
ATOM      3  C   UNL     1      16.225   5.096  17.235  1.00  0.00     0.000 C 
BRANCH   3   4
ATOM      4  C   UNL     1      16.167   5.596  18.688  1.00  0.00     0.006 C 
BRANCH   4   5
ATOM      5  C   UNL     1      16.263   7.125  18.777  1.00  0.00     0.053 C 
BRANCH   5   6
ATOM      6  C   UNL     1      17.619   7.572  19.229  1.00  0.00     0.041 C 
ATOM      7  O   UNL     1      18.460   7.995  18.393  1.00  0.00    -0.550 OA
ATOM      8  O   UNL     1      17.966   7.493  20.572  1.00  0.00    -0.550 OA
ENDBRANCH   5   6
ENDBRANCH   4   5
ENDBRANCH   3   4
ENDBRANCH   2   3
ENDBRANCH   1   2
BRANCH   1   9
ATOM      9  C   UNL     1      12.522   4.157  17.767  1.00  0.00     0.000 C 
BRANCH   9  10
ATOM     10  C   UNL     1      12.166   5.640  17.950  1.00  0.00    -0.000 C 
BRANCH  10  11
ATOM     11  C   UNL     1      12.657   6.158  19.309  1.00  0.00    -0.000 C 
BRANCH  11  12
ATOM     12  C   UNL     1      11.563   6.902  20.098  1.00  0.00    -0.000 C 
BRANCH  12  13
ATOM     13  C   UNL     1      10.207   6.177  20.166  1.00  0.00    -0.003 C 
ATOM     14  C   UNL     1       9.020   7.097  19.885  1.00  0.00     0.004 C 
ENDBRANCH  12  13
ENDBRANCH  11  12
ENDBRANCH  10  11
ENDBRANCH   9  10
ENDBRANCH   1   9
TORSDOF 10
ENDMDL
MODEL 2
REMARK VINA RESULT:    -3.442      3.645      6.163
REMARK INTER + INTRA:          -6.383
REMARK INTER:                  -5.614
REMARK INTRA:                  -0.770
REMARK UNBOUND:                -0.929
REMARK SMILES CCCCCCCCCCCC(=O)[O-]
REMARK SMILES IDX 7 1 8 2 9 3 10 4 11 5 12 6 13 7 14 8 6 9 5 10 4 11 3 12 2 13
REMARK SMILES IDX 1 14
REMARK H PARENT
REMARK Flexibility Score: inf
ROOT
ATOM      1  C   UNL     1      13.428   4.168  17.842  1.00  0.00     0.000 C 
ENDROOT
BRANCH   1   2
ATOM      2  C   UNL     1      12.699   5.517  18.012  1.00  0.00     0.000 C 
BRANCH   2   3
ATOM      3  C   UNL     1      13.050   6.294  19.294  1.00  0.00     0.000 C 
BRANCH   3   4
ATOM      4  C   UNL     1      11.906   7.202  19.773  1.00  0.00     0.006 C 
BRANCH   4   5
ATOM      5  C   UNL     1      10.887   6.442  20.634  1.00  0.00     0.053 C 
BRANCH   5   6
ATOM      6  C   UNL     1       9.557   6.331  19.954  1.00  0.00     0.041 C 
ATOM      7  O   UNL     1       8.837   7.352  19.799  1.00  0.00    -0.550 OA
ATOM      8  O   UNL     1       9.099   5.094  19.519  1.00  0.00    -0.550 OA
ENDBRANCH   5   6
ENDBRANCH   4   5
ENDBRANCH   3   4
ENDBRANCH   2   3
ENDBRANCH   1   2
BRANCH   1   9
ATOM      9  C   UNL     1      14.622   4.187  16.871  1.00  0.00     0.000 C 
BRANCH   9  10
ATOM     10  C   UNL     1      15.942   4.570  17.556  1.00  0.00    -0.000 C 
BRANCH  10  11
ATOM     11  C   UNL     1      16.767   5.512  16.667  1.00  0.00    -0.000 C 
BRANCH  11  12
ATOM     12  C   UNL     1      17.436   6.651  17.458  1.00  0.00    -0.000 C 
BRANCH  12  13
ATOM     13  C   UNL     1      16.691   7.077  18.735  1.00  0.00    -0.003 C 
ATOM     14  C   UNL     1      17.629   7.393  19.900  1.00  0.00     0.004 C 
ENDBRANCH  12  13
ENDBRANCH  11  12
ENDBRANCH  10  11
ENDBRANCH   9  10
ENDBRANCH   1   9
TORSDOF 10
ENDMDL
MODEL 3
REMARK VINA RESULT:    -3.404      1.999      2.526
REMARK INTER + INTRA:          -6.323
REMARK INTER:                  -5.450
REMARK INTRA:                  -0.873
REMARK UNBOUND:                -0.929
REMARK SMILES CCCCCCCCCCCC(=O)[O-]
REMARK SMILES IDX 7 1 8 2 9 3 10 4 11 5 12 6 13 7 14 8 6 9 5 10 4 11 3 12 2 13
REMARK SMILES IDX 1 14
REMARK H PARENT
REMARK Flexibility Score: inf
ROOT
ATOM      1  C   UNL     1      14.070   4.720  18.646  1.00  0.00     0.000 C 
ENDROOT
BRANCH   1   2
ATOM      2  C   UNL     1      14.941   5.184  19.832  1.00  0.00     0.000 C 
BRANCH   2   3
ATOM      3  C   UNL     1      16.401   5.521  19.478  1.00  0.00     0.000 C 
BRANCH   3   4
ATOM      4  C   UNL     1      16.526   6.767  18.587  1.00  0.00     0.006 C 
BRANCH   4   5
ATOM      5  C   UNL     1      17.512   6.554  17.429  1.00  0.00     0.053 C 
BRANCH   5   6
ATOM      6  C   UNL     1      17.292   5.238  16.747  1.00  0.00     0.041 C 
ATOM      7  O   UNL     1      16.258   5.048  16.054  1.00  0.00    -0.550 OA
ATOM      8  O   UNL     1      18.215   4.212  16.901  1.00  0.00    -0.550 OA
ENDBRANCH   5   6
ENDBRANCH   4   5
ENDBRANCH   3   4
ENDBRANCH   2   3
ENDBRANCH   1   2
BRANCH   1   9
ATOM      9  C   UNL     1      12.943   5.688  18.244  1.00  0.00     0.000 C 
BRANCH   9  10
ATOM     10  C   UNL     1      12.803   6.875  19.207  1.00  0.00    -0.000 C 
BRANCH  10  11
ATOM     11  C   UNL     1      11.567   6.712  20.104  1.00  0.00    -0.000 C 
BRANCH  11  12
ATOM     12  C   UNL     1      10.675   5.528  19.687  1.00  0.00    -0.000 C 
BRANCH  12  13
ATOM     13  C   UNL     1       9.164   5.816  19.710  1.00  0.00    -0.003 C 
ATOM     14  C   UNL     1       8.838   7.305  19.821  1.00  0.00     0.004 C 
ENDBRANCH  12  13
ENDBRANCH  11  12
ENDBRANCH  10  11
ENDBRANCH   9  10
ENDBRANCH   1   9
TORSDOF 10
ENDMDL
MODEL 4
REMARK VINA RESULT:    -3.366     21.747     22.876
REMARK INTER + INTRA:          -6.262
REMARK INTER:                  -5.183
REMARK INTRA:                  -1.079
REMARK UNBOUND:                -0.929
REMARK SMILES CCCCCCCCCCCC(=O)[O-]
REMARK SMILES IDX 7 1 8 2 9 3 10 4 11 5 12 6 13 7 14 8 6 9 5 10 4 11 3 12 2 13
REMARK SMILES IDX 1 14
REMARK H PARENT
REMARK Flexibility Score: inf
ROOT
ATOM      1  C   UNL     1       3.968  18.518   5.025  1.00  0.00     0.000 C 
ENDROOT
BRANCH   1   2
ATOM      2  C   UNL     1       4.461  18.477   3.564  1.00  0.00     0.000 C 
BRANCH   2   3
ATOM      3  C   UNL     1       4.590  19.848   2.877  1.00  0.00     0.000 C 
BRANCH   3   4
ATOM      4  C   UNL     1       4.347  21.022   3.840  1.00  0.00     0.006 C 
BRANCH   4   5
ATOM      5  C   UNL     1       4.584  22.381   3.166  1.00  0.00     0.053 C 
BRANCH   5   6
ATOM      6  C   UNL     1       5.759  23.098   3.758  1.00  0.00     0.041 C 
ATOM      7  O   UNL     1       5.587  23.966   4.653  1.00  0.00    -0.550 OA
ATOM      8  O   UNL     1       7.041  22.827   3.299  1.00  0.00    -0.550 OA
ENDBRANCH   5   6
ENDBRANCH   4   5
ENDBRANCH   3   4
ENDBRANCH   2   3
ENDBRANCH   1   2
BRANCH   1   9
ATOM      9  C   UNL     1       2.515  18.056   5.238  1.00  0.00     0.000 C 
BRANCH   9  10
ATOM     10  C   UNL     1       1.538  19.225   5.425  1.00  0.00    -0.000 C 
BRANCH  10  11
ATOM     11  C   UNL     1       1.073  19.323   6.886  1.00  0.00    -0.000 C 
BRANCH  11  12
ATOM     12  C   UNL     1       1.362  20.698   7.517  1.00  0.00    -0.000 C 
BRANCH  12  13
ATOM     13  C   UNL     1       2.819  21.178   7.384  1.00  0.00    -0.003 C 
ATOM     14  C   UNL     1       2.935  22.600   6.838  1.00  0.00     0.004 C 
ENDBRANCH  12  13
ENDBRANCH  11  12
ENDBRANCH  10  11
ENDBRANCH   9  10
ENDBRANCH   1   9
TORSDOF 10
ENDMDL
MODEL 5
REMARK VINA RESULT:    -3.284      1.712      2.591
REMARK INTER + INTRA:          -6.132
REMARK INTER:                  -5.227
REMARK INTRA:                  -0.905
REMARK UNBOUND:                -0.929
REMARK SMILES CCCCCCCCCCCC(=O)[O-]
REMARK SMILES IDX 7 1 8 2 9 3 10 4 11 5 12 6 13 7 14 8 6 9 5 10 4 11 3 12 2 13
REMARK SMILES IDX 1 14
REMARK H PARENT
REMARK Flexibility Score: inf
ROOT
ATOM      1  C   UNL     1      13.777   5.649  18.811  1.00  0.00     0.000 C 
ENDROOT
BRANCH   1   2
ATOM      2  C   UNL     1      13.286   4.613  17.779  1.00  0.00     0.000 C 
BRANCH   2   3
ATOM      3  C   UNL     1      14.345   4.148  16.763  1.00  0.00     0.000 C 
BRANCH   3   4
ATOM      4  C   UNL     1      15.781   4.281  17.295  1.00  0.00     0.006 C 
BRANCH   4   5
ATOM      5  C   UNL     1      16.730   4.887  16.252  1.00  0.00     0.053 C 
BRANCH   5   6
ATOM      6  C   UNL     1      17.327   6.177  16.725  1.00  0.00     0.041 C 
ATOM      7  O   UNL     1      16.959   6.684  17.818  1.00  0.00    -0.550 OA
ATOM      8  O   UNL     1      18.268   6.836  15.945  1.00  0.00    -0.550 OA
ENDBRANCH   5   6
ENDBRANCH   4   5
ENDBRANCH   3   4
ENDBRANCH   2   3
ENDBRANCH   1   2
BRANCH   1   9
ATOM      9  C   UNL     1      13.684   5.203  20.281  1.00  0.00     0.000 C 
BRANCH   9  10
ATOM     10  C   UNL     1      12.325   5.529  20.918  1.00  0.00    -0.000 C 
BRANCH  10  11
ATOM     11  C   UNL     1      11.688   6.758  20.254  1.00  0.00    -0.000 C 
BRANCH  11  12
ATOM     12  C   UNL     1      10.177   6.592  20.007  1.00  0.00    -0.000 C 
BRANCH  12  13
ATOM     13  C   UNL     1       9.810   5.649  18.848  1.00  0.00    -0.003 C 
ATOM     14  C   UNL     1       9.102   4.376  19.311  1.00  0.00     0.004 C 
ENDBRANCH  12  13
ENDBRANCH  11  12
ENDBRANCH  10  11
ENDBRANCH   9  10
ENDBRANCH   1   9
TORSDOF 10
ENDMDL
MODEL 6
REMARK VINA RESULT:    -3.276     21.723     22.735
REMARK INTER + INTRA:          -6.121
REMARK INTER:                  -4.732
REMARK INTRA:                  -1.389
REMARK UNBOUND:                -0.929
REMARK SMILES CCCCCCCCCCCC(=O)[O-]
REMARK SMILES IDX 7 1 8 2 9 3 10 4 11 5 12 6 13 7 14 8 6 9 5 10 4 11 3 12 2 13
REMARK SMILES IDX 1 14
REMARK H PARENT
REMARK Flexibility Score: inf
ROOT
ATOM      1  C   UNL     1       4.705  19.666   2.931  1.00  0.00     0.000 C 
ENDROOT
BRANCH   1   2
ATOM      2  C   UNL     1       4.472  21.026   3.621  1.00  0.00     0.000 C 
BRANCH   2   3
ATOM      3  C   UNL     1       3.138  21.156   4.377  1.00  0.00     0.000 C 
BRANCH   3   4
ATOM      4  C   UNL     1       3.281  21.896   5.717  1.00  0.00     0.006 C 
BRANCH   4   5
ATOM      5  C   UNL     1       3.135  20.951   6.918  1.00  0.00     0.053 C 
BRANCH   5   6
ATOM      6  C   UNL     1       2.221  21.516   7.963  1.00  0.00     0.041 C 
ATOM      7  O   UNL     1       1.370  20.780   8.527  1.00  0.00    -0.550 OA
ATOM      8  O   UNL     1       2.291  22.864   8.292  1.00  0.00    -0.550 OA
ENDBRANCH   5   6
ENDBRANCH   4   5
ENDBRANCH   3   4
ENDBRANCH   2   3
ENDBRANCH   1   2
BRANCH   1   9
ATOM      9  C   UNL     1       4.155  18.445   3.688  1.00  0.00     0.000 C 
BRANCH   9  10
ATOM     10  C   UNL     1       3.008  17.748   2.944  1.00  0.00    -0.000 C 
BRANCH  10  11
ATOM     11  C   UNL     1       1.949  17.230   3.929  1.00  0.00    -0.000 C 
BRANCH  11  12
ATOM     12  C   UNL     1       2.228  17.648   5.384  1.00  0.00    -0.000 C 
BRANCH  12  13
ATOM     13  C   UNL     1       0.986  18.083   6.182  1.00  0.00    -0.003 C 
ATOM     14  C   UNL     1       0.171  19.169   5.480  1.00  0.00     0.004 C 
ENDBRANCH  12  13
ENDBRANCH  11  12
ENDBRANCH  10  11
ENDBRANCH   9  10
ENDBRANCH   1   9
TORSDOF 10
ENDMDL
MODEL 7
REMARK VINA RESULT:    -3.259     21.815     23.144
REMARK INTER + INTRA:          -6.093
REMARK INTER:                  -4.616
REMARK INTRA:                  -1.477
REMARK UNBOUND:                -0.929
REMARK SMILES CCCCCCCCCCCC(=O)[O-]
REMARK SMILES IDX 7 1 8 2 9 3 10 4 11 5 12 6 13 7 14 8 6 9 5 10 4 11 3 12 2 13
REMARK SMILES IDX 1 14
REMARK H PARENT
REMARK Flexibility Score: inf
ROOT
ATOM      1  C   UNL     1       2.315  17.932   5.012  1.00  0.00     0.000 C 
ENDROOT
BRANCH   1   2
ATOM      2  C   UNL     1       1.371  18.351   6.157  1.00  0.00     0.000 C 
BRANCH   2   3
ATOM      3  C   UNL     1       1.035  19.853   6.213  1.00  0.00     0.000 C 
BRANCH   3   4
ATOM      4  C   UNL     1       1.483  20.515   7.526  1.00  0.00     0.006 C 
BRANCH   4   5
ATOM      5  C   UNL     1       2.814  21.264   7.372  1.00  0.00     0.053 C 
BRANCH   5   6
ATOM      6  C   UNL     1       2.622  22.749   7.390  1.00  0.00     0.041 C 
ATOM      7  O   UNL     1       3.396  23.497   6.736  1.00  0.00    -0.550 OA
ATOM      8  O   UNL     1       1.606  23.310   8.153  1.00  0.00    -0.550 OA
ENDBRANCH   5   6
ENDBRANCH   4   5
ENDBRANCH   3   4
ENDBRANCH   2   3
ENDBRANCH   1   2
BRANCH   1   9
ATOM      9  C   UNL     1       3.749  18.483   5.111  1.00  0.00     0.000 C 
BRANCH   9  10
ATOM     10  C   UNL     1       4.520  18.384   3.787  1.00  0.00    -0.000 C 
BRANCH  10  11
ATOM     11  C   UNL     1       4.497  19.724   3.037  1.00  0.00    -0.000 C 
BRANCH  11  12
ATOM     12  C   UNL     1       4.285  20.930   3.971  1.00  0.00    -0.000 C 
BRANCH  12  13
ATOM     13  C   UNL     1       3.119  21.855   3.578  1.00  0.00    -0.003 C 
ATOM     14  C   UNL     1       1.944  21.106   2.951  1.00  0.00     0.004 C 
ENDBRANCH  12  13
ENDBRANCH  11  12
ENDBRANCH  10  11
ENDBRANCH   9  10
ENDBRANCH   1   9
TORSDOF 10
ENDMDL
MODEL 8
REMARK VINA RESULT:    -3.199      3.813      6.498
REMARK INTER + INTRA:          -5.997
REMARK INTER:                  -5.034
REMARK INTRA:                  -0.963
REMARK UNBOUND:                -0.929
REMARK SMILES CCCCCCCCCCCC(=O)[O-]
REMARK SMILES IDX 7 1 8 2 9 3 10 4 11 5 12 6 13 7 14 8 6 9 5 10 4 11 3 12 2 13
REMARK SMILES IDX 1 14
REMARK H PARENT
REMARK Flexibility Score: inf
ROOT
ATOM      1  C   UNL     1      14.535   4.705  18.976  1.00  0.00     0.000 C 
ENDROOT
BRANCH   1   2
ATOM      2  C   UNL     1      13.542   5.642  18.258  1.00  0.00     0.000 C 
BRANCH   2   3
ATOM      3  C   UNL     1      12.206   4.993  17.852  1.00  0.00     0.000 C 
BRANCH   3   4
ATOM      4  C   UNL     1      11.310   4.667  19.059  1.00  0.00     0.006 C 
BRANCH   4   5
ATOM      5  C   UNL     1      10.776   5.934  19.740  1.00  0.00     0.053 C 
BRANCH   5   6
ATOM      6  C   UNL     1       9.279   5.984  19.726  1.00  0.00     0.041 C 
ATOM      7  O   UNL     1       8.677   7.055  20.004  1.00  0.00    -0.550 OA
ATOM      8  O   UNL     1       8.547   4.840  19.433  1.00  0.00    -0.550 OA
ENDBRANCH   5   6
ENDBRANCH   4   5
ENDBRANCH   3   4
ENDBRANCH   2   3
ENDBRANCH   1   2
BRANCH   1   9
ATOM      9  C   UNL     1      15.706   5.410  19.683  1.00  0.00     0.000 C 
BRANCH   9  10
ATOM     10  C   UNL     1      16.254   6.603  18.886  1.00  0.00    -0.000 C 
BRANCH  10  11
ATOM     11  C   UNL     1      17.492   6.197  18.073  1.00  0.00    -0.000 C 
BRANCH  11  12
ATOM     12  C   UNL     1      17.179   5.946  16.587  1.00  0.00    -0.000 C 
BRANCH  12  13
ATOM     13  C   UNL     1      17.046   4.464  16.194  1.00  0.00    -0.003 C 
ATOM     14  C   UNL     1      15.702   4.132  15.547  1.00  0.00     0.004 C 
ENDBRANCH  12  13
ENDBRANCH  11  12
ENDBRANCH  10  11
ENDBRANCH   9  10
ENDBRANCH   1   9
TORSDOF 10
ENDMDL
MODEL 9
REMARK VINA RESULT:    -3.090     21.559     23.094
REMARK INTER + INTRA:          -5.826
REMARK INTER:                  -4.613
REMARK INTRA:                  -1.213
REMARK UNBOUND:                -0.929
REMARK SMILES CCCCCCCCCCCC(=O)[O-]
REMARK SMILES IDX 7 1 8 2 9 3 10 4 11 5 12 6 13 7 14 8 6 9 5 10 4 11 3 12 2 13
REMARK SMILES IDX 1 14
REMARK H PARENT
REMARK Flexibility Score: inf
ROOT
ATOM      1  C   UNL     1       4.078  21.663   3.996  1.00  0.00     0.000 C 
ENDROOT
BRANCH   1   2
ATOM      2  C   UNL     1       2.879  22.022   4.897  1.00  0.00     0.000 C 
BRANCH   2   3
ATOM      3  C   UNL     1       3.230  22.318   6.367  1.00  0.00     0.000 C 
BRANCH   3   4
ATOM      4  C   UNL     1       2.844  21.170   7.315  1.00  0.00     0.006 C 
BRANCH   4   5
ATOM      5  C   UNL     1       1.364  21.224   7.715  1.00  0.00     0.053 C 
BRANCH   5   6
ATOM      6  C   UNL     1       1.154  22.025   8.964  1.00  0.00     0.041 C 
ATOM      7  O   UNL     1       1.318  21.494  10.094  1.00  0.00    -0.550 OA
ATOM      8  O   UNL     1       0.749  23.351   8.881  1.00  0.00    -0.550 OA
ENDBRANCH   5   6
ENDBRANCH   4   5
ENDBRANCH   3   4
ENDBRANCH   2   3
ENDBRANCH   1   2
BRANCH   1   9
ATOM      9  C   UNL     1       3.778  20.644   2.882  1.00  0.00     0.000 C 
BRANCH   9  10
ATOM     10  C   UNL     1       4.757  19.461   2.875  1.00  0.00    -0.000 C 
BRANCH  10  11
ATOM     11  C   UNL     1       4.124  18.220   3.519  1.00  0.00    -0.000 C 
BRANCH  11  12
ATOM     12  C   UNL     1       3.832  18.405   5.020  1.00  0.00    -0.000 C 
BRANCH  12  13
ATOM     13  C   UNL     1       2.421  17.976   5.463  1.00  0.00    -0.003 C 
ATOM     14  C   UNL     1       1.311  18.610   4.626  1.00  0.00     0.004 C 
ENDBRANCH  12  13
ENDBRANCH  11  12
ENDBRANCH  10  11
ENDBRANCH   9  10
ENDBRANCH   1   9
TORSDOF 10
ENDMDL
