MODEL 1
REMARK VINA RESULT:    22.900      0.000      0.000
REMARK INTER + INTRA:          45.722
REMARK INTER:                  37.626
REMARK INTRA:                   8.097
REMARK UNBOUND:                 8.097
REMARK SMILES C[C@@H]1O[C@@H](OC[C@H]2O[C@@H](Oc3c(-c4ccc(O)c(O)c4)oc4cc(O)cc(O)c4c3=O)[C@H](O)[C@@H](O)[C@H]2O)[C@H](O)[C@@H](O)[C@@H]1O
REMARK SMILES IDX 7 1 36 2 34 3 32 4 9 5 8 6 6 7 5 8 4 9 1 10 2 11 42 12 3 13
REMARK SMILES IDX 40 14 38 15 43 16 41 18 39 20 37 22 35 24 10 26 11 27 12 28
REMARK SMILES IDX 30 29 21 30 29 31 31 32 22 33 27 34 23 35 26 36 24 37 13 38
REMARK SMILES IDX 20 39 14 40 18 41 15 42 16 43 19 44 17 46 28 48 25 50 33 52
REMARK H PARENT 43 17 41 19 39 21 37 23 35 25 19 45 17 47 28 49 25 51 33 53
REMARK Flexibility Score: inf
ROOT
ATOM      1  C   UNL     1      -6.944  -0.637   9.723  1.00  0.00     0.180 C 
ATOM      2  C   UNL     1      -7.941  -1.739  10.183  1.00  0.00     0.177 C 
ATOM      3  C   UNL     1      -8.969  -2.077   9.054  1.00  0.00     0.180 C 
ATOM      4  C   UNL     1      -9.177  -0.878   8.108  1.00  0.00     0.214 C 
ATOM      5  C   UNL     1      -7.832  -0.285   7.608  1.00  0.00     0.339 C 
ATOM      6  O   UNL     1      -6.712  -0.765   8.327  1.00  0.00    -0.332 OA
ENDROOT
BRANCH   1   7
ATOM      7  C   UNL     1      -5.600  -0.653  10.487  1.00  0.00     0.198 C 
BRANCH   7   8
ATOM      8  O   UNL     1      -4.531  -1.085   9.652  1.00  0.00    -0.347 OA
BRANCH   8   9
ATOM      9  C   UNL     1      -4.074  -2.377  10.019  1.00  0.00     0.281 C 
ATOM     10  C   UNL     1      -2.497  -4.582   8.441  1.00  0.00     0.041 C 
ATOM     11  C   UNL     1      -3.821  -4.573   9.217  1.00  0.00     0.150 C 
ATOM     12  C   UNL     1      -3.701  -5.027  10.714  1.00  0.00     0.174 C 
ATOM     13  O   UNL     1      -4.483  -3.322   9.049  1.00  0.00    -0.344 OA
ATOM     14  C   UNL     1      -4.745  -4.300  11.579  1.00  0.00     0.179 C 
ATOM     15  C   UNL     1      -4.651  -2.760  11.404  1.00  0.00     0.202 C 
BRANCH  12  16
ATOM     16  O   UNL     1      -2.424  -4.779  11.244  1.00  0.00    -0.388 OA
ATOM     17  H   UNL     1      -1.782  -5.356  10.747  1.00  0.00     0.211 HD
ENDBRANCH  12  16
BRANCH  14  18
ATOM     18  O   UNL     1      -6.057  -4.742  11.315  1.00  0.00    -0.387 OA
ATOM     19  H   UNL     1      -6.683  -4.227  11.859  1.00  0.00     0.211 HD
ENDBRANCH  14  18
BRANCH  15  20
ATOM     20  O   UNL     1      -3.828  -2.226  12.416  1.00  0.00    -0.385 OA
ATOM     21  H   UNL     1      -2.892  -2.367  12.110  1.00  0.00     0.211 HD
ENDBRANCH  15  20
ENDBRANCH   8   9
ENDBRANCH   7   8
ENDBRANCH   1   7
BRANCH   2  22
ATOM     22  O   UNL     1      -7.298  -2.916  10.626  1.00  0.00    -0.387 OA
ATOM     23  H   UNL     1      -6.892  -2.726  11.514  1.00  0.00     0.211 HD
ENDBRANCH   2  22
BRANCH   3  24
ATOM     24  O   UNL     1      -8.606  -3.225   8.312  1.00  0.00    -0.387 OA
ATOM     25  H   UNL     1      -7.624  -3.353   8.380  1.00  0.00     0.211 HD
ENDBRANCH   3  24
BRANCH   5  26
ATOM     26  O   UNL     1      -7.658  -0.611   6.237  1.00  0.00    -0.454 OA
BRANCH  26  27
ATOM     27  C   UNL     1      -7.535  -1.942   5.811  1.00  0.00     0.214 A 
ATOM     28  C   UNL     1      -8.365  -2.470   4.797  1.00  0.00     0.180 A 
ATOM     29  C   UNL     1      -6.521  -2.738   6.349  1.00  0.00     0.239 A 
ATOM     30  O   UNL     1      -8.106  -3.677   4.322  1.00  0.00    -0.452 OA
ATOM     31  C   UNL     1      -6.318  -4.038   5.850  1.00  0.00     0.111 A 
ATOM     32  O   UNL     1      -5.814  -2.264   7.275  1.00  0.00    -0.285 OA
ATOM     33  C   UNL     1      -7.140  -4.468   4.777  1.00  0.00     0.146 A 
ATOM     34  C   UNL     1      -5.353  -4.925   6.377  1.00  0.00     0.134 A 
ATOM     35  C   UNL     1      -6.955  -5.734   4.204  1.00  0.00     0.094 A 
ATOM     36  C   UNL     1      -5.203  -6.201   5.808  1.00  0.00     0.093 A 
ATOM     37  C   UNL     1      -5.991  -6.596   4.723  1.00  0.00     0.123 A 
BRANCH  28  38
ATOM     38  C   UNL     1      -9.528  -1.737   4.221  1.00  0.00     0.025 A 
ATOM     39  C   UNL     1      -9.536  -1.441   2.846  1.00  0.00     0.062 A 
ATOM     40  C   UNL     1     -10.661  -1.409   4.993  1.00  0.00     0.016 A 
ATOM     41  C   UNL     1     -10.648  -0.825   2.251  1.00  0.00     0.158 A 
ATOM     42  C   UNL     1     -11.746  -0.756   4.403  1.00  0.00     0.051 A 
ATOM     43  C   UNL     1     -11.761  -0.482   3.034  1.00  0.00     0.157 A 
BRANCH  41  44
ATOM     44  O   UNL     1     -10.614  -0.556   0.879  1.00  0.00    -0.504 OA
ATOM     45  H   UNL     1     -11.420  -0.666   0.282  1.00  0.00     0.293 HD
ENDBRANCH  41  44
BRANCH  43  46
ATOM     46  O   UNL     1     -12.867   0.125   2.446  1.00  0.00    -0.504 OA
ATOM     47  H   UNL     1     -13.807  -0.045   2.779  1.00  0.00     0.293 HD
ENDBRANCH  43  46
ENDBRANCH  28  38
BRANCH  34  48
ATOM     48  O   UNL     1      -4.560  -4.556   7.462  1.00  0.00    -0.507 OA
ATOM     49  H   UNL     1      -4.279  -3.604   7.611  1.00  0.00     0.293 HD
ENDBRANCH  34  48
BRANCH  37  50
ATOM     50  O   UNL     1      -5.832  -7.856   4.158  1.00  0.00    -0.508 OA
ATOM     51  H   UNL     1      -5.288  -8.004   3.326  1.00  0.00     0.293 HD
ENDBRANCH  37  50
ENDBRANCH  26  27
ENDBRANCH   5  26
BRANCH   4  52
ATOM     52  O   UNL     1      -9.893   0.125   8.769  1.00  0.00    -0.384 OA
ATOM     53  H   UNL     1      -9.945  -0.126   9.730  1.00  0.00     0.211 HD
ENDBRANCH   4  52
TORSDOF 16
ENDMDL
MODEL 2
REMARK VINA RESULT:    23.098      0.824      1.566
REMARK INTER + INTRA:          46.049
REMARK INTER:                  40.232
REMARK INTRA:                   5.817
REMARK UNBOUND:                 8.097
REMARK SMILES C[C@@H]1O[C@@H](OC[C@H]2O[C@@H](Oc3c(-c4ccc(O)c(O)c4)oc4cc(O)cc(O)c4c3=O)[C@H](O)[C@@H](O)[C@H]2O)[C@H](O)[C@@H](O)[C@@H]1O
REMARK SMILES IDX 7 1 36 2 34 3 32 4 9 5 8 6 6 7 5 8 4 9 1 10 2 11 42 12 3 13
REMARK SMILES IDX 40 14 38 15 43 16 41 18 39 20 37 22 35 24 10 26 11 27 12 28
REMARK SMILES IDX 30 29 21 30 29 31 31 32 22 33 27 34 23 35 26 36 24 37 13 38
REMARK SMILES IDX 20 39 14 40 18 41 15 42 16 43 19 44 17 46 28 48 25 50 33 52
REMARK H PARENT 43 17 41 19 39 21 37 23 35 25 19 45 17 47 28 49 25 51 33 53
REMARK Flexibility Score: inf
ROOT
ATOM      1  C   UNL     1      -7.627  -0.316   9.923  1.00  0.00     0.180 C 
ATOM      2  C   UNL     1      -8.525  -1.535  10.275  1.00  0.00     0.177 C 
ATOM      3  C   UNL     1      -9.362  -1.997   9.037  1.00  0.00     0.180 C 
ATOM      4  C   UNL     1      -9.604  -0.831   8.058  1.00  0.00     0.214 C 
ATOM      5  C   UNL     1      -8.294  -0.072   7.713  1.00  0.00     0.339 C 
ATOM      6  O   UNL     1      -7.216  -0.410   8.566  1.00  0.00    -0.332 OA
ENDROOT
BRANCH   1   7
ATOM      7  C   UNL     1      -6.391  -0.165  10.840  1.00  0.00     0.198 C 
BRANCH   7   8
ATOM      8  O   UNL     1      -5.212  -0.653  10.210  1.00  0.00    -0.347 OA
BRANCH   8   9
ATOM      9  C   UNL     1      -4.849  -1.932  10.705  1.00  0.00     0.281 C 
ATOM     10  C   UNL     1      -3.746  -2.883  13.483  1.00  0.00     0.041 C 
ATOM     11  C   UNL     1      -3.263  -3.046  12.036  1.00  0.00     0.150 C 
ATOM     12  C   UNL     1      -3.722  -4.376  11.342  1.00  0.00     0.174 C 
ATOM     13  O   UNL     1      -3.558  -1.874  11.281  1.00  0.00    -0.344 OA
ATOM     14  C   UNL     1      -3.910  -4.154   9.830  1.00  0.00     0.179 C 
ATOM     15  C   UNL     1      -4.864  -2.962   9.548  1.00  0.00     0.202 C 
BRANCH  12  16
ATOM     16  O   UNL     1      -4.924  -4.866  11.879  1.00  0.00    -0.388 OA
ATOM     17  H   UNL     1      -5.518  -5.093  11.112  1.00  0.00     0.211 HD
ENDBRANCH  12  16
BRANCH  14  18
ATOM     18  O   UNL     1      -2.682  -3.966   9.165  1.00  0.00    -0.387 OA
ATOM     19  H   UNL     1      -2.449  -3.018   9.188  1.00  0.00     0.211 HD
ENDBRANCH  14  18
BRANCH  15  20
ATOM     20  O   UNL     1      -6.175  -3.447   9.372  1.00  0.00    -0.385 OA
ATOM     21  H   UNL     1      -6.567  -3.511  10.283  1.00  0.00     0.211 HD
ENDBRANCH  15  20
ENDBRANCH   8   9
ENDBRANCH   7   8
ENDBRANCH   1   7
BRANCH   2  22
ATOM     22  O   UNL     1      -7.798  -2.623  10.806  1.00  0.00    -0.387 OA
ATOM     23  H   UNL     1      -8.250  -2.913  11.642  1.00  0.00     0.211 HD
ENDBRANCH   2  22
BRANCH   3  24
ATOM     24  O   UNL     1      -8.773  -3.088   8.357  1.00  0.00    -0.387 OA
ATOM     25  H   UNL     1      -9.452  -3.498   7.761  1.00  0.00     0.211 HD
ENDBRANCH   3  24
BRANCH   5  26
ATOM     26  O   UNL     1      -7.919  -0.371   6.377  1.00  0.00    -0.454 OA
BRANCH  26  27
ATOM     27  C   UNL     1      -7.707  -1.691   5.953  1.00  0.00     0.214 A 
ATOM     28  C   UNL     1      -8.469  -2.259   4.908  1.00  0.00     0.180 A 
ATOM     29  C   UNL     1      -6.671  -2.432   6.526  1.00  0.00     0.239 A 
ATOM     30  O   UNL     1      -8.126  -3.449   4.440  1.00  0.00    -0.452 OA
ATOM     31  C   UNL     1      -6.379  -3.717   6.033  1.00  0.00     0.111 A 
ATOM     32  O   UNL     1      -6.027  -1.924   7.480  1.00  0.00    -0.285 OA
ATOM     33  C   UNL     1      -7.135  -4.188   4.930  1.00  0.00     0.146 A 
ATOM     34  C   UNL     1      -5.386  -4.551   6.594  1.00  0.00     0.134 A 
ATOM     35  C   UNL     1      -6.859  -5.439   4.361  1.00  0.00     0.094 A 
ATOM     36  C   UNL     1      -5.146  -5.815   6.028  1.00  0.00     0.093 A 
ATOM     37  C   UNL     1      -5.870  -6.248   4.914  1.00  0.00     0.123 A 
BRANCH  28  38
ATOM     38  C   UNL     1      -9.649  -1.590   4.290  1.00  0.00     0.025 A 
ATOM     39  C   UNL     1      -9.519  -1.022   3.010  1.00  0.00     0.062 A 
ATOM     40  C   UNL     1     -10.914  -1.585   4.910  1.00  0.00     0.016 A 
ATOM     41  C   UNL     1     -10.626  -0.454   2.361  1.00  0.00     0.158 A 
ATOM     42  C   UNL     1     -12.003  -0.979   4.278  1.00  0.00     0.051 A 
ATOM     43  C   UNL     1     -11.876  -0.434   2.999  1.00  0.00     0.157 A 
BRANCH  41  44
ATOM     44  O   UNL     1     -10.452   0.093   1.086  1.00  0.00    -0.504 OA
ATOM     45  H   UNL     1     -11.225   0.402   0.515  1.00  0.00     0.293 HD
ENDBRANCH  41  44
BRANCH  43  46
ATOM     46  O   UNL     1     -12.978   0.124   2.356  1.00  0.00    -0.504 OA
ATOM     47  H   UNL     1     -13.548   0.835   2.795  1.00  0.00     0.293 HD
ENDBRANCH  43  46
ENDBRANCH  28  38
BRANCH  34  48
ATOM     48  O   UNL     1      -4.656  -4.144   7.709  1.00  0.00    -0.507 OA
ATOM     49  H   UNL     1      -4.645  -3.187   8.012  1.00  0.00     0.293 HD
ENDBRANCH  34  48
BRANCH  37  50
ATOM     50  O   UNL     1      -5.621  -7.496   4.353  1.00  0.00    -0.508 OA
ATOM     51  H   UNL     1      -6.352  -8.172   4.208  1.00  0.00     0.293 HD
ENDBRANCH  37  50
ENDBRANCH  26  27
ENDBRANCH   5  26
BRANCH   4  52
ATOM     52  O   UNL     1     -10.513   0.073   8.617  1.00  0.00    -0.384 OA
ATOM     53  H   UNL     1     -11.429  -0.281   8.453  1.00  0.00     0.211 HD
ENDBRANCH   4  52
TORSDOF 16
ENDMDL
MODEL 3
REMARK VINA RESULT:    24.903      1.791      5.993
REMARK INTER + INTRA:          49.014
REMARK INTER:                  45.264
REMARK INTRA:                   3.750
REMARK UNBOUND:                 8.097
REMARK SMILES C[C@@H]1O[C@@H](OC[C@H]2O[C@@H](Oc3c(-c4ccc(O)c(O)c4)oc4cc(O)cc(O)c4c3=O)[C@H](O)[C@@H](O)[C@H]2O)[C@H](O)[C@@H](O)[C@@H]1O
REMARK SMILES IDX 7 1 36 2 34 3 32 4 9 5 8 6 6 7 5 8 4 9 1 10 2 11 42 12 3 13
REMARK SMILES IDX 40 14 38 15 43 16 41 18 39 20 37 22 35 24 10 26 11 27 12 28
REMARK SMILES IDX 30 29 21 30 29 31 31 32 22 33 27 34 23 35 26 36 24 37 13 38
REMARK SMILES IDX 20 39 14 40 18 41 15 42 16 43 19 44 17 46 28 48 25 50 33 52
REMARK H PARENT 43 17 41 19 39 21 37 23 35 25 19 45 17 47 28 49 25 51 33 53
REMARK Flexibility Score: inf
ROOT
ATOM      1  C   UNL     1      -5.378  -5.285  10.240  1.00  0.00     0.180 C 
ATOM      2  C   UNL     1      -3.922  -5.194  10.778  1.00  0.00     0.177 C 
ATOM      3  C   UNL     1      -2.883  -5.235   9.609  1.00  0.00     0.180 C 
ATOM      4  C   UNL     1      -3.447  -5.983   8.385  1.00  0.00     0.214 C 
ATOM      5  C   UNL     1      -4.859  -5.473   7.986  1.00  0.00     0.339 C 
ATOM      6  O   UNL     1      -5.451  -4.649   8.971  1.00  0.00    -0.332 OA
ENDROOT
BRANCH   1   7
ATOM      7  C   UNL     1      -6.435  -4.684  11.195  1.00  0.00     0.198 C 
BRANCH   7   8
ATOM      8  O   UNL     1      -7.428  -3.955  10.481  1.00  0.00    -0.347 OA
BRANCH   8   9
ATOM      9  C   UNL     1      -7.018  -2.618  10.240  1.00  0.00     0.281 C 
ATOM     10  C   UNL     1      -4.190  -1.265  10.144  1.00  0.00     0.041 C 
ATOM     11  C   UNL     1      -5.479  -0.978  10.924  1.00  0.00     0.150 C 
ATOM     12  C   UNL     1      -6.423   0.082  10.256  1.00  0.00     0.174 C 
ATOM     13  O   UNL     1      -6.134  -2.197  11.262  1.00  0.00    -0.344 OA
ATOM     14  C   UNL     1      -7.895  -0.231  10.581  1.00  0.00     0.179 C 
ATOM     15  C   UNL     1      -8.259  -1.692  10.201  1.00  0.00     0.202 C 
BRANCH  12  16
ATOM     16  O   UNL     1      -6.268   0.125   8.860  1.00  0.00    -0.388 OA
ATOM     17  H   UNL     1      -6.834  -0.601   8.479  1.00  0.00     0.211 HD
ENDBRANCH  12  16
BRANCH  14  18
ATOM     18  O   UNL     1      -8.204   0.014  11.934  1.00  0.00    -0.387 OA
ATOM     19  H   UNL     1      -8.115   0.970  12.112  1.00  0.00     0.211 HD
ENDBRANCH  14  18
BRANCH  15  20
ATOM     20  O   UNL     1      -8.815  -1.712   8.907  1.00  0.00    -0.385 OA
ATOM     21  H   UNL     1      -8.636  -2.621   8.547  1.00  0.00     0.211 HD
ENDBRANCH  15  20
ENDBRANCH   8   9
ENDBRANCH   7   8
ENDBRANCH   1   7
BRANCH   2  22
ATOM     22  O   UNL     1      -3.701  -4.057  11.587  1.00  0.00    -0.387 OA
ATOM     23  H   UNL     1      -4.500  -3.935  12.165  1.00  0.00     0.211 HD
ENDBRANCH   2  22
BRANCH   3  24
ATOM     24  O   UNL     1      -2.437  -3.948   9.231  1.00  0.00    -0.387 OA
ATOM     25  H   UNL     1      -2.915  -3.674   8.405  1.00  0.00     0.211 HD
ENDBRANCH   3  24
BRANCH   5  26
ATOM     26  O   UNL     1      -4.763  -4.731   6.778  1.00  0.00    -0.454 OA
BRANCH  26  27
ATOM     27  C   UNL     1      -5.834  -3.958   6.307  1.00  0.00     0.214 A 
ATOM     28  C   UNL     1      -6.803  -4.498   5.433  1.00  0.00     0.180 A 
ATOM     29  C   UNL     1      -5.985  -2.649   6.772  1.00  0.00     0.239 A 
ATOM     30  O   UNL     1      -7.876  -3.779   5.144  1.00  0.00    -0.452 OA
ATOM     31  C   UNL     1      -7.116  -1.901   6.393  1.00  0.00     0.111 A 
ATOM     32  O   UNL     1      -5.094  -2.173   7.522  1.00  0.00    -0.285 OA
ATOM     33  C   UNL     1      -8.084  -2.539   5.577  1.00  0.00     0.146 A 
ATOM     34  C   UNL     1      -7.313  -0.555   6.774  1.00  0.00     0.134 A 
ATOM     35  C   UNL     1      -9.256  -1.865   5.206  1.00  0.00     0.094 A 
ATOM     36  C   UNL     1      -8.480   0.113   6.366  1.00  0.00     0.093 A 
ATOM     37  C   UNL     1      -9.447  -0.542   5.598  1.00  0.00     0.123 A 
BRANCH  28  38
ATOM     38  C   UNL     1      -6.691  -5.847   4.811  1.00  0.00     0.025 A 
ATOM     39  C   UNL     1      -7.121  -6.972   5.536  1.00  0.00     0.062 A 
ATOM     40  C   UNL     1      -6.248  -6.023   3.484  1.00  0.00     0.016 A 
ATOM     41  C   UNL     1      -7.107  -8.250   4.956  1.00  0.00     0.158 A 
ATOM     42  C   UNL     1      -6.194  -7.303   2.927  1.00  0.00     0.051 A 
ATOM     43  C   UNL     1      -6.641  -8.416   3.642  1.00  0.00     0.157 A 
BRANCH  41  44
ATOM     44  O   UNL     1      -7.550  -9.339   5.713  1.00  0.00    -0.504 OA
ATOM     45  H   UNL     1      -7.421  -9.397   6.712  1.00  0.00     0.293 HD
ENDBRANCH  41  44
BRANCH  43  46
ATOM     46  O   UNL     1      -6.630  -9.681   3.061  1.00  0.00    -0.504 OA
ATOM     47  H   UNL     1      -7.474 -10.233   2.969  1.00  0.00     0.293 HD
ENDBRANCH  43  46
ENDBRANCH  28  38
BRANCH  34  48
ATOM     48  O   UNL     1      -6.361   0.120   7.534  1.00  0.00    -0.507 OA
ATOM     49  H   UNL     1      -6.322   1.123   7.562  1.00  0.00     0.293 HD
ENDBRANCH  34  48
BRANCH  37  50
ATOM     50  O   UNL     1     -10.604   0.123   5.205  1.00  0.00    -0.508 OA
ATOM     51  H   UNL     1     -11.220  -0.248   4.502  1.00  0.00     0.293 HD
ENDBRANCH  37  50
ENDBRANCH  26  27
ENDBRANCH   5  26
BRANCH   4  52
ATOM     52  O   UNL     1      -3.525  -7.351   8.663  1.00  0.00    -0.384 OA
ATOM     53  H   UNL     1      -3.344  -7.472   9.634  1.00  0.00     0.211 HD
ENDBRANCH   4  52
TORSDOF 16
ENDMDL
MODEL 4
REMARK VINA RESULT:    25.239      1.757      7.778
REMARK INTER + INTRA:          49.567
REMARK INTER:                  44.412
REMARK INTRA:                   5.155
REMARK UNBOUND:                 8.097
REMARK SMILES C[C@@H]1O[C@@H](OC[C@H]2O[C@@H](Oc3c(-c4ccc(O)c(O)c4)oc4cc(O)cc(O)c4c3=O)[C@H](O)[C@@H](O)[C@H]2O)[C@H](O)[C@@H](O)[C@@H]1O
REMARK SMILES IDX 7 1 36 2 34 3 32 4 9 5 8 6 6 7 5 8 4 9 1 10 2 11 42 12 3 13
REMARK SMILES IDX 40 14 38 15 43 16 41 18 39 20 37 22 35 24 10 26 11 27 12 28
REMARK SMILES IDX 30 29 21 30 29 31 31 32 22 33 27 34 23 35 26 36 24 37 13 38
REMARK SMILES IDX 20 39 14 40 18 41 15 42 16 43 19 44 17 46 28 48 25 50 33 52
REMARK H PARENT 43 17 41 19 39 21 37 23 35 25 19 45 17 47 28 49 25 51 33 53
REMARK Flexibility Score: inf
ROOT
ATOM      1  C   UNL     1      -7.883  -1.242   9.159  1.00  0.00     0.180 C 
ATOM      2  C   UNL     1      -7.121  -0.004   8.610  1.00  0.00     0.177 C 
ATOM      3  C   UNL     1      -5.621  -0.021   9.053  1.00  0.00     0.180 C 
ATOM      4  C   UNL     1      -5.434  -0.802  10.368  1.00  0.00     0.214 C 
ATOM      5  C   UNL     1      -6.118  -2.195  10.326  1.00  0.00     0.339 C 
ATOM      6  O   UNL     1      -6.995  -2.350   9.227  1.00  0.00    -0.332 OA
ENDROOT
BRANCH   1   7
ATOM      7  C   UNL     1      -9.138  -1.619   8.337  1.00  0.00     0.198 C 
BRANCH   7   8
ATOM      8  O   UNL     1      -9.672  -0.489   7.655  1.00  0.00    -0.347 OA
BRANCH   8   9
ATOM      9  C   UNL     1      -9.953  -0.786   6.297  1.00  0.00     0.281 C 
ATOM     10  C   UNL     1     -12.642  -1.258   4.754  1.00  0.00     0.041 C 
ATOM     11  C   UNL     1     -11.350  -2.070   4.910  1.00  0.00     0.150 C 
ATOM     12  C   UNL     1     -10.298  -1.847   3.767  1.00  0.00     0.174 C 
ATOM     13  O   UNL     1     -10.816  -1.904   6.221  1.00  0.00    -0.344 OA
ATOM     14  C   UNL     1      -8.869  -2.005   4.316  1.00  0.00     0.179 C 
ATOM     15  C   UNL     1      -8.632  -1.088   5.546  1.00  0.00     0.202 C 
BRANCH  12  16
ATOM     16  O   UNL     1     -10.418  -0.577   3.178  1.00  0.00    -0.388 OA
ATOM     17  H   UNL     1     -10.344   0.095   3.909  1.00  0.00     0.211 HD
ENDBRANCH  12  16
BRANCH  14  18
ATOM     18  O   UNL     1      -8.569  -3.343   4.639  1.00  0.00    -0.387 OA
ATOM     19  H   UNL     1      -7.915  -3.357   5.364  1.00  0.00     0.211 HD
ENDBRANCH  14  18
BRANCH  15  20
ATOM     20  O   UNL     1      -8.051   0.123   5.119  1.00  0.00    -0.385 OA
ATOM     21  H   UNL     1      -8.569   0.846   5.564  1.00  0.00     0.211 HD
ENDBRANCH  15  20
ENDBRANCH   8   9
ENDBRANCH   7   8
ENDBRANCH   1   7
BRANCH   2  22
ATOM     22  O   UNL     1      -7.213   0.125   7.206  1.00  0.00    -0.387 OA
ATOM     23  H   UNL     1      -6.380  -0.246   6.810  1.00  0.00     0.211 HD
ENDBRANCH   2  22
BRANCH   3  24
ATOM     24  O   UNL     1      -4.763  -0.538   8.054  1.00  0.00    -0.387 OA
ATOM     25  H   UNL     1      -4.323   0.219   7.587  1.00  0.00     0.211 HD
ENDBRANCH   3  24
BRANCH   5  26
ATOM     26  O   UNL     1      -5.120  -3.203  10.247  1.00  0.00    -0.454 OA
BRANCH  26  27
ATOM     27  C   UNL     1      -5.100  -4.134   9.199  1.00  0.00     0.214 A 
ATOM     28  C   UNL     1      -4.826  -5.500   9.432  1.00  0.00     0.180 A 
ATOM     29  C   UNL     1      -5.432  -3.714   7.908  1.00  0.00     0.239 A 
ATOM     30  O   UNL     1      -4.974  -6.362   8.439  1.00  0.00    -0.452 OA
ATOM     31  C   UNL     1      -5.523  -4.659   6.870  1.00  0.00     0.111 A 
ATOM     32  O   UNL     1      -5.638  -2.489   7.711  1.00  0.00    -0.285 OA
ATOM     33  C   UNL     1      -5.312  -6.022   7.199  1.00  0.00     0.146 A 
ATOM     34  C   UNL     1      -5.797  -4.308   5.529  1.00  0.00     0.134 A 
ATOM     35  C   UNL     1      -5.437  -7.017   6.219  1.00  0.00     0.094 A 
ATOM     36  C   UNL     1      -5.889  -5.318   4.556  1.00  0.00     0.093 A 
ATOM     37  C   UNL     1      -5.721  -6.662   4.903  1.00  0.00     0.123 A 
BRANCH  28  38
ATOM     38  C   UNL     1      -4.377  -6.037  10.749  1.00  0.00     0.025 A 
ATOM     39  C   UNL     1      -3.323  -5.397  11.424  1.00  0.00     0.062 A 
ATOM     40  C   UNL     1      -5.034  -7.112  11.379  1.00  0.00     0.016 A 
ATOM     41  C   UNL     1      -2.925  -5.822  12.701  1.00  0.00     0.158 A 
ATOM     42  C   UNL     1      -4.605  -7.559  12.631  1.00  0.00     0.051 A 
ATOM     43  C   UNL     1      -3.571  -6.909  13.309  1.00  0.00     0.157 A 
BRANCH  41  44
ATOM     44  O   UNL     1      -1.876  -5.152  13.337  1.00  0.00    -0.504 OA
ATOM     45  H   UNL     1      -0.906  -5.341  13.134  1.00  0.00     0.293 HD
ENDBRANCH  41  44
BRANCH  43  46
ATOM     46  O   UNL     1      -3.182  -7.331  14.577  1.00  0.00    -0.504 OA
ATOM     47  H   UNL     1      -2.489  -8.056  14.709  1.00  0.00     0.293 HD
ENDBRANCH  43  46
ENDBRANCH  28  38
BRANCH  34  48
ATOM     48  O   UNL     1      -5.962  -2.975   5.158  1.00  0.00    -0.507 OA
ATOM     49  H   UNL     1      -6.869  -2.547   5.118  1.00  0.00     0.293 HD
ENDBRANCH  34  48
BRANCH  37  50
ATOM     50  O   UNL     1      -5.821  -7.657   3.937  1.00  0.00    -0.508 OA
ATOM     51  H   UNL     1      -6.328  -7.520   3.080  1.00  0.00     0.293 HD
ENDBRANCH  37  50
ENDBRANCH  26  27
ENDBRANCH   5  26
BRANCH   4  52
ATOM     52  O   UNL     1      -5.973  -0.069  11.431  1.00  0.00    -0.384 OA
ATOM     53  H   UNL     1      -6.297   0.797  11.066  1.00  0.00     0.211 HD
ENDBRANCH   4  52
TORSDOF 16
ENDMDL
