MODEL 1
REMARK VINA RESULT:    -2.869      0.000      0.000
REMARK INTER + INTRA:         -12.150
REMARK INTER:                  -7.566
REMARK INTRA:                  -4.584
REMARK UNBOUND:                -4.584
REMARK SMILES CCCCCCCCCCCCCCCCCCCCCCCCCCCCCC(=O)[O-]
REMARK SMILES IDX 16 1 17 2 18 3 19 4 20 5 21 6 22 7 23 8 24 9 25 10 26 11
REMARK SMILES IDX 27 12 28 13 29 14 30 15 31 16 32 17 15 18 14 19 13 20 12 21
REMARK SMILES IDX 11 22 10 23 9 24 8 25 7 26 6 27 5 28 4 29 3 30 2 31 1 32
REMARK H PARENT
REMARK Flexibility Score: inf
ROOT
ATOM      1  C   UNL     1       1.069  -1.865   9.627  1.00  0.00     0.000 C 
ENDROOT
BRANCH   1   2
ATOM      2  C   UNL     1       1.020  -3.396   9.748  1.00  0.00     0.000 C 
BRANCH   2   3
ATOM      3  C   UNL     1      -0.422  -3.914   9.695  1.00  0.00     0.000 C 
BRANCH   3   4
ATOM      4  C   UNL     1      -0.708  -4.845  10.879  1.00  0.00     0.000 C 
BRANCH   4   5
ATOM      5  C   UNL     1       0.013  -4.365  12.149  1.00  0.00     0.000 C 
BRANCH   5   6
ATOM      6  C   UNL     1      -0.886  -3.483  13.032  1.00  0.00     0.000 C 
BRANCH   6   7
ATOM      7  C   UNL     1      -0.410  -2.020  13.081  1.00  0.00     0.000 C 
BRANCH   7   8
ATOM      8  C   UNL     1      -1.329  -1.070  12.296  1.00  0.00     0.000 C 
BRANCH   8   9
ATOM      9  C   UNL     1      -2.632  -1.753  11.843  1.00  0.00     0.000 C 
BRANCH   9  10
ATOM     10  C   UNL     1      -3.886  -0.936  12.200  1.00  0.00     0.000 C 
BRANCH  10  11
ATOM     11  C   UNL     1      -5.087  -1.278  11.305  1.00  0.00     0.000 C 
BRANCH  11  12
ATOM     12  C   UNL     1      -4.785  -2.499  10.424  1.00  0.00     0.000 C 
BRANCH  12  13
ATOM     13  C   UNL     1      -6.056  -3.201   9.920  1.00  0.00     0.006 C 
BRANCH  13  14
ATOM     14  C   UNL     1      -6.140  -3.255   8.387  1.00  0.00     0.053 C 
BRANCH  14  15
ATOM     15  C   UNL     1      -7.489  -2.819   7.908  1.00  0.00     0.041 C 
ATOM     16  O   UNL     1      -7.682  -1.627   7.546  1.00  0.00    -0.550 OA
ATOM     17  O   UNL     1      -8.537  -3.732   7.854  1.00  0.00    -0.550 OA
ENDBRANCH  14  15
ENDBRANCH  13  14
ENDBRANCH  12  13
ENDBRANCH  11  12
ENDBRANCH  10  11
ENDBRANCH   9  10
ENDBRANCH   8   9
ENDBRANCH   7   8
ENDBRANCH   6   7
ENDBRANCH   5   6
ENDBRANCH   4   5
ENDBRANCH   3   4
ENDBRANCH   2   3
ENDBRANCH   1   2
BRANCH   1  18
ATOM     18  C   UNL     1       2.178  -1.235  10.489  1.00  0.00     0.000 C 
BRANCH  18  19
ATOM     19  C   UNL     1       1.914   0.220  10.929  1.00  0.00     0.000 C 
BRANCH  19  20
ATOM     20  C   UNL     1       1.902   1.251   9.788  1.00  0.00     0.000 C 
BRANCH  20  21
ATOM     21  C   UNL     1       0.899   2.391  10.030  1.00  0.00     0.000 C 
BRANCH  21  22
ATOM     22  C   UNL     1      -0.075   2.080  11.177  1.00  0.00     0.000 C 
BRANCH  22  23
ATOM     23  C   UNL     1       0.056   3.074  12.346  1.00  0.00     0.000 C 
BRANCH  23  24
ATOM     24  C   UNL     1      -1.307   3.430  12.974  1.00  0.00    -0.000 C 
BRANCH  24  25
ATOM     25  C   UNL     1      -2.472   2.533  12.510  1.00  0.00    -0.000 C 
BRANCH  25  26
ATOM     26  C   UNL     1      -3.651   3.305  11.884  1.00  0.00    -0.000 C 
BRANCH  26  27
ATOM     27  C   UNL     1      -3.197   4.603  11.190  1.00  0.00    -0.000 C 
BRANCH  27  28
ATOM     28  C   UNL     1      -3.234   4.508   9.651  1.00  0.00    -0.000 C 
BRANCH  28  29
ATOM     29  C   UNL     1      -1.863   4.703   8.974  1.00  0.00    -0.000 C 
BRANCH  29  30
ATOM     30  C   UNL     1      -0.876   5.610   9.730  1.00  0.00    -0.000 C 
BRANCH  30  31
ATOM     31  C   UNL     1      -0.285   6.759   8.893  1.00  0.00    -0.003 C 
ATOM     32  C   UNL     1      -1.353   7.586   8.179  1.00  0.00     0.004 C 
ENDBRANCH  30  31
ENDBRANCH  29  30
ENDBRANCH  28  29
ENDBRANCH  27  28
ENDBRANCH  26  27
ENDBRANCH  25  26
ENDBRANCH  24  25
ENDBRANCH  23  24
ENDBRANCH  22  23
ENDBRANCH  21  22
ENDBRANCH  20  21
ENDBRANCH  19  20
ENDBRANCH  18  19
ENDBRANCH   1  18
TORSDOF 28
ENDMDL
MODEL 2
REMARK VINA RESULT:    -2.809      4.984      8.442
REMARK INTER + INTRA:         -11.990
REMARK INTER:                  -5.619
REMARK INTRA:                  -6.371
REMARK UNBOUND:                -4.584
REMARK SMILES CCCCCCCCCCCCCCCCCCCCCCCCCCCCCC(=O)[O-]
REMARK SMILES IDX 16 1 17 2 18 3 19 4 20 5 21 6 22 7 23 8 24 9 25 10 26 11
REMARK SMILES IDX 27 12 28 13 29 14 30 15 31 16 32 17 15 18 14 19 13 20 12 21
REMARK SMILES IDX 11 22 10 23 9 24 8 25 7 26 6 27 5 28 4 29 3 30 2 31 1 32
REMARK H PARENT
REMARK Flexibility Score: inf
ROOT
ATOM      1  C   UNL     1       0.088   7.992   8.580  1.00  0.00     0.000 C 
ENDROOT
BRANCH   1   2
ATOM      2  C   UNL     1      -0.828   6.760   8.556  1.00  0.00     0.000 C 
BRANCH   2   3
ATOM      3  C   UNL     1      -0.186   5.571   9.280  1.00  0.00     0.000 C 
BRANCH   3   4
ATOM      4  C   UNL     1      -1.195   4.429   9.448  1.00  0.00     0.000 C 
BRANCH   4   5
ATOM      5  C   UNL     1      -2.581   4.830   8.919  1.00  0.00     0.000 C 
BRANCH   5   6
ATOM      6  C   UNL     1      -3.699   4.542   9.936  1.00  0.00     0.000 C 
BRANCH   6   7
ATOM      7  C   UNL     1      -3.221   4.680  11.392  1.00  0.00     0.000 C 
BRANCH   7   8
ATOM      8  C   UNL     1      -3.436   6.094  11.957  1.00  0.00     0.000 C 
BRANCH   8   9
ATOM      9  C   UNL     1      -2.113   6.849  12.170  1.00  0.00     0.000 C 
BRANCH   9  10
ATOM     10  C   UNL     1      -2.149   8.280  11.606  1.00  0.00     0.000 C 
BRANCH  10  11
ATOM     11  C   UNL     1      -3.467   9.005  11.918  1.00  0.00     0.000 C 
BRANCH  11  12
ATOM     12  C   UNL     1      -4.037   9.674  10.658  1.00  0.00     0.000 C 
BRANCH  12  13
ATOM     13  C   UNL     1      -3.431   9.116   9.360  1.00  0.00     0.006 C 
BRANCH  13  14
ATOM     14  C   UNL     1      -4.365   8.131   8.640  1.00  0.00     0.053 C 
BRANCH  14  15
ATOM     15  C   UNL     1      -4.766   8.656   7.298  1.00  0.00     0.041 C 
ATOM     16  O   UNL     1      -4.745   9.894   7.066  1.00  0.00    -0.550 OA
ATOM     17  O   UNL     1      -5.157   7.775   6.294  1.00  0.00    -0.550 OA
ENDBRANCH  14  15
ENDBRANCH  13  14
ENDBRANCH  12  13
ENDBRANCH  11  12
ENDBRANCH  10  11
ENDBRANCH   9  10
ENDBRANCH   8   9
ENDBRANCH   7   8
ENDBRANCH   6   7
ENDBRANCH   5   6
ENDBRANCH   4   5
ENDBRANCH   3   4
ENDBRANCH   2   3
ENDBRANCH   1   2
BRANCH   1  18
ATOM     18  C   UNL     1       1.391   7.750   9.364  1.00  0.00     0.000 C 
BRANCH  18  19
ATOM     19  C   UNL     1       1.438   8.397  10.764  1.00  0.00     0.000 C 
BRANCH  19  20
ATOM     20  C   UNL     1       1.756   7.430  11.916  1.00  0.00     0.000 C 
BRANCH  20  21
ATOM     21  C   UNL     1       2.683   6.281  11.485  1.00  0.00     0.000 C 
BRANCH  21  22
ATOM     22  C   UNL     1       2.254   4.929  12.074  1.00  0.00     0.000 C 
BRANCH  22  23
ATOM     23  C   UNL     1       1.023   5.051  12.992  1.00  0.00     0.000 C 
BRANCH  23  24
ATOM     24  C   UNL     1       0.081   3.836  12.882  1.00  0.00    -0.000 C 
BRANCH  24  25
ATOM     25  C   UNL     1       0.782   2.526  12.466  1.00  0.00    -0.000 C 
BRANCH  25  26
ATOM     26  C   UNL     1       0.020   1.714  11.400  1.00  0.00    -0.000 C 
BRANCH  26  27
ATOM     27  C   UNL     1       0.888   1.418  10.161  1.00  0.00    -0.000 C 
BRANCH  27  28
ATOM     28  C   UNL     1       2.400   1.441  10.466  1.00  0.00    -0.000 C 
BRANCH  28  29
ATOM     29  C   UNL     1       3.264   2.019   9.327  1.00  0.00    -0.000 C 
BRANCH  29  30
ATOM     30  C   UNL     1       2.901   3.447   8.883  1.00  0.00    -0.000 C 
BRANCH  30  31
ATOM     31  C   UNL     1       4.107   4.366   8.616  1.00  0.00    -0.003 C 
ATOM     32  C   UNL     1       4.793   4.075   7.282  1.00  0.00     0.004 C 
ENDBRANCH  30  31
ENDBRANCH  29  30
ENDBRANCH  28  29
ENDBRANCH  27  28
ENDBRANCH  26  27
ENDBRANCH  25  26
ENDBRANCH  24  25
ENDBRANCH  23  24
ENDBRANCH  22  23
ENDBRANCH  21  22
ENDBRANCH  20  21
ENDBRANCH  19  20
ENDBRANCH  18  19
ENDBRANCH   1  18
TORSDOF 28
ENDMDL
MODEL 3
REMARK VINA RESULT:    -2.755      5.759      8.994
REMARK INTER + INTRA:         -11.850
REMARK INTER:                  -4.804
REMARK INTRA:                  -7.046
REMARK UNBOUND:                -4.584
REMARK SMILES CCCCCCCCCCCCCCCCCCCCCCCCCCCCCC(=O)[O-]
REMARK SMILES IDX 16 1 17 2 18 3 19 4 20 5 21 6 22 7 23 8 24 9 25 10 26 11
REMARK SMILES IDX 27 12 28 13 29 14 30 15 31 16 32 17 15 18 14 19 13 20 12 21
REMARK SMILES IDX 11 22 10 23 9 24 8 25 7 26 6 27 5 28 4 29 3 30 2 31 1 32
REMARK H PARENT
REMARK Flexibility Score: inf
ROOT
ATOM      1  C   UNL     1      -1.010   6.597   8.504  1.00  0.00     0.000 C 
ENDROOT
BRANCH   1   2
ATOM      2  C   UNL     1      -0.928   5.298   9.319  1.00  0.00     0.000 C 
BRANCH   2   3
ATOM      3  C   UNL     1      -2.301   4.628   9.444  1.00  0.00     0.000 C 
BRANCH   3   4
ATOM      4  C   UNL     1      -2.528   4.118  10.872  1.00  0.00     0.000 C 
BRANCH   4   5
ATOM      5  C   UNL     1      -1.194   3.820  11.574  1.00  0.00     0.000 C 
BRANCH   5   6
ATOM      6  C   UNL     1      -1.020   2.323  11.885  1.00  0.00     0.000 C 
BRANCH   6   7
ATOM      7  C   UNL     1       0.363   1.792  11.469  1.00  0.00     0.000 C 
BRANCH   7   8
ATOM      8  C   UNL     1       0.649   1.990   9.971  1.00  0.00     0.000 C 
BRANCH   8   9
ATOM      9  C   UNL     1       1.911   2.834   9.721  1.00  0.00     0.000 C 
BRANCH   9  10
ATOM     10  C   UNL     1       2.490   3.435  11.014  1.00  0.00     0.000 C 
BRANCH  10  11
ATOM     11  C   UNL     1       2.531   4.970  10.986  1.00  0.00     0.000 C 
BRANCH  11  12
ATOM     12  C   UNL     1       2.775   5.486   9.559  1.00  0.00     0.000 C 
BRANCH  12  13
ATOM     13  C   UNL     1       3.709   6.706   9.517  1.00  0.00     0.006 C 
BRANCH  13  14
ATOM     14  C   UNL     1       3.743   7.384   8.139  1.00  0.00     0.053 C 
BRANCH  14  15
ATOM     15  C   UNL     1       4.896   6.889   7.325  1.00  0.00     0.041 C 
ATOM     16  O   UNL     1       4.802   5.814   6.674  1.00  0.00    -0.550 OA
ATOM     17  O   UNL     1       6.079   7.620   7.277  1.00  0.00    -0.550 OA
ENDBRANCH  14  15
ENDBRANCH  13  14
ENDBRANCH  12  13
ENDBRANCH  11  12
ENDBRANCH  10  11
ENDBRANCH   9  10
ENDBRANCH   8   9
ENDBRANCH   7   8
ENDBRANCH   6   7
ENDBRANCH   5   6
ENDBRANCH   4   5
ENDBRANCH   3   4
ENDBRANCH   2   3
ENDBRANCH   1   2
BRANCH   1  18
ATOM     18  C   UNL     1       0.088   7.607   8.879  1.00  0.00     0.000 C 
BRANCH  18  19
ATOM     19  C   UNL     1       0.193   8.832   7.947  1.00  0.00     0.000 C 
BRANCH  19  20
ATOM     20  C   UNL     1       0.902  10.053   8.557  1.00  0.00     0.000 C 
BRANCH  20  21
ATOM     21  C   UNL     1       0.649  10.191  10.068  1.00  0.00     0.000 C 
BRANCH  21  22
ATOM     22  C   UNL     1       1.945  10.119  10.889  1.00  0.00     0.000 C 
BRANCH  22  23
ATOM     23  C   UNL     1       1.983   8.894  11.822  1.00  0.00     0.000 C 
BRANCH  23  24
ATOM     24  C   UNL     1       0.666   8.703  12.600  1.00  0.00    -0.000 C 
BRANCH  24  25
ATOM     25  C   UNL     1       0.071   7.284  12.501  1.00  0.00    -0.000 C 
BRANCH  25  26
ATOM     26  C   UNL     1      -1.464   7.232  12.638  1.00  0.00    -0.000 C 
BRANCH  26  27
ATOM     27  C   UNL     1      -2.165   8.296  11.770  1.00  0.00    -0.000 C 
BRANCH  27  28
ATOM     28  C   UNL     1      -3.492   7.798  11.163  1.00  0.00    -0.000 C 
BRANCH  28  29
ATOM     29  C   UNL     1      -3.815   8.394   9.779  1.00  0.00    -0.000 C 
BRANCH  29  30
ATOM     30  C   UNL     1      -3.097   9.714   9.445  1.00  0.00    -0.000 C 
BRANCH  30  31
ATOM     31  C   UNL     1      -3.253  10.182   7.987  1.00  0.00    -0.003 C 
ATOM     32  C   UNL     1      -3.410   9.023   7.003  1.00  0.00     0.004 C 
ENDBRANCH  30  31
ENDBRANCH  29  30
ENDBRANCH  28  29
ENDBRANCH  27  28
ENDBRANCH  26  27
ENDBRANCH  25  26
ENDBRANCH  24  25
ENDBRANCH  23  24
ENDBRANCH  22  23
ENDBRANCH  21  22
ENDBRANCH  20  21
ENDBRANCH  19  20
ENDBRANCH  18  19
ENDBRANCH   1  18
TORSDOF 28
ENDMDL
MODEL 4
REMARK VINA RESULT:    -2.754      2.617      8.410
REMARK INTER + INTRA:         -11.846
REMARK INTER:                  -7.830
REMARK INTRA:                  -4.016
REMARK UNBOUND:                -4.584
REMARK SMILES CCCCCCCCCCCCCCCCCCCCCCCCCCCCCC(=O)[O-]
REMARK SMILES IDX 16 1 17 2 18 3 19 4 20 5 21 6 22 7 23 8 24 9 25 10 26 11
REMARK SMILES IDX 27 12 28 13 29 14 30 15 31 16 32 17 15 18 14 19 13 20 12 21
REMARK SMILES IDX 11 22 10 23 9 24 8 25 7 26 6 27 5 28 4 29 3 30 2 31 1 32
REMARK H PARENT
REMARK Flexibility Score: inf
ROOT
ATOM      1  C   UNL     1      -4.335   3.163  11.873  1.00  0.00     0.000 C 
ENDROOT
BRANCH   1   2
ATOM      2  C   UNL     1      -3.141   3.892  11.238  1.00  0.00     0.000 C 
BRANCH   2   3
ATOM      3  C   UNL     1      -3.567   4.690  10.001  1.00  0.00     0.000 C 
BRANCH   3   4
ATOM      4  C   UNL     1      -2.521   4.564   8.887  1.00  0.00     0.000 C 
BRANCH   4   5
ATOM      5  C   UNL     1      -2.083   5.945   8.375  1.00  0.00     0.000 C 
BRANCH   5   6
ATOM      6  C   UNL     1      -1.299   6.738   9.435  1.00  0.00     0.000 C 
BRANCH   6   7
ATOM      7  C   UNL     1       0.176   6.943   9.045  1.00  0.00     0.000 C 
BRANCH   7   8
ATOM      8  C   UNL     1       1.146   6.212   9.988  1.00  0.00     0.000 C 
BRANCH   8   9
ATOM      9  C   UNL     1       1.263   4.713   9.664  1.00  0.00     0.000 C 
BRANCH   9  10
ATOM     10  C   UNL     1       0.651   3.820  10.758  1.00  0.00     0.000 C 
BRANCH  10  11
ATOM     11  C   UNL     1       0.204   2.451  10.221  1.00  0.00     0.000 C 
BRANCH  11  12
ATOM     12  C   UNL     1       0.960   1.313  10.922  1.00  0.00     0.000 C 
BRANCH  12  13
ATOM     13  C   UNL     1       1.140   0.076  10.028  1.00  0.00     0.006 C 
BRANCH  13  14
ATOM     14  C   UNL     1       1.117  -1.241  10.820  1.00  0.00     0.053 C 
BRANCH  14  15
ATOM     15  C   UNL     1       0.836  -2.403   9.920  1.00  0.00     0.041 C 
ATOM     16  O   UNL     1       1.722  -2.826   9.130  1.00  0.00    -0.550 OA
ATOM     17  O   UNL     1      -0.406  -3.028   9.959  1.00  0.00    -0.550 OA
ENDBRANCH  14  15
ENDBRANCH  13  14
ENDBRANCH  12  13
ENDBRANCH  11  12
ENDBRANCH  10  11
ENDBRANCH   9  10
ENDBRANCH   8   9
ENDBRANCH   7   8
ENDBRANCH   6   7
ENDBRANCH   5   6
ENDBRANCH   4   5
ENDBRANCH   3   4
ENDBRANCH   2   3
ENDBRANCH   1   2
BRANCH   1  18
ATOM     18  C   UNL     1      -3.917   1.905  12.656  1.00  0.00     0.000 C 
BRANCH  18  19
ATOM     19  C   UNL     1      -2.406   1.598  12.637  1.00  0.00     0.000 C 
BRANCH  19  20
ATOM     20  C   UNL     1      -2.010   0.248  13.260  1.00  0.00     0.000 C 
BRANCH  20  21
ATOM     21  C   UNL     1      -2.113  -0.917  12.262  1.00  0.00     0.000 C 
BRANCH  21  22
ATOM     22  C   UNL     1      -3.406  -1.728  12.439  1.00  0.00     0.000 C 
BRANCH  22  23
ATOM     23  C   UNL     1      -4.262  -1.758  11.159  1.00  0.00     0.000 C 
BRANCH  23  24
ATOM     24  C   UNL     1      -4.714  -3.183  10.784  1.00  0.00    -0.000 C 
BRANCH  24  25
ATOM     25  C   UNL     1      -4.093  -3.722   9.479  1.00  0.00    -0.000 C 
BRANCH  25  26
ATOM     26  C   UNL     1      -5.123  -4.071   8.387  1.00  0.00    -0.000 C 
BRANCH  26  27
ATOM     27  C   UNL     1      -6.562  -3.703   8.802  1.00  0.00    -0.000 C 
BRANCH  27  28
ATOM     28  C   UNL     1      -7.151  -2.546   7.969  1.00  0.00    -0.000 C 
BRANCH  28  29
ATOM     29  C   UNL     1      -8.189  -1.692   8.724  1.00  0.00    -0.000 C 
BRANCH  29  30
ATOM     30  C   UNL     1      -7.610  -0.716   9.764  1.00  0.00    -0.000 C 
BRANCH  30  31
ATOM     31  C   UNL     1      -7.860  -1.113  11.230  1.00  0.00    -0.003 C 
ATOM     32  C   UNL     1      -8.873  -2.248  11.375  1.00  0.00     0.004 C 
ENDBRANCH  30  31
ENDBRANCH  29  30
ENDBRANCH  28  29
ENDBRANCH  27  28
ENDBRANCH  26  27
ENDBRANCH  25  26
ENDBRANCH  24  25
ENDBRANCH  23  24
ENDBRANCH  22  23
ENDBRANCH  21  22
ENDBRANCH  20  21
ENDBRANCH  19  20
ENDBRANCH  18  19
ENDBRANCH   1  18
TORSDOF 28
ENDMDL
MODEL 5
REMARK VINA RESULT:    -2.745      3.648      8.444
REMARK INTER + INTRA:         -11.822
REMARK INTER:                  -7.603
REMARK INTRA:                  -4.219
REMARK UNBOUND:                -4.584
REMARK SMILES CCCCCCCCCCCCCCCCCCCCCCCCCCCCCC(=O)[O-]
REMARK SMILES IDX 16 1 17 2 18 3 19 4 20 5 21 6 22 7 23 8 24 9 25 10 26 11
REMARK SMILES IDX 27 12 28 13 29 14 30 15 31 16 32 17 15 18 14 19 13 20 12 21
REMARK SMILES IDX 11 22 10 23 9 24 8 25 7 26 6 27 5 28 4 29 3 30 2 31 1 32
REMARK H PARENT
REMARK Flexibility Score: inf
ROOT
ATOM      1  C   UNL     1      -2.494   0.531  12.807  1.00  0.00     0.000 C 
ENDROOT
BRANCH   1   2
ATOM      2  C   UNL     1      -3.928   1.063  12.670  1.00  0.00     0.000 C 
BRANCH   2   3
ATOM      3  C   UNL     1      -4.019   2.537  13.081  1.00  0.00     0.000 C 
BRANCH   3   4
ATOM      4  C   UNL     1      -4.482   3.400  11.901  1.00  0.00     0.000 C 
BRANCH   4   5
ATOM      5  C   UNL     1      -3.285   4.014  11.157  1.00  0.00     0.000 C 
BRANCH   5   6
ATOM      6  C   UNL     1      -3.705   4.714   9.854  1.00  0.00     0.000 C 
BRANCH   6   7
ATOM      7  C   UNL     1      -2.523   4.928   8.892  1.00  0.00     0.000 C 
BRANCH   7   8
ATOM      8  C   UNL     1      -1.234   4.242   9.375  1.00  0.00     0.000 C 
BRANCH   8   9
ATOM      9  C   UNL     1      -0.085   5.242   9.599  1.00  0.00     0.000 C 
BRANCH   9  10
ATOM     10  C   UNL     1       0.433   5.236  11.048  1.00  0.00     0.000 C 
BRANCH  10  11
ATOM     11  C   UNL     1       1.957   5.056  11.129  1.00  0.00     0.000 C 
BRANCH  11  12
ATOM     12  C   UNL     1       2.538   4.681   9.757  1.00  0.00     0.000 C 
BRANCH  12  13
ATOM     13  C   UNL     1       3.320   3.358   9.782  1.00  0.00     0.006 C 
BRANCH  13  14
ATOM     14  C   UNL     1       3.244   2.595   8.451  1.00  0.00     0.053 C 
BRANCH  14  15
ATOM     15  C   UNL     1       4.296   1.533   8.381  1.00  0.00     0.041 C 
ATOM     16  O   UNL     1       4.537   0.807   9.383  1.00  0.00    -0.550 OA
ATOM     17  O   UNL     1       5.009   1.336   7.202  1.00  0.00    -0.550 OA
ENDBRANCH  14  15
ENDBRANCH  13  14
ENDBRANCH  12  13
ENDBRANCH  11  12
ENDBRANCH  10  11
ENDBRANCH   9  10
ENDBRANCH   8   9
ENDBRANCH   7   8
ENDBRANCH   6   7
ENDBRANCH   5   6
ENDBRANCH   4   5
ENDBRANCH   3   4
ENDBRANCH   2   3
ENDBRANCH   1   2
BRANCH   1  18
ATOM     18  C   UNL     1      -1.618   1.409  13.719  1.00  0.00     0.000 C 
BRANCH  18  19
ATOM     19  C   UNL     1      -0.430   2.098  13.014  1.00  0.00     0.000 C 
BRANCH  19  20
ATOM     20  C   UNL     1      -0.174   1.634  11.571  1.00  0.00     0.000 C 
BRANCH  20  21
ATOM     21  C   UNL     1       0.978   0.619  11.471  1.00  0.00     0.000 C 
BRANCH  21  22
ATOM     22  C   UNL     1       1.156   0.072  10.047  1.00  0.00     0.000 C 
BRANCH  22  23
ATOM     23  C   UNL     1       1.077  -1.465   9.992  1.00  0.00     0.000 C 
BRANCH  23  24
ATOM     24  C   UNL     1      -0.030  -2.032  10.904  1.00  0.00    -0.000 C 
BRANCH  24  25
ATOM     25  C   UNL     1      -0.584  -3.398  10.452  1.00  0.00    -0.000 C 
BRANCH  25  26
ATOM     26  C   UNL     1      -1.928  -3.781  11.106  1.00  0.00    -0.000 C 
BRANCH  26  27
ATOM     27  C   UNL     1      -2.890  -2.582  11.210  1.00  0.00    -0.000 C 
BRANCH  27  28
ATOM     28  C   UNL     1      -4.166  -2.758  10.363  1.00  0.00    -0.000 C 
BRANCH  28  29
ATOM     29  C   UNL     1      -5.333  -1.843  10.783  1.00  0.00    -0.000 C 
BRANCH  29  30
ATOM     30  C   UNL     1      -6.617  -1.984   9.946  1.00  0.00    -0.000 C 
BRANCH  30  31
ATOM     31  C   UNL     1      -7.589  -0.794  10.049  1.00  0.00    -0.003 C 
ATOM     32  C   UNL     1      -7.041   0.349  10.902  1.00  0.00     0.004 C 
ENDBRANCH  30  31
ENDBRANCH  29  30
ENDBRANCH  28  29
ENDBRANCH  27  28
ENDBRANCH  26  27
ENDBRANCH  25  26
ENDBRANCH  24  25
ENDBRANCH  23  24
ENDBRANCH  22  23
ENDBRANCH  21  22
ENDBRANCH  20  21
ENDBRANCH  19  20
ENDBRANCH  18  19
ENDBRANCH   1  18
TORSDOF 28
ENDMDL
MODEL 6
REMARK VINA RESULT:    -2.705      3.308      6.007
REMARK INTER + INTRA:         -11.718
REMARK INTER:                  -7.352
REMARK INTRA:                  -4.366
REMARK UNBOUND:                -4.584
REMARK SMILES CCCCCCCCCCCCCCCCCCCCCCCCCCCCCC(=O)[O-]
REMARK SMILES IDX 16 1 17 2 18 3 19 4 20 5 21 6 22 7 23 8 24 9 25 10 26 11
REMARK SMILES IDX 27 12 28 13 29 14 30 15 31 16 32 17 15 18 14 19 13 20 12 21
REMARK SMILES IDX 11 22 10 23 9 24 8 25 7 26 6 27 5 28 4 29 3 30 2 31 1 32
REMARK H PARENT
REMARK Flexibility Score: inf
ROOT
ATOM      1  C   UNL     1      -5.250  -1.954  10.754  1.00  0.00     0.000 C 
ENDROOT
BRANCH   1   2
ATOM      2  C   UNL     1      -4.032  -2.793  10.338  1.00  0.00     0.000 C 
BRANCH   2   3
ATOM      3  C   UNL     1      -3.931  -4.079  11.167  1.00  0.00     0.000 C 
BRANCH   3   4
ATOM      4  C   UNL     1      -3.971  -5.314  10.257  1.00  0.00     0.000 C 
BRANCH   4   5
ATOM      5  C   UNL     1      -4.025  -4.912   8.776  1.00  0.00     0.000 C 
BRANCH   5   6
ATOM      6  C   UNL     1      -2.810  -5.429   7.986  1.00  0.00     0.000 C 
BRANCH   6   7
ATOM      7  C   UNL     1      -1.806  -6.183   8.876  1.00  0.00     0.000 C 
BRANCH   7   8
ATOM      8  C   UNL     1      -0.378  -5.624   8.766  1.00  0.00     0.000 C 
BRANCH   8   9
ATOM      9  C   UNL     1       0.030  -4.807  10.005  1.00  0.00     0.000 C 
BRANCH   9  10
ATOM     10  C   UNL     1      -0.363  -3.323   9.893  1.00  0.00     0.000 C 
BRANCH  10  11
ATOM     11  C   UNL     1      -0.467  -2.635  11.263  1.00  0.00     0.000 C 
BRANCH  11  12
ATOM     12  C   UNL     1       0.294  -1.301  11.266  1.00  0.00     0.000 C 
BRANCH  12  13
ATOM     13  C   UNL     1       1.146  -1.097  10.003  1.00  0.00     0.006 C 
BRANCH  13  14
ATOM     14  C   UNL     1       2.654  -1.087  10.295  1.00  0.00     0.053 C 
BRANCH  14  15
ATOM     15  C   UNL     1       3.184  -2.480  10.426  1.00  0.00     0.041 C 
ATOM     16  O   UNL     1       3.498  -3.142   9.400  1.00  0.00    -0.550 OA
ATOM     17  O   UNL     1       3.341  -3.050  11.686  1.00  0.00    -0.550 OA
ENDBRANCH  14  15
ENDBRANCH  13  14
ENDBRANCH  12  13
ENDBRANCH  11  12
ENDBRANCH  10  11
ENDBRANCH   9  10
ENDBRANCH   8   9
ENDBRANCH   7   8
ENDBRANCH   6   7
ENDBRANCH   5   6
ENDBRANCH   4   5
ENDBRANCH   3   4
ENDBRANCH   2   3
ENDBRANCH   1   2
BRANCH   1  18
ATOM     18  C   UNL     1      -5.119  -1.378  12.175  1.00  0.00     0.000 C 
BRANCH  18  19
ATOM     19  C   UNL     1      -4.331  -0.055  12.273  1.00  0.00     0.000 C 
BRANCH  19  20
ATOM     20  C   UNL     1      -2.883  -0.197  12.773  1.00  0.00     0.000 C 
BRANCH  20  21
ATOM     21  C   UNL     1      -2.144   1.150  12.836  1.00  0.00     0.000 C 
BRANCH  21  22
ATOM     22  C   UNL     1      -3.079   2.344  12.590  1.00  0.00     0.000 C 
BRANCH  22  23
ATOM     23  C   UNL     1      -2.395   3.472  11.797  1.00  0.00     0.000 C 
BRANCH  23  24
ATOM     24  C   UNL     1      -3.393   4.547  11.320  1.00  0.00    -0.000 C 
BRANCH  24  25
ATOM     25  C   UNL     1      -3.601   4.585   9.792  1.00  0.00    -0.000 C 
BRANCH  25  26
ATOM     26  C   UNL     1      -2.293   4.660   8.979  1.00  0.00    -0.000 C 
BRANCH  26  27
ATOM     27  C   UNL     1      -1.893   6.111   8.649  1.00  0.00    -0.000 C 
BRANCH  27  28
ATOM     28  C   UNL     1      -0.400   6.398   8.910  1.00  0.00    -0.000 C 
BRANCH  28  29
ATOM     29  C   UNL     1       0.178   5.666  10.136  1.00  0.00    -0.000 C 
BRANCH  29  30
ATOM     30  C   UNL     1       1.436   4.820   9.869  1.00  0.00    -0.000 C 
BRANCH  30  31
ATOM     31  C   UNL     1       1.481   3.475  10.616  1.00  0.00    -0.003 C 
ATOM     32  C   UNL     1       0.499   2.449  10.054  1.00  0.00     0.004 C 
ENDBRANCH  30  31
ENDBRANCH  29  30
ENDBRANCH  28  29
ENDBRANCH  27  28
ENDBRANCH  26  27
ENDBRANCH  25  26
ENDBRANCH  24  25
ENDBRANCH  23  24
ENDBRANCH  22  23
ENDBRANCH  21  22
ENDBRANCH  20  21
ENDBRANCH  19  20
ENDBRANCH  18  19
ENDBRANCH   1  18
TORSDOF 28
ENDMDL
MODEL 7
REMARK VINA RESULT:    -2.667      6.117     10.517
REMARK INTER + INTRA:         -11.617
REMARK INTER:                  -4.807
REMARK INTRA:                  -6.810
REMARK UNBOUND:                -4.584
REMARK SMILES CCCCCCCCCCCCCCCCCCCCCCCCCCCCCC(=O)[O-]
REMARK SMILES IDX 16 1 17 2 18 3 19 4 20 5 21 6 22 7 23 8 24 9 25 10 26 11
REMARK SMILES IDX 27 12 28 13 29 14 30 15 31 16 32 17 15 18 14 19 13 20 12 21
REMARK SMILES IDX 11 22 10 23 9 24 8 25 7 26 6 27 5 28 4 29 3 30 2 31 1 32
REMARK H PARENT
REMARK Flexibility Score: inf
ROOT
ATOM      1  C   UNL     1      -0.430   5.025   9.538  1.00  0.00     0.000 C 
ENDROOT
BRANCH   1   2
ATOM      2  C   UNL     1      -1.534   5.776   8.779  1.00  0.00     0.000 C 
BRANCH   2   3
ATOM      3  C   UNL     1      -1.120   7.221   8.477  1.00  0.00     0.000 C 
BRANCH   3   4
ATOM      4  C   UNL     1       0.326   7.475   8.922  1.00  0.00     0.000 C 
BRANCH   4   5
ATOM      5  C   UNL     1       0.949   8.646   8.148  1.00  0.00     0.000 C 
BRANCH   5   6
ATOM      6  C   UNL     1       1.645   9.656   9.076  1.00  0.00     0.000 C 
BRANCH   6   7
ATOM      7  C   UNL     1       1.511   9.278  10.563  1.00  0.00     0.000 C 
BRANCH   7   8
ATOM      8  C   UNL     1       2.870   9.178  11.275  1.00  0.00     0.000 C 
BRANCH   8   9
ATOM      9  C   UNL     1       4.042   9.038  10.287  1.00  0.00     0.000 C 
BRANCH   9  10
ATOM     10  C   UNL     1       4.820   7.723  10.472  1.00  0.00     0.000 C 
BRANCH  10  11
ATOM     11  C   UNL     1       5.319   7.141   9.141  1.00  0.00     0.000 C 
BRANCH  11  12
ATOM     12  C   UNL     1       4.200   7.140   8.089  1.00  0.00     0.000 C 
BRANCH  12  13
ATOM     13  C   UNL     1       4.647   7.728   6.741  1.00  0.00     0.006 C 
BRANCH  13  14
ATOM     14  C   UNL     1       4.918   9.239   6.809  1.00  0.00     0.053 C 
BRANCH  14  15
ATOM     15  C   UNL     1       4.070   9.980   5.824  1.00  0.00     0.041 C 
ATOM     16  O   UNL     1       4.383  11.148   5.468  1.00  0.00    -0.550 OA
ATOM     17  O   UNL     1       2.935   9.379   5.291  1.00  0.00    -0.550 OA
ENDBRANCH  14  15
ENDBRANCH  13  14
ENDBRANCH  12  13
ENDBRANCH  11  12
ENDBRANCH  10  11
ENDBRANCH   9  10
ENDBRANCH   8   9
ENDBRANCH   7   8
ENDBRANCH   6   7
ENDBRANCH   5   6
ENDBRANCH   4   5
ENDBRANCH   3   4
ENDBRANCH   2   3
ENDBRANCH   1   2
BRANCH   1  18
ATOM     18  C   UNL     1      -0.811   3.568   9.857  1.00  0.00     0.000 C 
BRANCH  18  19
ATOM     19  C   UNL     1      -0.419   3.087  11.269  1.00  0.00     0.000 C 
BRANCH  19  20
ATOM     20  C   UNL     1       0.586   1.923  11.303  1.00  0.00     0.000 C 
BRANCH  20  21
ATOM     21  C   UNL     1       1.007   1.464   9.896  1.00  0.00     0.000 C 
BRANCH  21  22
ATOM     22  C   UNL     1       2.521   1.581   9.670  1.00  0.00     0.000 C 
BRANCH  22  23
ATOM     23  C   UNL     1       2.891   2.779   8.775  1.00  0.00     0.000 C 
BRANCH  23  24
ATOM     24  C   UNL     1       3.121   4.071   9.583  1.00  0.00    -0.000 C 
BRANCH  24  25
ATOM     25  C   UNL     1       3.958   3.877  10.864  1.00  0.00    -0.000 C 
BRANCH  25  26
ATOM     26  C   UNL     1       3.342   4.518  12.124  1.00  0.00    -0.000 C 
BRANCH  26  27
ATOM     27  C   UNL     1       2.252   5.551  11.780  1.00  0.00    -0.000 C 
BRANCH  27  28
ATOM     28  C   UNL     1       1.677   6.258  13.025  1.00  0.00    -0.000 C 
BRANCH  28  29
ATOM     29  C   UNL     1       0.158   6.072  13.210  1.00  0.00    -0.000 C 
BRANCH  29  30
ATOM     30  C   UNL     1      -0.724   7.147  12.549  1.00  0.00    -0.000 C 
BRANCH  30  31
ATOM     31  C   UNL     1      -2.191   6.734  12.332  1.00  0.00    -0.003 C 
ATOM     32  C   UNL     1      -3.010   7.804  11.611  1.00  0.00     0.004 C 
ENDBRANCH  30  31
ENDBRANCH  29  30
ENDBRANCH  28  29
ENDBRANCH  27  28
ENDBRANCH  26  27
ENDBRANCH  25  26
ENDBRANCH  24  25
ENDBRANCH  23  24
ENDBRANCH  22  23
ENDBRANCH  21  22
ENDBRANCH  20  21
ENDBRANCH  19  20
ENDBRANCH  18  19
ENDBRANCH   1  18
TORSDOF 28
ENDMDL
MODEL 8
REMARK VINA RESULT:    -2.650      5.244      9.012
REMARK INTER + INTRA:         -11.573
REMARK INTER:                  -4.842
REMARK INTRA:                  -6.731
REMARK UNBOUND:                -4.584
REMARK SMILES CCCCCCCCCCCCCCCCCCCCCCCCCCCCCC(=O)[O-]
REMARK SMILES IDX 16 1 17 2 18 3 19 4 20 5 21 6 22 7 23 8 24 9 25 10 26 11
REMARK SMILES IDX 27 12 28 13 29 14 30 15 31 16 32 17 15 18 14 19 13 20 12 21
REMARK SMILES IDX 11 22 10 23 9 24 8 25 7 26 6 27 5 28 4 29 3 30 2 31 1 32
REMARK H PARENT
REMARK Flexibility Score: inf
ROOT
ATOM      1  C   UNL     1       1.073   6.616  12.644  1.00  0.00     0.000 C 
ENDROOT
BRANCH   1   2
ATOM      2  C   UNL     1       0.654   7.851  11.833  1.00  0.00     0.000 C 
BRANCH   2   3
ATOM      3  C   UNL     1       1.841   8.442  11.063  1.00  0.00     0.000 C 
BRANCH   3   4
ATOM      4  C   UNL     1       1.545   8.482   9.558  1.00  0.00     0.000 C 
BRANCH   4   5
ATOM      5  C   UNL     1       2.644   7.768   8.756  1.00  0.00     0.000 C 
BRANCH   5   6
ATOM      6  C   UNL     1       4.021   7.869   9.435  1.00  0.00     0.000 C 
BRANCH   6   7
ATOM      7  C   UNL     1       4.865   6.596   9.248  1.00  0.00     0.000 C 
BRANCH   7   8
ATOM      8  C   UNL     1       4.521   5.840   7.954  1.00  0.00     0.000 C 
BRANCH   8   9
ATOM      9  C   UNL     1       5.047   4.394   7.961  1.00  0.00     0.000 C 
BRANCH   9  10
ATOM     10  C   UNL     1       4.609   3.597   6.720  1.00  0.00     0.000 C 
BRANCH  10  11
ATOM     11  C   UNL     1       4.191   2.158   7.061  1.00  0.00     0.000 C 
BRANCH  11  12
ATOM     12  C   UNL     1       5.197   1.507   8.022  1.00  0.00     0.000 C 
BRANCH  12  13
ATOM     13  C   UNL     1       4.525   0.601   9.066  1.00  0.00     0.006 C 
BRANCH  13  14
ATOM     14  C   UNL     1       5.311   0.524  10.384  1.00  0.00     0.053 C 
BRANCH  14  15
ATOM     15  C   UNL     1       4.948   1.657  11.291  1.00  0.00     0.041 C 
ATOM     16  O   UNL     1       5.597   2.737  11.252  1.00  0.00    -0.550 OA
ATOM     17  O   UNL     1       3.884   1.526  12.178  1.00  0.00    -0.550 OA
ENDBRANCH  14  15
ENDBRANCH  13  14
ENDBRANCH  12  13
ENDBRANCH  11  12
ENDBRANCH  10  11
ENDBRANCH   9  10
ENDBRANCH   8   9
ENDBRANCH   7   8
ENDBRANCH   6   7
ENDBRANCH   5   6
ENDBRANCH   4   5
ENDBRANCH   3   4
ENDBRANCH   2   3
ENDBRANCH   1   2
BRANCH   1  18
ATOM     18  C   UNL     1       2.520   6.177  12.356  1.00  0.00     0.000 C 
BRANCH  18  19
ATOM     19  C   UNL     1       2.658   4.812  11.649  1.00  0.00     0.000 C 
BRANCH  19  20
ATOM     20  C   UNL     1       1.788   4.642  10.392  1.00  0.00     0.000 C 
BRANCH  20  21
ATOM     21  C   UNL     1       2.007   3.285   9.701  1.00  0.00     0.000 C 
BRANCH  21  22
ATOM     22  C   UNL     1       0.742   2.413   9.707  1.00  0.00     0.000 C 
BRANCH  22  23
ATOM     23  C   UNL     1       0.854   1.221  10.675  1.00  0.00     0.000 C 
BRANCH  23  24
ATOM     24  C   UNL     1      -0.168   1.296  11.827  1.00  0.00    -0.000 C 
BRANCH  24  25
ATOM     25  C   UNL     1       0.314   2.101  13.051  1.00  0.00    -0.000 C 
BRANCH  25  26
ATOM     26  C   UNL     1      -0.495   3.386  13.320  1.00  0.00    -0.000 C 
BRANCH  26  27
ATOM     27  C   UNL     1      -1.764   3.470  12.449  1.00  0.00    -0.000 C 
BRANCH  27  28
ATOM     28  C   UNL     1      -1.723   4.634  11.438  1.00  0.00    -0.000 C 
BRANCH  28  29
ATOM     29  C   UNL     1      -2.635   4.435  10.211  1.00  0.00    -0.000 C 
BRANCH  29  30
ATOM     30  C   UNL     1      -1.996   4.773   8.852  1.00  0.00    -0.000 C 
BRANCH  30  31
ATOM     31  C   UNL     1      -1.122   6.041   8.847  1.00  0.00    -0.003 C 
ATOM     32  C   UNL     1      -1.943   7.330   8.855  1.00  0.00     0.004 C 
ENDBRANCH  30  31
ENDBRANCH  29  30
ENDBRANCH  28  29
ENDBRANCH  27  28
ENDBRANCH  26  27
ENDBRANCH  25  26
ENDBRANCH  24  25
ENDBRANCH  23  24
ENDBRANCH  22  23
ENDBRANCH  21  22
ENDBRANCH  20  21
ENDBRANCH  19  20
ENDBRANCH  18  19
ENDBRANCH   1  18
TORSDOF 28
ENDMDL
MODEL 9
REMARK VINA RESULT:    -2.645      3.890      8.909
REMARK INTER + INTRA:         -11.558
REMARK INTER:                  -6.714
REMARK INTRA:                  -4.844
REMARK UNBOUND:                -4.584
REMARK SMILES CCCCCCCCCCCCCCCCCCCCCCCCCCCCCC(=O)[O-]
REMARK SMILES IDX 16 1 17 2 18 3 19 4 20 5 21 6 22 7 23 8 24 9 25 10 26 11
REMARK SMILES IDX 27 12 28 13 29 14 30 15 31 16 32 17 15 18 14 19 13 20 12 21
REMARK SMILES IDX 11 22 10 23 9 24 8 25 7 26 6 27 5 28 4 29 3 30 2 31 1 32
REMARK H PARENT
REMARK Flexibility Score: inf
ROOT
ATOM      1  C   UNL     1      -1.222   4.238  12.147  1.00  0.00     0.000 C 
ENDROOT
BRANCH   1   2
ATOM      2  C   UNL     1      -2.628   3.709  11.824  1.00  0.00     0.000 C 
BRANCH   2   3
ATOM      3  C   UNL     1      -3.153   4.289  10.505  1.00  0.00     0.000 C 
BRANCH   3   4
ATOM      4  C   UNL     1      -2.021   4.407   9.477  1.00  0.00     0.000 C 
BRANCH   4   5
ATOM      5  C   UNL     1      -2.257   5.589   8.525  1.00  0.00     0.000 C 
BRANCH   5   6
ATOM      6  C   UNL     1      -1.185   6.682   8.676  1.00  0.00     0.000 C 
BRANCH   6   7
ATOM      7  C   UNL     1       0.143   6.133   9.226  1.00  0.00     0.000 C 
BRANCH   7   8
ATOM      8  C   UNL     1       0.671   6.943  10.422  1.00  0.00     0.000 C 
BRANCH   8   9
ATOM      9  C   UNL     1       1.966   6.351  11.006  1.00  0.00     0.000 C 
BRANCH   9  10
ATOM     10  C   UNL     1       3.131   6.363  10.000  1.00  0.00     0.000 C 
BRANCH  10  11
ATOM     11  C   UNL     1       3.859   5.012   9.925  1.00  0.00     0.000 C 
BRANCH  11  12
ATOM     12  C   UNL     1       3.339   4.174   8.747  1.00  0.00     0.000 C 
BRANCH  12  13
ATOM     13  C   UNL     1       4.466   3.655   7.840  1.00  0.00     0.006 C 
BRANCH  13  14
ATOM     14  C   UNL     1       4.231   2.214   7.360  1.00  0.00     0.053 C 
BRANCH  14  15
ATOM     15  C   UNL     1       5.123   1.256   8.084  1.00  0.00     0.041 C 
ATOM     16  O   UNL     1       4.875   0.020   8.070  1.00  0.00    -0.550 OA
ATOM     17  O   UNL     1       6.238   1.725   8.770  1.00  0.00    -0.550 OA
ENDBRANCH  14  15
ENDBRANCH  13  14
ENDBRANCH  12  13
ENDBRANCH  11  12
ENDBRANCH  10  11
ENDBRANCH   9  10
ENDBRANCH   8   9
ENDBRANCH   7   8
ENDBRANCH   6   7
ENDBRANCH   5   6
ENDBRANCH   4   5
ENDBRANCH   3   4
ENDBRANCH   2   3
ENDBRANCH   1   2
BRANCH   1  18
ATOM     18  C   UNL     1      -0.429   3.296  13.071  1.00  0.00     0.000 C 
BRANCH  18  19
ATOM     19  C   UNL     1       0.781   2.604  12.410  1.00  0.00     0.000 C 
BRANCH  19  20
ATOM     20  C   UNL     1       0.945   2.878  10.906  1.00  0.00     0.000 C 
BRANCH  20  21
ATOM     21  C   UNL     1       0.706   1.624  10.047  1.00  0.00     0.000 C 
BRANCH  21  22
ATOM     22  C   UNL     1       1.954   0.733   9.950  1.00  0.00     0.000 C 
BRANCH  22  23
ATOM     23  C   UNL     1       1.665  -0.728  10.340  1.00  0.00     0.000 C 
BRANCH  23  24
ATOM     24  C   UNL     1       0.326  -0.886  11.089  1.00  0.00    -0.000 C 
BRANCH  24  25
ATOM     25  C   UNL     1       0.475  -1.140  12.603  1.00  0.00    -0.000 C 
BRANCH  25  26
ATOM     26  C   UNL     1      -0.683  -0.579  13.454  1.00  0.00    -0.000 C 
BRANCH  26  27
ATOM     27  C   UNL     1      -1.847  -0.061  12.586  1.00  0.00    -0.000 C 
BRANCH  27  28
ATOM     28  C   UNL     1      -3.232  -0.379  13.185  1.00  0.00    -0.000 C 
BRANCH  28  29
ATOM     29  C   UNL     1      -4.415   0.001  12.273  1.00  0.00    -0.000 C 
BRANCH  29  30
ATOM     30  C   UNL     1      -5.303  -1.171  11.820  1.00  0.00    -0.000 C 
BRANCH  30  31
ATOM     31  C   UNL     1      -4.683  -2.066  10.730  1.00  0.00    -0.003 C 
ATOM     32  C   UNL     1      -5.728  -2.674   9.795  1.00  0.00     0.004 C 
ENDBRANCH  30  31
ENDBRANCH  29  30
ENDBRANCH  28  29
ENDBRANCH  27  28
ENDBRANCH  26  27
ENDBRANCH  25  26
ENDBRANCH  24  25
ENDBRANCH  23  24
ENDBRANCH  22  23
ENDBRANCH  21  22
ENDBRANCH  20  21
ENDBRANCH  19  20
ENDBRANCH  18  19
ENDBRANCH   1  18
TORSDOF 28
ENDMDL
