MODEL 1
REMARK VINA RESULT:     0.488      0.000      0.000
REMARK INTER + INTRA:          -1.142
REMARK INTER:                   1.231
REMARK INTRA:                  -2.373
REMARK UNBOUND:                -2.373
REMARK SMILES CCCCCCCCCCCCCCCCCCCCCCCCCCCC(=O)[O-]
REMARK SMILES IDX 15 1 16 2 17 3 18 4 19 5 20 6 21 7 22 8 23 9 24 10 25 11
REMARK SMILES IDX 26 12 27 13 28 14 29 15 30 16 14 17 13 18 12 19 11 20 10 21
REMARK SMILES IDX 9 22 8 23 7 24 6 25 5 26 4 27 3 28 2 29 1 30
REMARK H PARENT
REMARK Flexibility Score: inf
ROOT
ATOM      1  C   UNL     1      14.814  15.243   6.756  1.00  0.00     0.000 C 
ENDROOT
BRANCH   1   2
ATOM      2  C   UNL     1      15.154  16.543   6.011  1.00  0.00     0.000 C 
BRANCH   2   3
ATOM      3  C   UNL     1      14.310  16.746   4.740  1.00  0.00     0.000 C 
BRANCH   3   4
ATOM      4  C   UNL     1      15.088  17.221   3.495  1.00  0.00     0.000 C 
BRANCH   4   5
ATOM      5  C   UNL     1      16.539  17.664   3.778  1.00  0.00     0.000 C 
BRANCH   5   6
ATOM      6  C   UNL     1      17.098  18.598   2.691  1.00  0.00     0.000 C 
BRANCH   6   7
ATOM      7  C   UNL     1      16.345  18.425   1.364  1.00  0.00     0.000 C 
BRANCH   7   8
ATOM      8  C   UNL     1      17.121  18.987   0.159  1.00  0.00     0.000 C 
BRANCH   8   9
ATOM      9  C   UNL     1      17.093  20.521   0.025  1.00  0.00     0.000 C 
BRANCH   9  10
ATOM     10  C   UNL     1      16.724  20.989  -1.390  1.00  0.00     0.000 C 
BRANCH  10  11
ATOM     11  C   UNL     1      15.422  21.799  -1.372  1.00  0.00     0.000 C 
BRANCH  11  12
ATOM     12  C   UNL     1      14.425  21.219  -0.359  1.00  0.00     0.006 C 
BRANCH  12  13
ATOM     13  C   UNL     1      13.186  20.623  -1.040  1.00  0.00     0.053 C 
BRANCH  13  14
ATOM     14  C   UNL     1      12.794  19.312  -0.430  1.00  0.00     0.041 C 
ATOM     15  O   UNL     1      13.294  18.947   0.667  1.00  0.00    -0.550 OA
ATOM     16  O   UNL     1      11.841  18.514  -1.051  1.00  0.00    -0.550 OA
ENDBRANCH  13  14
ENDBRANCH  12  13
ENDBRANCH  11  12
ENDBRANCH  10  11
ENDBRANCH   9  10
ENDBRANCH   8   9
ENDBRANCH   7   8
ENDBRANCH   6   7
ENDBRANCH   5   6
ENDBRANCH   4   5
ENDBRANCH   3   4
ENDBRANCH   2   3
ENDBRANCH   1   2
BRANCH   1  17
ATOM     17  C   UNL     1      15.996  14.776   7.614  1.00  0.00     0.000 C 
BRANCH  17  18
ATOM     18  C   UNL     1      17.112  15.830   7.629  1.00  0.00     0.000 C 
BRANCH  18  19
ATOM     19  C   UNL     1      17.084  16.711   8.891  1.00  0.00     0.000 C 
BRANCH  19  20
ATOM     20  C   UNL     1      16.519  18.129   8.679  1.00  0.00     0.000 C 
BRANCH  20  21
ATOM     21  C   UNL     1      15.502  18.597   9.742  1.00  0.00     0.000 C 
BRANCH  21  22
ATOM     22  C   UNL     1      16.077  18.773  11.160  1.00  0.00    -0.000 C 
BRANCH  22  23
ATOM     23  C   UNL     1      15.527  17.788  12.209  1.00  0.00    -0.000 C 
BRANCH  23  24
ATOM     24  C   UNL     1      16.624  17.074  13.028  1.00  0.00    -0.000 C 
BRANCH  24  25
ATOM     25  C   UNL     1      17.080  15.757  12.375  1.00  0.00    -0.000 C 
BRANCH  25  26
ATOM     26  C   UNL     1      16.002  14.663  12.436  1.00  0.00    -0.000 C 
BRANCH  26  27
ATOM     27  C   UNL     1      15.919  13.837  11.141  1.00  0.00    -0.000 C 
BRANCH  27  28
ATOM     28  C   UNL     1      14.469  13.424  10.810  1.00  0.00    -0.000 C 
BRANCH  28  29
ATOM     29  C   UNL     1      14.094  12.024  11.325  1.00  0.00    -0.003 C 
ATOM     30  C   UNL     1      15.134  10.960  10.982  1.00  0.00     0.004 C 
ENDBRANCH  28  29
ENDBRANCH  27  28
ENDBRANCH  26  27
ENDBRANCH  25  26
ENDBRANCH  24  25
ENDBRANCH  23  24
ENDBRANCH  22  23
ENDBRANCH  21  22
ENDBRANCH  20  21
ENDBRANCH  19  20
ENDBRANCH  18  19
ENDBRANCH  17  18
ENDBRANCH   1  17
TORSDOF 26
ENDMDL
MODEL 2
REMARK VINA RESULT:     0.777      1.062      3.319
REMARK INTER + INTRA:          -0.415
REMARK INTER:                   0.679
REMARK INTRA:                  -1.095
REMARK UNBOUND:                -2.373
REMARK SMILES CCCCCCCCCCCCCCCCCCCCCCCCCCCC(=O)[O-]
REMARK SMILES IDX 15 1 16 2 17 3 18 4 19 5 20 6 21 7 22 8 23 9 24 10 25 11
REMARK SMILES IDX 26 12 27 13 28 14 29 15 30 16 14 17 13 18 12 19 11 20 10 21
REMARK SMILES IDX 9 22 8 23 7 24 6 25 5 26 4 27 3 28 2 29 1 30
REMARK H PARENT
REMARK Flexibility Score: inf
ROOT
ATOM      1  C   UNL     1      15.366  16.867   7.222  1.00  0.00     0.000 C 
ENDROOT
BRANCH   1   2
ATOM      2  C   UNL     1      15.681  16.383   5.798  1.00  0.00     0.000 C 
BRANCH   2   3
ATOM      3  C   UNL     1      14.646  16.854   4.761  1.00  0.00     0.000 C 
BRANCH   3   4
ATOM      4  C   UNL     1      15.227  17.350   3.420  1.00  0.00     0.000 C 
BRANCH   4   5
ATOM      5  C   UNL     1      16.740  17.656   3.453  1.00  0.00     0.000 C 
BRANCH   5   6
ATOM      6  C   UNL     1      17.125  18.845   2.557  1.00  0.00     0.000 C 
BRANCH   6   7
ATOM      7  C   UNL     1      16.906  18.521   1.072  1.00  0.00     0.000 C 
BRANCH   7   8
ATOM      8  C   UNL     1      16.018  19.556   0.358  1.00  0.00     0.000 C 
BRANCH   8   9
ATOM      9  C   UNL     1      16.593  20.983   0.309  1.00  0.00     0.000 C 
BRANCH   9  10
ATOM     10  C   UNL     1      16.378  21.666  -1.049  1.00  0.00     0.000 C 
BRANCH  10  11
ATOM     11  C   UNL     1      14.938  21.465  -1.537  1.00  0.00     0.000 C 
BRANCH  11  12
ATOM     12  C   UNL     1      14.010  21.082  -0.376  1.00  0.00     0.006 C 
BRANCH  12  13
ATOM     13  C   UNL     1      12.601  20.710  -0.857  1.00  0.00     0.053 C 
BRANCH  13  14
ATOM     14  C   UNL     1      12.309  19.256  -0.648  1.00  0.00     0.041 C 
ATOM     15  O   UNL     1      12.850  18.630   0.302  1.00  0.00    -0.550 OA
ATOM     16  O   UNL     1      11.402  18.603  -1.474  1.00  0.00    -0.550 OA
ENDBRANCH  13  14
ENDBRANCH  12  13
ENDBRANCH  11  12
ENDBRANCH  10  11
ENDBRANCH   9  10
ENDBRANCH   8   9
ENDBRANCH   7   8
ENDBRANCH   6   7
ENDBRANCH   5   6
ENDBRANCH   4   5
ENDBRANCH   3   4
ENDBRANCH   2   3
ENDBRANCH   1   2
BRANCH   1  17
ATOM     17  C   UNL     1      15.185  15.681   8.177  1.00  0.00     0.000 C 
BRANCH  17  18
ATOM     18  C   UNL     1      15.265  14.349   7.419  1.00  0.00     0.000 C 
BRANCH  18  19
ATOM     19  C   UNL     1      16.420  13.455   7.903  1.00  0.00     0.000 C 
BRANCH  19  20
ATOM     20  C   UNL     1      16.479  13.238   9.428  1.00  0.00     0.000 C 
BRANCH  20  21
ATOM     21  C   UNL     1      15.209  12.624  10.054  1.00  0.00     0.000 C 
BRANCH  21  22
ATOM     22  C   UNL     1      14.554  13.472  11.161  1.00  0.00    -0.000 C 
BRANCH  22  23
ATOM     23  C   UNL     1      15.224  13.362  12.543  1.00  0.00    -0.000 C 
BRANCH  23  24
ATOM     24  C   UNL     1      16.623  14.013  12.611  1.00  0.00    -0.000 C 
BRANCH  24  25
ATOM     25  C   UNL     1      16.550  15.533  12.842  1.00  0.00    -0.000 C 
BRANCH  25  26
ATOM     26  C   UNL     1      16.816  16.339  11.560  1.00  0.00    -0.000 C 
BRANCH  26  27
ATOM     27  C   UNL     1      16.796  17.858  11.797  1.00  0.00    -0.000 C 
BRANCH  27  28
ATOM     28  C   UNL     1      15.381  18.452  11.625  1.00  0.00    -0.000 C 
BRANCH  28  29
ATOM     29  C   UNL     1      15.289  19.510  10.512  1.00  0.00    -0.003 C 
ATOM     30  C   UNL     1      16.388  19.374   9.461  1.00  0.00     0.004 C 
ENDBRANCH  28  29
ENDBRANCH  27  28
ENDBRANCH  26  27
ENDBRANCH  25  26
ENDBRANCH  24  25
ENDBRANCH  23  24
ENDBRANCH  22  23
ENDBRANCH  21  22
ENDBRANCH  20  21
ENDBRANCH  19  20
ENDBRANCH  18  19
ENDBRANCH  17  18
ENDBRANCH   1  17
TORSDOF 26
ENDMDL
MODEL 3
REMARK VINA RESULT:     1.029      1.237      2.440
REMARK INTER + INTRA:           0.219
REMARK INTER:                   2.351
REMARK INTRA:                  -2.132
REMARK UNBOUND:                -2.373
REMARK SMILES CCCCCCCCCCCCCCCCCCCCCCCCCCCC(=O)[O-]
REMARK SMILES IDX 15 1 16 2 17 3 18 4 19 5 20 6 21 7 22 8 23 9 24 10 25 11
REMARK SMILES IDX 26 12 27 13 28 14 29 15 30 16 14 17 13 18 12 19 11 20 10 21
REMARK SMILES IDX 9 22 8 23 7 24 6 25 5 26 4 27 3 28 2 29 1 30
REMARK H PARENT
REMARK Flexibility Score: inf
ROOT
ATOM      1  C   UNL     1      13.636  13.749   6.302  1.00  0.00     0.000 C 
ENDROOT
BRANCH   1   2
ATOM      2  C   UNL     1      14.119  15.050   5.641  1.00  0.00     0.000 C 
BRANCH   2   3
ATOM      3  C   UNL     1      13.041  15.715   4.766  1.00  0.00     0.000 C 
BRANCH   3   4
ATOM      4  C   UNL     1      13.484  16.090   3.337  1.00  0.00     0.000 C 
BRANCH   4   5
ATOM      5  C   UNL     1      14.453  17.289   3.261  1.00  0.00     0.000 C 
BRANCH   5   6
ATOM      6  C   UNL     1      14.821  17.665   1.817  1.00  0.00     0.000 C 
BRANCH   6   7
ATOM      7  C   UNL     1      16.157  18.422   1.758  1.00  0.00     0.000 C 
BRANCH   7   8
ATOM      8  C   UNL     1      16.563  18.807   0.324  1.00  0.00     0.000 C 
BRANCH   8   9
ATOM      9  C   UNL     1      17.125  20.232   0.168  1.00  0.00     0.000 C 
BRANCH   9  10
ATOM     10  C   UNL     1      16.026  21.303   0.104  1.00  0.00     0.000 C 
BRANCH  10  11
ATOM     11  C   UNL     1      15.156  21.114  -1.145  1.00  0.00     0.000 C 
BRANCH  11  12
ATOM     12  C   UNL     1      13.684  20.898  -0.766  1.00  0.00     0.006 C 
BRANCH  12  13
ATOM     13  C   UNL     1      13.409  19.462  -0.302  1.00  0.00     0.053 C 
BRANCH  13  14
ATOM     14  C   UNL     1      12.054  18.989  -0.732  1.00  0.00     0.041 C 
ATOM     15  O   UNL     1      11.690  19.110  -1.932  1.00  0.00    -0.550 OA
ATOM     16  O   UNL     1      11.210  18.372   0.183  1.00  0.00    -0.550 OA
ENDBRANCH  13  14
ENDBRANCH  12  13
ENDBRANCH  11  12
ENDBRANCH  10  11
ENDBRANCH   9  10
ENDBRANCH   8   9
ENDBRANCH   7   8
ENDBRANCH   6   7
ENDBRANCH   5   6
ENDBRANCH   4   5
ENDBRANCH   3   4
ENDBRANCH   2   3
ENDBRANCH   1   2
BRANCH   1  17
ATOM     17  C   UNL     1      14.579  13.325   7.434  1.00  0.00     0.000 C 
BRANCH  17  18
ATOM     18  C   UNL     1      15.989  13.041   6.897  1.00  0.00     0.000 C 
BRANCH  18  19
ATOM     19  C   UNL     1      17.092  13.729   7.721  1.00  0.00     0.000 C 
BRANCH  19  20
ATOM     20  C   UNL     1      17.043  15.269   7.712  1.00  0.00     0.000 C 
BRANCH  20  21
ATOM     21  C   UNL     1      16.310  15.911   8.909  1.00  0.00     0.000 C 
BRANCH  21  22
ATOM     22  C   UNL     1      15.352  17.060   8.545  1.00  0.00    -0.000 C 
BRANCH  22  23
ATOM     23  C   UNL     1      15.799  18.454   9.025  1.00  0.00    -0.000 C 
BRANCH  23  24
ATOM     24  C   UNL     1      16.389  18.461  10.452  1.00  0.00    -0.000 C 
BRANCH  24  25
ATOM     25  C   UNL     1      15.330  18.786  11.522  1.00  0.00    -0.000 C 
BRANCH  25  26
ATOM     26  C   UNL     1      15.561  18.019  12.833  1.00  0.00    -0.000 C 
BRANCH  26  27
ATOM     27  C   UNL     1      16.416  16.755  12.641  1.00  0.00    -0.000 C 
BRANCH  27  28
ATOM     28  C   UNL     1      15.621  15.466  12.942  1.00  0.00    -0.000 C 
BRANCH  28  29
ATOM     29  C   UNL     1      16.310  14.186  12.439  1.00  0.00    -0.003 C 
ATOM     30  C   UNL     1      15.491  13.436  11.391  1.00  0.00     0.004 C 
ENDBRANCH  28  29
ENDBRANCH  27  28
ENDBRANCH  26  27
ENDBRANCH  25  26
ENDBRANCH  24  25
ENDBRANCH  23  24
ENDBRANCH  22  23
ENDBRANCH  21  22
ENDBRANCH  20  21
ENDBRANCH  19  20
ENDBRANCH  18  19
ENDBRANCH  17  18
ENDBRANCH   1  17
TORSDOF 26
ENDMDL
MODEL 4
REMARK VINA RESULT:     1.074      1.779      5.153
REMARK INTER + INTRA:           0.334
REMARK INTER:                   1.890
REMARK INTRA:                  -1.556
REMARK UNBOUND:                -2.373
REMARK SMILES CCCCCCCCCCCCCCCCCCCCCCCCCCCC(=O)[O-]
REMARK SMILES IDX 15 1 16 2 17 3 18 4 19 5 20 6 21 7 22 8 23 9 24 10 25 11
REMARK SMILES IDX 26 12 27 13 28 14 29 15 30 16 14 17 13 18 12 19 11 20 10 21
REMARK SMILES IDX 9 22 8 23 7 24 6 25 5 26 4 27 3 28 2 29 1 30
REMARK H PARENT
REMARK Flexibility Score: inf
ROOT
ATOM      1  C   UNL     1      13.721  11.943   9.480  1.00  0.00     0.000 C 
ENDROOT
BRANCH   1   2
ATOM      2  C   UNL     1      13.855  13.364   8.910  1.00  0.00     0.000 C 
BRANCH   2   3
ATOM      3  C   UNL     1      15.173  13.583   8.145  1.00  0.00     0.000 C 
BRANCH   3   4
ATOM      4  C   UNL     1      16.330  14.180   8.973  1.00  0.00     0.000 C 
BRANCH   4   5
ATOM      5  C   UNL     1      16.967  15.446   8.361  1.00  0.00     0.000 C 
BRANCH   5   6
ATOM      6  C   UNL     1      17.077  15.373   6.829  1.00  0.00     0.000 C 
BRANCH   6   7
ATOM      7  C   UNL     1      16.978  16.768   6.193  1.00  0.00     0.000 C 
BRANCH   7   8
ATOM      8  C   UNL     1      16.516  16.725   4.726  1.00  0.00     0.000 C 
BRANCH   8   9
ATOM      9  C   UNL     1      17.125  17.811   3.820  1.00  0.00     0.000 C 
BRANCH   9  10
ATOM     10  C   UNL     1      16.131  18.343   2.776  1.00  0.00     0.000 C 
BRANCH  10  11
ATOM     11  C   UNL     1      16.839  18.617   1.443  1.00  0.00     0.000 C 
BRANCH  11  12
ATOM     12  C   UNL     1      15.825  18.923   0.332  1.00  0.00     0.006 C 
BRANCH  12  13
ATOM     13  C   UNL     1      15.196  20.313   0.487  1.00  0.00     0.053 C 
BRANCH  13  14
ATOM     14  C   UNL     1      14.622  20.810  -0.804  1.00  0.00     0.041 C 
ATOM     15  O   UNL     1      15.053  21.873  -1.324  1.00  0.00    -0.550 OA
ATOM     16  O   UNL     1      13.643  20.073  -1.459  1.00  0.00    -0.550 OA
ENDBRANCH  13  14
ENDBRANCH  12  13
ENDBRANCH  11  12
ENDBRANCH  10  11
ENDBRANCH   9  10
ENDBRANCH   8   9
ENDBRANCH   7   8
ENDBRANCH   6   7
ENDBRANCH   5   6
ENDBRANCH   4   5
ENDBRANCH   3   4
ENDBRANCH   2   3
ENDBRANCH   1   2
BRANCH   1  17
ATOM     17  C   UNL     1      13.306  11.980  10.955  1.00  0.00     0.000 C 
BRANCH  17  18
ATOM     18  C   UNL     1      14.462  11.531  11.861  1.00  0.00     0.000 C 
BRANCH  18  19
ATOM     19  C   UNL     1      15.364  12.699  12.300  1.00  0.00     0.000 C 
BRANCH  19  20
ATOM     20  C   UNL     1      14.653  13.798  13.113  1.00  0.00     0.000 C 
BRANCH  20  21
ATOM     21  C   UNL     1      15.111  15.241  12.811  1.00  0.00     0.000 C 
BRANCH  21  22
ATOM     22  C   UNL     1      15.971  15.397  11.542  1.00  0.00    -0.000 C 
BRANCH  22  23
ATOM     23  C   UNL     1      16.999  16.543  11.594  1.00  0.00    -0.000 C 
BRANCH  23  24
ATOM     24  C   UNL     1      16.362  17.951  11.605  1.00  0.00    -0.000 C 
BRANCH  24  25
ATOM     25  C   UNL     1      17.125  18.946  10.713  1.00  0.00    -0.000 C 
BRANCH  25  26
ATOM     26  C   UNL     1      16.326  20.231  10.446  1.00  0.00    -0.000 C 
BRANCH  26  27
ATOM     27  C   UNL     1      14.855  20.119  10.879  1.00  0.00    -0.000 C 
BRANCH  27  28
ATOM     28  C   UNL     1      14.534  21.030  12.083  1.00  0.00    -0.000 C 
BRANCH  28  29
ATOM     29  C   UNL     1      13.303  20.577  12.887  1.00  0.00    -0.003 C 
ATOM     30  C   UNL     1      13.077  19.067  12.840  1.00  0.00     0.004 C 
ENDBRANCH  28  29
ENDBRANCH  27  28
ENDBRANCH  26  27
ENDBRANCH  25  26
ENDBRANCH  24  25
ENDBRANCH  23  24
ENDBRANCH  22  23
ENDBRANCH  21  22
ENDBRANCH  20  21
ENDBRANCH  19  20
ENDBRANCH  18  19
ENDBRANCH  17  18
ENDBRANCH   1  17
TORSDOF 26
ENDMDL
MODEL 5
REMARK VINA RESULT:     1.280      1.230      4.093
REMARK INTER + INTRA:           0.853
REMARK INTER:                   3.070
REMARK INTRA:                  -2.218
REMARK UNBOUND:                -2.373
REMARK SMILES CCCCCCCCCCCCCCCCCCCCCCCCCCCC(=O)[O-]
REMARK SMILES IDX 15 1 16 2 17 3 18 4 19 5 20 6 21 7 22 8 23 9 24 10 25 11
REMARK SMILES IDX 26 12 27 13 28 14 29 15 30 16 14 17 13 18 12 19 11 20 10 21
REMARK SMILES IDX 9 22 8 23 7 24 6 25 5 26 4 27 3 28 2 29 1 30
REMARK H PARENT
REMARK Flexibility Score: inf
ROOT
ATOM      1  C   UNL     1      14.872  13.792   8.864  1.00  0.00     0.000 C 
ENDROOT
BRANCH   1   2
ATOM      2  C   UNL     1      14.949  13.160   7.465  1.00  0.00     0.000 C 
BRANCH   2   3
ATOM      3  C   UNL     1      13.887  13.712   6.497  1.00  0.00     0.000 C 
BRANCH   3   4
ATOM      4  C   UNL     1      14.072  15.185   6.077  1.00  0.00     0.000 C 
BRANCH   4   5
ATOM      5  C   UNL     1      13.954  15.436   4.558  1.00  0.00     0.000 C 
BRANCH   5   6
ATOM      6  C   UNL     1      13.796  16.926   4.213  1.00  0.00     0.000 C 
BRANCH   6   7
ATOM      7  C   UNL     1      14.458  17.263   2.869  1.00  0.00     0.000 C 
BRANCH   7   8
ATOM      8  C   UNL     1      15.988  17.396   2.973  1.00  0.00     0.000 C 
BRANCH   8   9
ATOM      9  C   UNL     1      16.567  18.707   2.412  1.00  0.00     0.000 C 
BRANCH   9  10
ATOM     10  C   UNL     1      16.652  18.714   0.878  1.00  0.00     0.000 C 
BRANCH  10  11
ATOM     11  C   UNL     1      16.360  20.115   0.324  1.00  0.00     0.000 C 
BRANCH  11  12
ATOM     12  C   UNL     1      14.859  20.432   0.386  1.00  0.00     0.006 C 
BRANCH  12  13
ATOM     13  C   UNL     1      13.994  19.213   0.041  1.00  0.00     0.053 C 
BRANCH  13  14
ATOM     14  C   UNL     1      12.711  19.613  -0.620  1.00  0.00     0.041 C 
ATOM     15  O   UNL     1      11.793  18.768  -0.790  1.00  0.00    -0.550 OA
ATOM     16  O   UNL     1      12.510  20.933  -1.007  1.00  0.00    -0.550 OA
ENDBRANCH  13  14
ENDBRANCH  12  13
ENDBRANCH  11  12
ENDBRANCH  10  11
ENDBRANCH   9  10
ENDBRANCH   8   9
ENDBRANCH   7   8
ENDBRANCH   6   7
ENDBRANCH   5   6
ENDBRANCH   4   5
ENDBRANCH   3   4
ENDBRANCH   2   3
ENDBRANCH   1   2
BRANCH   1  17
ATOM     17  C   UNL     1      15.302  12.792   9.943  1.00  0.00     0.000 C 
BRANCH  17  18
ATOM     18  C   UNL     1      14.122  12.428  10.856  1.00  0.00     0.000 C 
BRANCH  18  19
ATOM     19  C   UNL     1      14.479  12.504  12.351  1.00  0.00     0.000 C 
BRANCH  19  20
ATOM     20  C   UNL     1      14.879  13.904  12.853  1.00  0.00     0.000 C 
BRANCH  20  21
ATOM     21  C   UNL     1      16.395  14.196  12.851  1.00  0.00     0.000 C 
BRANCH  21  22
ATOM     22  C   UNL     1      16.815  15.449  12.060  1.00  0.00    -0.000 C 
BRANCH  22  23
ATOM     23  C   UNL     1      16.002  16.718  12.378  1.00  0.00    -0.000 C 
BRANCH  23  24
ATOM     24  C   UNL     1      16.857  17.884  12.924  1.00  0.00    -0.000 C 
BRANCH  24  25
ATOM     25  C   UNL     1      16.437  19.243  12.337  1.00  0.00    -0.000 C 
BRANCH  25  26
ATOM     26  C   UNL     1      15.688  19.104  11.002  1.00  0.00    -0.000 C 
BRANCH  26  27
ATOM     27  C   UNL     1      16.242  20.035   9.910  1.00  0.00    -0.000 C 
BRANCH  27  28
ATOM     28  C   UNL     1      16.831  19.247   8.721  1.00  0.00    -0.000 C 
BRANCH  28  29
ATOM     29  C   UNL     1      17.125  17.773   9.044  1.00  0.00    -0.003 C 
ATOM     30  C   UNL     1      16.325  16.798   8.183  1.00  0.00     0.004 C 
ENDBRANCH  28  29
ENDBRANCH  27  28
ENDBRANCH  26  27
ENDBRANCH  25  26
ENDBRANCH  24  25
ENDBRANCH  23  24
ENDBRANCH  22  23
ENDBRANCH  21  22
ENDBRANCH  20  21
ENDBRANCH  19  20
ENDBRANCH  18  19
ENDBRANCH  17  18
ENDBRANCH   1  17
TORSDOF 26
ENDMDL
MODEL 6
REMARK VINA RESULT:     1.475      3.114     11.595
REMARK INTER + INTRA:           1.343
REMARK INTER:                   3.093
REMARK INTRA:                  -1.749
REMARK UNBOUND:                -2.373
REMARK SMILES CCCCCCCCCCCCCCCCCCCCCCCCCCCC(=O)[O-]
REMARK SMILES IDX 15 1 16 2 17 3 18 4 19 5 20 6 21 7 22 8 23 9 24 10 25 11
REMARK SMILES IDX 26 12 27 13 28 14 29 15 30 16 14 17 13 18 12 19 11 20 10 21
REMARK SMILES IDX 9 22 8 23 7 24 6 25 5 26 4 27 3 28 2 29 1 30
REMARK H PARENT
REMARK Flexibility Score: inf
ROOT
ATOM      1  C   UNL     1      15.233  15.284   7.156  1.00  0.00     0.000 C 
ENDROOT
BRANCH   1   2
ATOM      2  C   UNL     1      15.689  13.817   7.213  1.00  0.00     0.000 C 
BRANCH   2   3
ATOM      3  C   UNL     1      15.475  13.176   8.596  1.00  0.00     0.000 C 
BRANCH   3   4
ATOM      4  C   UNL     1      14.115  13.471   9.262  1.00  0.00     0.000 C 
BRANCH   4   5
ATOM      5  C   UNL     1      13.882  12.729  10.596  1.00  0.00     0.000 C 
BRANCH   5   6
ATOM      6  C   UNL     1      14.924  11.627  10.852  1.00  0.00     0.000 C 
BRANCH   6   7
ATOM      7  C   UNL     1      14.773  11.030  12.259  1.00  0.00     0.000 C 
BRANCH   7   8
ATOM      8  C   UNL     1      16.123  10.820  12.968  1.00  0.00     0.000 C 
BRANCH   8   9
ATOM      9  C   UNL     1      17.116  11.989  12.836  1.00  0.00     0.000 C 
BRANCH   9  10
ATOM     10  C   UNL     1      16.473  13.354  13.124  1.00  0.00     0.000 C 
BRANCH  10  11
ATOM     11  C   UNL     1      17.123  14.451  12.272  1.00  0.00     0.000 C 
BRANCH  11  12
ATOM     12  C   UNL     1      16.066  15.404  11.697  1.00  0.00     0.006 C 
BRANCH  12  13
ATOM     13  C   UNL     1      16.576  16.161  10.463  1.00  0.00     0.053 C 
BRANCH  13  14
ATOM     14  C   UNL     1      16.807  17.611  10.759  1.00  0.00     0.041 C 
ATOM     15  O   UNL     1      16.878  18.447   9.820  1.00  0.00    -0.550 OA
ATOM     16  O   UNL     1      16.899  18.047  12.075  1.00  0.00    -0.550 OA
ENDBRANCH  13  14
ENDBRANCH  12  13
ENDBRANCH  11  12
ENDBRANCH  10  11
ENDBRANCH   9  10
ENDBRANCH   8   9
ENDBRANCH   7   8
ENDBRANCH   6   7
ENDBRANCH   5   6
ENDBRANCH   4   5
ENDBRANCH   3   4
ENDBRANCH   2   3
ENDBRANCH   1   2
BRANCH   1  17
ATOM     17  C   UNL     1      15.767  15.976   5.896  1.00  0.00     0.000 C 
BRANCH  17  18
ATOM     18  C   UNL     1      16.743  17.104   6.261  1.00  0.00     0.000 C 
BRANCH  18  19
ATOM     19  C   UNL     1      17.124  17.977   5.053  1.00  0.00     0.000 C 
BRANCH  19  20
ATOM     20  C   UNL     1      16.700  17.413   3.684  1.00  0.00     0.000 C 
BRANCH  20  21
ATOM     21  C   UNL     1      16.858  18.384   2.494  1.00  0.00     0.000 C 
BRANCH  21  22
ATOM     22  C   UNL     1      15.628  18.488   1.573  1.00  0.00    -0.000 C 
BRANCH  22  23
ATOM     23  C   UNL     1      15.844  19.322   0.296  1.00  0.00    -0.000 C 
BRANCH  23  24
ATOM     24  C   UNL     1      16.110  20.819   0.568  1.00  0.00    -0.000 C 
BRANCH  24  25
ATOM     25  C   UNL     1      16.606  21.563  -0.685  1.00  0.00    -0.000 C 
BRANCH  25  26
ATOM     26  C   UNL     1      15.467  21.905  -1.659  1.00  0.00    -0.000 C 
BRANCH  26  27
ATOM     27  C   UNL     1      14.398  20.801  -1.736  1.00  0.00    -0.000 C 
BRANCH  27  28
ATOM     28  C   UNL     1      13.096  21.203  -1.011  1.00  0.00    -0.000 C 
BRANCH  28  29
ATOM     29  C   UNL     1      12.372  20.022  -0.344  1.00  0.00    -0.003 C 
ATOM     30  C   UNL     1      12.249  18.801  -1.254  1.00  0.00     0.004 C 
ENDBRANCH  28  29
ENDBRANCH  27  28
ENDBRANCH  26  27
ENDBRANCH  25  26
ENDBRANCH  24  25
ENDBRANCH  23  24
ENDBRANCH  22  23
ENDBRANCH  21  22
ENDBRANCH  20  21
ENDBRANCH  19  20
ENDBRANCH  18  19
ENDBRANCH  17  18
ENDBRANCH   1  17
TORSDOF 26
ENDMDL
MODEL 7
REMARK VINA RESULT:     1.487      3.536     10.594
REMARK INTER + INTRA:           1.375
REMARK INTER:                   3.448
REMARK INTRA:                  -2.073
REMARK UNBOUND:                -2.373
REMARK SMILES CCCCCCCCCCCCCCCCCCCCCCCCCCCC(=O)[O-]
REMARK SMILES IDX 15 1 16 2 17 3 18 4 19 5 20 6 21 7 22 8 23 9 24 10 25 11
REMARK SMILES IDX 26 12 27 13 28 14 29 15 30 16 14 17 13 18 12 19 11 20 10 21
REMARK SMILES IDX 9 22 8 23 7 24 6 25 5 26 4 27 3 28 2 29 1 30
REMARK H PARENT
REMARK Flexibility Score: inf
ROOT
ATOM      1  C   UNL     1      13.619  14.287   6.423  1.00  0.00     0.000 C 
ENDROOT
BRANCH   1   2
ATOM      2  C   UNL     1      14.466  13.413   7.362  1.00  0.00     0.000 C 
BRANCH   2   3
ATOM      3  C   UNL     1      15.903  13.201   6.852  1.00  0.00     0.000 C 
BRANCH   3   4
ATOM      4  C   UNL     1      17.016  13.813   7.729  1.00  0.00     0.000 C 
BRANCH   4   5
ATOM      5  C   UNL     1      17.028  13.311   9.188  1.00  0.00     0.000 C 
BRANCH   5   6
ATOM      6  C   UNL     1      16.719  14.425  10.202  1.00  0.00     0.000 C 
BRANCH   6   7
ATOM      7  C   UNL     1      17.053  15.811   9.631  1.00  0.00     0.000 C 
BRANCH   7   8
ATOM      8  C   UNL     1      15.915  16.829   9.829  1.00  0.00     0.000 C 
BRANCH   8   9
ATOM      9  C   UNL     1      15.844  17.940   8.765  1.00  0.00     0.000 C 
BRANCH   9  10
ATOM     10  C   UNL     1      16.170  19.330   9.332  1.00  0.00     0.000 C 
BRANCH  10  11
ATOM     11  C   UNL     1      16.499  19.243  10.828  1.00  0.00     0.000 C 
BRANCH  11  12
ATOM     12  C   UNL     1      16.361  20.614  11.505  1.00  0.00     0.006 C 
BRANCH  12  13
ATOM     13  C   UNL     1      15.331  20.598  12.642  1.00  0.00     0.053 C 
BRANCH  13  14
ATOM     14  C   UNL     1      13.927  20.572  12.119  1.00  0.00     0.041 C 
ATOM     15  O   UNL     1      13.511  21.495  11.371  1.00  0.00    -0.550 OA
ATOM     16  O   UNL     1      13.093  19.502  12.421  1.00  0.00    -0.550 OA
ENDBRANCH  13  14
ENDBRANCH  12  13
ENDBRANCH  11  12
ENDBRANCH  10  11
ENDBRANCH   9  10
ENDBRANCH   8   9
ENDBRANCH   7   8
ENDBRANCH   6   7
ENDBRANCH   5   6
ENDBRANCH   4   5
ENDBRANCH   3   4
ENDBRANCH   2   3
ENDBRANCH   1   2
BRANCH   1  17
ATOM     17  C   UNL     1      14.484  14.901   5.316  1.00  0.00     0.000 C 
BRANCH  17  18
ATOM     18  C   UNL     1      13.691  15.945   4.516  1.00  0.00     0.000 C 
BRANCH  18  19
ATOM     19  C   UNL     1      14.532  17.180   4.148  1.00  0.00     0.000 C 
BRANCH  19  20
ATOM     20  C   UNL     1      14.696  17.426   2.635  1.00  0.00     0.000 C 
BRANCH  20  21
ATOM     21  C   UNL     1      15.987  18.166   2.226  1.00  0.00     0.000 C 
BRANCH  21  22
ATOM     22  C   UNL     1      16.025  18.646   0.763  1.00  0.00    -0.000 C 
BRANCH  22  23
ATOM     23  C   UNL     1      16.935  19.862   0.503  1.00  0.00    -0.000 C 
BRANCH  23  24
ATOM     24  C   UNL     1      16.162  21.165   0.206  1.00  0.00    -0.000 C 
BRANCH  24  25
ATOM     25  C   UNL     1      15.784  21.297  -1.280  1.00  0.00    -0.000 C 
BRANCH  25  26
ATOM     26  C   UNL     1      14.295  21.017  -1.539  1.00  0.00    -0.000 C 
BRANCH  26  27
ATOM     27  C   UNL     1      13.487  20.850  -0.241  1.00  0.00    -0.000 C 
BRANCH  27  28
ATOM     28  C   UNL     1      12.941  19.415  -0.078  1.00  0.00    -0.000 C 
BRANCH  28  29
ATOM     29  C   UNL     1      12.504  18.769  -1.404  1.00  0.00    -0.003 C 
ATOM     30  C   UNL     1      11.035  19.019  -1.738  1.00  0.00     0.004 C 
ENDBRANCH  28  29
ENDBRANCH  27  28
ENDBRANCH  26  27
ENDBRANCH  25  26
ENDBRANCH  24  25
ENDBRANCH  23  24
ENDBRANCH  22  23
ENDBRANCH  21  22
ENDBRANCH  20  21
ENDBRANCH  19  20
ENDBRANCH  18  19
ENDBRANCH  17  18
ENDBRANCH   1  17
TORSDOF 26
ENDMDL
MODEL 8
REMARK VINA RESULT:     1.713      1.337      3.979
REMARK INTER + INTRA:           1.944
REMARK INTER:                   3.165
REMARK INTRA:                  -1.222
REMARK UNBOUND:                -2.373
REMARK SMILES CCCCCCCCCCCCCCCCCCCCCCCCCCCC(=O)[O-]
REMARK SMILES IDX 15 1 16 2 17 3 18 4 19 5 20 6 21 7 22 8 23 9 24 10 25 11
REMARK SMILES IDX 26 12 27 13 28 14 29 15 30 16 14 17 13 18 12 19 11 20 10 21
REMARK SMILES IDX 9 22 8 23 7 24 6 25 5 26 4 27 3 28 2 29 1 30
REMARK H PARENT
REMARK Flexibility Score: inf
ROOT
ATOM      1  C   UNL     1      16.083  14.319   8.103  1.00  0.00     0.000 C 
ENDROOT
BRANCH   1   2
ATOM      2  C   UNL     1      16.554  15.685   8.628  1.00  0.00     0.000 C 
BRANCH   2   3
ATOM      3  C   UNL     1      16.336  16.824   7.617  1.00  0.00     0.000 C 
BRANCH   3   4
ATOM      4  C   UNL     1      17.124  16.700   6.296  1.00  0.00     0.000 C 
BRANCH   4   5
ATOM      5  C   UNL     1      17.124  17.978   5.430  1.00  0.00     0.000 C 
BRANCH   5   6
ATOM      6  C   UNL     1      17.125  17.673   3.922  1.00  0.00     0.000 C 
BRANCH   6   7
ATOM      7  C   UNL     1      15.695  17.573   3.371  1.00  0.00     0.000 C 
BRANCH   7   8
ATOM      8  C   UNL     1      15.598  17.965   1.885  1.00  0.00     0.000 C 
BRANCH   8   9
ATOM      9  C   UNL     1      16.242  19.316   1.526  1.00  0.00     0.000 C 
BRANCH   9  10
ATOM     10  C   UNL     1      16.638  19.413   0.045  1.00  0.00     0.000 C 
BRANCH  10  11
ATOM     11  C   UNL     1      16.475  20.849  -0.468  1.00  0.00     0.000 C 
BRANCH  11  12
ATOM     12  C   UNL     1      15.033  21.114  -0.923  1.00  0.00     0.006 C 
BRANCH  12  13
ATOM     13  C   UNL     1      14.001  20.521   0.046  1.00  0.00     0.053 C 
BRANCH  13  14
ATOM     14  C   UNL     1      12.883  19.841  -0.682  1.00  0.00     0.041 C 
ATOM     15  O   UNL     1      12.812  18.584  -0.706  1.00  0.00    -0.550 OA
ATOM     16  O   UNL     1      11.892  20.597  -1.296  1.00  0.00    -0.550 OA
ENDBRANCH  13  14
ENDBRANCH  12  13
ENDBRANCH  11  12
ENDBRANCH  10  11
ENDBRANCH   9  10
ENDBRANCH   8   9
ENDBRANCH   7   8
ENDBRANCH   6   7
ENDBRANCH   5   6
ENDBRANCH   4   5
ENDBRANCH   3   4
ENDBRANCH   2   3
ENDBRANCH   1   2
BRANCH   1  17
ATOM     17  C   UNL     1      14.804  14.462   7.270  1.00  0.00     0.000 C 
BRANCH  17  18
ATOM     18  C   UNL     1      14.135  13.097   7.052  1.00  0.00     0.000 C 
BRANCH  18  19
ATOM     19  C   UNL     1      14.374  12.123   8.220  1.00  0.00     0.000 C 
BRANCH  19  20
ATOM     20  C   UNL     1      13.612  12.462   9.515  1.00  0.00     0.000 C 
BRANCH  20  21
ATOM     21  C   UNL     1      14.498  12.849  10.718  1.00  0.00     0.000 C 
BRANCH  21  22
ATOM     22  C   UNL     1      15.735  11.955  10.928  1.00  0.00    -0.000 C 
BRANCH  22  23
ATOM     23  C   UNL     1      16.637  12.364  12.108  1.00  0.00    -0.000 C 
BRANCH  23  24
ATOM     24  C   UNL     1      16.202  13.675  12.799  1.00  0.00    -0.000 C 
BRANCH  24  25
ATOM     25  C   UNL     1      16.663  14.924  12.027  1.00  0.00    -0.000 C 
BRANCH  25  26
ATOM     26  C   UNL     1      15.960  16.205  12.505  1.00  0.00    -0.000 C 
BRANCH  26  27
ATOM     27  C   UNL     1      16.782  17.475  12.223  1.00  0.00    -0.000 C 
BRANCH  27  28
ATOM     28  C   UNL     1      16.209  18.286  11.041  1.00  0.00    -0.000 C 
BRANCH  28  29
ATOM     29  C   UNL     1      14.886  18.999  11.368  1.00  0.00    -0.003 C 
ATOM     30  C   UNL     1      14.918  20.495  11.063  1.00  0.00     0.004 C 
ENDBRANCH  28  29
ENDBRANCH  27  28
ENDBRANCH  26  27
ENDBRANCH  25  26
ENDBRANCH  24  25
ENDBRANCH  23  24
ENDBRANCH  22  23
ENDBRANCH  21  22
ENDBRANCH  20  21
ENDBRANCH  19  20
ENDBRANCH  18  19
ENDBRANCH  17  18
ENDBRANCH   1  17
TORSDOF 26
ENDMDL
MODEL 9
REMARK VINA RESULT:     1.753      3.910     11.318
REMARK INTER + INTRA:           2.043
REMARK INTER:                   3.837
REMARK INTRA:                  -1.793
REMARK UNBOUND:                -2.373
REMARK SMILES CCCCCCCCCCCCCCCCCCCCCCCCCCCC(=O)[O-]
REMARK SMILES IDX 15 1 16 2 17 3 18 4 19 5 20 6 21 7 22 8 23 9 24 10 25 11
REMARK SMILES IDX 26 12 27 13 28 14 29 15 30 16 14 17 13 18 12 19 11 20 10 21
REMARK SMILES IDX 9 22 8 23 7 24 6 25 5 26 4 27 3 28 2 29 1 30
REMARK H PARENT
REMARK Flexibility Score: inf
ROOT
ATOM      1  C   UNL     1      14.407  13.430   7.598  1.00  0.00     0.000 C 
ENDROOT
BRANCH   1   2
ATOM      2  C   UNL     1      15.844  13.486   7.055  1.00  0.00     0.000 C 
BRANCH   2   3
ATOM      3  C   UNL     1      16.716  14.533   7.771  1.00  0.00     0.000 C 
BRANCH   3   4
ATOM      4  C   UNL     1      16.611  15.972   7.223  1.00  0.00     0.000 C 
BRANCH   4   5
ATOM      5  C   UNL     1      15.945  16.975   8.188  1.00  0.00     0.000 C 
BRANCH   5   6
ATOM      6  C   UNL     1      16.882  18.127   8.589  1.00  0.00     0.000 C 
BRANCH   6   7
ATOM      7  C   UNL     1      16.701  18.509  10.065  1.00  0.00     0.000 C 
BRANCH   7   8
ATOM      8  C   UNL     1      17.060  17.363  11.028  1.00  0.00     0.000 C 
BRANCH   8   9
ATOM      9  C   UNL     1      16.109  17.199  12.228  1.00  0.00     0.000 C 
BRANCH   9  10
ATOM     10  C   UNL     1      16.051  15.756  12.749  1.00  0.00     0.000 C 
BRANCH  10  11
ATOM     11  C   UNL     1      17.005  14.853  11.956  1.00  0.00     0.000 C 
BRANCH  11  12
ATOM     12  C   UNL     1      16.228  13.908  11.030  1.00  0.00     0.006 C 
BRANCH  12  13
ATOM     13  C   UNL     1      16.905  12.537  10.899  1.00  0.00     0.053 C 
BRANCH  13  14
ATOM     14  C   UNL     1      16.120  11.462  11.585  1.00  0.00     0.041 C 
ATOM     15  O   UNL     1      16.665  10.365  11.877  1.00  0.00    -0.550 OA
ATOM     16  O   UNL     1      14.797  11.690  11.946  1.00  0.00    -0.550 OA
ENDBRANCH  13  14
ENDBRANCH  12  13
ENDBRANCH  11  12
ENDBRANCH  10  11
ENDBRANCH   9  10
ENDBRANCH   8   9
ENDBRANCH   7   8
ENDBRANCH   6   7
ENDBRANCH   5   6
ENDBRANCH   4   5
ENDBRANCH   3   4
ENDBRANCH   2   3
ENDBRANCH   1   2
BRANCH   1  17
ATOM     17  C   UNL     1      13.402  13.904   6.541  1.00  0.00     0.000 C 
BRANCH  17  18
ATOM     18  C   UNL     1      14.125  14.510   5.329  1.00  0.00     0.000 C 
BRANCH  18  19
ATOM     19  C   UNL     1      13.826  16.008   5.144  1.00  0.00     0.000 C 
BRANCH  19  20
ATOM     20  C   UNL     1      14.606  16.689   4.003  1.00  0.00     0.000 C 
BRANCH  20  21
ATOM     21  C   UNL     1      13.743  17.476   2.994  1.00  0.00     0.000 C 
BRANCH  21  22
ATOM     22  C   UNL     1      14.353  17.616   1.587  1.00  0.00    -0.000 C 
BRANCH  22  23
ATOM     23  C   UNL     1      13.827  18.809   0.768  1.00  0.00    -0.000 C 
BRANCH  23  24
ATOM     24  C   UNL     1      14.930  19.576   0.005  1.00  0.00    -0.000 C 
BRANCH  24  25
ATOM     25  C   UNL     1      16.344  19.157   0.444  1.00  0.00    -0.000 C 
BRANCH  25  26
ATOM     26  C   UNL     1      17.125  20.309   1.096  1.00  0.00    -0.000 C 
BRANCH  26  27
ATOM     27  C   UNL     1      17.078  21.605   0.268  1.00  0.00    -0.000 C 
BRANCH  27  28
ATOM     28  C   UNL     1      17.012  21.321  -1.248  1.00  0.00    -0.000 C 
BRANCH  28  29
ATOM     29  C   UNL     1      15.876  22.070  -1.965  1.00  0.00    -0.003 C 
ATOM     30  C   UNL     1      16.013  22.054  -3.486  1.00  0.00     0.004 C 
ENDBRANCH  28  29
ENDBRANCH  27  28
ENDBRANCH  26  27
ENDBRANCH  25  26
ENDBRANCH  24  25
ENDBRANCH  23  24
ENDBRANCH  22  23
ENDBRANCH  21  22
ENDBRANCH  20  21
ENDBRANCH  19  20
ENDBRANCH  18  19
ENDBRANCH  17  18
ENDBRANCH   1  17
TORSDOF 26
ENDMDL
