MODEL 1
REMARK VINA RESULT:    -7.043      0.000      0.000
REMARK INTER + INTRA:          -8.818
REMARK INTER:                  -8.483
REMARK INTRA:                  -0.334
REMARK UNBOUND:                -0.334
REMARK SMILES O=c1c(O)c(-c2ccc(O)cc2O)oc2cc(O)cc(O)c12
REMARK SMILES IDX 5 1 3 2 2 3 1 4 22 5 20 6 19 7 17 8 16 9 15 10 14 11 6 12
REMARK SMILES IDX 8 13 7 14 9 15 11 16 12 17 10 18 13 20 4 22 21 24 18 26
REMARK H PARENT 10 19 13 21 4 23 21 25 18 27
REMARK Flexibility Score: inf
ROOT
ATOM      1  C   UNL     1      18.441  24.450  41.789  1.00  0.00     0.184 A 
ATOM      2  C   UNL     1      17.158  24.205  42.309  1.00  0.00     0.208 A 
ATOM      3  C   UNL     1      16.715  24.956  43.410  1.00  0.00     0.238 A 
ATOM      4  O   UNL     1      15.545  24.770  43.835  1.00  0.00    -0.285 OA
ATOM      5  C   UNL     1      17.567  25.926  43.989  1.00  0.00     0.111 A 
ATOM      6  C   UNL     1      17.237  26.715  45.132  1.00  0.00     0.134 A 
ATOM      7  C   UNL     1      18.106  27.735  45.541  1.00  0.00     0.093 A 
ATOM      8  C   UNL     1      19.323  27.949  44.889  1.00  0.00     0.123 A 
ATOM      9  C   UNL     1      19.680  27.145  43.809  1.00  0.00     0.094 A 
ATOM     10  C   UNL     1      18.818  26.144  43.356  1.00  0.00     0.146 A 
ATOM     11  O   UNL     1      19.193  25.408  42.316  1.00  0.00    -0.451 OA
ENDROOT
BRANCH   1  12
ATOM     12  C   UNL     1      18.979  23.679  40.645  1.00  0.00     0.063 A 
ATOM     13  C   UNL     1      20.529  22.024  39.759  1.00  0.00     0.047 A 
ATOM     14  C   UNL     1      20.000  22.731  40.842  1.00  0.00     0.020 A 
ATOM     15  C   UNL     1      20.054  22.260  38.464  1.00  0.00     0.119 A 
ATOM     16  C   UNL     1      19.051  23.210  38.256  1.00  0.00     0.093 A 
ATOM     17  C   UNL     1      18.512  23.924  39.337  1.00  0.00     0.130 A 
BRANCH  15  18
ATOM     18  O   UNL     1      20.574  21.560  37.378  1.00  0.00    -0.508 OA
ATOM     19  H   UNL     1      21.539  21.672  37.089  1.00  0.00     0.293 HD
ENDBRANCH  15  18
BRANCH  17  20
ATOM     20  O   UNL     1      17.505  24.864  39.116  1.00  0.00    -0.507 OA
ATOM     21  H   UNL     1      17.310  25.601  39.784  1.00  0.00     0.293 HD
ENDBRANCH  17  20
ENDBRANCH   1  12
BRANCH   2  22
ATOM     22  O   UNL     1      16.330  23.251  41.711  1.00  0.00    -0.502 OA
ATOM     23  H   UNL     1      16.643  22.309  41.510  1.00  0.00     0.293 HD
ENDBRANCH   2  22
BRANCH   6  24
ATOM     24  O   UNL     1      16.092  26.523  45.909  1.00  0.00    -0.507 OA
ATOM     25  H   UNL     1      15.145  26.618  45.573  1.00  0.00     0.293 HD
ENDBRANCH   6  24
BRANCH   8  26
ATOM     26  O   UNL     1      20.188  28.956  45.313  1.00  0.00    -0.508 OA
ATOM     27  H   UNL     1      20.952  28.765  45.949  1.00  0.00     0.293 HD
ENDBRANCH   8  26
TORSDOF 6
ENDMDL
MODEL 2
REMARK VINA RESULT:    -6.552      1.204      2.817
REMARK INTER + INTRA:          -8.227
REMARK INTER:                  -7.827
REMARK INTRA:                  -0.400
REMARK UNBOUND:                -0.334
REMARK SMILES O=c1c(O)c(-c2ccc(O)cc2O)oc2cc(O)cc(O)c12
REMARK SMILES IDX 5 1 3 2 2 3 1 4 22 5 20 6 19 7 17 8 16 9 15 10 14 11 6 12
REMARK SMILES IDX 8 13 7 14 9 15 11 16 12 17 10 18 13 20 4 22 21 24 18 26
REMARK H PARENT 10 19 13 21 4 23 21 25 18 27
REMARK Flexibility Score: inf
ROOT
ATOM      1  C   UNL     1      19.153  24.771  41.528  1.00  0.00     0.184 A 
ATOM      2  C   UNL     1      19.936  25.919  41.740  1.00  0.00     0.208 A 
ATOM      3  C   UNL     1      19.648  26.748  42.836  1.00  0.00     0.238 A 
ATOM      4  O   UNL     1      20.388  27.742  43.052  1.00  0.00    -0.285 OA
ATOM      5  C   UNL     1      18.568  26.429  43.695  1.00  0.00     0.111 A 
ATOM      6  C   UNL     1      18.161  27.220  44.811  1.00  0.00     0.134 A 
ATOM      7  C   UNL     1      17.160  26.742  45.667  1.00  0.00     0.093 A 
ATOM      8  C   UNL     1      16.506  25.535  45.407  1.00  0.00     0.123 A 
ATOM      9  C   UNL     1      16.857  24.785  44.287  1.00  0.00     0.094 A 
ATOM     10  C   UNL     1      17.876  25.218  43.436  1.00  0.00     0.146 A 
ATOM     11  O   UNL     1      18.185  24.467  42.385  1.00  0.00    -0.451 OA
ENDROOT
BRANCH   1  12
ATOM     12  C   UNL     1      19.387  23.868  40.379  1.00  0.00     0.063 A 
ATOM     13  C   UNL     1      20.499  21.931  39.411  1.00  0.00     0.047 A 
ATOM     14  C   UNL     1      20.255  22.768  40.502  1.00  0.00     0.020 A 
ATOM     15  C   UNL     1      19.888  22.186  38.178  1.00  0.00     0.119 A 
ATOM     16  C   UNL     1      19.035  23.284  38.041  1.00  0.00     0.093 A 
ATOM     17  C   UNL     1      18.782  24.129  39.131  1.00  0.00     0.130 A 
BRANCH  15  18
ATOM     18  O   UNL     1      20.124  21.358  37.083  1.00  0.00    -0.508 OA
ATOM     19  H   UNL     1      21.051  21.252  36.689  1.00  0.00     0.293 HD
ENDBRANCH  15  18
BRANCH  17  20
ATOM     20  O   UNL     1      17.923  25.218  38.983  1.00  0.00    -0.507 OA
ATOM     21  H   UNL     1      18.127  26.117  39.404  1.00  0.00     0.293 HD
ENDBRANCH  17  20
ENDBRANCH   1  12
BRANCH   2  22
ATOM     22  O   UNL     1      21.005  26.205  40.886  1.00  0.00    -0.502 OA
ATOM     23  H   UNL     1      21.576  25.480  40.470  1.00  0.00     0.293 HD
ENDBRANCH   2  22
BRANCH   6  24
ATOM     24  O   UNL     1      18.684  28.481  45.107  1.00  0.00    -0.507 OA
ATOM     25  H   UNL     1      19.553  28.645  45.592  1.00  0.00     0.293 HD
ENDBRANCH   6  24
BRANCH   8  26
ATOM     26  O   UNL     1      15.501  25.075  46.255  1.00  0.00    -0.508 OA
ATOM     27  H   UNL     1      14.527  25.082  45.976  1.00  0.00     0.293 HD
ENDBRANCH   8  26
TORSDOF 6
ENDMDL
MODEL 3
REMARK VINA RESULT:    -6.529      1.533      6.636
REMARK INTER + INTRA:          -8.199
REMARK INTER:                  -7.770
REMARK INTRA:                  -0.428
REMARK UNBOUND:                -0.334
REMARK SMILES O=c1c(O)c(-c2ccc(O)cc2O)oc2cc(O)cc(O)c12
REMARK SMILES IDX 5 1 3 2 2 3 1 4 22 5 20 6 19 7 17 8 16 9 15 10 14 11 6 12
REMARK SMILES IDX 8 13 7 14 9 15 11 16 12 17 10 18 13 20 4 22 21 24 18 26
REMARK H PARENT 10 19 13 21 4 23 21 25 18 27
REMARK Flexibility Score: inf
ROOT
ATOM      1  C   UNL     1      17.332  25.080  42.436  1.00  0.00     0.184 A 
ATOM      2  C   UNL     1      16.532  25.416  41.330  1.00  0.00     0.208 A 
ATOM      3  C   UNL     1      16.880  24.924  40.062  1.00  0.00     0.238 A 
ATOM      4  O   UNL     1      16.128  25.183  39.087  1.00  0.00    -0.285 OA
ATOM      5  C   UNL     1      18.035  24.120  39.912  1.00  0.00     0.111 A 
ATOM      6  C   UNL     1      18.505  23.600  38.668  1.00  0.00     0.134 A 
ATOM      7  C   UNL     1      19.586  22.711  38.656  1.00  0.00     0.093 A 
ATOM      8  C   UNL     1      20.255  22.373  39.835  1.00  0.00     0.123 A 
ATOM      9  C   UNL     1      19.840  22.921  41.047  1.00  0.00     0.094 A 
ATOM     10  C   UNL     1      18.743  23.783  41.095  1.00  0.00     0.146 A 
ATOM     11  O   UNL     1      18.375  24.274  42.273  1.00  0.00    -0.451 OA
ENDROOT
BRANCH   1  12
ATOM     12  C   UNL     1      17.036  25.584  43.796  1.00  0.00     0.063 A 
ATOM     13  C   UNL     1      15.680  25.529  45.817  1.00  0.00     0.047 A 
ATOM     14  C   UNL     1      15.978  25.036  44.544  1.00  0.00     0.020 A 
ATOM     15  C   UNL     1      16.425  26.584  46.356  1.00  0.00     0.119 A 
ATOM     16  C   UNL     1      17.469  27.145  45.615  1.00  0.00     0.093 A 
ATOM     17  C   UNL     1      17.778  26.655  44.337  1.00  0.00     0.130 A 
BRANCH  15  18
ATOM     18  O   UNL     1      16.136  27.083  47.623  1.00  0.00    -0.508 OA
ATOM     19  H   UNL     1      15.198  27.366  47.880  1.00  0.00     0.293 HD
ENDBRANCH  15  18
BRANCH  17  20
ATOM     20  O   UNL     1      18.826  27.220  43.611  1.00  0.00    -0.507 OA
ATOM     21  H   UNL     1      19.221  28.119  43.859  1.00  0.00     0.293 HD
ENDBRANCH  17  20
ENDBRANCH   1  12
BRANCH   2  22
ATOM     22  O   UNL     1      15.389  26.202  41.506  1.00  0.00    -0.502 OA
ATOM     23  H   UNL     1      14.882  26.605  40.728  1.00  0.00     0.293 HD
ENDBRANCH   2  22
BRANCH   6  24
ATOM     24  O   UNL     1      17.967  23.945  37.425  1.00  0.00    -0.507 OA
ATOM     25  H   UNL     1      18.447  24.484  36.720  1.00  0.00     0.293 HD
ENDBRANCH   6  24
BRANCH   8  26
ATOM     26  O   UNL     1      21.340  21.498  39.811  1.00  0.00    -0.508 OA
ATOM     27  H   UNL     1      21.837  21.294  38.952  1.00  0.00     0.293 HD
ENDBRANCH   8  26
TORSDOF 6
ENDMDL
MODEL 4
REMARK VINA RESULT:    -6.364      1.591      3.215
REMARK INTER + INTRA:          -8.001
REMARK INTER:                  -7.700
REMARK INTRA:                  -0.301
REMARK UNBOUND:                -0.334
REMARK SMILES O=c1c(O)c(-c2ccc(O)cc2O)oc2cc(O)cc(O)c12
REMARK SMILES IDX 5 1 3 2 2 3 1 4 22 5 20 6 19 7 17 8 16 9 15 10 14 11 6 12
REMARK SMILES IDX 8 13 7 14 9 15 11 16 12 17 10 18 13 20 4 22 21 24 18 26
REMARK H PARENT 10 19 13 21 4 23 21 25 18 27
REMARK Flexibility Score: inf
ROOT
ATOM      1  C   UNL     1      18.769  24.997  41.123  1.00  0.00     0.184 A 
ATOM      2  C   UNL     1      19.779  25.958  41.302  1.00  0.00     0.208 A 
ATOM      3  C   UNL     1      19.817  26.692  42.498  1.00  0.00     0.238 A 
ATOM      4  O   UNL     1      20.757  27.510  42.675  1.00  0.00    -0.285 OA
ATOM      5  C   UNL     1      18.833  26.470  43.491  1.00  0.00     0.111 A 
ATOM      6  C   UNL     1      18.752  27.185  44.724  1.00  0.00     0.134 A 
ATOM      7  C   UNL     1      17.813  26.795  45.688  1.00  0.00     0.093 A 
ATOM      8  C   UNL     1      16.910  25.758  45.436  1.00  0.00     0.123 A 
ATOM      9  C   UNL     1      16.944  25.094  44.212  1.00  0.00     0.094 A 
ATOM     10  C   UNL     1      17.892  25.437  43.246  1.00  0.00     0.146 A 
ATOM     11  O   UNL     1      17.896  24.770  42.098  1.00  0.00    -0.451 OA
ENDROOT
BRANCH   1  12
ATOM     12  C   UNL     1      18.657  24.205  39.877  1.00  0.00     0.063 A 
ATOM     13  C   UNL     1      17.437  23.616  37.854  1.00  0.00     0.047 A 
ATOM     14  C   UNL     1      17.559  24.383  39.016  1.00  0.00     0.020 A 
ATOM     15  C   UNL     1      18.404  22.654  37.541  1.00  0.00     0.119 A 
ATOM     16  C   UNL     1      19.490  22.459  38.398  1.00  0.00     0.093 A 
ATOM     17  C   UNL     1      19.623  23.225  39.565  1.00  0.00     0.130 A 
BRANCH  15  18
ATOM     18  O   UNL     1      18.292  21.884  36.386  1.00  0.00    -0.508 OA
ATOM     19  H   UNL     1      17.403  21.758  35.917  1.00  0.00     0.293 HD
ENDBRANCH  15  18
BRANCH  17  20
ATOM     20  O   UNL     1      20.716  23.025  40.408  1.00  0.00    -0.507 OA
ATOM     21  H   UNL     1      20.606  22.945  41.412  1.00  0.00     0.293 HD
ENDBRANCH  17  20
ENDBRANCH   1  12
BRANCH   2  22
ATOM     22  O   UNL     1      20.747  26.149  40.312  1.00  0.00    -0.502 OA
ATOM     23  H   UNL     1      20.516  26.471  39.381  1.00  0.00     0.293 HD
ENDBRANCH   2  22
BRANCH   6  24
ATOM     24  O   UNL     1      19.543  28.294  45.038  1.00  0.00    -0.507 OA
ATOM     25  H   UNL     1      20.025  28.427  45.914  1.00  0.00     0.293 HD
ENDBRANCH   6  24
BRANCH   8  26
ATOM     26  O   UNL     1      15.970  25.387  46.395  1.00  0.00    -0.508 OA
ATOM     27  H   UNL     1      15.038  25.783  46.404  1.00  0.00     0.293 HD
ENDBRANCH   8  26
TORSDOF 6
ENDMDL
MODEL 5
REMARK VINA RESULT:    -6.116      3.288      5.380
REMARK INTER + INTRA:          -7.701
REMARK INTER:                  -7.372
REMARK INTRA:                  -0.329
REMARK UNBOUND:                -0.334
REMARK SMILES O=c1c(O)c(-c2ccc(O)cc2O)oc2cc(O)cc(O)c12
REMARK SMILES IDX 5 1 3 2 2 3 1 4 22 5 20 6 19 7 17 8 16 9 15 10 14 11 6 12
REMARK SMILES IDX 8 13 7 14 9 15 11 16 12 17 10 18 13 20 4 22 21 24 18 26
REMARK H PARENT 10 19 13 21 4 23 21 25 18 27
REMARK Flexibility Score: inf
ROOT
ATOM      1  C   UNL     1      17.641  26.149  44.843  1.00  0.00     0.184 A 
ATOM      2  C   UNL     1      17.206  27.113  45.768  1.00  0.00     0.208 A 
ATOM      3  C   UNL     1      16.486  26.696  46.899  1.00  0.00     0.238 A 
ATOM      4  O   UNL     1      16.149  27.558  47.752  1.00  0.00    -0.285 OA
ATOM      5  C   UNL     1      16.193  25.323  47.080  1.00  0.00     0.111 A 
ATOM      6  C   UNL     1      15.436  24.793  48.168  1.00  0.00     0.134 A 
ATOM      7  C   UNL     1      15.317  23.405  48.315  1.00  0.00     0.093 A 
ATOM      8  C   UNL     1      15.871  22.531  47.376  1.00  0.00     0.123 A 
ATOM      9  C   UNL     1      16.562  23.041  46.279  1.00  0.00     0.094 A 
ATOM     10  C   UNL     1      16.728  24.419  46.125  1.00  0.00     0.146 A 
ATOM     11  O   UNL     1      17.403  24.862  45.071  1.00  0.00    -0.451 OA
ENDROOT
BRANCH   1  12
ATOM     12  C   UNL     1      18.383  26.522  43.617  1.00  0.00     0.063 A 
ATOM     13  C   UNL     1      18.487  26.728  41.194  1.00  0.00     0.047 A 
ATOM     14  C   UNL     1      17.778  26.403  42.353  1.00  0.00     0.020 A 
ATOM     15  C   UNL     1      19.813  27.165  41.279  1.00  0.00     0.119 A 
ATOM     16  C   UNL     1      20.429  27.272  42.529  1.00  0.00     0.093 A 
ATOM     17  C   UNL     1      19.725  26.951  43.699  1.00  0.00     0.130 A 
BRANCH  15  18
ATOM     18  O   UNL     1      20.530  27.491  40.130  1.00  0.00    -0.508 OA
ATOM     19  H   UNL     1      21.496  27.211  40.011  1.00  0.00     0.293 HD
ENDBRANCH  15  18
BRANCH  17  20
ATOM     20  O   UNL     1      20.349  27.069  44.941  1.00  0.00    -0.507 OA
ATOM     21  H   UNL     1      20.606  26.255  45.486  1.00  0.00     0.293 HD
ENDBRANCH  17  20
ENDBRANCH   1  12
BRANCH   2  22
ATOM     22  O   UNL     1      17.519  28.461  45.574  1.00  0.00    -0.502 OA
ATOM     23  H   UNL     1      17.237  28.971  44.746  1.00  0.00     0.293 HD
ENDBRANCH   2  22
BRANCH   6  24
ATOM     24  O   UNL     1      14.765  25.579  49.109  1.00  0.00    -0.507 OA
ATOM     25  H   UNL     1      14.122  26.323  48.883  1.00  0.00     0.293 HD
ENDBRANCH   6  24
BRANCH   8  26
ATOM     26  O   UNL     1      15.734  21.152  47.522  1.00  0.00    -0.508 OA
ATOM     27  H   UNL     1      15.015  20.636  47.029  1.00  0.00     0.293 HD
ENDBRANCH   8  26
TORSDOF 6
ENDMDL
MODEL 6
REMARK VINA RESULT:    -6.075      3.256      6.005
REMARK INTER + INTRA:          -7.653
REMARK INTER:                  -7.234
REMARK INTRA:                  -0.419
REMARK UNBOUND:                -0.334
REMARK SMILES O=c1c(O)c(-c2ccc(O)cc2O)oc2cc(O)cc(O)c12
REMARK SMILES IDX 5 1 3 2 2 3 1 4 22 5 20 6 19 7 17 8 16 9 15 10 14 11 6 12
REMARK SMILES IDX 8 13 7 14 9 15 11 16 12 17 10 18 13 20 4 22 21 24 18 26
REMARK H PARENT 10 19 13 21 4 23 21 25 18 27
REMARK Flexibility Score: inf
ROOT
ATOM      1  C   UNL     1      16.953  23.771  43.137  1.00  0.00     0.184 A 
ATOM      2  C   UNL     1      15.593  23.947  42.831  1.00  0.00     0.208 A 
ATOM      3  C   UNL     1      14.711  22.867  43.001  1.00  0.00     0.238 A 
ATOM      4  O   UNL     1      13.485  23.048  42.779  1.00  0.00    -0.285 OA
ATOM      5  C   UNL     1      15.205  21.620  43.454  1.00  0.00     0.111 A 
ATOM      6  C   UNL     1      14.409  20.447  43.624  1.00  0.00     0.134 A 
ATOM      7  C   UNL     1      14.978  19.305  44.200  1.00  0.00     0.093 A 
ATOM      8  C   UNL     1      16.330  19.272  44.552  1.00  0.00     0.123 A 
ATOM      9  C   UNL     1      17.128  20.393  44.336  1.00  0.00     0.094 A 
ATOM     10  C   UNL     1      16.580  21.559  43.796  1.00  0.00     0.146 A 
ATOM     11  O   UNL     1      17.375  22.608  43.618  1.00  0.00    -0.451 OA
ENDROOT
BRANCH   1  12
ATOM     12  C   UNL     1      17.940  24.860  42.958  1.00  0.00     0.063 A 
ATOM     13  C   UNL     1      19.585  26.012  41.582  1.00  0.00     0.047 A 
ATOM     14  C   UNL     1      18.633  25.002  41.742  1.00  0.00     0.020 A 
ATOM     15  C   UNL     1      19.867  26.887  42.637  1.00  0.00     0.119 A 
ATOM     16  C   UNL     1      19.196  26.745  43.854  1.00  0.00     0.093 A 
ATOM     17  C   UNL     1      18.236  25.736  44.024  1.00  0.00     0.130 A 
BRANCH  15  18
ATOM     18  O   UNL     1      20.815  27.897  42.488  1.00  0.00    -0.508 OA
ATOM     19  H   UNL     1      21.061  28.262  41.576  1.00  0.00     0.293 HD
ENDBRANCH  15  18
BRANCH  17  20
ATOM     20  O   UNL     1      17.568  25.610  45.242  1.00  0.00    -0.507 OA
ATOM     21  H   UNL     1      18.020  25.831  46.121  1.00  0.00     0.293 HD
ENDBRANCH  17  20
ENDBRANCH   1  12
BRANCH   2  22
ATOM     22  O   UNL     1      15.127  25.191  42.397  1.00  0.00    -0.502 OA
ATOM     23  H   UNL     1      14.461  25.738  42.929  1.00  0.00     0.293 HD
ENDBRANCH   2  22
BRANCH   6  24
ATOM     24  O   UNL     1      13.075  20.344  43.221  1.00  0.00    -0.507 OA
ATOM     25  H   UNL     1      12.654  20.884  42.479  1.00  0.00     0.293 HD
ENDBRANCH   6  24
BRANCH   8  26
ATOM     26  O   UNL     1      16.890  18.126  45.111  1.00  0.00    -0.508 OA
ATOM     27  H   UNL     1      17.597  18.180  45.835  1.00  0.00     0.293 HD
ENDBRANCH   8  26
TORSDOF 6
ENDMDL
MODEL 7
REMARK VINA RESULT:    -6.069      1.680      3.431
REMARK INTER + INTRA:          -7.645
REMARK INTER:                  -7.164
REMARK INTRA:                  -0.481
REMARK UNBOUND:                -0.334
REMARK SMILES O=c1c(O)c(-c2ccc(O)cc2O)oc2cc(O)cc(O)c12
REMARK SMILES IDX 5 1 3 2 2 3 1 4 22 5 20 6 19 7 17 8 16 9 15 10 14 11 6 12
REMARK SMILES IDX 8 13 7 14 9 15 11 16 12 17 10 18 13 20 4 22 21 24 18 26
REMARK H PARENT 10 19 13 21 4 23 21 25 18 27
REMARK Flexibility Score: inf
ROOT
ATOM      1  C   UNL     1      18.516  25.542  41.824  1.00  0.00     0.184 A 
ATOM      2  C   UNL     1      19.316  26.410  42.585  1.00  0.00     0.208 A 
ATOM      3  C   UNL     1      18.890  26.778  43.871  1.00  0.00     0.238 A 
ATOM      4  O   UNL     1      19.638  27.511  44.569  1.00  0.00    -0.285 OA
ATOM      5  C   UNL     1      17.659  26.289  44.371  1.00  0.00     0.111 A 
ATOM      6  C   UNL     1      17.109  26.629  45.644  1.00  0.00     0.134 A 
ATOM      7  C   UNL     1      15.947  25.986  46.088  1.00  0.00     0.093 A 
ATOM      8  C   UNL     1      15.279  25.065  45.277  1.00  0.00     0.123 A 
ATOM      9  C   UNL     1      15.776  24.771  44.010  1.00  0.00     0.094 A 
ATOM     10  C   UNL     1      16.952  25.369  43.554  1.00  0.00     0.146 A 
ATOM     11  O   UNL     1      17.397  25.052  42.343  1.00  0.00    -0.451 OA
ENDROOT
BRANCH   1  12
ATOM     12  C   UNL     1      18.895  25.132  40.452  1.00  0.00     0.063 A 
ATOM     13  C   UNL     1      19.085  25.634  38.078  1.00  0.00     0.047 A 
ATOM     14  C   UNL     1      18.755  26.028  39.376  1.00  0.00     0.020 A 
ATOM     15  C   UNL     1      19.550  24.337  37.832  1.00  0.00     0.119 A 
ATOM     16  C   UNL     1      19.678  23.434  38.892  1.00  0.00     0.093 A 
ATOM     17  C   UNL     1      19.352  23.822  40.200  1.00  0.00     0.130 A 
BRANCH  15  18
ATOM     18  O   UNL     1      19.881  23.933  36.541  1.00  0.00    -0.508 OA
ATOM     19  H   UNL     1      20.287  24.577  35.873  1.00  0.00     0.293 HD
ENDBRANCH  15  18
BRANCH  17  20
ATOM     20  O   UNL     1      19.492  22.913  41.249  1.00  0.00    -0.507 OA
ATOM     21  H   UNL     1      20.045  22.070  41.151  1.00  0.00     0.293 HD
ENDBRANCH  17  20
ENDBRANCH   1  12
BRANCH   2  22
ATOM     22  O   UNL     1      20.534  26.869  42.075  1.00  0.00    -0.502 OA
ATOM     23  H   UNL     1      20.758  27.854  42.007  1.00  0.00     0.293 HD
ENDBRANCH   2  22
BRANCH   6  24
ATOM     24  O   UNL     1      17.646  27.602  46.492  1.00  0.00    -0.507 OA
ATOM     25  H   UNL     1      17.103  28.204  47.093  1.00  0.00     0.293 HD
ENDBRANCH   6  24
BRANCH   8  26
ATOM     26  O   UNL     1      14.115  24.441  45.721  1.00  0.00    -0.508 OA
ATOM     27  H   UNL     1      13.783  24.553  46.672  1.00  0.00     0.293 HD
ENDBRANCH   8  26
TORSDOF 6
ENDMDL
MODEL 8
REMARK VINA RESULT:    -6.059      4.129      7.371
REMARK INTER + INTRA:          -7.633
REMARK INTER:                  -7.327
REMARK INTRA:                  -0.307
REMARK UNBOUND:                -0.334
REMARK SMILES O=c1c(O)c(-c2ccc(O)cc2O)oc2cc(O)cc(O)c12
REMARK SMILES IDX 5 1 3 2 2 3 1 4 22 5 20 6 19 7 17 8 16 9 15 10 14 11 6 12
REMARK SMILES IDX 8 13 7 14 9 15 11 16 12 17 10 18 13 20 4 22 21 24 18 26
REMARK H PARENT 10 19 13 21 4 23 21 25 18 27
REMARK Flexibility Score: inf
ROOT
ATOM      1  C   UNL     1      16.883  23.785  45.671  1.00  0.00     0.184 A 
ATOM      2  C   UNL     1      16.510  23.122  44.490  1.00  0.00     0.208 A 
ATOM      3  C   UNL     1      16.321  21.731  44.520  1.00  0.00     0.238 A 
ATOM      4  O   UNL     1      15.933  21.151  43.472  1.00  0.00    -0.285 OA
ATOM      5  C   UNL     1      16.527  21.019  45.726  1.00  0.00     0.111 A 
ATOM      6  C   UNL     1      16.404  19.603  45.862  1.00  0.00     0.134 A 
ATOM      7  C   UNL     1      16.505  19.020  47.131  1.00  0.00     0.093 A 
ATOM      8  C   UNL     1      16.791  19.794  48.259  1.00  0.00     0.123 A 
ATOM      9  C   UNL     1      16.971  21.169  48.127  1.00  0.00     0.094 A 
ATOM     10  C   UNL     1      16.841  21.783  46.880  1.00  0.00     0.146 A 
ATOM     11  O   UNL     1      17.009  23.098  46.801  1.00  0.00    -0.451 OA
ENDROOT
BRANCH   1  12
ATOM     12  C   UNL     1      17.121  25.246  45.704  1.00  0.00     0.063 A 
ATOM     13  C   UNL     1      18.284  27.214  44.867  1.00  0.00     0.047 A 
ATOM     14  C   UNL     1      18.038  25.839  44.818  1.00  0.00     0.020 A 
ATOM     15  C   UNL     1      17.628  28.014  45.809  1.00  0.00     0.119 A 
ATOM     16  C   UNL     1      16.726  27.432  46.704  1.00  0.00     0.093 A 
ATOM     17  C   UNL     1      16.470  26.054  46.661  1.00  0.00     0.130 A 
BRANCH  15  18
ATOM     18  O   UNL     1      17.867  29.384  45.866  1.00  0.00    -0.508 OA
ATOM     19  H   UNL     1      18.807  29.756  45.931  1.00  0.00     0.293 HD
ENDBRANCH  15  18
BRANCH  17  20
ATOM     20  O   UNL     1      15.562  25.487  47.556  1.00  0.00    -0.507 OA
ATOM     21  H   UNL     1      15.827  24.728  48.173  1.00  0.00     0.293 HD
ENDBRANCH  17  20
ENDBRANCH   1  12
BRANCH   2  22
ATOM     22  O   UNL     1      16.300  23.849  43.315  1.00  0.00    -0.502 OA
ATOM     23  H   UNL     1      16.712  24.760  43.158  1.00  0.00     0.293 HD
ENDBRANCH   2  22
BRANCH   6  24
ATOM     24  O   UNL     1      16.210  18.729  44.788  1.00  0.00    -0.507 OA
ATOM     25  H   UNL     1      16.894  18.066  44.456  1.00  0.00     0.293 HD
ENDBRANCH   6  24
BRANCH   8  26
ATOM     26  O   UNL     1      16.905  19.203  49.516  1.00  0.00    -0.508 OA
ATOM     27  H   UNL     1      17.198  18.239  49.623  1.00  0.00     0.293 HD
ENDBRANCH   8  26
TORSDOF 6
ENDMDL
MODEL 9
REMARK VINA RESULT:    -6.019      4.440      5.631
REMARK INTER + INTRA:          -7.585
REMARK INTER:                  -7.301
REMARK INTRA:                  -0.284
REMARK UNBOUND:                -0.334
REMARK SMILES O=c1c(O)c(-c2ccc(O)cc2O)oc2cc(O)cc(O)c12
REMARK SMILES IDX 5 1 3 2 2 3 1 4 22 5 20 6 19 7 17 8 16 9 15 10 14 11 6 12
REMARK SMILES IDX 8 13 7 14 9 15 11 16 12 17 10 18 13 20 4 22 21 24 18 26
REMARK H PARENT 10 19 13 21 4 23 21 25 18 27
REMARK Flexibility Score: inf
ROOT
ATOM      1  C   UNL     1      16.322  22.966  46.004  1.00  0.00     0.184 A 
ATOM      2  C   UNL     1      15.389  23.516  46.900  1.00  0.00     0.208 A 
ATOM      3  C   UNL     1      15.429  24.895  47.163  1.00  0.00     0.238 A 
ATOM      4  O   UNL     1      14.556  25.390  47.923  1.00  0.00    -0.285 OA
ATOM      5  C   UNL     1      16.414  25.701  46.543  1.00  0.00     0.111 A 
ATOM      6  C   UNL     1      16.572  27.102  46.769  1.00  0.00     0.134 A 
ATOM      7  C   UNL     1      17.498  27.824  46.005  1.00  0.00     0.093 A 
ATOM      8  C   UNL     1      18.316  27.183  45.070  1.00  0.00     0.123 A 
ATOM      9  C   UNL     1      18.209  25.807  44.886  1.00  0.00     0.094 A 
ATOM     10  C   UNL     1      17.270  25.066  45.608  1.00  0.00     0.146 A 
ATOM     11  O   UNL     1      17.194  23.758  45.392  1.00  0.00    -0.451 OA
ENDROOT
BRANCH   1  12
ATOM     12  C   UNL     1      16.350  21.517  45.700  1.00  0.00     0.063 A 
ATOM     13  C   UNL     1      15.916  19.673  44.170  1.00  0.00     0.047 A 
ATOM     14  C   UNL     1      15.916  21.042  44.449  1.00  0.00     0.020 A 
ATOM     15  C   UNL     1      16.340  18.758  45.140  1.00  0.00     0.119 A 
ATOM     16  C   UNL     1      16.760  19.218  46.391  1.00  0.00     0.093 A 
ATOM     17  C   UNL     1      16.765  20.590  46.679  1.00  0.00     0.130 A 
BRANCH  15  18
ATOM     18  O   UNL     1      16.344  17.391  44.873  1.00  0.00    -0.508 OA
ATOM     19  H   UNL     1      17.207  16.883  44.722  1.00  0.00     0.293 HD
ENDBRANCH  15  18
BRANCH  17  20
ATOM     20  O   UNL     1      17.194  21.036  47.930  1.00  0.00    -0.507 OA
ATOM     21  H   UNL     1      17.056  21.995  48.228  1.00  0.00     0.293 HD
ENDBRANCH  17  20
ENDBRANCH   1  12
BRANCH   2  22
ATOM     22  O   UNL     1      14.418  22.701  47.489  1.00  0.00    -0.502 OA
ATOM     23  H   UNL     1      14.627  22.079  48.260  1.00  0.00     0.293 HD
ENDBRANCH   2  22
BRANCH   6  24
ATOM     24  O   UNL     1      15.871  27.821  47.741  1.00  0.00    -0.507 OA
ATOM     25  H   UNL     1      16.236  28.068  48.648  1.00  0.00     0.293 HD
ENDBRANCH   6  24
BRANCH   8  26
ATOM     26  O   UNL     1      19.245  27.906  44.325  1.00  0.00    -0.508 OA
ATOM     27  H   UNL     1      18.956  28.614  43.661  1.00  0.00     0.293 HD
ENDBRANCH   8  26
TORSDOF 6
ENDMDL
