MODEL 1
REMARK VINA RESULT:    -2.154      0.000      0.000
REMARK INTER + INTRA:          -9.540
REMARK INTER:                  -4.925
REMARK INTRA:                  -4.615
REMARK UNBOUND:                -4.615
REMARK SMILES CCCCCCCCCCCCCCCCCCCCCCCC(=O)[O-]
REMARK SMILES IDX 13 1 14 2 15 3 16 4 17 5 18 6 19 7 20 8 21 9 22 10 23 11
REMARK SMILES IDX 24 12 25 13 26 14 12 15 11 16 10 17 9 18 8 19 7 20 6 21 5 22
REMARK SMILES IDX 4 23 3 24 2 25 1 26
REMARK H PARENT
REMARK Flexibility Score: inf
ROOT
ATOM      1  C   UNL     1       0.364   5.094   9.557  1.00  0.00     0.000 C 
ENDROOT
BRANCH   1   2
ATOM      2  C   UNL     1      -0.430   6.391   9.317  1.00  0.00     0.000 C 
BRANCH   2   3
ATOM      3  C   UNL     1      -1.750   6.149   8.570  1.00  0.00     0.000 C 
BRANCH   3   4
ATOM      4  C   UNL     1      -2.262   4.707   8.722  1.00  0.00     0.000 C 
BRANCH   4   5
ATOM      5  C   UNL     1      -3.441   4.609   9.713  1.00  0.00     0.000 C 
BRANCH   5   6
ATOM      6  C   UNL     1      -3.010   4.229  11.140  1.00  0.00     0.000 C 
BRANCH   6   7
ATOM      7  C   UNL     1      -3.447   5.264  12.190  1.00  0.00     0.000 C 
BRANCH   7   8
ATOM      8  C   UNL     1      -2.360   6.308  12.487  1.00  0.00     0.000 C 
BRANCH   8   9
ATOM      9  C   UNL     1      -2.742   7.716  11.999  1.00  0.00     0.000 C 
BRANCH   9  10
ATOM     10  C   UNL     1      -4.167   7.787  11.420  1.00  0.00     0.006 C 
BRANCH  10  11
ATOM     11  C   UNL     1      -4.237   8.368   9.997  1.00  0.00     0.053 C 
BRANCH  11  12
ATOM     12  C   UNL     1      -5.247   7.670   9.138  1.00  0.00     0.041 C 
ATOM     13  O   UNL     1      -5.030   7.509   7.908  1.00  0.00    -0.550 OA
ATOM     14  O   UNL     1      -6.442   7.219   9.689  1.00  0.00    -0.550 OA
ENDBRANCH  11  12
ENDBRANCH  10  11
ENDBRANCH   9  10
ENDBRANCH   8   9
ENDBRANCH   7   8
ENDBRANCH   6   7
ENDBRANCH   5   6
ENDBRANCH   4   5
ENDBRANCH   3   4
ENDBRANCH   2   3
ENDBRANCH   1   2
BRANCH   1  15
ATOM     15  C   UNL     1       0.673   4.856  11.044  1.00  0.00     0.000 C 
BRANCH  15  16
ATOM     16  C   UNL     1       0.571   3.375  11.444  1.00  0.00     0.000 C 
BRANCH  16  17
ATOM     17  C   UNL     1       0.218   2.461  10.258  1.00  0.00     0.000 C 
BRANCH  17  18
ATOM     18  C   UNL     1       1.204   1.290  10.059  1.00  0.00    -0.000 C 
BRANCH  18  19
ATOM     19  C   UNL     1       2.669   1.732  10.217  1.00  0.00    -0.000 C 
BRANCH  19  20
ATOM     20  C   UNL     1       3.500   1.501   8.942  1.00  0.00    -0.000 C 
BRANCH  20  21
ATOM     21  C   UNL     1       3.687   2.747   8.052  1.00  0.00    -0.000 C 
BRANCH  21  22
ATOM     22  C   UNL     1       3.745   4.088   8.807  1.00  0.00    -0.000 C 
BRANCH  22  23
ATOM     23  C   UNL     1       5.183   4.552   9.090  1.00  0.00    -0.000 C 
BRANCH  23  24
ATOM     24  C   UNL     1       5.475   4.550  10.595  1.00  0.00    -0.000 C 
BRANCH  24  25
ATOM     25  C   UNL     1       4.238   4.983  11.392  1.00  0.00    -0.003 C 
ATOM     26  C   UNL     1       4.052   4.118  12.636  1.00  0.00     0.004 C 
ENDBRANCH  24  25
ENDBRANCH  23  24
ENDBRANCH  22  23
ENDBRANCH  21  22
ENDBRANCH  20  21
ENDBRANCH  19  20
ENDBRANCH  18  19
ENDBRANCH  17  18
ENDBRANCH  16  17
ENDBRANCH  15  16
ENDBRANCH   1  15
TORSDOF 22
ENDMDL
MODEL 2
REMARK VINA RESULT:    -2.149      7.766      9.940
REMARK INTER + INTRA:          -9.527
REMARK INTER:                  -5.171
REMARK INTRA:                  -4.357
REMARK UNBOUND:                -4.615
REMARK SMILES CCCCCCCCCCCCCCCCCCCCCCCC(=O)[O-]
REMARK SMILES IDX 13 1 14 2 15 3 16 4 17 5 18 6 19 7 20 8 21 9 22 10 23 11
REMARK SMILES IDX 24 12 25 13 26 14 12 15 11 16 10 17 9 18 8 19 7 20 6 21 5 22
REMARK SMILES IDX 4 23 3 24 2 25 1 26
REMARK H PARENT
REMARK Flexibility Score: inf
ROOT
ATOM      1  C   UNL     1      -8.476  -2.936  11.512  1.00  0.00     0.000 C 
ENDROOT
BRANCH   1   2
ATOM      2  C   UNL     1      -9.277  -2.538  10.260  1.00  0.00     0.000 C 
BRANCH   2   3
ATOM      3  C   UNL     1      -8.943  -3.409   9.040  1.00  0.00     0.000 C 
BRANCH   3   4
ATOM      4  C   UNL     1      -8.921  -2.608   7.727  1.00  0.00     0.000 C 
BRANCH   4   5
ATOM      5  C   UNL     1      -7.858  -1.489   7.745  1.00  0.00     0.000 C 
BRANCH   5   6
ATOM      6  C   UNL     1      -8.334  -0.184   7.084  1.00  0.00     0.000 C 
BRANCH   6   7
ATOM      7  C   UNL     1      -8.343   1.008   8.056  1.00  0.00     0.000 C 
BRANCH   7   8
ATOM      8  C   UNL     1      -7.851   0.633   9.462  1.00  0.00     0.000 C 
BRANCH   8   9
ATOM      9  C   UNL     1      -8.288   1.648  10.533  1.00  0.00     0.000 C 
BRANCH   9  10
ATOM     10  C   UNL     1      -7.126   2.510  11.057  1.00  0.00     0.006 C 
BRANCH  10  11
ATOM     11  C   UNL     1      -6.697   3.635  10.098  1.00  0.00     0.053 C 
BRANCH  11  12
ATOM     12  C   UNL     1      -7.836   4.531   9.714  1.00  0.00     0.041 C 
ATOM     13  O   UNL     1      -8.353   5.299  10.567  1.00  0.00    -0.550 OA
ATOM     14  O   UNL     1      -8.344   4.500   8.420  1.00  0.00    -0.550 OA
ENDBRANCH  11  12
ENDBRANCH  10  11
ENDBRANCH   9  10
ENDBRANCH   8   9
ENDBRANCH   7   8
ENDBRANCH   6   7
ENDBRANCH   5   6
ENDBRANCH   4   5
ENDBRANCH   3   4
ENDBRANCH   2   3
ENDBRANCH   1   2
BRANCH   1  15
ATOM     15  C   UNL     1      -8.045  -4.411  11.495  1.00  0.00     0.000 C 
BRANCH  15  16
ATOM     16  C   UNL     1      -6.752  -4.664  12.286  1.00  0.00     0.000 C 
BRANCH  16  17
ATOM     17  C   UNL     1      -5.929  -5.836  11.722  1.00  0.00     0.000 C 
BRANCH  17  18
ATOM     18  C   UNL     1      -6.588  -6.534  10.513  1.00  0.00    -0.000 C 
BRANCH  18  19
ATOM     19  C   UNL     1      -5.663  -6.565   9.285  1.00  0.00    -0.000 C 
BRANCH  19  20
ATOM     20  C   UNL     1      -6.113  -5.593   8.178  1.00  0.00    -0.000 C 
BRANCH  20  21
ATOM     21  C   UNL     1      -5.211  -4.355   7.992  1.00  0.00    -0.000 C 
BRANCH  21  22
ATOM     22  C   UNL     1      -5.212  -3.362   9.169  1.00  0.00    -0.000 C 
BRANCH  22  23
ATOM     23  C   UNL     1      -3.886  -3.355   9.946  1.00  0.00    -0.000 C 
BRANCH  23  24
ATOM     24  C   UNL     1      -3.937  -2.363  11.113  1.00  0.00    -0.000 C 
BRANCH  24  25
ATOM     25  C   UNL     1      -5.194  -1.488  11.031  1.00  0.00    -0.003 C 
ATOM     26  C   UNL     1      -5.163  -0.378  12.079  1.00  0.00     0.004 C 
ENDBRANCH  24  25
ENDBRANCH  23  24
ENDBRANCH  22  23
ENDBRANCH  21  22
ENDBRANCH  20  21
ENDBRANCH  19  20
ENDBRANCH  18  19
ENDBRANCH  17  18
ENDBRANCH  16  17
ENDBRANCH  15  16
ENDBRANCH   1  15
TORSDOF 22
ENDMDL
MODEL 3
REMARK VINA RESULT:    -2.148      1.169      2.303
REMARK INTER + INTRA:          -9.525
REMARK INTER:                  -5.532
REMARK INTRA:                  -3.993
REMARK UNBOUND:                -4.615
REMARK SMILES CCCCCCCCCCCCCCCCCCCCCCCC(=O)[O-]
REMARK SMILES IDX 13 1 14 2 15 3 16 4 17 5 18 6 19 7 20 8 21 9 22 10 23 11
REMARK SMILES IDX 24 12 25 13 26 14 12 15 11 16 10 17 9 18 8 19 7 20 6 21 5 22
REMARK SMILES IDX 4 23 3 24 2 25 1 26
REMARK H PARENT
REMARK Flexibility Score: inf
ROOT
ATOM      1  C   UNL     1       0.366   5.097   9.613  1.00  0.00     0.000 C 
ENDROOT
BRANCH   1   2
ATOM      2  C   UNL     1      -0.414   6.379   9.269  1.00  0.00     0.000 C 
BRANCH   2   3
ATOM      3  C   UNL     1      -1.736   6.090   8.542  1.00  0.00     0.000 C 
BRANCH   3   4
ATOM      4  C   UNL     1      -2.234   4.652   8.763  1.00  0.00     0.000 C 
BRANCH   4   5
ATOM      5  C   UNL     1      -3.458   4.598   9.702  1.00  0.00     0.000 C 
BRANCH   5   6
ATOM      6  C   UNL     1      -3.085   4.397  11.181  1.00  0.00     0.000 C 
BRANCH   6   7
ATOM      7  C   UNL     1      -3.598   5.531  12.085  1.00  0.00     0.000 C 
BRANCH   7   8
ATOM      8  C   UNL     1      -2.557   6.641  12.296  1.00  0.00     0.000 C 
BRANCH   8   9
ATOM      9  C   UNL     1      -2.958   7.965  11.621  1.00  0.00     0.000 C 
BRANCH   9  10
ATOM     10  C   UNL     1      -4.326   7.892  10.919  1.00  0.00     0.006 C 
BRANCH  10  11
ATOM     11  C   UNL     1      -4.297   8.325   9.442  1.00  0.00     0.053 C 
BRANCH  11  12
ATOM     12  C   UNL     1      -5.360   7.657   8.624  1.00  0.00     0.041 C 
ATOM     13  O   UNL     1      -5.458   7.901   7.393  1.00  0.00    -0.550 OA
ATOM     14  O   UNL     1      -6.259   6.783   9.225  1.00  0.00    -0.550 OA
ENDBRANCH  11  12
ENDBRANCH  10  11
ENDBRANCH   9  10
ENDBRANCH   8   9
ENDBRANCH   7   8
ENDBRANCH   6   7
ENDBRANCH   5   6
ENDBRANCH   4   5
ENDBRANCH   3   4
ENDBRANCH   2   3
ENDBRANCH   1   2
BRANCH   1  15
ATOM     15  C   UNL     1       0.593   4.929  11.124  1.00  0.00     0.000 C 
BRANCH  15  16
ATOM     16  C   UNL     1       0.427   3.475  11.594  1.00  0.00     0.000 C 
BRANCH  16  17
ATOM     17  C   UNL     1       0.400   2.472  10.427  1.00  0.00     0.000 C 
BRANCH  17  18
ATOM     18  C   UNL     1       1.692   1.637  10.295  1.00  0.00    -0.000 C 
BRANCH  18  19
ATOM     19  C   UNL     1       2.595   2.138   9.156  1.00  0.00    -0.000 C 
BRANCH  19  20
ATOM     20  C   UNL     1       3.567   3.242   9.610  1.00  0.00    -0.000 C 
BRANCH  20  21
ATOM     21  C   UNL     1       4.014   4.214   8.499  1.00  0.00    -0.000 C 
BRANCH  21  22
ATOM     22  C   UNL     1       5.073   3.658   7.529  1.00  0.00    -0.000 C 
BRANCH  22  23
ATOM     23  C   UNL     1       4.484   3.262   6.166  1.00  0.00    -0.000 C 
BRANCH  23  24
ATOM     24  C   UNL     1       4.603   1.752   5.933  1.00  0.00    -0.000 C 
BRANCH  24  25
ATOM     25  C   UNL     1       5.734   1.156   6.780  1.00  0.00    -0.003 C 
ATOM     26  C   UNL     1       5.257  -0.072   7.551  1.00  0.00     0.004 C 
ENDBRANCH  24  25
ENDBRANCH  23  24
ENDBRANCH  22  23
ENDBRANCH  21  22
ENDBRANCH  20  21
ENDBRANCH  19  20
ENDBRANCH  18  19
ENDBRANCH  17  18
ENDBRANCH  16  17
ENDBRANCH  15  16
ENDBRANCH   1  15
TORSDOF 22
ENDMDL
MODEL 4
REMARK VINA RESULT:    -2.131      5.140      7.773
REMARK INTER + INTRA:          -9.488
REMARK INTER:                  -6.732
REMARK INTRA:                  -2.756
REMARK UNBOUND:                -4.615
REMARK SMILES CCCCCCCCCCCCCCCCCCCCCCCC(=O)[O-]
REMARK SMILES IDX 13 1 14 2 15 3 16 4 17 5 18 6 19 7 20 8 21 9 22 10 23 11
REMARK SMILES IDX 24 12 25 13 26 14 12 15 11 16 10 17 9 18 8 19 7 20 6 21 5 22
REMARK SMILES IDX 4 23 3 24 2 25 1 26
REMARK H PARENT
REMARK Flexibility Score: inf
ROOT
ATOM      1  C   UNL     1      -1.967   3.226  11.671  1.00  0.00     0.000 C 
ENDROOT
BRANCH   1   2
ATOM      2  C   UNL     1      -2.263   2.480  12.985  1.00  0.00     0.000 C 
BRANCH   2   3
ATOM      3  C   UNL     1      -2.297   0.955  12.806  1.00  0.00     0.000 C 
BRANCH   3   4
ATOM      4  C   UNL     1      -3.723   0.411  12.618  1.00  0.00     0.000 C 
BRANCH   4   5
ATOM      5  C   UNL     1      -3.732  -1.098  12.294  1.00  0.00     0.000 C 
BRANCH   5   6
ATOM      6  C   UNL     1      -4.808  -1.496  11.269  1.00  0.00     0.000 C 
BRANCH   6   7
ATOM      7  C   UNL     1      -4.800  -3.001  10.951  1.00  0.00     0.000 C 
BRANCH   7   8
ATOM      8  C   UNL     1      -3.801  -3.371   9.844  1.00  0.00     0.000 C 
BRANCH   8   9
ATOM      9  C   UNL     1      -2.585  -4.146  10.379  1.00  0.00     0.000 C 
BRANCH   9  10
ATOM     10  C   UNL     1      -1.275  -3.342  10.297  1.00  0.00     0.006 C 
BRANCH  10  11
ATOM     11  C   UNL     1      -0.149  -4.054   9.527  1.00  0.00     0.053 C 
BRANCH  11  12
ATOM     12  C   UNL     1       1.205  -3.483   9.824  1.00  0.00     0.041 C 
ATOM     13  O   UNL     1       1.668  -3.525  10.993  1.00  0.00    -0.550 OA
ATOM     14  O   UNL     1       1.945  -2.879   8.813  1.00  0.00    -0.550 OA
ENDBRANCH  11  12
ENDBRANCH  10  11
ENDBRANCH   9  10
ENDBRANCH   8   9
ENDBRANCH   7   8
ENDBRANCH   6   7
ENDBRANCH   5   6
ENDBRANCH   4   5
ENDBRANCH   3   4
ENDBRANCH   2   3
ENDBRANCH   1   2
BRANCH   1  15
ATOM     15  C   UNL     1      -3.123   4.141  11.236  1.00  0.00     0.000 C 
BRANCH  15  16
ATOM     16  C   UNL     1      -3.014   4.584   9.768  1.00  0.00     0.000 C 
BRANCH  16  17
ATOM     17  C   UNL     1      -1.572   4.524   9.234  1.00  0.00     0.000 C 
BRANCH  17  18
ATOM     18  C   UNL     1      -0.931   5.912   9.016  1.00  0.00    -0.000 C 
BRANCH  18  19
ATOM     19  C   UNL     1       0.519   5.969   9.527  1.00  0.00    -0.000 C 
BRANCH  19  20
ATOM     20  C   UNL     1       0.964   4.658  10.201  1.00  0.00    -0.000 C 
BRANCH  20  21
ATOM     21  C   UNL     1       2.255   4.037   9.628  1.00  0.00    -0.000 C 
BRANCH  21  22
ATOM     22  C   UNL     1       2.201   2.516   9.394  1.00  0.00    -0.000 C 
BRANCH  22  23
ATOM     23  C   UNL     1       0.936   1.866   9.976  1.00  0.00    -0.000 C 
BRANCH  23  24
ATOM     24  C   UNL     1       1.112   0.350  10.118  1.00  0.00    -0.000 C 
BRANCH  24  25
ATOM     25  C   UNL     1       1.763  -0.001  11.462  1.00  0.00    -0.003 C 
ATOM     26  C   UNL     1       1.381   1.011  12.540  1.00  0.00     0.004 C 
ENDBRANCH  24  25
ENDBRANCH  23  24
ENDBRANCH  22  23
ENDBRANCH  21  22
ENDBRANCH  20  21
ENDBRANCH  19  20
ENDBRANCH  18  19
ENDBRANCH  17  18
ENDBRANCH  16  17
ENDBRANCH  15  16
ENDBRANCH   1  15
TORSDOF 22
ENDMDL
MODEL 5
REMARK VINA RESULT:    -2.111      8.467     11.825
REMARK INTER + INTRA:          -9.441
REMARK INTER:                  -4.984
REMARK INTRA:                  -4.457
REMARK UNBOUND:                -4.615
REMARK SMILES CCCCCCCCCCCCCCCCCCCCCCCC(=O)[O-]
REMARK SMILES IDX 13 1 14 2 15 3 16 4 17 5 18 6 19 7 20 8 21 9 22 10 23 11
REMARK SMILES IDX 24 12 25 13 26 14 12 15 11 16 10 17 9 18 8 19 7 20 6 21 5 22
REMARK SMILES IDX 4 23 3 24 2 25 1 26
REMARK H PARENT
REMARK Flexibility Score: inf
ROOT
ATOM      1  C   UNL     1      -4.801  -1.941  10.650  1.00  0.00     0.000 C 
ENDROOT
BRANCH   1   2
ATOM      2  C   UNL     1      -3.720  -1.686  11.716  1.00  0.00     0.000 C 
BRANCH   2   3
ATOM      3  C   UNL     1      -2.589  -2.725  11.674  1.00  0.00     0.000 C 
BRANCH   3   4
ATOM      4  C   UNL     1      -2.530  -3.485  10.338  1.00  0.00     0.000 C 
BRANCH   4   5
ATOM      5  C   UNL     1      -2.661  -5.011  10.529  1.00  0.00     0.000 C 
BRANCH   5   6
ATOM      6  C   UNL     1      -3.634  -5.404  11.654  1.00  0.00     0.000 C 
BRANCH   6   7
ATOM      7  C   UNL     1      -4.997  -5.881  11.124  1.00  0.00     0.000 C 
BRANCH   7   8
ATOM      8  C   UNL     1      -5.040  -5.976   9.591  1.00  0.00     0.000 C 
BRANCH   8   9
ATOM      9  C   UNL     1      -6.081  -5.030   8.968  1.00  0.00     0.000 C 
BRANCH   9  10
ATOM     10  C   UNL     1      -5.518  -4.198   7.802  1.00  0.00     0.006 C 
BRANCH  10  11
ATOM     11  C   UNL     1      -4.233  -4.775   7.184  1.00  0.00     0.053 C 
BRANCH  11  12
ATOM     12  C   UNL     1      -4.444  -5.299   5.796  1.00  0.00     0.041 C 
ATOM     13  O   UNL     1      -3.908  -4.724   4.813  1.00  0.00    -0.550 OA
ATOM     14  O   UNL     1      -5.254  -6.409   5.584  1.00  0.00    -0.550 OA
ENDBRANCH  11  12
ENDBRANCH  10  11
ENDBRANCH   9  10
ENDBRANCH   8   9
ENDBRANCH   7   8
ENDBRANCH   6   7
ENDBRANCH   5   6
ENDBRANCH   4   5
ENDBRANCH   3   4
ENDBRANCH   2   3
ENDBRANCH   1   2
BRANCH   1  15
ATOM     15  C   UNL     1      -6.223  -1.695  11.179  1.00  0.00     0.000 C 
BRANCH  15  16
ATOM     16  C   UNL     1      -6.732  -2.836  12.074  1.00  0.00     0.000 C 
BRANCH  16  17
ATOM     17  C   UNL     1      -8.014  -3.492  11.531  1.00  0.00     0.000 C 
BRANCH  17  18
ATOM     18  C   UNL     1      -8.834  -2.577  10.597  1.00  0.00    -0.000 C 
BRANCH  18  19
ATOM     19  C   UNL     1      -9.393  -3.337   9.382  1.00  0.00    -0.000 C 
BRANCH  19  20
ATOM     20  C   UNL     1      -8.942  -2.729   8.041  1.00  0.00    -0.000 C 
BRANCH  20  21
ATOM     21  C   UNL     1      -8.068  -1.464   8.161  1.00  0.00    -0.000 C 
BRANCH  21  22
ATOM     22  C   UNL     1      -8.372  -0.358   7.134  1.00  0.00    -0.000 C 
BRANCH  22  23
ATOM     23  C   UNL     1      -8.339   1.051   7.745  1.00  0.00    -0.000 C 
BRANCH  23  24
ATOM     24  C   UNL     1      -8.511   0.995   9.267  1.00  0.00    -0.000 C 
BRANCH  24  25
ATOM     25  C   UNL     1      -7.551   1.968   9.962  1.00  0.00    -0.003 C 
ATOM     26  C   UNL     1      -7.362   1.601  11.432  1.00  0.00     0.004 C 
ENDBRANCH  24  25
ENDBRANCH  23  24
ENDBRANCH  22  23
ENDBRANCH  21  22
ENDBRANCH  20  21
ENDBRANCH  19  20
ENDBRANCH  18  19
ENDBRANCH  17  18
ENDBRANCH  16  17
ENDBRANCH  15  16
ENDBRANCH   1  15
TORSDOF 22
ENDMDL
MODEL 6
REMARK VINA RESULT:    -2.099      3.775      6.813
REMARK INTER + INTRA:          -9.413
REMARK INTER:                  -6.324
REMARK INTRA:                  -3.089
REMARK UNBOUND:                -4.615
REMARK SMILES CCCCCCCCCCCCCCCCCCCCCCCC(=O)[O-]
REMARK SMILES IDX 13 1 14 2 15 3 16 4 17 5 18 6 19 7 20 8 21 9 22 10 23 11
REMARK SMILES IDX 24 12 25 13 26 14 12 15 11 16 10 17 9 18 8 19 7 20 6 21 5 22
REMARK SMILES IDX 4 23 3 24 2 25 1 26
REMARK H PARENT
REMARK Flexibility Score: inf
ROOT
ATOM      1  C   UNL     1      -1.941   0.345  12.998  1.00  0.00     0.000 C 
ENDROOT
BRANCH   1   2
ATOM      2  C   UNL     1      -0.591   0.120  12.291  1.00  0.00     0.000 C 
BRANCH   2   3
ATOM      3  C   UNL     1      -0.067   1.386  11.597  1.00  0.00     0.000 C 
BRANCH   3   4
ATOM      4  C   UNL     1       1.392   1.246  11.130  1.00  0.00     0.000 C 
BRANCH   4   5
ATOM      5  C   UNL     1       1.543   1.483   9.613  1.00  0.00     0.000 C 
BRANCH   5   6
ATOM      6  C   UNL     1       2.562   2.582   9.264  1.00  0.00     0.000 C 
BRANCH   6   7
ATOM      7  C   UNL     1       2.409   3.836  10.141  1.00  0.00     0.000 C 
BRANCH   7   8
ATOM      8  C   UNL     1       1.344   4.808   9.611  1.00  0.00     0.000 C 
BRANCH   8   9
ATOM      9  C   UNL     1       0.042   4.763  10.429  1.00  0.00     0.000 C 
BRANCH   9  10
ATOM     10  C   UNL     1      -1.179   4.331   9.597  1.00  0.00     0.006 C 
BRANCH  10  11
ATOM     11  C   UNL     1      -2.523   4.475  10.332  1.00  0.00     0.053 C 
BRANCH  11  12
ATOM     12  C   UNL     1      -3.288   5.690   9.904  1.00  0.00     0.041 C 
ATOM     13  O   UNL     1      -2.759   6.830   9.977  1.00  0.00    -0.550 OA
ATOM     14  O   UNL     1      -4.596   5.568   9.448  1.00  0.00    -0.550 OA
ENDBRANCH  11  12
ENDBRANCH  10  11
ENDBRANCH   9  10
ENDBRANCH   8   9
ENDBRANCH   7   8
ENDBRANCH   6   7
ENDBRANCH   5   6
ENDBRANCH   4   5
ENDBRANCH   3   4
ENDBRANCH   2   3
ENDBRANCH   1   2
BRANCH   1  15
ATOM     15  C   UNL     1      -2.510   1.752  12.753  1.00  0.00     0.000 C 
BRANCH  15  16
ATOM     16  C   UNL     1      -4.040   1.759  12.605  1.00  0.00     0.000 C 
BRANCH  16  17
ATOM     17  C   UNL     1      -4.655   0.353  12.722  1.00  0.00     0.000 C 
BRANCH  17  18
ATOM     18  C   UNL     1      -5.736   0.056  11.660  1.00  0.00    -0.000 C 
BRANCH  18  19
ATOM     19  C   UNL     1      -5.586  -1.350  11.056  1.00  0.00    -0.000 C 
BRANCH  19  20
ATOM     20  C   UNL     1      -4.364  -2.107  11.608  1.00  0.00    -0.000 C 
BRANCH  20  21
ATOM     21  C   UNL     1      -3.640  -3.009  10.587  1.00  0.00    -0.000 C 
BRANCH  21  22
ATOM     22  C   UNL     1      -2.103  -3.003  10.684  1.00  0.00    -0.000 C 
BRANCH  22  23
ATOM     23  C   UNL     1      -1.460  -4.250  10.055  1.00  0.00    -0.000 C 
BRANCH  23  24
ATOM     24  C   UNL     1      -0.072  -3.928   9.492  1.00  0.00    -0.000 C 
BRANCH  24  25
ATOM     25  C   UNL     1       0.399  -2.543   9.956  1.00  0.00    -0.003 C 
ATOM     26  C   UNL     1       1.921  -2.434   9.911  1.00  0.00     0.004 C 
ENDBRANCH  24  25
ENDBRANCH  23  24
ENDBRANCH  22  23
ENDBRANCH  21  22
ENDBRANCH  20  21
ENDBRANCH  19  20
ENDBRANCH  18  19
ENDBRANCH  17  18
ENDBRANCH  16  17
ENDBRANCH  15  16
ENDBRANCH   1  15
TORSDOF 22
ENDMDL
MODEL 7
REMARK VINA RESULT:    -2.078      3.624      6.428
REMARK INTER + INTRA:          -9.366
REMARK INTER:                  -5.570
REMARK INTRA:                  -3.797
REMARK UNBOUND:                -4.615
REMARK SMILES CCCCCCCCCCCCCCCCCCCCCCCC(=O)[O-]
REMARK SMILES IDX 13 1 14 2 15 3 16 4 17 5 18 6 19 7 20 8 21 9 22 10 23 11
REMARK SMILES IDX 24 12 25 13 26 14 12 15 11 16 10 17 9 18 8 19 7 20 6 21 5 22
REMARK SMILES IDX 4 23 3 24 2 25 1 26
REMARK H PARENT
REMARK Flexibility Score: inf
ROOT
ATOM      1  C   UNL     1      -2.378   5.264   8.613  1.00  0.00     0.000 C 
ENDROOT
BRANCH   1   2
ATOM      2  C   UNL     1      -2.602   6.671   8.030  1.00  0.00     0.000 C 
BRANCH   2   3
ATOM      3  C   UNL     1      -1.389   7.594   8.225  1.00  0.00     0.000 C 
BRANCH   3   4
ATOM      4  C   UNL     1      -0.180   6.864   8.833  1.00  0.00     0.000 C 
BRANCH   4   5
ATOM      5  C   UNL     1       0.724   7.814   9.648  1.00  0.00     0.000 C 
BRANCH   5   6
ATOM      6  C   UNL     1       2.183   7.335   9.746  1.00  0.00     0.000 C 
BRANCH   6   7
ATOM      7  C   UNL     1       2.338   5.834   9.448  1.00  0.00     0.000 C 
BRANCH   7   8
ATOM      8  C   UNL     1       3.307   5.132  10.411  1.00  0.00     0.000 C 
BRANCH   8   9
ATOM      9  C   UNL     1       3.767   3.759   9.892  1.00  0.00     0.000 C 
BRANCH   9  10
ATOM     10  C   UNL     1       4.173   3.781   8.407  1.00  0.00     0.006 C 
BRANCH  10  11
ATOM     11  C   UNL     1       3.751   2.526   7.623  1.00  0.00     0.053 C 
BRANCH  11  12
ATOM     12  C   UNL     1       4.533   2.346   6.358  1.00  0.00     0.041 C 
ATOM     13  O   UNL     1       5.393   1.431   6.269  1.00  0.00    -0.550 OA
ATOM     14  O   UNL     1       4.331   3.204   5.282  1.00  0.00    -0.550 OA
ENDBRANCH  11  12
ENDBRANCH  10  11
ENDBRANCH   9  10
ENDBRANCH   8   9
ENDBRANCH   7   8
ENDBRANCH   6   7
ENDBRANCH   5   6
ENDBRANCH   4   5
ENDBRANCH   3   4
ENDBRANCH   2   3
ENDBRANCH   1   2
BRANCH   1  15
ATOM     15  C   UNL     1      -3.320   4.952   9.786  1.00  0.00     0.000 C 
BRANCH  15  16
ATOM     16  C   UNL     1      -2.635   4.152  10.906  1.00  0.00     0.000 C 
BRANCH  16  17
ATOM     17  C   UNL     1      -1.497   4.934  11.584  1.00  0.00     0.000 C 
BRANCH  17  18
ATOM     18  C   UNL     1      -0.152   4.175  11.614  1.00  0.00    -0.000 C 
BRANCH  18  19
ATOM     19  C   UNL     1      -0.027   3.170  10.458  1.00  0.00    -0.000 C 
BRANCH  19  20
ATOM     20  C   UNL     1       0.339   1.753  10.939  1.00  0.00    -0.000 C 
BRANCH  20  21
ATOM     21  C   UNL     1       1.255   0.958   9.986  1.00  0.00    -0.000 C 
BRANCH  21  22
ATOM     22  C   UNL     1       2.186  -0.059  10.671  1.00  0.00    -0.000 C 
BRANCH  22  23
ATOM     23  C   UNL     1       3.463  -0.338   9.862  1.00  0.00    -0.000 C 
BRANCH  23  24
ATOM     24  C   UNL     1       4.697   0.237  10.566  1.00  0.00    -0.000 C 
BRANCH  24  25
ATOM     25  C   UNL     1       5.934   0.142   9.663  1.00  0.00    -0.003 C 
ATOM     26  C   UNL     1       6.767   1.420   9.734  1.00  0.00     0.004 C 
ENDBRANCH  24  25
ENDBRANCH  23  24
ENDBRANCH  22  23
ENDBRANCH  21  22
ENDBRANCH  20  21
ENDBRANCH  19  20
ENDBRANCH  18  19
ENDBRANCH  17  18
ENDBRANCH  16  17
ENDBRANCH  15  16
ENDBRANCH   1  15
TORSDOF 22
ENDMDL
MODEL 8
REMARK VINA RESULT:    -2.061      8.046     10.494
REMARK INTER + INTRA:          -9.328
REMARK INTER:                  -5.004
REMARK INTRA:                  -4.323
REMARK UNBOUND:                -4.615
REMARK SMILES CCCCCCCCCCCCCCCCCCCCCCCC(=O)[O-]
REMARK SMILES IDX 13 1 14 2 15 3 16 4 17 5 18 6 19 7 20 8 21 9 22 10 23 11
REMARK SMILES IDX 24 12 25 13 26 14 12 15 11 16 10 17 9 18 8 19 7 20 6 21 5 22
REMARK SMILES IDX 4 23 3 24 2 25 1 26
REMARK H PARENT
REMARK Flexibility Score: inf
ROOT
ATOM      1  C   UNL     1      -3.745  -3.201  10.151  1.00  0.00     0.000 C 
ENDROOT
BRANCH   1   2
ATOM      2  C   UNL     1      -3.982  -2.051  11.148  1.00  0.00     0.000 C 
BRANCH   2   3
ATOM      3  C   UNL     1      -5.471  -1.731  11.340  1.00  0.00     0.000 C 
BRANCH   3   4
ATOM      4  C   UNL     1      -6.283  -1.879  10.042  1.00  0.00     0.000 C 
BRANCH   4   5
ATOM      5  C   UNL     1      -7.798  -1.701  10.279  1.00  0.00     0.000 C 
BRANCH   5   6
ATOM      6  C   UNL     1      -8.639  -1.855   9.000  1.00  0.00     0.000 C 
BRANCH   6   7
ATOM      7  C   UNL     1      -7.825  -1.605   7.718  1.00  0.00     0.000 C 
BRANCH   7   8
ATOM      8  C   UNL     1      -8.138  -0.248   7.069  1.00  0.00     0.000 C 
BRANCH   8   9
ATOM      9  C   UNL     1      -9.397   0.412   7.656  1.00  0.00     0.000 C 
BRANCH   9  10
ATOM     10  C   UNL     1      -9.131   1.818   8.225  1.00  0.00     0.006 C 
BRANCH  10  11
ATOM     11  C   UNL     1      -7.824   1.931   9.029  1.00  0.00     0.053 C 
BRANCH  11  12
ATOM     12  C   UNL     1      -8.058   2.302  10.462  1.00  0.00     0.041 C 
ATOM     13  O   UNL     1      -8.777   1.575  11.196  1.00  0.00    -0.550 OA
ATOM     14  O   UNL     1      -7.505   3.468  10.982  1.00  0.00    -0.550 OA
ENDBRANCH  11  12
ENDBRANCH  10  11
ENDBRANCH   9  10
ENDBRANCH   8   9
ENDBRANCH   7   8
ENDBRANCH   6   7
ENDBRANCH   5   6
ENDBRANCH   4   5
ENDBRANCH   3   4
ENDBRANCH   2   3
ENDBRANCH   1   2
BRANCH   1  15
ATOM     15  C   UNL     1      -2.426  -3.946  10.409  1.00  0.00     0.000 C 
BRANCH  15  16
ATOM     16  C   UNL     1      -2.005  -4.838   9.230  1.00  0.00     0.000 C 
BRANCH  16  17
ATOM     17  C   UNL     1      -2.658  -6.231   9.276  1.00  0.00     0.000 C 
BRANCH  17  18
ATOM     18  C   UNL     1      -3.397  -6.615   7.976  1.00  0.00    -0.000 C 
BRANCH  18  19
ATOM     19  C   UNL     1      -3.344  -5.494   6.925  1.00  0.00    -0.000 C 
BRANCH  19  20
ATOM     20  C   UNL     1      -4.743  -5.015   6.497  1.00  0.00    -0.000 C 
BRANCH  20  21
ATOM     21  C   UNL     1      -5.657  -4.556   7.653  1.00  0.00    -0.000 C 
BRANCH  21  22
ATOM     22  C   UNL     1      -7.024  -5.259   7.725  1.00  0.00    -0.000 C 
BRANCH  22  23
ATOM     23  C   UNL     1      -7.467  -5.557   9.167  1.00  0.00    -0.000 C 
BRANCH  23  24
ATOM     24  C   UNL     1      -6.256  -5.699  10.096  1.00  0.00    -0.000 C 
BRANCH  24  25
ATOM     25  C   UNL     1      -6.632  -5.346  11.541  1.00  0.00    -0.003 C 
ATOM     26  C   UNL     1      -8.121  -5.028  11.661  1.00  0.00     0.004 C 
ENDBRANCH  24  25
ENDBRANCH  23  24
ENDBRANCH  22  23
ENDBRANCH  21  22
ENDBRANCH  20  21
ENDBRANCH  19  20
ENDBRANCH  18  19
ENDBRANCH  17  18
ENDBRANCH  16  17
ENDBRANCH  15  16
ENDBRANCH   1  15
TORSDOF 22
ENDMDL
MODEL 9
REMARK VINA RESULT:    -2.019      3.451      6.998
REMARK INTER + INTRA:          -9.230
REMARK INTER:                  -4.334
REMARK INTRA:                  -4.897
REMARK UNBOUND:                -4.615
REMARK SMILES CCCCCCCCCCCCCCCCCCCCCCCC(=O)[O-]
REMARK SMILES IDX 13 1 14 2 15 3 16 4 17 5 18 6 19 7 20 8 21 9 22 10 23 11
REMARK SMILES IDX 24 12 25 13 26 14 12 15 11 16 10 17 9 18 8 19 7 20 6 21 5 22
REMARK SMILES IDX 4 23 3 24 2 25 1 26
REMARK H PARENT
REMARK Flexibility Score: inf
ROOT
ATOM      1  C   UNL     1      -1.090   3.905   9.937  1.00  0.00     0.000 C 
ENDROOT
BRANCH   1   2
ATOM      2  C   UNL     1      -1.682   3.671  11.339  1.00  0.00     0.000 C 
BRANCH   2   3
ATOM      3  C   UNL     1      -0.603   3.462  12.411  1.00  0.00     0.000 C 
BRANCH   3   4
ATOM      4  C   UNL     1      -0.414   1.982  12.783  1.00  0.00     0.000 C 
BRANCH   4   5
ATOM      5  C   UNL     1       0.898   1.402  12.214  1.00  0.00     0.000 C 
BRANCH   5   6
ATOM      6  C   UNL     1       0.723   0.722  10.845  1.00  0.00     0.000 C 
BRANCH   6   7
ATOM      7  C   UNL     1       1.538   1.404   9.733  1.00  0.00     0.000 C 
BRANCH   7   8
ATOM      8  C   UNL     1       2.512   2.463  10.271  1.00  0.00     0.000 C 
BRANCH   8   9
ATOM      9  C   UNL     1       2.628   3.686   9.345  1.00  0.00     0.000 C 
BRANCH   9  10
ATOM     10  C   UNL     1       2.410   5.021  10.080  1.00  0.00     0.006 C 
BRANCH  10  11
ATOM     11  C   UNL     1       2.688   4.957  11.592  1.00  0.00     0.053 C 
BRANCH  11  12
ATOM     12  C   UNL     1       3.863   5.793  11.999  1.00  0.00     0.041 C 
ATOM     13  O   UNL     1       4.940   5.733  11.349  1.00  0.00    -0.550 OA
ATOM     14  O   UNL     1       3.779   6.621  13.113  1.00  0.00    -0.550 OA
ENDBRANCH  11  12
ENDBRANCH  10  11
ENDBRANCH   9  10
ENDBRANCH   8   9
ENDBRANCH   7   8
ENDBRANCH   6   7
ENDBRANCH   5   6
ENDBRANCH   4   5
ENDBRANCH   3   4
ENDBRANCH   2   3
ENDBRANCH   1   2
BRANCH   1  15
ATOM     15  C   UNL     1      -1.791   5.043   9.179  1.00  0.00     0.000 C 
BRANCH  15  16
ATOM     16  C   UNL     1      -0.835   6.184   8.797  1.00  0.00     0.000 C 
BRANCH  16  17
ATOM     17  C   UNL     1      -1.555   7.363   8.119  1.00  0.00     0.000 C 
BRANCH  17  18
ATOM     18  C   UNL     1      -0.690   8.636   8.000  1.00  0.00    -0.000 C 
BRANCH  18  19
ATOM     19  C   UNL     1       0.736   8.421   8.534  1.00  0.00    -0.000 C 
BRANCH  19  20
ATOM     20  C   UNL     1       1.057   9.314   9.747  1.00  0.00    -0.000 C 
BRANCH  20  21
ATOM     21  C   UNL     1       1.590   8.564  10.986  1.00  0.00    -0.000 C 
BRANCH  21  22
ATOM     22  C   UNL     1       0.605   8.465  12.165  1.00  0.00    -0.000 C 
BRANCH  22  23
ATOM     23  C   UNL     1      -0.116   7.109  12.228  1.00  0.00    -0.000 C 
BRANCH  23  24
ATOM     24  C   UNL     1      -1.630   7.298  12.377  1.00  0.00    -0.000 C 
BRANCH  24  25
ATOM     25  C   UNL     1      -2.133   8.422  11.462  1.00  0.00    -0.003 C 
ATOM     26  C   UNL     1      -3.047   9.382  12.220  1.00  0.00     0.004 C 
ENDBRANCH  24  25
ENDBRANCH  23  24
ENDBRANCH  22  23
ENDBRANCH  21  22
ENDBRANCH  20  21
ENDBRANCH  19  20
ENDBRANCH  18  19
ENDBRANCH  17  18
ENDBRANCH  16  17
ENDBRANCH  15  16
ENDBRANCH   1  15
TORSDOF 22
ENDMDL
