MODEL 1
REMARK VINA RESULT:    36.722      0.000      0.000
REMARK INTER + INTRA:          44.227
REMARK INTER:                  44.236
REMARK INTRA:                  -0.010
REMARK UNBOUND:                -0.010
REMARK SMILES O=c1c(O)c(-c2ccc(O)c(O)c2)oc2cc(O)cc(O)c12
REMARK SMILES IDX 5 1 3 2 2 3 1 4 22 5 20 6 19 7 17 8 16 9 15 10 14 11 6 12
REMARK SMILES IDX 7 13 8 14 9 15 13 16 11 17 10 18 12 20 4 22 21 24 18 26
REMARK H PARENT 10 19 12 21 4 23 21 25 18 27
REMARK Flexibility Score: inf
ROOT
ATOM      1  C   UNL     1      11.109  -3.866  17.508  1.00  0.00     0.180 A 
ATOM      2  C   UNL     1      11.402  -4.307  16.206  1.00  0.00     0.208 A 
ATOM      3  C   UNL     1      10.344  -4.562  15.320  1.00  0.00     0.238 A 
ATOM      4  O   UNL     1      10.610  -5.009  14.174  1.00  0.00    -0.285 OA
ATOM      5  C   UNL     1       9.007  -4.359  15.740  1.00  0.00     0.111 A 
ATOM      6  C   UNL     1       7.860  -4.548  14.913  1.00  0.00     0.134 A 
ATOM      7  C   UNL     1       6.581  -4.442  15.472  1.00  0.00     0.093 A 
ATOM      8  C   UNL     1       6.406  -4.092  16.810  1.00  0.00     0.123 A 
ATOM      9  C   UNL     1       7.521  -3.847  17.614  1.00  0.00     0.094 A 
ATOM     10  C   UNL     1       8.810  -3.979  17.094  1.00  0.00     0.146 A 
ATOM     11  O   UNL     1       9.844  -3.747  17.894  1.00  0.00    -0.452 OA
ENDROOT
BRANCH   1  12
ATOM     12  C   UNL     1      12.171  -3.552  18.492  1.00  0.00     0.025 A 
ATOM     13  C   UNL     1      13.139  -4.522  18.796  1.00  0.00     0.016 A 
ATOM     14  C   UNL     1      14.139  -4.254  19.735  1.00  0.00     0.051 A 
ATOM     15  C   UNL     1      14.177  -3.022  20.395  1.00  0.00     0.157 A 
ATOM     16  C   UNL     1      12.199  -2.321  19.171  1.00  0.00     0.062 A 
ATOM     17  C   UNL     1      13.200  -2.052  20.116  1.00  0.00     0.158 A 
BRANCH  15  18
ATOM     18  O   UNL     1      15.187  -2.782  21.326  1.00  0.00    -0.504 OA
ATOM     19  H   UNL     1      14.987  -2.494  22.276  1.00  0.00     0.293 HD
ENDBRANCH  15  18
BRANCH  17  20
ATOM     20  O   UNL     1      13.224  -0.826  20.781  1.00  0.00    -0.504 OA
ATOM     21  H   UNL     1      12.491  -0.557  21.427  1.00  0.00     0.293 HD
ENDBRANCH  17  20
ENDBRANCH   1  12
BRANCH   2  22
ATOM     22  O   UNL     1      12.728  -4.523  15.819  1.00  0.00    -0.502 OA
ATOM     23  H   UNL     1      13.158  -5.440  15.843  1.00  0.00     0.293 HD
ENDBRANCH   2  22
BRANCH   6  24
ATOM     24  O   UNL     1       7.921  -4.811  13.541  1.00  0.00    -0.507 OA
ATOM     25  H   UNL     1       8.651  -5.342  13.090  1.00  0.00     0.293 HD
ENDBRANCH   6  24
BRANCH   8  26
ATOM     26  O   UNL     1       5.118  -3.980  17.329  1.00  0.00    -0.508 OA
ATOM     27  H   UNL     1       4.505  -4.783  17.402  1.00  0.00     0.293 HD
ENDBRANCH   8  26
TORSDOF 6
ENDMDL
MODEL 2
REMARK VINA RESULT:    37.856      2.631      5.191
REMARK INTER + INTRA:          45.592
REMARK INTER:                  45.189
REMARK INTRA:                   0.403
REMARK UNBOUND:                -0.010
REMARK SMILES O=c1c(O)c(-c2ccc(O)c(O)c2)oc2cc(O)cc(O)c12
REMARK SMILES IDX 5 1 3 2 2 3 1 4 22 5 20 6 19 7 17 8 16 9 15 10 14 11 6 12
REMARK SMILES IDX 7 13 8 14 9 15 13 16 11 17 10 18 12 20 4 22 21 24 18 26
REMARK H PARENT 10 19 12 21 4 23 21 25 18 27
REMARK Flexibility Score: inf
ROOT
ATOM      1  C   UNL     1      11.366  -5.194  15.715  1.00  0.00     0.180 A 
ATOM      2  C   UNL     1      11.567  -4.829  17.058  1.00  0.00     0.208 A 
ATOM      3  C   UNL     1      10.486  -4.319  17.794  1.00  0.00     0.238 A 
ATOM      4  O   UNL     1      10.685  -3.942  18.978  1.00  0.00    -0.285 OA
ATOM      5  C   UNL     1       9.213  -4.196  17.185  1.00  0.00     0.111 A 
ATOM      6  C   UNL     1       8.039  -3.730  17.848  1.00  0.00     0.134 A 
ATOM      7  C   UNL     1       6.866  -3.527  17.112  1.00  0.00     0.093 A 
ATOM      8  C   UNL     1       6.804  -3.833  15.753  1.00  0.00     0.123 A 
ATOM      9  C   UNL     1       7.931  -4.346  15.107  1.00  0.00     0.094 A 
ATOM     10  C   UNL     1       9.127  -4.526  15.807  1.00  0.00     0.146 A 
ATOM     11  O   UNL     1      10.178  -5.006  15.153  1.00  0.00    -0.452 OA
ENDROOT
BRANCH   1  12
ATOM     12  C   UNL     1      12.451  -5.762  14.882  1.00  0.00     0.025 A 
ATOM     13  C   UNL     1      13.787  -5.476  15.200  1.00  0.00     0.016 A 
ATOM     14  C   UNL     1      14.826  -5.985  14.416  1.00  0.00     0.051 A 
ATOM     15  C   UNL     1      14.545  -6.773  13.296  1.00  0.00     0.157 A 
ATOM     16  C   UNL     1      12.170  -6.538  13.743  1.00  0.00     0.062 A 
ATOM     17  C   UNL     1      13.211  -7.048  12.954  1.00  0.00     0.158 A 
BRANCH  15  18
ATOM     18  O   UNL     1      15.603  -7.269  12.534  1.00  0.00    -0.504 OA
ATOM     19  H   UNL     1      15.944  -6.789  11.710  1.00  0.00     0.293 HD
ENDBRANCH  15  18
BRANCH  17  20
ATOM     20  O   UNL     1      12.924  -7.821  11.829  1.00  0.00    -0.504 OA
ATOM     21  H   UNL     1      13.653  -8.141  11.204  1.00  0.00     0.293 HD
ENDBRANCH  17  20
ENDBRANCH   1  12
BRANCH   2  22
ATOM     22  O   UNL     1      12.837  -4.937  17.633  1.00  0.00    -0.502 OA
ATOM     23  H   UNL     1      13.545  -4.221  17.524  1.00  0.00     0.293 HD
ENDBRANCH   2  22
BRANCH   6  24
ATOM     24  O   UNL     1       7.965  -3.481  19.222  1.00  0.00    -0.507 OA
ATOM     25  H   UNL     1       8.759  -3.292  19.815  1.00  0.00     0.293 HD
ENDBRANCH   6  24
BRANCH   8  26
ATOM     26  O   UNL     1       5.616  -3.633  15.056  1.00  0.00    -0.508 OA
ATOM     27  H   UNL     1       5.470  -2.811  14.482  1.00  0.00     0.293 HD
ENDBRANCH   8  26
TORSDOF 6
ENDMDL
MODEL 3
REMARK VINA RESULT:    38.106      3.511      5.978
REMARK INTER + INTRA:          45.894
REMARK INTER:                  45.966
REMARK INTRA:                  -0.072
REMARK UNBOUND:                -0.010
REMARK SMILES O=c1c(O)c(-c2ccc(O)c(O)c2)oc2cc(O)cc(O)c12
REMARK SMILES IDX 5 1 3 2 2 3 1 4 22 5 20 6 19 7 17 8 16 9 15 10 14 11 6 12
REMARK SMILES IDX 7 13 8 14 9 15 13 16 11 17 10 18 12 20 4 22 21 24 18 26
REMARK H PARENT 10 19 12 21 4 23 21 25 18 27
REMARK Flexibility Score: inf
ROOT
ATOM      1  C   UNL     1      11.223  -0.598  18.742  1.00  0.00     0.180 A 
ATOM      2  C   UNL     1      12.164  -1.080  19.667  1.00  0.00     0.208 A 
ATOM      3  C   UNL     1      12.718  -2.355  19.473  1.00  0.00     0.238 A 
ATOM      4  O   UNL     1      13.518  -2.804  20.334  1.00  0.00    -0.285 OA
ATOM      5  C   UNL     1      12.337  -3.125  18.347  1.00  0.00     0.111 A 
ATOM      6  C   UNL     1      12.865  -4.413  18.030  1.00  0.00     0.134 A 
ATOM      7  C   UNL     1      12.320  -5.138  16.964  1.00  0.00     0.093 A 
ATOM      8  C   UNL     1      11.313  -4.599  16.164  1.00  0.00     0.123 A 
ATOM      9  C   UNL     1      10.831  -3.316  16.429  1.00  0.00     0.094 A 
ATOM     10  C   UNL     1      11.330  -2.581  17.508  1.00  0.00     0.146 A 
ATOM     11  O   UNL     1      10.837  -1.369  17.733  1.00  0.00    -0.452 OA
ENDROOT
BRANCH   1  12
ATOM     12  C   UNL     1      10.614   0.747  18.865  1.00  0.00     0.025 A 
ATOM     13  C   UNL     1       9.218   0.880  18.810  1.00  0.00     0.016 A 
ATOM     14  C   UNL     1       8.623   2.142  18.905  1.00  0.00     0.051 A 
ATOM     15  C   UNL     1       9.413   3.287  19.039  1.00  0.00     0.157 A 
ATOM     16  C   UNL     1      11.407   1.902  18.979  1.00  0.00     0.062 A 
ATOM     17  C   UNL     1      10.811   3.169  19.072  1.00  0.00     0.158 A 
BRANCH  15  18
ATOM     18  O   UNL     1       8.791   4.532  19.133  1.00  0.00    -0.504 OA
ATOM     19  H   UNL     1       8.281   4.939  18.358  1.00  0.00     0.293 HD
ENDBRANCH  15  18
BRANCH  17  20
ATOM     20  O   UNL     1      11.606   4.309  19.191  1.00  0.00    -0.504 OA
ATOM     21  H   UNL     1      11.715   4.963  18.425  1.00  0.00     0.293 HD
ENDBRANCH  17  20
ENDBRANCH   1  12
BRANCH   2  22
ATOM     22  O   UNL     1      12.509  -0.313  20.784  1.00  0.00    -0.502 OA
ATOM     23  H   UNL     1      13.455   0.005  20.954  1.00  0.00     0.293 HD
ENDBRANCH   2  22
BRANCH   6  24
ATOM     24  O   UNL     1      13.933  -5.008  18.708  1.00  0.00    -0.507 OA
ATOM     25  H   UNL     1      14.810  -4.552  18.910  1.00  0.00     0.293 HD
ENDBRANCH   6  24
BRANCH   8  26
ATOM     26  O   UNL     1      10.806  -5.342  15.102  1.00  0.00    -0.508 OA
ATOM     27  H   UNL     1      11.381  -5.589  14.305  1.00  0.00     0.293 HD
ENDBRANCH   8  26
TORSDOF 6
ENDMDL
MODEL 4
REMARK VINA RESULT:    38.469      3.061      6.455
REMARK INTER + INTRA:          46.331
REMARK INTER:                  45.995
REMARK INTRA:                   0.336
REMARK UNBOUND:                -0.010
REMARK SMILES O=c1c(O)c(-c2ccc(O)c(O)c2)oc2cc(O)cc(O)c12
REMARK SMILES IDX 5 1 3 2 2 3 1 4 22 5 20 6 19 7 17 8 16 9 15 10 14 11 6 12
REMARK SMILES IDX 7 13 8 14 9 15 13 16 11 17 10 18 12 20 4 22 21 24 18 26
REMARK H PARENT 10 19 12 21 4 23 21 25 18 27
REMARK Flexibility Score: inf
ROOT
ATOM      1  C   UNL     1      12.243  -5.375  15.436  1.00  0.00     0.180 A 
ATOM      2  C   UNL     1      10.863  -5.109  15.449  1.00  0.00     0.208 A 
ATOM      3  C   UNL     1      10.340  -4.272  16.446  1.00  0.00     0.238 A 
ATOM      4  O   UNL     1       9.097  -4.082  16.485  1.00  0.00    -0.285 OA
ATOM      5  C   UNL     1      11.205  -3.697  17.409  1.00  0.00     0.111 A 
ATOM      6  C   UNL     1      10.789  -2.802  18.439  1.00  0.00     0.134 A 
ATOM      7  C   UNL     1      11.709  -2.398  19.415  1.00  0.00     0.093 A 
ATOM      8  C   UNL     1      13.042  -2.802  19.361  1.00  0.00     0.123 A 
ATOM      9  C   UNL     1      13.473  -3.630  18.323  1.00  0.00     0.094 A 
ATOM     10  C   UNL     1      12.571  -4.079  17.355  1.00  0.00     0.146 A 
ATOM     11  O   UNL     1      13.018  -4.874  16.390  1.00  0.00    -0.452 OA
ENDROOT
BRANCH   1  12
ATOM     12  C   UNL     1      12.873  -6.228  14.401  1.00  0.00     0.025 A 
ATOM     13  C   UNL     1      12.131  -7.268  13.820  1.00  0.00     0.016 A 
ATOM     14  C   UNL     1      12.711  -8.098  12.856  1.00  0.00     0.051 A 
ATOM     15  C   UNL     1      14.042  -7.911  12.471  1.00  0.00     0.157 A 
ATOM     16  C   UNL     1      14.217  -6.055  14.028  1.00  0.00     0.062 A 
ATOM     17  C   UNL     1      14.801  -6.888  13.062  1.00  0.00     0.158 A 
BRANCH  15  18
ATOM     18  O   UNL     1      14.592  -8.753  11.505  1.00  0.00    -0.504 OA
ATOM     19  H   UNL     1      15.505  -8.583  11.100  1.00  0.00     0.293 HD
ENDBRANCH  15  18
BRANCH  17  20
ATOM     20  O   UNL     1      16.134  -6.705  12.693  1.00  0.00    -0.504 OA
ATOM     21  H   UNL     1      16.844  -6.458  13.372  1.00  0.00     0.293 HD
ENDBRANCH  17  20
ENDBRANCH   1  12
BRANCH   2  22
ATOM     22  O   UNL     1      10.024  -5.706  14.503  1.00  0.00    -0.502 OA
ATOM     23  H   UNL     1      10.221  -6.612  14.096  1.00  0.00     0.293 HD
ENDBRANCH   2  22
BRANCH   6  24
ATOM     24  O   UNL     1       9.502  -2.263  18.534  1.00  0.00    -0.507 OA
ATOM     25  H   UNL     1       8.731  -2.699  19.016  1.00  0.00     0.293 HD
ENDBRANCH   6  24
BRANCH   8  26
ATOM     26  O   UNL     1      13.933  -2.368  20.339  1.00  0.00    -0.508 OA
ATOM     27  H   UNL     1      13.630  -2.181  21.287  1.00  0.00     0.293 HD
ENDBRANCH   8  26
TORSDOF 6
ENDMDL
