MODEL 1
REMARK VINA RESULT:    -4.476      0.000      0.000
REMARK INTER + INTRA:         -15.451
REMARK INTER:                 -11.803
REMARK INTRA:                  -3.648
REMARK UNBOUND:                -3.648
REMARK SMILES CCCCCCCCCCCCCCCCCCCCCCCCCCCCCC(=O)[O-]
REMARK SMILES IDX 16 1 17 2 18 3 19 4 20 5 21 6 22 7 23 8 24 9 25 10 26 11
REMARK SMILES IDX 27 12 28 13 29 14 30 15 31 16 32 17 15 18 14 19 13 20 12 21
REMARK SMILES IDX 11 22 10 23 9 24 8 25 7 26 6 27 5 28 4 29 3 30 2 31 1 32
REMARK H PARENT
REMARK Flexibility Score: inf
ROOT
ATOM      1  C   UNL     1     186.020 187.502 198.884  1.00  0.00     0.000 C 
ENDROOT
BRANCH   1   2
ATOM      2  C   UNL     1     186.119 188.839 199.637  1.00  0.00     0.000 C 
BRANCH   2   3
ATOM      3  C   UNL     1     187.057 188.769 200.857  1.00  0.00     0.000 C 
BRANCH   3   4
ATOM      4  C   UNL     1     188.347 187.988 200.560  1.00  0.00     0.000 C 
BRANCH   4   5
ATOM      5  C   UNL     1     189.588 188.643 201.182  1.00  0.00     0.000 C 
BRANCH   5   6
ATOM      6  C   UNL     1     189.398 190.159 201.319  1.00  0.00     0.000 C 
BRANCH   6   7
ATOM      7  C   UNL     1     190.464 190.923 200.520  1.00  0.00     0.000 C 
BRANCH   7   8
ATOM      8  C   UNL     1     191.597 190.015 200.014  1.00  0.00     0.000 C 
BRANCH   8   9
ATOM      9  C   UNL     1     192.189 190.500 198.679  1.00  0.00     0.000 C 
BRANCH   9  10
ATOM     10  C   UNL     1     193.597 189.940 198.412  1.00  0.00     0.000 C 
BRANCH  10  11
ATOM     11  C   UNL     1     194.339 189.421 199.659  1.00  0.00     0.000 C 
BRANCH  11  12
ATOM     12  C   UNL     1     195.260 190.471 200.316  1.00  0.00     0.000 C 
BRANCH  12  13
ATOM     13  C   UNL     1     195.718 191.546 199.319  1.00  0.00     0.006 C 
BRANCH  13  14
ATOM     14  C   UNL     1     195.541 192.951 199.901  1.00  0.00     0.053 C 
BRANCH  14  15
ATOM     15  C   UNL     1     194.198 193.504 199.538  1.00  0.00     0.041 C 
ATOM     16  O   UNL     1     193.232 193.395 200.338  1.00  0.00    -0.550 OA
ATOM     17  O   UNL     1     194.005 194.099 198.296  1.00  0.00    -0.550 OA
ENDBRANCH  14  15
ENDBRANCH  13  14
ENDBRANCH  12  13
ENDBRANCH  11  12
ENDBRANCH  10  11
ENDBRANCH   9  10
ENDBRANCH   8   9
ENDBRANCH   7   8
ENDBRANCH   6   7
ENDBRANCH   5   6
ENDBRANCH   4   5
ENDBRANCH   3   4
ENDBRANCH   2   3
ENDBRANCH   1   2
BRANCH   1  18
ATOM     18  C   UNL     1     185.455 186.329 199.709  1.00  0.00     0.000 C 
BRANCH  18  19
ATOM     19  C   UNL     1     184.628 185.318 198.881  1.00  0.00     0.000 C 
BRANCH  19  20
ATOM     20  C   UNL     1     184.143 184.101 199.689  1.00  0.00     0.000 C 
BRANCH  20  21
ATOM     21  C   UNL     1     184.950 183.891 200.982  1.00  0.00     0.000 C 
BRANCH  21  22
ATOM     22  C   UNL     1     184.695 182.517 201.626  1.00  0.00     0.000 C 
BRANCH  22  23
ATOM     23  C   UNL     1     183.774 181.579 200.820  1.00  0.00     0.000 C 
BRANCH  23  24
ATOM     24  C   UNL     1     182.458 181.199 201.523  1.00  0.00    -0.000 C 
BRANCH  24  25
ATOM     25  C   UNL     1     181.276 182.088 201.100  1.00  0.00    -0.000 C 
BRANCH  25  26
ATOM     26  C   UNL     1     181.203 183.402 201.910  1.00  0.00    -0.000 C 
BRANCH  26  27
ATOM     27  C   UNL     1     180.038 184.322 201.499  1.00  0.00    -0.000 C 
BRANCH  27  28
ATOM     28  C   UNL     1     180.347 185.830 201.549  1.00  0.00    -0.000 C 
BRANCH  28  29
ATOM     29  C   UNL     1     181.810 186.187 201.871  1.00  0.00    -0.000 C 
BRANCH  29  30
ATOM     30  C   UNL     1     182.329 187.380 201.049  1.00  0.00    -0.000 C 
BRANCH  30  31
ATOM     31  C   UNL     1     181.730 187.425 199.633  1.00  0.00    -0.003 C 
ATOM     32  C   UNL     1     182.400 188.472 198.742  1.00  0.00     0.004 C 
ENDBRANCH  30  31
ENDBRANCH  29  30
ENDBRANCH  28  29
ENDBRANCH  27  28
ENDBRANCH  26  27
ENDBRANCH  25  26
ENDBRANCH  24  25
ENDBRANCH  23  24
ENDBRANCH  22  23
ENDBRANCH  21  22
ENDBRANCH  20  21
ENDBRANCH  19  20
ENDBRANCH  18  19
ENDBRANCH   1  18
TORSDOF 28
ENDMDL
MODEL 2
REMARK VINA RESULT:    -4.274      2.713      3.260
REMARK INTER + INTRA:         -14.918
REMARK INTER:                 -11.886
REMARK INTRA:                  -3.032
REMARK UNBOUND:                -3.648
REMARK SMILES CCCCCCCCCCCCCCCCCCCCCCCCCCCCCC(=O)[O-]
REMARK SMILES IDX 16 1 17 2 18 3 19 4 20 5 21 6 22 7 23 8 24 9 25 10 26 11
REMARK SMILES IDX 27 12 28 13 29 14 30 15 31 16 32 17 15 18 14 19 13 20 12 21
REMARK SMILES IDX 11 22 10 23 9 24 8 25 7 26 6 27 5 28 4 29 3 30 2 31 1 32
REMARK H PARENT
REMARK Flexibility Score: inf
ROOT
ATOM      1  C   UNL     1     185.641 187.233 199.194  1.00  0.00     0.000 C 
ENDROOT
BRANCH   1   2
ATOM      2  C   UNL     1     185.813 188.557 199.957  1.00  0.00     0.000 C 
BRANCH   2   3
ATOM      3  C   UNL     1     187.126 188.617 200.760  1.00  0.00     0.000 C 
BRANCH   3   4
ATOM      4  C   UNL     1     188.357 188.301 199.895  1.00  0.00     0.000 C 
BRANCH   4   5
ATOM      5  C   UNL     1     189.678 188.538 200.641  1.00  0.00     0.000 C 
BRANCH   5   6
ATOM      6  C   UNL     1     189.643 189.862 201.414  1.00  0.00     0.000 C 
BRANCH   6   7
ATOM      7  C   UNL     1     190.368 190.972 200.638  1.00  0.00     0.000 C 
BRANCH   7   8
ATOM      8  C   UNL     1     191.871 190.697 200.467  1.00  0.00     0.000 C 
BRANCH   8   9
ATOM      9  C   UNL     1     192.404 191.166 199.101  1.00  0.00     0.000 C 
BRANCH   9  10
ATOM     10  C   UNL     1     192.450 190.036 198.058  1.00  0.00     0.000 C 
BRANCH  10  11
ATOM     11  C   UNL     1     192.911 188.668 198.599  1.00  0.00     0.000 C 
BRANCH  11  12
ATOM     12  C   UNL     1     194.430 188.584 198.863  1.00  0.00     0.000 C 
BRANCH  12  13
ATOM     13  C   UNL     1     195.167 187.809 197.762  1.00  0.00     0.006 C 
BRANCH  13  14
ATOM     14  C   UNL     1     195.768 186.510 198.307  1.00  0.00     0.053 C 
BRANCH  14  15
ATOM     15  C   UNL     1     196.765 185.947 197.343  1.00  0.00     0.041 C 
ATOM     16  O   UNL     1     196.796 186.359 196.154  1.00  0.00    -0.550 OA
ATOM     17  O   UNL     1     197.627 184.934 197.747  1.00  0.00    -0.550 OA
ENDBRANCH  14  15
ENDBRANCH  13  14
ENDBRANCH  12  13
ENDBRANCH  11  12
ENDBRANCH  10  11
ENDBRANCH   9  10
ENDBRANCH   8   9
ENDBRANCH   7   8
ENDBRANCH   6   7
ENDBRANCH   5   6
ENDBRANCH   4   5
ENDBRANCH   3   4
ENDBRANCH   2   3
ENDBRANCH   1   2
BRANCH   1  18
ATOM     18  C   UNL     1     184.699 186.213 199.863  1.00  0.00     0.000 C 
BRANCH  18  19
ATOM     19  C   UNL     1     184.182 185.114 198.906  1.00  0.00     0.000 C 
BRANCH  19  20
ATOM     20  C   UNL     1     184.706 183.704 199.235  1.00  0.00     0.000 C 
BRANCH  20  21
ATOM     21  C   UNL     1     185.672 183.699 200.433  1.00  0.00     0.000 C 
BRANCH  21  22
ATOM     22  C   UNL     1     185.130 182.897 201.630  1.00  0.00     0.000 C 
BRANCH  22  23
ATOM     23  C   UNL     1     184.098 181.809 201.273  1.00  0.00     0.000 C 
BRANCH  23  24
ATOM     24  C   UNL     1     182.769 181.896 202.046  1.00  0.00    -0.000 C 
BRANCH  24  25
ATOM     25  C   UNL     1     181.656 182.592 201.243  1.00  0.00    -0.000 C 
BRANCH  25  26
ATOM     26  C   UNL     1     181.627 184.120 201.472  1.00  0.00    -0.000 C 
BRANCH  26  27
ATOM     27  C   UNL     1     180.296 184.637 202.050  1.00  0.00    -0.000 C 
BRANCH  27  28
ATOM     28  C   UNL     1     179.823 185.992 201.491  1.00  0.00    -0.000 C 
BRANCH  28  29
ATOM     29  C   UNL     1     180.914 186.833 200.804  1.00  0.00    -0.000 C 
BRANCH  29  30
ATOM     30  C   UNL     1     181.024 188.256 201.381  1.00  0.00    -0.000 C 
BRANCH  30  31
ATOM     31  C   UNL     1     182.390 188.902 201.100  1.00  0.00    -0.003 C 
ATOM     32  C   UNL     1     182.353 189.868 199.915  1.00  0.00     0.004 C 
ENDBRANCH  30  31
ENDBRANCH  29  30
ENDBRANCH  28  29
ENDBRANCH  27  28
ENDBRANCH  26  27
ENDBRANCH  25  26
ENDBRANCH  24  25
ENDBRANCH  23  24
ENDBRANCH  22  23
ENDBRANCH  21  22
ENDBRANCH  20  21
ENDBRANCH  19  20
ENDBRANCH  18  19
ENDBRANCH   1  18
TORSDOF 28
ENDMDL
MODEL 3
REMARK VINA RESULT:    -4.173      1.395      2.079
REMARK INTER + INTRA:         -14.651
REMARK INTER:                 -11.553
REMARK INTRA:                  -3.098
REMARK UNBOUND:                -3.648
REMARK SMILES CCCCCCCCCCCCCCCCCCCCCCCCCCCCCC(=O)[O-]
REMARK SMILES IDX 16 1 17 2 18 3 19 4 20 5 21 6 22 7 23 8 24 9 25 10 26 11
REMARK SMILES IDX 27 12 28 13 29 14 30 15 31 16 32 17 15 18 14 19 13 20 12 21
REMARK SMILES IDX 11 22 10 23 9 24 8 25 7 26 6 27 5 28 4 29 3 30 2 31 1 32
REMARK H PARENT
REMARK Flexibility Score: inf
ROOT
ATOM      1  C   UNL     1     186.303 188.588 200.152  1.00  0.00     0.000 C 
ENDROOT
BRANCH   1   2
ATOM      2  C   UNL     1     187.120 188.933 201.408  1.00  0.00     0.000 C 
BRANCH   2   3
ATOM      3  C   UNL     1     188.195 190.004 201.144  1.00  0.00     0.000 C 
BRANCH   3   4
ATOM      4  C   UNL     1     189.058 189.678 199.914  1.00  0.00     0.000 C 
BRANCH   4   5
ATOM      5  C   UNL     1     190.124 188.612 200.209  1.00  0.00     0.000 C 
BRANCH   5   6
ATOM      6  C   UNL     1     191.466 189.263 200.566  1.00  0.00     0.000 C 
BRANCH   6   7
ATOM      7  C   UNL     1     191.661 190.581 199.802  1.00  0.00     0.000 C 
BRANCH   7   8
ATOM      8  C   UNL     1     192.465 190.406 198.504  1.00  0.00     0.000 C 
BRANCH   8   9
ATOM      9  C   UNL     1     193.296 189.111 198.496  1.00  0.00     0.000 C 
BRANCH   9  10
ATOM     10  C   UNL     1     194.705 189.302 199.085  1.00  0.00     0.000 C 
BRANCH  10  11
ATOM     11  C   UNL     1     195.364 190.659 198.769  1.00  0.00     0.000 C 
BRANCH  11  12
ATOM     12  C   UNL     1     196.229 191.213 199.923  1.00  0.00     0.000 C 
BRANCH  12  13
ATOM     13  C   UNL     1     195.662 192.521 200.494  1.00  0.00     0.006 C 
BRANCH  13  14
ATOM     14  C   UNL     1     195.021 193.373 199.395  1.00  0.00     0.053 C 
BRANCH  14  15
ATOM     15  C   UNL     1     193.803 194.070 199.915  1.00  0.00     0.041 C 
ATOM     16  O   UNL     1     193.131 193.557 200.848  1.00  0.00    -0.550 OA
ATOM     17  O   UNL     1     193.385 195.263 199.336  1.00  0.00    -0.550 OA
ENDBRANCH  14  15
ENDBRANCH  13  14
ENDBRANCH  12  13
ENDBRANCH  11  12
ENDBRANCH  10  11
ENDBRANCH   9  10
ENDBRANCH   8   9
ENDBRANCH   7   8
ENDBRANCH   6   7
ENDBRANCH   5   6
ENDBRANCH   4   5
ENDBRANCH   3   4
ENDBRANCH   2   3
ENDBRANCH   1   2
BRANCH   1  18
ATOM     18  C   UNL     1     186.284 187.093 199.776  1.00  0.00     0.000 C 
BRANCH  18  19
ATOM     19  C   UNL     1     185.339 186.752 198.601  1.00  0.00     0.000 C 
BRANCH  19  20
ATOM     20  C   UNL     1     184.448 185.522 198.855  1.00  0.00     0.000 C 
BRANCH  20  21
ATOM     21  C   UNL     1     185.064 184.549 199.876  1.00  0.00     0.000 C 
BRANCH  21  22
ATOM     22  C   UNL     1     184.094 184.190 201.015  1.00  0.00     0.000 C 
BRANCH  22  23
ATOM     23  C   UNL     1     182.647 184.689 200.822  1.00  0.00     0.000 C 
BRANCH  23  24
ATOM     24  C   UNL     1     181.895 185.018 202.125  1.00  0.00    -0.000 C 
BRANCH  24  25
ATOM     25  C   UNL     1     180.395 184.681 202.050  1.00  0.00    -0.000 C 
BRANCH  25  26
ATOM     26  C   UNL     1     179.629 185.604 201.078  1.00  0.00    -0.000 C 
BRANCH  26  27
ATOM     27  C   UNL     1     179.543 187.069 201.548  1.00  0.00    -0.000 C 
BRANCH  27  28
ATOM     28  C   UNL     1     180.554 188.027 200.889  1.00  0.00    -0.000 C 
BRANCH  28  29
ATOM     29  C   UNL     1     180.694 187.880 199.363  1.00  0.00    -0.000 C 
BRANCH  29  30
ATOM     30  C   UNL     1     182.111 188.206 198.859  1.00  0.00    -0.000 C 
BRANCH  30  31
ATOM     31  C   UNL     1     182.130 189.387 197.875  1.00  0.00    -0.003 C 
ATOM     32  C   UNL     1     183.547 189.809 197.486  1.00  0.00     0.004 C 
ENDBRANCH  30  31
ENDBRANCH  29  30
ENDBRANCH  28  29
ENDBRANCH  27  28
ENDBRANCH  26  27
ENDBRANCH  25  26
ENDBRANCH  24  25
ENDBRANCH  23  24
ENDBRANCH  22  23
ENDBRANCH  21  22
ENDBRANCH  20  21
ENDBRANCH  19  20
ENDBRANCH  18  19
ENDBRANCH   1  18
TORSDOF 28
ENDMDL
MODEL 4
REMARK VINA RESULT:    -4.140     10.953     14.866
REMARK INTER + INTRA:         -14.566
REMARK INTER:                 -12.045
REMARK INTRA:                  -2.521
REMARK UNBOUND:                -3.648
REMARK SMILES CCCCCCCCCCCCCCCCCCCCCCCCCCCCCC(=O)[O-]
REMARK SMILES IDX 16 1 17 2 18 3 19 4 20 5 21 6 22 7 23 8 24 9 25 10 26 11
REMARK SMILES IDX 27 12 28 13 29 14 30 15 31 16 32 17 15 18 14 19 13 20 12 21
REMARK SMILES IDX 11 22 10 23 9 24 8 25 7 26 6 27 5 28 4 29 3 30 2 31 1 32
REMARK H PARENT
REMARK Flexibility Score: inf
ROOT
ATOM      1  C   UNL     1     197.912 182.383 193.789  1.00  0.00     0.000 C 
ENDROOT
BRANCH   1   2
ATOM      2  C   UNL     1     197.316 182.323 192.372  1.00  0.00     0.000 C 
BRANCH   2   3
ATOM      3  C   UNL     1     195.809 182.009 192.372  1.00  0.00     0.000 C 
BRANCH   3   4
ATOM      4  C   UNL     1     195.126 182.414 191.056  1.00  0.00     0.000 C 
BRANCH   4   5
ATOM      5  C   UNL     1     193.848 181.607 190.783  1.00  0.00     0.000 C 
BRANCH   5   6
ATOM      6  C   UNL     1     193.030 182.241 189.651  1.00  0.00     0.000 C 
BRANCH   6   7
ATOM      7  C   UNL     1     193.740 183.478 189.083  1.00  0.00     0.000 C 
BRANCH   7   8
ATOM      8  C   UNL     1     192.959 184.780 189.325  1.00  0.00     0.000 C 
BRANCH   8   9
ATOM      9  C   UNL     1     191.870 184.622 190.401  1.00  0.00     0.000 C 
BRANCH   9  10
ATOM     10  C   UNL     1     190.482 184.323 189.807  1.00  0.00     0.000 C 
BRANCH  10  11
ATOM     11  C   UNL     1     190.252 184.868 188.384  1.00  0.00     0.000 C 
BRANCH  11  12
ATOM     12  C   UNL     1     189.458 183.908 187.471  1.00  0.00     0.000 C 
BRANCH  12  13
ATOM     13  C   UNL     1     190.249 182.632 187.145  1.00  0.00     0.006 C 
BRANCH  13  14
ATOM     14  C   UNL     1     191.373 182.918 186.146  1.00  0.00     0.053 C 
BRANCH  14  15
ATOM     15  C   UNL     1     192.197 181.690 185.917  1.00  0.00     0.041 C 
ATOM     16  O   UNL     1     193.447 181.730 186.072  1.00  0.00    -0.550 OA
ATOM     17  O   UNL     1     191.590 180.516 185.489  1.00  0.00    -0.550 OA
ENDBRANCH  14  15
ENDBRANCH  13  14
ENDBRANCH  12  13
ENDBRANCH  11  12
ENDBRANCH  10  11
ENDBRANCH   9  10
ENDBRANCH   8   9
ENDBRANCH   7   8
ENDBRANCH   6   7
ENDBRANCH   5   6
ENDBRANCH   4   5
ENDBRANCH   3   4
ENDBRANCH   2   3
ENDBRANCH   1   2
BRANCH   1  18
ATOM     18  C   UNL     1     196.934 182.838 194.890  1.00  0.00     0.000 C 
BRANCH  18  19
ATOM     19  C   UNL     1     197.248 184.236 195.472  1.00  0.00     0.000 C 
BRANCH  19  20
ATOM     20  C   UNL     1     198.697 184.392 195.968  1.00  0.00     0.000 C 
BRANCH  20  21
ATOM     21  C   UNL     1     198.801 185.301 197.205  1.00  0.00     0.000 C 
BRANCH  21  22
ATOM     22  C   UNL     1     198.005 184.764 198.407  1.00  0.00     0.000 C 
BRANCH  22  23
ATOM     23  C   UNL     1     197.815 185.764 199.565  1.00  0.00     0.000 C 
BRANCH  23  24
ATOM     24  C   UNL     1     196.395 186.345 199.695  1.00  0.00    -0.000 C 
BRANCH  24  25
ATOM     25  C   UNL     1     196.005 187.240 198.506  1.00  0.00    -0.000 C 
BRANCH  25  26
ATOM     26  C   UNL     1     196.890 188.502 198.399  1.00  0.00    -0.000 C 
BRANCH  26  27
ATOM     27  C   UNL     1     197.016 189.287 199.718  1.00  0.00    -0.000 C 
BRANCH  27  28
ATOM     28  C   UNL     1     195.798 190.156 200.082  1.00  0.00    -0.000 C 
BRANCH  28  29
ATOM     29  C   UNL     1     195.324 191.113 198.973  1.00  0.00    -0.000 C 
BRANCH  29  30
ATOM     30  C   UNL     1     194.841 192.468 199.519  1.00  0.00    -0.000 C 
BRANCH  30  31
ATOM     31  C   UNL     1     195.204 192.670 200.999  1.00  0.00    -0.003 C 
ATOM     32  C   UNL     1     196.360 193.652 201.194  1.00  0.00     0.004 C 
ENDBRANCH  30  31
ENDBRANCH  29  30
ENDBRANCH  28  29
ENDBRANCH  27  28
ENDBRANCH  26  27
ENDBRANCH  25  26
ENDBRANCH  24  25
ENDBRANCH  23  24
ENDBRANCH  22  23
ENDBRANCH  21  22
ENDBRANCH  20  21
ENDBRANCH  19  20
ENDBRANCH  18  19
ENDBRANCH   1  18
TORSDOF 28
ENDMDL
MODEL 5
REMARK VINA RESULT:    -4.120      4.288     13.483
REMARK INTER + INTRA:         -14.512
REMARK INTER:                 -10.944
REMARK INTRA:                  -3.567
REMARK UNBOUND:                -3.648
REMARK SMILES CCCCCCCCCCCCCCCCCCCCCCCCCCCCCC(=O)[O-]
REMARK SMILES IDX 16 1 17 2 18 3 19 4 20 5 21 6 22 7 23 8 24 9 25 10 26 11
REMARK SMILES IDX 27 12 28 13 29 14 30 15 31 16 32 17 15 18 14 19 13 20 12 21
REMARK SMILES IDX 11 22 10 23 9 24 8 25 7 26 6 27 5 28 4 29 3 30 2 31 1 32
REMARK H PARENT
REMARK Flexibility Score: inf
ROOT
ATOM      1  C   UNL     1     193.127 190.012 199.473  1.00  0.00     0.000 C 
ENDROOT
BRANCH   1   2
ATOM      2  C   UNL     1     191.594 189.896 199.485  1.00  0.00     0.000 C 
BRANCH   2   3
ATOM      3  C   UNL     1     190.917 191.012 200.301  1.00  0.00     0.000 C 
BRANCH   3   4
ATOM      4  C   UNL     1     189.827 190.472 201.241  1.00  0.00     0.000 C 
BRANCH   4   5
ATOM      5  C   UNL     1     189.486 189.001 200.964  1.00  0.00     0.000 C 
BRANCH   5   6
ATOM      6  C   UNL     1     188.043 188.857 200.463  1.00  0.00     0.000 C 
BRANCH   6   7
ATOM      7  C   UNL     1     187.973 188.996 198.935  1.00  0.00     0.000 C 
BRANCH   7   8
ATOM      8  C   UNL     1     186.673 188.431 198.342  1.00  0.00     0.000 C 
BRANCH   8   9
ATOM      9  C   UNL     1     185.426 189.198 198.817  1.00  0.00     0.000 C 
BRANCH   9  10
ATOM     10  C   UNL     1     184.383 188.287 199.488  1.00  0.00     0.000 C 
BRANCH  10  11
ATOM     11  C   UNL     1     184.396 186.821 199.011  1.00  0.00     0.000 C 
BRANCH  11  12
ATOM     12  C   UNL     1     184.138 185.798 200.138  1.00  0.00     0.000 C 
BRANCH  12  13
ATOM     13  C   UNL     1     183.698 184.432 199.591  1.00  0.00     0.006 C 
BRANCH  13  14
ATOM     14  C   UNL     1     182.671 183.771 200.514  1.00  0.00     0.053 C 
BRANCH  14  15
ATOM     15  C   UNL     1     183.089 182.374 200.851  1.00  0.00     0.041 C 
ATOM     16  O   UNL     1     184.146 181.896 200.361  1.00  0.00    -0.550 OA
ATOM     17  O   UNL     1     182.286 181.587 201.669  1.00  0.00    -0.550 OA
ENDBRANCH  14  15
ENDBRANCH  13  14
ENDBRANCH  12  13
ENDBRANCH  11  12
ENDBRANCH  10  11
ENDBRANCH   9  10
ENDBRANCH   8   9
ENDBRANCH   7   8
ENDBRANCH   6   7
ENDBRANCH   5   6
ENDBRANCH   4   5
ENDBRANCH   3   4
ENDBRANCH   2   3
ENDBRANCH   1   2
BRANCH   1  18
ATOM     18  C   UNL     1     193.750 190.562 200.771  1.00  0.00     0.000 C 
BRANCH  18  19
ATOM     19  C   UNL     1     194.404 191.954 200.613  1.00  0.00     0.000 C 
BRANCH  19  20
ATOM     20  C   UNL     1     194.386 192.491 199.170  1.00  0.00     0.000 C 
BRANCH  20  21
ATOM     21  C   UNL     1     194.653 194.004 199.101  1.00  0.00     0.000 C 
BRANCH  21  22
ATOM     22  C   UNL     1     194.533 194.692 200.472  1.00  0.00     0.000 C 
BRANCH  22  23
ATOM     23  C   UNL     1     195.398 195.957 200.646  1.00  0.00     0.000 C 
BRANCH  23  24
ATOM     24  C   UNL     1     196.836 195.698 201.131  1.00  0.00    -0.000 C 
BRANCH  24  25
ATOM     25  C   UNL     1     196.931 194.521 202.118  1.00  0.00    -0.000 C 
BRANCH  25  26
ATOM     26  C   UNL     1     197.967 193.463 201.679  1.00  0.00    -0.000 C 
BRANCH  26  27
ATOM     27  C   UNL     1     197.620 192.030 202.125  1.00  0.00    -0.000 C 
BRANCH  27  28
ATOM     28  C   UNL     1     198.204 190.910 201.243  1.00  0.00    -0.000 C 
BRANCH  28  29
ATOM     29  C   UNL     1     197.877 191.024 199.742  1.00  0.00    -0.000 C 
BRANCH  29  30
ATOM     30  C   UNL     1     197.212 189.756 199.178  1.00  0.00    -0.000 C 
BRANCH  30  31
ATOM     31  C   UNL     1     197.124 188.626 200.215  1.00  0.00    -0.003 C 
ATOM     32  C   UNL     1     196.023 187.614 199.894  1.00  0.00     0.004 C 
ENDBRANCH  30  31
ENDBRANCH  29  30
ENDBRANCH  28  29
ENDBRANCH  27  28
ENDBRANCH  26  27
ENDBRANCH  25  26
ENDBRANCH  24  25
ENDBRANCH  23  24
ENDBRANCH  22  23
ENDBRANCH  21  22
ENDBRANCH  20  21
ENDBRANCH  19  20
ENDBRANCH  18  19
ENDBRANCH   1  18
TORSDOF 28
ENDMDL
MODEL 6
REMARK VINA RESULT:    -4.117      3.706     12.333
REMARK INTER + INTRA:         -14.505
REMARK INTER:                 -10.739
REMARK INTRA:                  -3.766
REMARK UNBOUND:                -3.648
REMARK SMILES CCCCCCCCCCCCCCCCCCCCCCCCCCCCCC(=O)[O-]
REMARK SMILES IDX 16 1 17 2 18 3 19 4 20 5 21 6 22 7 23 8 24 9 25 10 26 11
REMARK SMILES IDX 27 12 28 13 29 14 30 15 31 16 32 17 15 18 14 19 13 20 12 21
REMARK SMILES IDX 11 22 10 23 9 24 8 25 7 26 6 27 5 28 4 29 3 30 2 31 1 32
REMARK H PARENT
REMARK Flexibility Score: inf
ROOT
ATOM      1  C   UNL     1     192.083 189.610 199.091  1.00  0.00     0.000 C 
ENDROOT
BRANCH   1   2
ATOM      2  C   UNL     1     190.546 189.622 199.133  1.00  0.00     0.000 C 
BRANCH   2   3
ATOM      3  C   UNL     1     189.989 190.274 200.412  1.00  0.00     0.000 C 
BRANCH   3   4
ATOM      4  C   UNL     1     189.126 189.306 201.236  1.00  0.00     0.000 C 
BRANCH   4   5
ATOM      5  C   UNL     1     189.087 187.894 200.634  1.00  0.00     0.000 C 
BRANCH   5   6
ATOM      6  C   UNL     1     187.650 187.360 200.579  1.00  0.00     0.000 C 
BRANCH   6   7
ATOM      7  C   UNL     1     186.781 188.210 199.640  1.00  0.00     0.000 C 
BRANCH   7   8
ATOM      8  C   UNL     1     185.824 187.366 198.784  1.00  0.00     0.000 C 
BRANCH   8   9
ATOM      9  C   UNL     1     184.792 186.602 199.633  1.00  0.00     0.000 C 
BRANCH   9  10
ATOM     10  C   UNL     1     183.359 186.726 199.084  1.00  0.00     0.000 C 
BRANCH  10  11
ATOM     11  C   UNL     1     182.908 188.163 198.760  1.00  0.00     0.000 C 
BRANCH  11  12
ATOM     12  C   UNL     1     182.090 188.828 199.888  1.00  0.00     0.000 C 
BRANCH  12  13
ATOM     13  C   UNL     1     182.753 190.114 200.403  1.00  0.00     0.006 C 
BRANCH  13  14
ATOM     14  C   UNL     1     181.969 191.354 199.966  1.00  0.00     0.053 C 
BRANCH  14  15
ATOM     15  C   UNL     1     182.654 192.032 198.821  1.00  0.00     0.041 C 
ATOM     16  O   UNL     1     183.783 191.631 198.433  1.00  0.00    -0.550 OA
ATOM     17  O   UNL     1     182.066 193.136 198.214  1.00  0.00    -0.550 OA
ENDBRANCH  14  15
ENDBRANCH  13  14
ENDBRANCH  12  13
ENDBRANCH  11  12
ENDBRANCH  10  11
ENDBRANCH   9  10
ENDBRANCH   8   9
ENDBRANCH   7   8
ENDBRANCH   6   7
ENDBRANCH   5   6
ENDBRANCH   4   5
ENDBRANCH   3   4
ENDBRANCH   2   3
ENDBRANCH   1   2
BRANCH   1  18
ATOM     18  C   UNL     1     192.775 189.961 200.423  1.00  0.00     0.000 C 
BRANCH  18  19
ATOM     19  C   UNL     1     193.312 191.409 200.490  1.00  0.00     0.000 C 
BRANCH  19  20
ATOM     20  C   UNL     1     193.683 192.000 199.117  1.00  0.00     0.000 C 
BRANCH  20  21
ATOM     21  C   UNL     1     194.650 193.191 199.230  1.00  0.00     0.000 C 
BRANCH  21  22
ATOM     22  C   UNL     1     195.171 193.401 200.662  1.00  0.00     0.000 C 
BRANCH  22  23
ATOM     23  C   UNL     1     196.685 193.672 200.774  1.00  0.00     0.000 C 
BRANCH  23  24
ATOM     24  C   UNL     1     197.575 192.417 200.724  1.00  0.00    -0.000 C 
BRANCH  24  25
ATOM     25  C   UNL     1     197.049 191.276 201.613  1.00  0.00    -0.000 C 
BRANCH  25  26
ATOM     26  C   UNL     1     196.672 190.018 200.800  1.00  0.00    -0.000 C 
BRANCH  26  27
ATOM     27  C   UNL     1     196.934 190.152 199.288  1.00  0.00    -0.000 C 
BRANCH  27  28
ATOM     28  C   UNL     1     196.018 189.303 198.387  1.00  0.00    -0.000 C 
BRANCH  28  29
ATOM     29  C   UNL     1     195.536 187.979 199.009  1.00  0.00    -0.000 C 
BRANCH  29  30
ATOM     30  C   UNL     1     195.737 186.773 198.074  1.00  0.00    -0.000 C 
BRANCH  30  31
ATOM     31  C   UNL     1     196.715 185.737 198.652  1.00  0.00    -0.003 C 
ATOM     32  C   UNL     1     197.802 186.372 199.520  1.00  0.00     0.004 C 
ENDBRANCH  30  31
ENDBRANCH  29  30
ENDBRANCH  28  29
ENDBRANCH  27  28
ENDBRANCH  26  27
ENDBRANCH  25  26
ENDBRANCH  24  25
ENDBRANCH  23  24
ENDBRANCH  22  23
ENDBRANCH  21  22
ENDBRANCH  20  21
ENDBRANCH  19  20
ENDBRANCH  18  19
ENDBRANCH   1  18
TORSDOF 28
ENDMDL
MODEL 7
REMARK VINA RESULT:    -4.116      2.677      3.990
REMARK INTER + INTRA:         -14.502
REMARK INTER:                 -11.236
REMARK INTRA:                  -3.267
REMARK UNBOUND:                -3.648
REMARK SMILES CCCCCCCCCCCCCCCCCCCCCCCCCCCCCC(=O)[O-]
REMARK SMILES IDX 16 1 17 2 18 3 19 4 20 5 21 6 22 7 23 8 24 9 25 10 26 11
REMARK SMILES IDX 27 12 28 13 29 14 30 15 31 16 32 17 15 18 14 19 13 20 12 21
REMARK SMILES IDX 11 22 10 23 9 24 8 25 7 26 6 27 5 28 4 29 3 30 2 31 1 32
REMARK H PARENT
REMARK Flexibility Score: inf
ROOT
ATOM      1  C   UNL     1     185.962 188.890 200.290  1.00  0.00     0.000 C 
ENDROOT
BRANCH   1   2
ATOM      2  C   UNL     1     187.141 189.055 201.264  1.00  0.00     0.000 C 
BRANCH   2   3
ATOM      3  C   UNL     1     188.322 189.825 200.646  1.00  0.00     0.000 C 
BRANCH   3   4
ATOM      4  C   UNL     1     189.082 188.993 199.601  1.00  0.00     0.000 C 
BRANCH   4   5
ATOM      5  C   UNL     1     190.493 188.606 200.068  1.00  0.00     0.000 C 
BRANCH   5   6
ATOM      6  C   UNL     1     191.563 189.275 199.196  1.00  0.00     0.000 C 
BRANCH   6   7
ATOM      7  C   UNL     1     192.618 189.981 200.061  1.00  0.00     0.000 C 
BRANCH   7   8
ATOM      8  C   UNL     1     192.765 191.473 199.725  1.00  0.00     0.000 C 
BRANCH   8   9
ATOM      9  C   UNL     1     193.962 191.753 198.798  1.00  0.00     0.000 C 
BRANCH   9  10
ATOM     10  C   UNL     1     195.205 192.245 199.560  1.00  0.00     0.000 C 
BRANCH  10  11
ATOM     11  C   UNL     1     196.340 191.211 199.690  1.00  0.00     0.000 C 
BRANCH  11  12
ATOM     12  C   UNL     1     196.207 190.015 198.722  1.00  0.00     0.000 C 
BRANCH  12  13
ATOM     13  C   UNL     1     196.143 188.673 199.464  1.00  0.00     0.006 C 
BRANCH  13  14
ATOM     14  C   UNL     1     195.226 187.683 198.740  1.00  0.00     0.053 C 
BRANCH  14  15
ATOM     15  C   UNL     1     196.011 186.518 198.226  1.00  0.00     0.041 C 
ATOM     16  O   UNL     1     196.303 185.564 198.996  1.00  0.00    -0.550 OA
ATOM     17  O   UNL     1     196.459 186.507 196.911  1.00  0.00    -0.550 OA
ENDBRANCH  14  15
ENDBRANCH  13  14
ENDBRANCH  12  13
ENDBRANCH  11  12
ENDBRANCH  10  11
ENDBRANCH   9  10
ENDBRANCH   8   9
ENDBRANCH   7   8
ENDBRANCH   6   7
ENDBRANCH   5   6
ENDBRANCH   4   5
ENDBRANCH   3   4
ENDBRANCH   2   3
ENDBRANCH   1   2
BRANCH   1  18
ATOM     18  C   UNL     1     185.341 187.480 200.250  1.00  0.00     0.000 C 
BRANCH  18  19
ATOM     19  C   UNL     1     185.299 186.853 198.837  1.00  0.00     0.000 C 
BRANCH  19  20
ATOM     20  C   UNL     1     184.528 185.521 198.771  1.00  0.00     0.000 C 
BRANCH  20  21
ATOM     21  C   UNL     1     184.899 184.567 199.920  1.00  0.00     0.000 C 
BRANCH  21  22
ATOM     22  C   UNL     1     183.706 184.253 200.840  1.00  0.00     0.000 C 
BRANCH  22  23
ATOM     23  C   UNL     1     182.448 185.110 200.594  1.00  0.00     0.000 C 
BRANCH  23  24
ATOM     24  C   UNL     1     182.079 186.066 201.743  1.00  0.00    -0.000 C 
BRANCH  24  25
ATOM     25  C   UNL     1     180.660 186.646 201.605  1.00  0.00    -0.000 C 
BRANCH  25  26
ATOM     26  C   UNL     1     180.434 187.339 200.243  1.00  0.00    -0.000 C 
BRANCH  26  27
ATOM     27  C   UNL     1     181.415 188.492 199.961  1.00  0.00    -0.000 C 
BRANCH  27  28
ATOM     28  C   UNL     1     182.143 188.416 198.606  1.00  0.00    -0.000 C 
BRANCH  28  29
ATOM     29  C   UNL     1     182.230 189.747 197.835  1.00  0.00    -0.000 C 
BRANCH  29  30
ATOM     30  C   UNL     1     183.396 190.634 198.305  1.00  0.00    -0.000 C 
BRANCH  30  31
ATOM     31  C   UNL     1     182.966 192.088 198.557  1.00  0.00    -0.003 C 
ATOM     32  C   UNL     1     182.217 192.261 199.880  1.00  0.00     0.004 C 
ENDBRANCH  30  31
ENDBRANCH  29  30
ENDBRANCH  28  29
ENDBRANCH  27  28
ENDBRANCH  26  27
ENDBRANCH  25  26
ENDBRANCH  24  25
ENDBRANCH  23  24
ENDBRANCH  22  23
ENDBRANCH  21  22
ENDBRANCH  20  21
ENDBRANCH  19  20
ENDBRANCH  18  19
ENDBRANCH   1  18
TORSDOF 28
ENDMDL
MODEL 8
REMARK VINA RESULT:    -4.058      5.155     12.937
REMARK INTER + INTRA:         -14.349
REMARK INTER:                 -11.149
REMARK INTRA:                  -3.200
REMARK UNBOUND:                -3.648
REMARK SMILES CCCCCCCCCCCCCCCCCCCCCCCCCCCCCC(=O)[O-]
REMARK SMILES IDX 16 1 17 2 18 3 19 4 20 5 21 6 22 7 23 8 24 9 25 10 26 11
REMARK SMILES IDX 27 12 28 13 29 14 30 15 31 16 32 17 15 18 14 19 13 20 12 21
REMARK SMILES IDX 11 22 10 23 9 24 8 25 7 26 6 27 5 28 4 29 3 30 2 31 1 32
REMARK H PARENT
REMARK Flexibility Score: inf
ROOT
ATOM      1  C   UNL     1     192.139 189.507 199.292  1.00  0.00     0.000 C 
ENDROOT
BRANCH   1   2
ATOM      2  C   UNL     1     190.612 189.371 199.171  1.00  0.00     0.000 C 
BRANCH   2   3
ATOM      3  C   UNL     1     189.855 190.152 200.262  1.00  0.00     0.000 C 
BRANCH   3   4
ATOM      4  C   UNL     1     188.810 189.286 200.984  1.00  0.00     0.000 C 
BRANCH   4   5
ATOM      5  C   UNL     1     188.601 187.926 200.303  1.00  0.00     0.000 C 
BRANCH   5   6
ATOM      6  C   UNL     1     187.107 187.627 200.120  1.00  0.00     0.000 C 
BRANCH   6   7
ATOM      7  C   UNL     1     186.252 188.848 200.490  1.00  0.00     0.000 C 
BRANCH   7   8
ATOM      8  C   UNL     1     185.566 189.489 199.272  1.00  0.00     0.000 C 
BRANCH   8   9
ATOM      9  C   UNL     1     184.071 189.762 199.513  1.00  0.00     0.000 C 
BRANCH   9  10
ATOM     10  C   UNL     1     183.402 190.502 198.341  1.00  0.00     0.000 C 
BRANCH  10  11
ATOM     11  C   UNL     1     183.145 192.003 198.581  1.00  0.00     0.000 C 
BRANCH  11  12
ATOM     12  C   UNL     1     182.129 192.288 199.707  1.00  0.00     0.000 C 
BRANCH  12  13
ATOM     13  C   UNL     1     181.910 193.792 199.924  1.00  0.00     0.006 C 
BRANCH  13  14
ATOM     14  C   UNL     1     180.437 194.169 199.743  1.00  0.00     0.053 C 
BRANCH  14  15
ATOM     15  C   UNL     1     179.940 193.718 198.405  1.00  0.00     0.041 C 
ATOM     16  O   UNL     1     180.332 194.298 197.357  1.00  0.00    -0.550 OA
ATOM     17  O   UNL     1     179.010 192.689 198.320  1.00  0.00    -0.550 OA
ENDBRANCH  14  15
ENDBRANCH  13  14
ENDBRANCH  12  13
ENDBRANCH  11  12
ENDBRANCH  10  11
ENDBRANCH   9  10
ENDBRANCH   8   9
ENDBRANCH   7   8
ENDBRANCH   6   7
ENDBRANCH   5   6
ENDBRANCH   4   5
ENDBRANCH   3   4
ENDBRANCH   2   3
ENDBRANCH   1   2
BRANCH   1  18
ATOM     18  C   UNL     1     192.635 190.158 200.598  1.00  0.00     0.000 C 
BRANCH  18  19
ATOM     19  C   UNL     1     193.304 191.538 200.398  1.00  0.00     0.000 C 
BRANCH  19  20
ATOM     20  C   UNL     1     193.746 191.811 198.949  1.00  0.00     0.000 C 
BRANCH  20  21
ATOM     21  C   UNL     1     194.216 193.261 198.739  1.00  0.00     0.000 C 
BRANCH  21  22
ATOM     22  C   UNL     1     194.149 194.099 200.028  1.00  0.00     0.000 C 
BRANCH  22  23
ATOM     23  C   UNL     1     195.227 195.195 200.150  1.00  0.00     0.000 C 
BRANCH  23  24
ATOM     24  C   UNL     1     196.579 194.717 200.711  1.00  0.00    -0.000 C 
BRANCH  24  25
ATOM     25  C   UNL     1     196.433 193.905 202.010  1.00  0.00    -0.000 C 
BRANCH  25  26
ATOM     26  C   UNL     1     196.996 192.473 201.880  1.00  0.00    -0.000 C 
BRANCH  26  27
ATOM     27  C   UNL     1     197.934 192.280 200.673  1.00  0.00    -0.000 C 
BRANCH  27  28
ATOM     28  C   UNL     1     198.101 190.823 200.201  1.00  0.00    -0.000 C 
BRANCH  28  29
ATOM     29  C   UNL     1     196.859 190.207 199.533  1.00  0.00    -0.000 C 
BRANCH  29  30
ATOM     30  C   UNL     1     196.176 189.141 200.408  1.00  0.00    -0.000 C 
BRANCH  30  31
ATOM     31  C   UNL     1     196.315 187.725 199.828  1.00  0.00    -0.003 C 
ATOM     32  C   UNL     1     195.348 187.463 198.673  1.00  0.00     0.004 C 
ENDBRANCH  30  31
ENDBRANCH  29  30
ENDBRANCH  28  29
ENDBRANCH  27  28
ENDBRANCH  26  27
ENDBRANCH  25  26
ENDBRANCH  24  25
ENDBRANCH  23  24
ENDBRANCH  22  23
ENDBRANCH  21  22
ENDBRANCH  20  21
ENDBRANCH  19  20
ENDBRANCH  18  19
ENDBRANCH   1  18
TORSDOF 28
ENDMDL
MODEL 9
REMARK VINA RESULT:    -4.015      2.828      4.766
REMARK INTER + INTRA:         -14.235
REMARK INTER:                 -10.353
REMARK INTRA:                  -3.883
REMARK UNBOUND:                -3.648
REMARK SMILES CCCCCCCCCCCCCCCCCCCCCCCCCCCCCC(=O)[O-]
REMARK SMILES IDX 16 1 17 2 18 3 19 4 20 5 21 6 22 7 23 8 24 9 25 10 26 11
REMARK SMILES IDX 27 12 28 13 29 14 30 15 31 16 32 17 15 18 14 19 13 20 12 21
REMARK SMILES IDX 11 22 10 23 9 24 8 25 7 26 6 27 5 28 4 29 3 30 2 31 1 32
REMARK H PARENT
REMARK Flexibility Score: inf
ROOT
ATOM      1  C   UNL     1     186.929 188.595 200.714  1.00  0.00     0.000 C 
ENDROOT
BRANCH   1   2
ATOM      2  C   UNL     1     188.085 188.880 199.741  1.00  0.00     0.000 C 
BRANCH   2   3
ATOM      3  C   UNL     1     189.165 189.794 200.349  1.00  0.00     0.000 C 
BRANCH   3   4
ATOM      4  C   UNL     1     190.458 189.033 200.682  1.00  0.00     0.000 C 
BRANCH   4   5
ATOM      5  C   UNL     1     191.442 189.001 199.503  1.00  0.00     0.000 C 
BRANCH   5   6
ATOM      6  C   UNL     1     191.866 190.420 199.102  1.00  0.00     0.000 C 
BRANCH   6   7
ATOM      7  C   UNL     1     192.583 191.129 200.260  1.00  0.00     0.000 C 
BRANCH   7   8
ATOM      8  C   UNL     1     193.751 192.010 199.789  1.00  0.00     0.000 C 
BRANCH   8   9
ATOM      9  C   UNL     1     194.621 192.509 200.957  1.00  0.00     0.000 C 
BRANCH   9  10
ATOM     10  C   UNL     1     196.009 191.845 200.993  1.00  0.00     0.000 C 
BRANCH  10  11
ATOM     11  C   UNL     1     196.160 190.707 202.022  1.00  0.00     0.000 C 
BRANCH  11  12
ATOM     12  C   UNL     1     195.610 189.350 201.533  1.00  0.00     0.000 C 
BRANCH  12  13
ATOM     13  C   UNL     1     196.223 188.926 200.190  1.00  0.00     0.006 C 
BRANCH  13  14
ATOM     14  C   UNL     1     195.135 188.599 199.164  1.00  0.00     0.053 C 
BRANCH  14  15
ATOM     15  C   UNL     1     195.558 187.456 198.296  1.00  0.00     0.041 C 
ATOM     16  O   UNL     1     195.774 186.324 198.803  1.00  0.00    -0.550 OA
ATOM     17  O   UNL     1     195.757 187.654 196.934  1.00  0.00    -0.550 OA
ENDBRANCH  14  15
ENDBRANCH  13  14
ENDBRANCH  12  13
ENDBRANCH  11  12
ENDBRANCH  10  11
ENDBRANCH   9  10
ENDBRANCH   8   9
ENDBRANCH   7   8
ENDBRANCH   6   7
ENDBRANCH   5   6
ENDBRANCH   4   5
ENDBRANCH   3   4
ENDBRANCH   2   3
ENDBRANCH   1   2
BRANCH   1  18
ATOM     18  C   UNL     1     185.610 189.325 200.392  1.00  0.00     0.000 C 
BRANCH  18  19
ATOM     19  C   UNL     1     184.453 188.991 201.362  1.00  0.00     0.000 C 
BRANCH  19  20
ATOM     20  C   UNL     1     183.054 189.267 200.781  1.00  0.00     0.000 C 
BRANCH  20  21
ATOM     21  C   UNL     1     182.477 188.055 200.030  1.00  0.00     0.000 C 
BRANCH  21  22
ATOM     22  C   UNL     1     182.867 186.714 200.677  1.00  0.00     0.000 C 
BRANCH  22  23
ATOM     23  C   UNL     1     183.375 185.638 199.696  1.00  0.00     0.000 C 
BRANCH  23  24
ATOM     24  C   UNL     1     184.823 185.833 199.212  1.00  0.00    -0.000 C 
BRANCH  24  25
ATOM     25  C   UNL     1     185.042 185.343 197.770  1.00  0.00    -0.000 C 
BRANCH  25  26
ATOM     26  C   UNL     1     185.492 186.476 196.821  1.00  0.00    -0.000 C 
BRANCH  26  27
ATOM     27  C   UNL     1     185.349 187.886 197.424  1.00  0.00    -0.000 C 
BRANCH  27  28
ATOM     28  C   UNL     1     184.168 188.713 196.882  1.00  0.00    -0.000 C 
BRANCH  28  29
ATOM     29  C   UNL     1     184.127 190.179 197.351  1.00  0.00    -0.000 C 
BRANCH  29  30
ATOM     30  C   UNL     1     182.696 190.738 197.439  1.00  0.00    -0.000 C 
BRANCH  30  31
ATOM     31  C   UNL     1     182.670 192.256 197.674  1.00  0.00    -0.003 C 
ATOM     32  C   UNL     1     182.289 192.625 199.108  1.00  0.00     0.004 C 
ENDBRANCH  30  31
ENDBRANCH  29  30
ENDBRANCH  28  29
ENDBRANCH  27  28
ENDBRANCH  26  27
ENDBRANCH  25  26
ENDBRANCH  24  25
ENDBRANCH  23  24
ENDBRANCH  22  23
ENDBRANCH  21  22
ENDBRANCH  20  21
ENDBRANCH  19  20
ENDBRANCH  18  19
ENDBRANCH   1  18
TORSDOF 28
ENDMDL
