MODEL 1
REMARK VINA RESULT:    -4.837      0.000      0.000
REMARK INTER + INTRA:         -16.745
REMARK INTER:                 -12.754
REMARK INTRA:                  -3.991
REMARK UNBOUND:                -3.991
REMARK SMILES CCCCCCCCCCCCCCCCCCCCCCCCCCCCCC(=O)[O-]
REMARK SMILES IDX 16 1 17 2 18 3 19 4 20 5 21 6 22 7 23 8 24 9 25 10 26 11
REMARK SMILES IDX 27 12 28 13 29 14 30 15 31 16 32 17 15 18 14 19 13 20 12 21
REMARK SMILES IDX 11 22 10 23 9 24 8 25 7 26 6 27 5 28 4 29 3 30 2 31 1 32
REMARK H PARENT
REMARK Flexibility Score: inf
ROOT
ATOM      1  C   UNL     1      -6.915 -22.792 -14.830  1.00  0.00     0.000 C 
ENDROOT
BRANCH   1   2
ATOM      2  C   UNL     1      -8.237 -22.141 -15.263  1.00  0.00     0.000 C 
BRANCH   2   3
ATOM      3  C   UNL     1      -8.308 -20.649 -14.898  1.00  0.00     0.000 C 
BRANCH   3   4
ATOM      4  C   UNL     1      -6.924 -19.977 -14.881  1.00  0.00     0.000 C 
BRANCH   4   5
ATOM      5  C   UNL     1      -6.746 -19.015 -13.688  1.00  0.00     0.000 C 
BRANCH   5   6
ATOM      6  C   UNL     1      -5.865 -17.787 -13.994  1.00  0.00     0.000 C 
BRANCH   6   7
ATOM      7  C   UNL     1      -6.522 -16.420 -13.724  1.00  0.00     0.000 C 
BRANCH   7   8
ATOM      8  C   UNL     1      -6.248 -15.826 -12.330  1.00  0.00     0.000 C 
BRANCH   8   9
ATOM      9  C   UNL     1      -7.353 -16.144 -11.312  1.00  0.00     0.000 C 
BRANCH   9  10
ATOM     10  C   UNL     1      -6.866 -17.176 -10.284  1.00  0.00     0.000 C 
BRANCH  10  11
ATOM     11  C   UNL     1      -7.854 -18.339 -10.103  1.00  0.00     0.000 C 
BRANCH  11  12
ATOM     12  C   UNL     1      -7.700 -19.024  -8.734  1.00  0.00     0.000 C 
BRANCH  12  13
ATOM     13  C   UNL     1      -8.657 -18.454  -7.674  1.00  0.00     0.006 C 
BRANCH  13  14
ATOM     14  C   UNL     1      -9.453 -19.543  -6.941  1.00  0.00     0.053 C 
BRANCH  14  15
ATOM     15  C   UNL     1     -10.288 -20.325  -7.906  1.00  0.00     0.041 C 
ATOM     16  O   UNL     1     -10.345 -21.581  -7.820  1.00  0.00    -0.550 OA
ATOM     17  O   UNL     1     -11.037 -19.666  -8.872  1.00  0.00    -0.550 OA
ENDBRANCH  14  15
ENDBRANCH  13  14
ENDBRANCH  12  13
ENDBRANCH  11  12
ENDBRANCH  10  11
ENDBRANCH   9  10
ENDBRANCH   8   9
ENDBRANCH   7   8
ENDBRANCH   6   7
ENDBRANCH   5   6
ENDBRANCH   4   5
ENDBRANCH   3   4
ENDBRANCH   2   3
ENDBRANCH   1   2
BRANCH   1  18
ATOM     18  C   UNL     1      -6.833 -24.245 -15.321  1.00  0.00     0.000 C 
BRANCH  18  19
ATOM     19  C   UNL     1      -7.601 -24.472 -16.634  1.00  0.00     0.000 C 
BRANCH  19  20
ATOM     20  C   UNL     1      -6.684 -24.934 -17.779  1.00  0.00     0.000 C 
BRANCH  20  21
ATOM     21  C   UNL     1      -7.458 -25.541 -18.964  1.00  0.00     0.000 C 
BRANCH  21  22
ATOM     22  C   UNL     1      -8.980 -25.309 -18.948  1.00  0.00     0.000 C 
BRANCH  22  23
ATOM     23  C   UNL     1      -9.786 -26.617 -18.890  1.00  0.00     0.000 C 
BRANCH  23  24
ATOM     24  C   UNL     1     -10.204 -27.001 -17.458  1.00  0.00    -0.000 C 
BRANCH  24  25
ATOM     25  C   UNL     1      -9.164 -27.818 -16.668  1.00  0.00    -0.000 C 
BRANCH  25  26
ATOM     26  C   UNL     1      -9.084 -27.414 -15.189  1.00  0.00    -0.000 C 
BRANCH  26  27
ATOM     27  C   UNL     1     -10.203 -26.431 -14.822  1.00  0.00    -0.000 C 
BRANCH  27  28
ATOM     28  C   UNL     1     -10.306 -26.263 -13.299  1.00  0.00    -0.000 C 
BRANCH  28  29
ATOM     29  C   UNL     1      -9.299 -25.244 -12.745  1.00  0.00    -0.000 C 
BRANCH  29  30
ATOM     30  C   UNL     1      -9.935 -23.866 -12.485  1.00  0.00    -0.000 C 
BRANCH  30  31
ATOM     31  C   UNL     1      -9.417 -23.213 -11.193  1.00  0.00    -0.003 C 
ATOM     32  C   UNL     1      -9.001 -21.756 -11.395  1.00  0.00     0.004 C 
ENDBRANCH  30  31
ENDBRANCH  29  30
ENDBRANCH  28  29
ENDBRANCH  27  28
ENDBRANCH  26  27
ENDBRANCH  25  26
ENDBRANCH  24  25
ENDBRANCH  23  24
ENDBRANCH  22  23
ENDBRANCH  21  22
ENDBRANCH  20  21
ENDBRANCH  19  20
ENDBRANCH  18  19
ENDBRANCH   1  18
TORSDOF 28
ENDMDL
MODEL 2
REMARK VINA RESULT:    -4.761      2.109      4.367
REMARK INTER + INTRA:         -16.546
REMARK INTER:                 -11.208
REMARK INTRA:                  -5.338
REMARK UNBOUND:                -3.991
REMARK SMILES CCCCCCCCCCCCCCCCCCCCCCCCCCCCCC(=O)[O-]
REMARK SMILES IDX 16 1 17 2 18 3 19 4 20 5 21 6 22 7 23 8 24 9 25 10 26 11
REMARK SMILES IDX 27 12 28 13 29 14 30 15 31 16 32 17 15 18 14 19 13 20 12 21
REMARK SMILES IDX 11 22 10 23 9 24 8 25 7 26 6 27 5 28 4 29 3 30 2 31 1 32
REMARK H PARENT
REMARK Flexibility Score: inf
ROOT
ATOM      1  C   UNL     1      -7.951 -20.109 -15.383  1.00  0.00     0.000 C 
ENDROOT
BRANCH   1   2
ATOM      2  C   UNL     1      -7.432 -18.675 -15.572  1.00  0.00     0.000 C 
BRANCH   2   3
ATOM      3  C   UNL     1      -6.397 -18.566 -16.704  1.00  0.00     0.000 C 
BRANCH   3   4
ATOM      4  C   UNL     1      -5.389 -17.426 -16.478  1.00  0.00     0.000 C 
BRANCH   4   5
ATOM      5  C   UNL     1      -5.783 -16.510 -15.300  1.00  0.00     0.000 C 
BRANCH   5   6
ATOM      6  C   UNL     1      -4.750 -16.476 -14.155  1.00  0.00     0.000 C 
BRANCH   6   7
ATOM      7  C   UNL     1      -5.342 -16.420 -12.734  1.00  0.00     0.000 C 
BRANCH   7   8
ATOM      8  C   UNL     1      -6.734 -15.768 -12.631  1.00  0.00     0.000 C 
BRANCH   8   9
ATOM      9  C   UNL     1      -7.447 -16.076 -11.307  1.00  0.00     0.000 C 
BRANCH   9  10
ATOM     10  C   UNL     1      -6.718 -17.192 -10.544  1.00  0.00     0.000 C 
BRANCH  10  11
ATOM     11  C   UNL     1      -7.674 -18.048  -9.698  1.00  0.00     0.000 C 
BRANCH  11  12
ATOM     12  C   UNL     1      -6.937 -19.166  -8.940  1.00  0.00     0.000 C 
BRANCH  12  13
ATOM     13  C   UNL     1      -7.874 -19.998  -8.049  1.00  0.00     0.006 C 
BRANCH  13  14
ATOM     14  C   UNL     1      -9.041 -19.178  -7.482  1.00  0.00     0.053 C 
BRANCH  14  15
ATOM     15  C   UNL     1     -10.351 -19.809  -7.840  1.00  0.00     0.041 C 
ATOM     16  O   UNL     1     -10.802 -19.707  -9.013  1.00  0.00    -0.550 OA
ATOM     17  O   UNL     1     -11.051 -20.545  -6.894  1.00  0.00    -0.550 OA
ENDBRANCH  14  15
ENDBRANCH  13  14
ENDBRANCH  12  13
ENDBRANCH  11  12
ENDBRANCH  10  11
ENDBRANCH   9  10
ENDBRANCH   8   9
ENDBRANCH   7   8
ENDBRANCH   6   7
ENDBRANCH   5   6
ENDBRANCH   4   5
ENDBRANCH   3   4
ENDBRANCH   2   3
ENDBRANCH   1   2
BRANCH   1  18
ATOM     18  C   UNL     1      -7.852 -20.537 -13.912  1.00  0.00     0.000 C 
BRANCH  18  19
ATOM     19  C   UNL     1      -6.800 -19.734 -13.128  1.00  0.00     0.000 C 
BRANCH  19  20
ATOM     20  C   UNL     1      -5.904 -20.632 -12.258  1.00  0.00     0.000 C 
BRANCH  20  21
ATOM     21  C   UNL     1      -4.596 -21.039 -12.960  1.00  0.00     0.000 C 
BRANCH  21  22
ATOM     22  C   UNL     1      -4.133 -20.103 -14.092  1.00  0.00     0.000 C 
BRANCH  22  23
ATOM     23  C   UNL     1      -3.568 -20.861 -15.304  1.00  0.00     0.000 C 
BRANCH  23  24
ATOM     24  C   UNL     1      -4.664 -21.389 -16.248  1.00  0.00    -0.000 C 
BRANCH  24  25
ATOM     25  C   UNL     1      -4.760 -22.923 -16.349  1.00  0.00    -0.000 C 
BRANCH  25  26
ATOM     26  C   UNL     1      -6.116 -23.471 -15.881  1.00  0.00    -0.000 C 
BRANCH  26  27
ATOM     27  C   UNL     1      -6.018 -24.055 -14.466  1.00  0.00    -0.000 C 
BRANCH  27  28
ATOM     28  C   UNL     1      -7.411 -24.203 -13.837  1.00  0.00    -0.000 C 
BRANCH  28  29
ATOM     29  C   UNL     1      -8.545 -23.951 -14.843  1.00  0.00    -0.000 C 
BRANCH  29  30
ATOM     30  C   UNL     1      -9.722 -24.927 -14.663  1.00  0.00    -0.000 C 
BRANCH  30  31
ATOM     31  C   UNL     1     -10.426 -24.757 -13.307  1.00  0.00    -0.003 C 
ATOM     32  C   UNL     1     -11.948 -24.841 -13.418  1.00  0.00     0.004 C 
ENDBRANCH  30  31
ENDBRANCH  29  30
ENDBRANCH  28  29
ENDBRANCH  27  28
ENDBRANCH  26  27
ENDBRANCH  25  26
ENDBRANCH  24  25
ENDBRANCH  23  24
ENDBRANCH  22  23
ENDBRANCH  21  22
ENDBRANCH  20  21
ENDBRANCH  19  20
ENDBRANCH  18  19
ENDBRANCH   1  18
TORSDOF 28
ENDMDL
MODEL 3
REMARK VINA RESULT:    -4.717      3.373      7.625
REMARK INTER + INTRA:         -16.429
REMARK INTER:                 -12.047
REMARK INTRA:                  -4.383
REMARK UNBOUND:                -3.991
REMARK SMILES CCCCCCCCCCCCCCCCCCCCCCCCCCCCCC(=O)[O-]
REMARK SMILES IDX 16 1 17 2 18 3 19 4 20 5 21 6 22 7 23 8 24 9 25 10 26 11
REMARK SMILES IDX 27 12 28 13 29 14 30 15 31 16 32 17 15 18 14 19 13 20 12 21
REMARK SMILES IDX 11 22 10 23 9 24 8 25 7 26 6 27 5 28 4 29 3 30 2 31 1 32
REMARK H PARENT
REMARK Flexibility Score: inf
ROOT
ATOM      1  C   UNL     1      -8.291 -21.647 -14.562  1.00  0.00     0.000 C 
ENDROOT
BRANCH   1   2
ATOM      2  C   UNL     1      -8.546 -22.889 -15.430  1.00  0.00     0.000 C 
BRANCH   2   3
ATOM      3  C   UNL     1      -7.259 -23.679 -15.722  1.00  0.00     0.000 C 
BRANCH   3   4
ATOM      4  C   UNL     1      -7.445 -24.723 -16.837  1.00  0.00     0.000 C 
BRANCH   4   5
ATOM      5  C   UNL     1      -8.929 -24.957 -17.190  1.00  0.00     0.000 C 
BRANCH   5   6
ATOM      6  C   UNL     1      -9.413 -26.402 -16.953  1.00  0.00     0.000 C 
BRANCH   6   7
ATOM      7  C   UNL     1     -10.211 -26.625 -15.654  1.00  0.00     0.000 C 
BRANCH   7   8
ATOM      8  C   UNL     1      -9.401 -27.212 -14.483  1.00  0.00     0.000 C 
BRANCH   8   9
ATOM      9  C   UNL     1      -9.574 -26.425 -13.176  1.00  0.00     0.000 C 
BRANCH   9  10
ATOM     10  C   UNL     1     -10.501 -25.218 -13.387  1.00  0.00     0.000 C 
BRANCH  10  11
ATOM     11  C   UNL     1     -10.227 -24.083 -12.388  1.00  0.00     0.000 C 
BRANCH  11  12
ATOM     12  C   UNL     1      -8.779 -24.101 -11.871  1.00  0.00     0.000 C 
BRANCH  12  13
ATOM     13  C   UNL     1      -8.419 -22.841 -11.067  1.00  0.00     0.006 C 
BRANCH  13  14
ATOM     14  C   UNL     1      -9.639 -22.194 -10.394  1.00  0.00     0.053 C 
BRANCH  14  15
ATOM     15  C   UNL     1      -9.719 -22.594  -8.953  1.00  0.00     0.041 C 
ATOM     16  O   UNL     1     -10.192 -21.796  -8.100  1.00  0.00    -0.550 OA
ATOM     17  O   UNL     1      -9.312 -23.863  -8.559  1.00  0.00    -0.550 OA
ENDBRANCH  14  15
ENDBRANCH  13  14
ENDBRANCH  12  13
ENDBRANCH  11  12
ENDBRANCH  10  11
ENDBRANCH   9  10
ENDBRANCH   8   9
ENDBRANCH   7   8
ENDBRANCH   6   7
ENDBRANCH   5   6
ENDBRANCH   4   5
ENDBRANCH   3   4
ENDBRANCH   2   3
ENDBRANCH   1   2
BRANCH   1  18
ATOM     18  C   UNL     1      -8.488 -20.360 -15.376  1.00  0.00     0.000 C 
BRANCH  18  19
ATOM     19  C   UNL     1      -7.295 -19.396 -15.262  1.00  0.00     0.000 C 
BRANCH  19  20
ATOM     20  C   UNL     1      -5.983 -20.123 -14.922  1.00  0.00     0.000 C 
BRANCH  20  21
ATOM     21  C   UNL     1      -5.030 -20.239 -16.126  1.00  0.00     0.000 C 
BRANCH  21  22
ATOM     22  C   UNL     1      -4.133 -21.491 -16.142  1.00  0.00     0.000 C 
BRANCH  22  23
ATOM     23  C   UNL     1      -4.030 -22.172 -14.767  1.00  0.00     0.000 C 
BRANCH  23  24
ATOM     24  C   UNL     1      -3.636 -23.658 -14.862  1.00  0.00    -0.000 C 
BRANCH  24  25
ATOM     25  C   UNL     1      -3.475 -24.205 -16.292  1.00  0.00    -0.000 C 
BRANCH  25  26
ATOM     26  C   UNL     1      -2.008 -24.418 -16.692  1.00  0.00    -0.000 C 
BRANCH  26  27
ATOM     27  C   UNL     1      -1.104 -24.499 -15.454  1.00  0.00    -0.000 C 
BRANCH  27  28
ATOM     28  C   UNL     1       0.055 -23.496 -15.557  1.00  0.00    -0.000 C 
BRANCH  28  29
ATOM     29  C   UNL     1      -0.428 -22.039 -15.632  1.00  0.00    -0.000 C 
BRANCH  29  30
ATOM     30  C   UNL     1       0.719 -21.027 -15.451  1.00  0.00    -0.000 C 
BRANCH  30  31
ATOM     31  C   UNL     1       0.758 -20.427 -14.036  1.00  0.00    -0.003 C 
ATOM     32  C   UNL     1      -0.248 -19.292 -13.848  1.00  0.00     0.004 C 
ENDBRANCH  30  31
ENDBRANCH  29  30
ENDBRANCH  28  29
ENDBRANCH  27  28
ENDBRANCH  26  27
ENDBRANCH  25  26
ENDBRANCH  24  25
ENDBRANCH  23  24
ENDBRANCH  22  23
ENDBRANCH  21  22
ENDBRANCH  20  21
ENDBRANCH  19  20
ENDBRANCH  18  19
ENDBRANCH   1  18
TORSDOF 28
ENDMDL
MODEL 4
REMARK VINA RESULT:    -4.684      6.806      9.515
REMARK INTER + INTRA:         -16.343
REMARK INTER:                 -10.590
REMARK INTRA:                  -5.753
REMARK UNBOUND:                -3.991
REMARK SMILES CCCCCCCCCCCCCCCCCCCCCCCCCCCCCC(=O)[O-]
REMARK SMILES IDX 16 1 17 2 18 3 19 4 20 5 21 6 22 7 23 8 24 9 25 10 26 11
REMARK SMILES IDX 27 12 28 13 29 14 30 15 31 16 32 17 15 18 14 19 13 20 12 21
REMARK SMILES IDX 11 22 10 23 9 24 8 25 7 26 6 27 5 28 4 29 3 30 2 31 1 32
REMARK H PARENT
REMARK Flexibility Score: inf
ROOT
ATOM      1  C   UNL     1      -0.314 -19.581 -12.710  1.00  0.00     0.000 C 
ENDROOT
BRANCH   1   2
ATOM      2  C   UNL     1       0.508 -19.623 -14.006  1.00  0.00     0.000 C 
BRANCH   2   3
ATOM      3  C   UNL     1       0.046 -20.734 -14.963  1.00  0.00     0.000 C 
BRANCH   3   4
ATOM      4  C   UNL     1       1.174 -21.719 -15.319  1.00  0.00     0.000 C 
BRANCH   4   5
ATOM      5  C   UNL     1       0.697 -22.860 -16.241  1.00  0.00     0.000 C 
BRANCH   5   6
ATOM      6  C   UNL     1      -0.832 -22.919 -16.432  1.00  0.00     0.000 C 
BRANCH   6   7
ATOM      7  C   UNL     1      -1.521 -24.169 -15.853  1.00  0.00     0.000 C 
BRANCH   7   8
ATOM      8  C   UNL     1      -1.557 -24.242 -14.315  1.00  0.00     0.000 C 
BRANCH   8   9
ATOM      9  C   UNL     1      -0.558 -25.255 -13.737  1.00  0.00     0.000 C 
BRANCH   9  10
ATOM     10  C   UNL     1       0.469 -24.552 -12.837  1.00  0.00     0.000 C 
BRANCH  10  11
ATOM     11  C   UNL     1      -0.100 -23.292 -12.165  1.00  0.00     0.000 C 
BRANCH  11  12
ATOM     12  C   UNL     1       0.945 -22.577 -11.291  1.00  0.00     0.000 C 
BRANCH  12  13
ATOM     13  C   UNL     1       2.389 -22.926 -11.687  1.00  0.00     0.006 C 
BRANCH  13  14
ATOM     14  C   UNL     1       3.433 -22.080 -10.945  1.00  0.00     0.053 C 
BRANCH  14  15
ATOM     15  C   UNL     1       4.111 -21.134 -11.888  1.00  0.00     0.041 C 
ATOM     16  O   UNL     1       5.220 -21.441 -12.403  1.00  0.00    -0.550 OA
ATOM     17  O   UNL     1       3.500 -19.936 -12.232  1.00  0.00    -0.550 OA
ENDBRANCH  14  15
ENDBRANCH  13  14
ENDBRANCH  12  13
ENDBRANCH  11  12
ENDBRANCH  10  11
ENDBRANCH   9  10
ENDBRANCH   8   9
ENDBRANCH   7   8
ENDBRANCH   6   7
ENDBRANCH   5   6
ENDBRANCH   4   5
ENDBRANCH   3   4
ENDBRANCH   2   3
ENDBRANCH   1   2
BRANCH   1  18
ATOM     18  C   UNL     1      -1.812 -19.433 -13.016  1.00  0.00     0.000 C 
BRANCH  18  19
ATOM     19  C   UNL     1      -2.646 -20.611 -12.486  1.00  0.00     0.000 C 
BRANCH  19  20
ATOM     20  C   UNL     1      -3.601 -21.181 -13.550  1.00  0.00     0.000 C 
BRANCH  20  21
ATOM     21  C   UNL     1      -3.371 -20.579 -14.949  1.00  0.00     0.000 C 
BRANCH  21  22
ATOM     22  C   UNL     1      -4.236 -21.174 -16.075  1.00  0.00     0.000 C 
BRANCH  22  23
ATOM     23  C   UNL     1      -5.237 -20.163 -16.660  1.00  0.00     0.000 C 
BRANCH  23  24
ATOM     24  C   UNL     1      -5.128 -18.768 -16.016  1.00  0.00    -0.000 C 
BRANCH  24  25
ATOM     25  C   UNL     1      -6.317 -18.363 -15.124  1.00  0.00    -0.000 C 
BRANCH  25  26
ATOM     26  C   UNL     1      -5.904 -18.063 -13.675  1.00  0.00    -0.000 C 
BRANCH  26  27
ATOM     27  C   UNL     1      -6.517 -19.080 -12.704  1.00  0.00    -0.000 C 
BRANCH  27  28
ATOM     28  C   UNL     1      -7.590 -19.927 -13.405  1.00  0.00    -0.000 C 
BRANCH  28  29
ATOM     29  C   UNL     1      -7.947 -21.200 -12.621  1.00  0.00    -0.000 C 
BRANCH  29  30
ATOM     30  C   UNL     1      -8.237 -22.399 -13.541  1.00  0.00    -0.000 C 
BRANCH  30  31
ATOM     31  C   UNL     1      -7.775 -22.158 -14.987  1.00  0.00    -0.003 C 
ATOM     32  C   UNL     1      -7.482 -23.457 -15.737  1.00  0.00     0.004 C 
ENDBRANCH  30  31
ENDBRANCH  29  30
ENDBRANCH  28  29
ENDBRANCH  27  28
ENDBRANCH  26  27
ENDBRANCH  25  26
ENDBRANCH  24  25
ENDBRANCH  23  24
ENDBRANCH  22  23
ENDBRANCH  21  22
ENDBRANCH  20  21
ENDBRANCH  19  20
ENDBRANCH  18  19
ENDBRANCH   1  18
TORSDOF 28
ENDMDL
MODEL 5
REMARK VINA RESULT:    -4.660      6.144      8.109
REMARK INTER + INTRA:         -16.280
REMARK INTER:                 -12.659
REMARK INTRA:                  -3.620
REMARK UNBOUND:                -3.991
REMARK SMILES CCCCCCCCCCCCCCCCCCCCCCCCCCCCCC(=O)[O-]
REMARK SMILES IDX 16 1 17 2 18 3 19 4 20 5 21 6 22 7 23 8 24 9 25 10 26 11
REMARK SMILES IDX 27 12 28 13 29 14 30 15 31 16 32 17 15 18 14 19 13 20 12 21
REMARK SMILES IDX 11 22 10 23 9 24 8 25 7 26 6 27 5 28 4 29 3 30 2 31 1 32
REMARK H PARENT
REMARK Flexibility Score: inf
ROOT
ATOM      1  C   UNL     1      -5.632 -21.076 -15.033  1.00  0.00     0.000 C 
ENDROOT
BRANCH   1   2
ATOM      2  C   UNL     1      -4.721 -21.793 -16.040  1.00  0.00     0.000 C 
BRANCH   2   3
ATOM      3  C   UNL     1      -3.636 -22.640 -15.356  1.00  0.00     0.000 C 
BRANCH   3   4
ATOM      4  C   UNL     1      -3.763 -24.140 -15.679  1.00  0.00     0.000 C 
BRANCH   4   5
ATOM      5  C   UNL     1      -2.475 -24.725 -16.294  1.00  0.00     0.000 C 
BRANCH   5   6
ATOM      6  C   UNL     1      -1.667 -23.721 -17.141  1.00  0.00     0.000 C 
BRANCH   6   7
ATOM      7  C   UNL     1      -0.302 -23.312 -16.555  1.00  0.00     0.000 C 
BRANCH   7   8
ATOM      8  C   UNL     1       0.092 -24.034 -15.253  1.00  0.00     0.000 C 
BRANCH   8   9
ATOM      9  C   UNL     1       0.371 -23.069 -14.091  1.00  0.00     0.000 C 
BRANCH   9  10
ATOM     10  C   UNL     1       1.019 -21.774 -14.602  1.00  0.00     0.000 C 
BRANCH  10  11
ATOM     11  C   UNL     1       1.601 -20.918 -13.466  1.00  0.00     0.000 C 
BRANCH  11  12
ATOM     12  C   UNL     1       2.853 -20.140 -13.908  1.00  0.00     0.000 C 
BRANCH  12  13
ATOM     13  C   UNL     1       3.898 -20.013 -12.788  1.00  0.00     0.006 C 
BRANCH  13  14
ATOM     14  C   UNL     1       3.270 -19.964 -11.388  1.00  0.00     0.053 C 
BRANCH  14  15
ATOM     15  C   UNL     1       3.944 -20.941 -10.475  1.00  0.00     0.041 C 
ATOM     16  O   UNL     1       4.199 -22.109 -10.875  1.00  0.00    -0.550 OA
ATOM     17  O   UNL     1       4.329 -20.550  -9.199  1.00  0.00    -0.550 OA
ENDBRANCH  14  15
ENDBRANCH  13  14
ENDBRANCH  12  13
ENDBRANCH  11  12
ENDBRANCH  10  11
ENDBRANCH   9  10
ENDBRANCH   8   9
ENDBRANCH   7   8
ENDBRANCH   6   7
ENDBRANCH   5   6
ENDBRANCH   4   5
ENDBRANCH   3   4
ENDBRANCH   2   3
ENDBRANCH   1   2
BRANCH   1  18
ATOM     18  C   UNL     1      -5.856 -21.942 -13.784  1.00  0.00     0.000 C 
BRANCH  18  19
ATOM     19  C   UNL     1      -7.286 -22.502 -13.698  1.00  0.00     0.000 C 
BRANCH  19  20
ATOM     20  C   UNL     1      -8.130 -22.150 -14.934  1.00  0.00     0.000 C 
BRANCH  20  21
ATOM     21  C   UNL     1      -8.555 -23.388 -15.746  1.00  0.00     0.000 C 
BRANCH  21  22
ATOM     22  C   UNL     1      -7.433 -24.398 -16.047  1.00  0.00     0.000 C 
BRANCH  22  23
ATOM     23  C   UNL     1      -7.571 -25.053 -17.431  1.00  0.00     0.000 C 
BRANCH  23  24
ATOM     24  C   UNL     1      -9.037 -25.274 -17.848  1.00  0.00    -0.000 C 
BRANCH  24  25
ATOM     25  C   UNL     1      -9.253 -26.317 -18.960  1.00  0.00    -0.000 C 
BRANCH  25  26
ATOM     26  C   UNL     1      -9.759 -27.666 -18.428  1.00  0.00    -0.000 C 
BRANCH  26  27
ATOM     27  C   UNL     1      -8.639 -28.434 -17.715  1.00  0.00    -0.000 C 
BRANCH  27  28
ATOM     28  C   UNL     1      -9.142 -29.031 -16.393  1.00  0.00    -0.000 C 
BRANCH  28  29
ATOM     29  C   UNL     1     -10.190 -28.145 -15.703  1.00  0.00    -0.000 C 
BRANCH  29  30
ATOM     30  C   UNL     1      -9.566 -27.177 -14.682  1.00  0.00    -0.000 C 
BRANCH  30  31
ATOM     31  C   UNL     1     -10.552 -26.092 -14.218  1.00  0.00    -0.003 C 
ATOM     32  C   UNL     1     -10.067 -25.345 -12.977  1.00  0.00     0.004 C 
ENDBRANCH  30  31
ENDBRANCH  29  30
ENDBRANCH  28  29
ENDBRANCH  27  28
ENDBRANCH  26  27
ENDBRANCH  25  26
ENDBRANCH  24  25
ENDBRANCH  23  24
ENDBRANCH  22  23
ENDBRANCH  21  22
ENDBRANCH  20  21
ENDBRANCH  19  20
ENDBRANCH  18  19
ENDBRANCH   1  18
TORSDOF 28
ENDMDL
MODEL 6
REMARK VINA RESULT:    -4.646      4.599      7.439
REMARK INTER + INTRA:         -16.242
REMARK INTER:                 -10.954
REMARK INTRA:                  -5.287
REMARK UNBOUND:                -3.991
REMARK SMILES CCCCCCCCCCCCCCCCCCCCCCCCCCCCCC(=O)[O-]
REMARK SMILES IDX 16 1 17 2 18 3 19 4 20 5 21 6 22 7 23 8 24 9 25 10 26 11
REMARK SMILES IDX 27 12 28 13 29 14 30 15 31 16 32 17 15 18 14 19 13 20 12 21
REMARK SMILES IDX 11 22 10 23 9 24 8 25 7 26 6 27 5 28 4 29 3 30 2 31 1 32
REMARK H PARENT
REMARK Flexibility Score: inf
ROOT
ATOM      1  C   UNL     1      -2.337 -24.740 -16.496  1.00  0.00     0.000 C 
ENDROOT
BRANCH   1   2
ATOM      2  C   UNL     1      -3.685 -24.091 -16.846  1.00  0.00     0.000 C 
BRANCH   2   3
ATOM      3  C   UNL     1      -4.250 -23.246 -15.693  1.00  0.00     0.000 C 
BRANCH   3   4
ATOM      4  C   UNL     1      -4.951 -21.967 -16.185  1.00  0.00     0.000 C 
BRANCH   4   5
ATOM      5  C   UNL     1      -4.047 -20.721 -16.089  1.00  0.00     0.000 C 
BRANCH   5   6
ATOM      6  C   UNL     1      -4.805 -19.382 -16.190  1.00  0.00     0.000 C 
BRANCH   6   7
ATOM      7  C   UNL     1      -3.926 -18.119 -16.117  1.00  0.00     0.000 C 
BRANCH   7   8
ATOM      8  C   UNL     1      -3.197 -17.906 -14.777  1.00  0.00     0.000 C 
BRANCH   8   9
ATOM      9  C   UNL     1      -3.695 -16.673 -14.010  1.00  0.00     0.000 C 
BRANCH   9  10
ATOM     10  C   UNL     1      -4.865 -17.042 -13.086  1.00  0.00     0.000 C 
BRANCH  10  11
ATOM     11  C   UNL     1      -6.219 -16.551 -13.624  1.00  0.00     0.000 C 
BRANCH  11  12
ATOM     12  C   UNL     1      -6.235 -15.031 -13.856  1.00  0.00     0.000 C 
BRANCH  12  13
ATOM     13  C   UNL     1      -6.698 -14.651 -15.272  1.00  0.00     0.006 C 
BRANCH  13  14
ATOM     14  C   UNL     1      -6.403 -15.744 -16.310  1.00  0.00     0.053 C 
BRANCH  14  15
ATOM     15  C   UNL     1      -7.658 -16.149 -17.019  1.00  0.00     0.041 C 
ATOM     16  O   UNL     1      -7.851 -17.357 -17.324  1.00  0.00    -0.550 OA
ATOM     17  O   UNL     1      -8.634 -15.202 -17.303  1.00  0.00    -0.550 OA
ENDBRANCH  14  15
ENDBRANCH  13  14
ENDBRANCH  12  13
ENDBRANCH  11  12
ENDBRANCH  10  11
ENDBRANCH   9  10
ENDBRANCH   8   9
ENDBRANCH   7   8
ENDBRANCH   6   7
ENDBRANCH   5   6
ENDBRANCH   4   5
ENDBRANCH   3   4
ENDBRANCH   2   3
ENDBRANCH   1   2
BRANCH   1  18
ATOM     18  C   UNL     1      -1.553 -23.870 -15.502  1.00  0.00     0.000 C 
BRANCH  18  19
ATOM     19  C   UNL     1      -0.048 -23.820 -15.815  1.00  0.00     0.000 C 
BRANCH  19  20
ATOM     20  C   UNL     1       0.362 -22.515 -16.519  1.00  0.00     0.000 C 
BRANCH  20  21
ATOM     21  C   UNL     1       0.185 -21.270 -15.630  1.00  0.00     0.000 C 
BRANCH  21  22
ATOM     22  C   UNL     1       0.970 -21.286 -14.305  1.00  0.00     0.000 C 
BRANCH  22  23
ATOM     23  C   UNL     1       0.059 -21.366 -13.069  1.00  0.00     0.000 C 
BRANCH  23  24
ATOM     24  C   UNL     1      -1.321 -20.722 -13.296  1.00  0.00    -0.000 C 
BRANCH  24  25
ATOM     25  C   UNL     1      -2.521 -21.544 -12.790  1.00  0.00    -0.000 C 
BRANCH  25  26
ATOM     26  C   UNL     1      -3.669 -20.669 -12.267  1.00  0.00    -0.000 C 
BRANCH  26  27
ATOM     27  C   UNL     1      -5.031 -21.311 -12.560  1.00  0.00    -0.000 C 
BRANCH  27  28
ATOM     28  C   UNL     1      -6.069 -20.244 -12.939  1.00  0.00    -0.000 C 
BRANCH  28  29
ATOM     29  C   UNL     1      -7.514 -20.718 -12.720  1.00  0.00    -0.000 C 
BRANCH  29  30
ATOM     30  C   UNL     1      -8.168 -21.236 -14.014  1.00  0.00    -0.000 C 
BRANCH  30  31
ATOM     31  C   UNL     1      -8.194 -22.771 -14.088  1.00  0.00    -0.003 C 
ATOM     32  C   UNL     1      -8.361 -23.290 -15.515  1.00  0.00     0.004 C 
ENDBRANCH  30  31
ENDBRANCH  29  30
ENDBRANCH  28  29
ENDBRANCH  27  28
ENDBRANCH  26  27
ENDBRANCH  25  26
ENDBRANCH  24  25
ENDBRANCH  23  24
ENDBRANCH  22  23
ENDBRANCH  21  22
ENDBRANCH  20  21
ENDBRANCH  19  20
ENDBRANCH  18  19
ENDBRANCH   1  18
TORSDOF 28
ENDMDL
MODEL 7
REMARK VINA RESULT:    -4.616      8.980     10.597
REMARK INTER + INTRA:         -16.164
REMARK INTER:                 -10.555
REMARK INTRA:                  -5.609
REMARK UNBOUND:                -3.991
REMARK SMILES CCCCCCCCCCCCCCCCCCCCCCCCCCCCCC(=O)[O-]
REMARK SMILES IDX 16 1 17 2 18 3 19 4 20 5 21 6 22 7 23 8 24 9 25 10 26 11
REMARK SMILES IDX 27 12 28 13 29 14 30 15 31 16 32 17 15 18 14 19 13 20 12 21
REMARK SMILES IDX 11 22 10 23 9 24 8 25 7 26 6 27 5 28 4 29 3 30 2 31 1 32
REMARK H PARENT
REMARK Flexibility Score: inf
ROOT
ATOM      1  C   UNL     1      -1.105 -23.462 -15.351  1.00  0.00     0.000 C 
ENDROOT
BRANCH   1   2
ATOM      2  C   UNL     1       0.374 -23.436 -15.767  1.00  0.00     0.000 C 
BRANCH   2   3
ATOM      3  C   UNL     1       0.920 -22.007 -15.920  1.00  0.00     0.000 C 
BRANCH   3   4
ATOM      4  C   UNL     1       0.198 -20.996 -15.011  1.00  0.00     0.000 C 
BRANCH   4   5
ATOM      5  C   UNL     1       1.173 -20.190 -14.128  1.00  0.00     0.000 C 
BRANCH   5   6
ATOM      6  C   UNL     1       2.611 -20.747 -14.107  1.00  0.00     0.000 C 
BRANCH   6   7
ATOM      7  C   UNL     1       3.590 -20.009 -13.173  1.00  0.00     0.000 C 
BRANCH   7   8
ATOM      8  C   UNL     1       4.519 -20.920 -12.349  1.00  0.00     0.000 C 
BRANCH   8   9
ATOM      9  C   UNL     1       3.777 -21.708 -11.260  1.00  0.00     0.000 C 
BRANCH   9  10
ATOM     10  C   UNL     1       2.881 -20.777 -10.429  1.00  0.00     0.000 C 
BRANCH  10  11
ATOM     11  C   UNL     1       2.810 -21.191  -8.951  1.00  0.00     0.000 C 
BRANCH  11  12
ATOM     12  C   UNL     1       1.402 -21.659  -8.546  1.00  0.00     0.000 C 
BRANCH  12  13
ATOM     13  C   UNL     1       1.407 -23.035  -7.861  1.00  0.00     0.006 C 
BRANCH  13  14
ATOM     14  C   UNL     1       2.645 -23.873  -8.215  1.00  0.00     0.053 C 
BRANCH  14  15
ATOM     15  C   UNL     1       3.389 -24.262  -6.975  1.00  0.00     0.041 C 
ATOM     16  O   UNL     1       4.158 -23.437  -6.414  1.00  0.00    -0.550 OA
ATOM     17  O   UNL     1       3.199 -25.519  -6.414  1.00  0.00    -0.550 OA
ENDBRANCH  14  15
ENDBRANCH  13  14
ENDBRANCH  12  13
ENDBRANCH  11  12
ENDBRANCH  10  11
ENDBRANCH   9  10
ENDBRANCH   8   9
ENDBRANCH   7   8
ENDBRANCH   6   7
ENDBRANCH   5   6
ENDBRANCH   4   5
ENDBRANCH   3   4
ENDBRANCH   2   3
ENDBRANCH   1   2
BRANCH   1  18
ATOM     18  C   UNL     1      -1.487 -24.831 -14.771  1.00  0.00     0.000 C 
BRANCH  18  19
ATOM     19  C   UNL     1      -2.708 -24.762 -13.839  1.00  0.00     0.000 C 
BRANCH  19  20
ATOM     20  C   UNL     1      -3.174 -23.318 -13.587  1.00  0.00     0.000 C 
BRANCH  20  21
ATOM     21  C   UNL     1      -2.979 -22.867 -12.128  1.00  0.00     0.000 C 
BRANCH  21  22
ATOM     22  C   UNL     1      -2.390 -21.457 -11.943  1.00  0.00     0.000 C 
BRANCH  22  23
ATOM     23  C   UNL     1      -0.916 -21.473 -11.506  1.00  0.00     0.000 C 
BRANCH  23  24
ATOM     24  C   UNL     1      -0.395 -22.891 -11.206  1.00  0.00    -0.000 C 
BRANCH  24  25
ATOM     25  C   UNL     1       0.788 -23.352 -12.077  1.00  0.00    -0.000 C 
BRANCH  25  26
ATOM     26  C   UNL     1       1.041 -24.865 -11.994  1.00  0.00    -0.000 C 
BRANCH  26  27
ATOM     27  C   UNL     1       0.017 -25.546 -11.076  1.00  0.00    -0.000 C 
BRANCH  27  28
ATOM     28  C   UNL     1      -0.454 -26.879 -11.677  1.00  0.00    -0.000 C 
BRANCH  28  29
ATOM     29  C   UNL     1       0.337 -28.083 -11.142  1.00  0.00    -0.000 C 
BRANCH  29  30
ATOM     30  C   UNL     1      -0.458 -28.899 -10.107  1.00  0.00    -0.000 C 
BRANCH  30  31
ATOM     31  C   UNL     1      -1.776 -29.449 -10.676  1.00  0.00    -0.003 C 
ATOM     32  C   UNL     1      -2.281 -30.676  -9.917  1.00  0.00     0.004 C 
ENDBRANCH  30  31
ENDBRANCH  29  30
ENDBRANCH  28  29
ENDBRANCH  27  28
ENDBRANCH  26  27
ENDBRANCH  25  26
ENDBRANCH  24  25
ENDBRANCH  23  24
ENDBRANCH  22  23
ENDBRANCH  21  22
ENDBRANCH  20  21
ENDBRANCH  19  20
ENDBRANCH  18  19
ENDBRANCH   1  18
TORSDOF 28
ENDMDL
MODEL 8
REMARK VINA RESULT:    -4.584      1.267      2.058
REMARK INTER + INTRA:         -16.078
REMARK INTER:                 -12.625
REMARK INTRA:                  -3.453
REMARK UNBOUND:                -3.991
REMARK SMILES CCCCCCCCCCCCCCCCCCCCCCCCCCCCCC(=O)[O-]
REMARK SMILES IDX 16 1 17 2 18 3 19 4 20 5 21 6 22 7 23 8 24 9 25 10 26 11
REMARK SMILES IDX 27 12 28 13 29 14 30 15 31 16 32 17 15 18 14 19 13 20 12 21
REMARK SMILES IDX 11 22 10 23 9 24 8 25 7 26 6 27 5 28 4 29 3 30 2 31 1 32
REMARK H PARENT
REMARK Flexibility Score: inf
ROOT
ATOM      1  C   UNL     1      -7.247 -20.326 -14.071  1.00  0.00     0.000 C 
ENDROOT
BRANCH   1   2
ATOM      2  C   UNL     1      -7.816 -19.729 -15.367  1.00  0.00     0.000 C 
BRANCH   2   3
ATOM      3  C   UNL     1      -6.837 -18.761 -16.051  1.00  0.00     0.000 C 
BRANCH   3   4
ATOM      4  C   UNL     1      -7.487 -17.410 -16.401  1.00  0.00     0.000 C 
BRANCH   4   5
ATOM      5  C   UNL     1      -6.529 -16.219 -16.191  1.00  0.00     0.000 C 
BRANCH   5   6
ATOM      6  C   UNL     1      -5.484 -16.438 -15.078  1.00  0.00     0.000 C 
BRANCH   6   7
ATOM      7  C   UNL     1      -5.583 -15.472 -13.882  1.00  0.00     0.000 C 
BRANCH   7   8
ATOM      8  C   UNL     1      -6.753 -15.742 -12.919  1.00  0.00     0.000 C 
BRANCH   8   9
ATOM      9  C   UNL     1      -6.770 -17.181 -12.381  1.00  0.00     0.000 C 
BRANCH   9  10
ATOM     10  C   UNL     1      -7.248 -17.210 -10.921  1.00  0.00     0.000 C 
BRANCH  10  11
ATOM     11  C   UNL     1      -6.848 -18.505 -10.195  1.00  0.00     0.000 C 
BRANCH  11  12
ATOM     12  C   UNL     1      -7.897 -19.616 -10.370  1.00  0.00     0.000 C 
BRANCH  12  13
ATOM     13  C   UNL     1      -8.110 -20.438  -9.089  1.00  0.00     0.006 C 
BRANCH  13  14
ATOM     14  C   UNL     1      -8.905 -19.678  -8.017  1.00  0.00     0.053 C 
BRANCH  14  15
ATOM     15  C   UNL     1     -10.176 -20.400  -7.693  1.00  0.00     0.041 C 
ATOM     16  O   UNL     1     -11.180 -19.760  -7.281  1.00  0.00    -0.550 OA
ATOM     17  O   UNL     1     -10.266 -21.772  -7.888  1.00  0.00    -0.550 OA
ENDBRANCH  14  15
ENDBRANCH  13  14
ENDBRANCH  12  13
ENDBRANCH  11  12
ENDBRANCH  10  11
ENDBRANCH   9  10
ENDBRANCH   8   9
ENDBRANCH   7   8
ENDBRANCH   6   7
ENDBRANCH   5   6
ENDBRANCH   4   5
ENDBRANCH   3   4
ENDBRANCH   2   3
ENDBRANCH   1   2
BRANCH   1  18
ATOM     18  C   UNL     1      -7.749 -21.762 -13.863  1.00  0.00     0.000 C 
BRANCH  18  19
ATOM     19  C   UNL     1      -8.501 -22.313 -15.086  1.00  0.00     0.000 C 
BRANCH  19  20
ATOM     20  C   UNL     1      -7.925 -23.653 -15.575  1.00  0.00     0.000 C 
BRANCH  20  21
ATOM     21  C   UNL     1      -8.818 -24.346 -16.621  1.00  0.00     0.000 C 
BRANCH  21  22
ATOM     22  C   UNL     1      -8.071 -25.145 -17.704  1.00  0.00     0.000 C 
BRANCH  22  23
ATOM     23  C   UNL     1      -8.938 -25.437 -18.940  1.00  0.00     0.000 C 
BRANCH  23  24
ATOM     24  C   UNL     1     -10.082 -26.427 -18.651  1.00  0.00    -0.000 C 
BRANCH  24  25
ATOM     25  C   UNL     1      -9.680 -27.676 -17.844  1.00  0.00    -0.000 C 
BRANCH  25  26
ATOM     26  C   UNL     1     -10.635 -27.969 -16.677  1.00  0.00    -0.000 C 
BRANCH  26  27
ATOM     27  C   UNL     1      -9.958 -27.700 -15.328  1.00  0.00    -0.000 C 
BRANCH  27  28
ATOM     28  C   UNL     1     -10.589 -26.485 -14.631  1.00  0.00    -0.000 C 
BRANCH  28  29
ATOM     29  C   UNL     1     -10.092 -26.304 -13.189  1.00  0.00    -0.000 C 
BRANCH  29  30
ATOM     30  C   UNL     1     -10.050 -24.826 -12.759  1.00  0.00    -0.000 C 
BRANCH  30  31
ATOM     31  C   UNL     1      -8.871 -24.518 -11.821  1.00  0.00    -0.003 C 
ATOM     32  C   UNL     1      -9.319 -23.928 -10.485  1.00  0.00     0.004 C 
ENDBRANCH  30  31
ENDBRANCH  29  30
ENDBRANCH  28  29
ENDBRANCH  27  28
ENDBRANCH  26  27
ENDBRANCH  25  26
ENDBRANCH  24  25
ENDBRANCH  23  24
ENDBRANCH  22  23
ENDBRANCH  21  22
ENDBRANCH  20  21
ENDBRANCH  19  20
ENDBRANCH  18  19
ENDBRANCH   1  18
TORSDOF 28
ENDMDL
MODEL 9
REMARK VINA RESULT:    -4.543     13.639     15.440
REMARK INTER + INTRA:         -15.971
REMARK INTER:                 -10.728
REMARK INTRA:                  -5.243
REMARK UNBOUND:                -3.991
REMARK SMILES CCCCCCCCCCCCCCCCCCCCCCCCCCCCCC(=O)[O-]
REMARK SMILES IDX 16 1 17 2 18 3 19 4 20 5 21 6 22 7 23 8 24 9 25 10 26 11
REMARK SMILES IDX 27 12 28 13 29 14 30 15 31 16 32 17 15 18 14 19 13 20 12 21
REMARK SMILES IDX 11 22 10 23 9 24 8 25 7 26 6 27 5 28 4 29 3 30 2 31 1 32
REMARK H PARENT
REMARK Flexibility Score: inf
ROOT
ATOM      1  C   UNL     1       0.972 -28.990  -5.506  1.00  0.00     0.000 C 
ENDROOT
BRANCH   1   2
ATOM      2  C   UNL     1       1.876 -28.284  -4.485  1.00  0.00     0.000 C 
BRANCH   2   3
ATOM      3  C   UNL     1       3.366 -28.377  -4.853  1.00  0.00     0.000 C 
BRANCH   3   4
ATOM      4  C   UNL     1       4.013 -29.691  -4.380  1.00  0.00     0.000 C 
BRANCH   4   5
ATOM      5  C   UNL     1       3.911 -29.887  -2.853  1.00  0.00     0.000 C 
BRANCH   5   6
ATOM      6  C   UNL     1       3.215 -31.196  -2.430  1.00  0.00     0.000 C 
BRANCH   6   7
ATOM      7  C   UNL     1       2.017 -31.027  -1.476  1.00  0.00     0.000 C 
BRANCH   7   8
ATOM      8  C   UNL     1       1.652 -29.570  -1.138  1.00  0.00     0.000 C 
BRANCH   8   9
ATOM      9  C   UNL     1       1.921 -29.207   0.330  1.00  0.00     0.000 C 
BRANCH   9  10
ATOM     10  C   UNL     1       2.685 -27.878   0.431  1.00  0.00     0.000 C 
BRANCH  10  11
ATOM     11  C   UNL     1       4.210 -28.071   0.394  1.00  0.00     0.000 C 
BRANCH  11  12
ATOM     12  C   UNL     1       4.880 -27.203  -0.684  1.00  0.00     0.000 C 
BRANCH  12  13
ATOM     13  C   UNL     1       3.864 -26.420  -1.532  1.00  0.00     0.006 C 
BRANCH  13  14
ATOM     14  C   UNL     1       4.063 -24.900  -1.449  1.00  0.00     0.053 C 
BRANCH  14  15
ATOM     15  C   UNL     1       3.660 -24.246  -2.734  1.00  0.00     0.041 C 
ATOM     16  O   UNL     1       4.099 -23.101  -3.026  1.00  0.00    -0.550 OA
ATOM     17  O   UNL     1       2.837 -24.916  -3.629  1.00  0.00    -0.550 OA
ENDBRANCH  14  15
ENDBRANCH  13  14
ENDBRANCH  12  13
ENDBRANCH  11  12
ENDBRANCH  10  11
ENDBRANCH   9  10
ENDBRANCH   8   9
ENDBRANCH   7   8
ENDBRANCH   6   7
ENDBRANCH   5   6
ENDBRANCH   4   5
ENDBRANCH   3   4
ENDBRANCH   2   3
ENDBRANCH   1   2
BRANCH   1  18
ATOM     18  C   UNL     1       0.273 -30.202  -4.874  1.00  0.00     0.000 C 
BRANCH  18  19
ATOM     19  C   UNL     1      -0.773 -29.802  -3.820  1.00  0.00     0.000 C 
BRANCH  19  20
ATOM     20  C   UNL     1      -2.200 -30.212  -4.223  1.00  0.00     0.000 C 
BRANCH  20  21
ATOM     21  C   UNL     1      -2.756 -29.383  -5.396  1.00  0.00     0.000 C 
BRANCH  21  22
ATOM     22  C   UNL     1      -3.704 -30.135  -6.347  1.00  0.00     0.000 C 
BRANCH  22  23
ATOM     23  C   UNL     1      -4.599 -29.194  -7.170  1.00  0.00     0.000 C 
BRANCH  23  24
ATOM     24  C   UNL     1      -5.302 -29.904  -8.342  1.00  0.00    -0.000 C 
BRANCH  24  25
ATOM     25  C   UNL     1      -4.622 -31.199  -8.827  1.00  0.00    -0.000 C 
BRANCH  25  26
ATOM     26  C   UNL     1      -3.956 -31.047 -10.202  1.00  0.00    -0.000 C 
BRANCH  26  27
ATOM     27  C   UNL     1      -2.503 -31.537 -10.169  1.00  0.00    -0.000 C 
BRANCH  27  28
ATOM     28  C   UNL     1      -1.572 -30.450  -9.610  1.00  0.00    -0.000 C 
BRANCH  28  29
ATOM     29  C   UNL     1      -0.798 -30.916  -8.367  1.00  0.00    -0.000 C 
BRANCH  29  30
ATOM     30  C   UNL     1      -0.828 -32.445  -8.191  1.00  0.00    -0.000 C 
BRANCH  30  31
ATOM     31  C   UNL     1      -1.280 -32.868  -6.783  1.00  0.00    -0.003 C 
ATOM     32  C   UNL     1      -2.626 -33.591  -6.787  1.00  0.00     0.004 C 
ENDBRANCH  30  31
ENDBRANCH  29  30
ENDBRANCH  28  29
ENDBRANCH  27  28
ENDBRANCH  26  27
ENDBRANCH  25  26
ENDBRANCH  24  25
ENDBRANCH  23  24
ENDBRANCH  22  23
ENDBRANCH  21  22
ENDBRANCH  20  21
ENDBRANCH  19  20
ENDBRANCH  18  19
ENDBRANCH   1  18
TORSDOF 28
ENDMDL
