MODEL 1
REMARK VINA RESULT:    -6.176      0.000      0.000
REMARK INTER + INTRA:          -9.991
REMARK INTER:                  -9.064
REMARK INTRA:                  -0.926
REMARK UNBOUND:                -0.926
REMARK SMILES O=c1c(O[C@H]2O[C@H](CO)[C@@H](O)[C@H](O)[C@@H]2O)c(-c2ccc(O)c(O)c2)oc2cc(O)cc(O)c12
REMARK SMILES IDX 4 1 3 2 16 3 25 4 2 5 26 6 1 7 33 8 27 9 31 10 28 11 30 12
REMARK SMILES IDX 17 13 18 14 19 15 20 16 24 17 22 18 21 19 23 21 32 23 29 25
REMARK SMILES IDX 5 27 14 28 6 29 12 30 7 31 10 32 15 33 13 35 8 37 9 38 11 40
REMARK H PARENT 21 20 23 22 32 24 29 26 15 34 13 36 9 39 11 41
REMARK Flexibility Score: inf
ROOT
ATOM      1  O   UNL     1       9.114   0.917 -25.450  1.00  0.00    -0.454 OA
ENDROOT
BRANCH   1   2
ATOM      2  C   UNL     1      10.193   0.313 -26.115  1.00  0.00     0.214 A 
ATOM      3  C   UNL     1       9.955  -0.753 -27.002  1.00  0.00     0.180 A 
ATOM      4  O   UNL     1      10.964  -1.297 -27.671  1.00  0.00    -0.452 OA
ATOM      5  C   UNL     1      11.521   0.729 -25.905  1.00  0.00     0.239 A 
ATOM      6  C   UNL     1      12.224  -0.898 -27.547  1.00  0.00     0.146 A 
ATOM      7  O   UNL     1      11.765   1.552 -24.985  1.00  0.00    -0.285 OA
ATOM      8  C   UNL     1      12.567   0.168 -26.676  1.00  0.00     0.111 A 
ATOM      9  C   UNL     1      13.210  -1.559 -28.283  1.00  0.00     0.094 A 
ATOM     10  C   UNL     1      13.933   0.576 -26.604  1.00  0.00     0.134 A 
ATOM     11  C   UNL     1      14.550  -1.189 -28.161  1.00  0.00     0.123 A 
ATOM     12  C   UNL     1      14.903  -0.131 -27.324  1.00  0.00     0.093 A 
BRANCH   3  13
ATOM     13  C   UNL     1       8.595  -1.280 -27.249  1.00  0.00     0.025 A 
ATOM     14  C   UNL     1       7.561  -0.454 -27.721  1.00  0.00     0.016 A 
ATOM     15  C   UNL     1       6.293  -0.986 -27.973  1.00  0.00     0.051 A 
ATOM     16  C   UNL     1       6.036  -2.344 -27.745  1.00  0.00     0.157 A 
ATOM     17  C   UNL     1       8.328  -2.635 -26.998  1.00  0.00     0.062 A 
ATOM     18  C   UNL     1       7.057  -3.173 -27.252  1.00  0.00     0.158 A 
BRANCH  16  19
ATOM     19  O   UNL     1       4.764  -2.848 -28.012  1.00  0.00    -0.504 OA
ATOM     20  H   UNL     1       4.521  -3.247 -28.911  1.00  0.00     0.293 HD
ENDBRANCH  16  19
BRANCH  18  21
ATOM     21  O   UNL     1       6.809  -4.525 -27.016  1.00  0.00    -0.504 OA
ATOM     22  H   UNL     1       7.277  -5.027 -26.271  1.00  0.00     0.293 HD
ENDBRANCH  18  21
ENDBRANCH   3  13
BRANCH  10  23
ATOM     23  O   UNL     1      14.377   1.683 -25.876  1.00  0.00    -0.507 OA
ATOM     24  H   UNL     1      13.898   2.567 -25.822  1.00  0.00     0.293 HD
ENDBRANCH  10  23
BRANCH  11  25
ATOM     25  O   UNL     1      15.539  -1.860 -28.876  1.00  0.00    -0.508 OA
ATOM     26  H   UNL     1      16.393  -2.176 -28.433  1.00  0.00     0.293 HD
ENDBRANCH  11  25
ENDBRANCH   1   2
BRANCH   1  27
ATOM     27  C   UNL     1       8.953   0.940 -24.026  1.00  0.00     0.339 C 
ATOM     28  C   UNL     1       9.381  -0.408 -23.416  1.00  0.00     0.214 C 
ATOM     29  O   UNL     1       7.619   1.280 -23.663  1.00  0.00    -0.332 OA
ATOM     30  C   UNL     1       8.385  -1.512 -23.814  1.00  0.00     0.180 C 
ATOM     31  C   UNL     1       6.682   0.315 -24.122  1.00  0.00     0.179 C 
ATOM     32  C   UNL     1       6.948  -1.068 -23.484  1.00  0.00     0.177 C 
BRANCH  28  33
ATOM     33  O   UNL     1       9.443  -0.277 -22.017  1.00  0.00    -0.384 OA
ATOM     34  H   UNL     1      10.333   0.102 -21.800  1.00  0.00     0.211 HD
ENDBRANCH  28  33
BRANCH  30  35
ATOM     35  O   UNL     1       8.700  -2.701 -23.133  1.00  0.00    -0.387 OA
ATOM     36  H   UNL     1       8.526  -3.448 -23.759  1.00  0.00     0.211 HD
ENDBRANCH  30  35
BRANCH  31  37
ATOM     37  C   UNL     1       5.272   0.811 -23.783  1.00  0.00     0.191 C 
BRANCH  37  38
ATOM     38  O   UNL     1       4.875   0.281 -22.547  1.00  0.00    -0.394 OA
ATOM     39  H   UNL     1       4.841   1.048 -21.916  1.00  0.00     0.210 HD
ENDBRANCH  37  38
ENDBRANCH  31  37
BRANCH  32  40
ATOM     40  O   UNL     1       6.037  -2.009 -23.999  1.00  0.00    -0.387 OA
ATOM     41  H   UNL     1       6.000  -1.871 -24.982  1.00  0.00     0.211 HD
ENDBRANCH  32  40
ENDBRANCH   1  27
TORSDOF 12
ENDMDL
MODEL 2
REMARK VINA RESULT:    -5.779      1.740      4.135
REMARK INTER + INTRA:          -9.408
REMARK INTER:                  -7.822
REMARK INTRA:                  -1.586
REMARK UNBOUND:                -0.926
REMARK SMILES O=c1c(O[C@H]2O[C@H](CO)[C@@H](O)[C@H](O)[C@@H]2O)c(-c2ccc(O)c(O)c2)oc2cc(O)cc(O)c12
REMARK SMILES IDX 4 1 3 2 16 3 25 4 2 5 26 6 1 7 33 8 27 9 31 10 28 11 30 12
REMARK SMILES IDX 17 13 18 14 19 15 20 16 24 17 22 18 21 19 23 21 32 23 29 25
REMARK SMILES IDX 5 27 14 28 6 29 12 30 7 31 10 32 15 33 13 35 8 37 9 38 11 40
REMARK H PARENT 21 20 23 22 32 24 29 26 15 34 13 36 9 39 11 41
REMARK Flexibility Score: inf
ROOT
ATOM      1  O   UNL     1       9.600  -1.758 -26.245  1.00  0.00    -0.454 OA
ENDROOT
BRANCH   1   2
ATOM      2  C   UNL     1      10.766  -0.991 -26.398  1.00  0.00     0.214 A 
ATOM      3  C   UNL     1      10.895   0.224 -25.701  1.00  0.00     0.180 A 
ATOM      4  O   UNL     1      12.015   0.931 -25.803  1.00  0.00    -0.452 OA
ATOM      5  C   UNL     1      11.812  -1.393 -27.249  1.00  0.00     0.239 A 
ATOM      6  C   UNL     1      13.048   0.561 -26.549  1.00  0.00     0.146 A 
ATOM      7  O   UNL     1      11.634  -2.378 -28.013  1.00  0.00    -0.285 OA
ATOM      8  C   UNL     1      13.014  -0.648 -27.291  1.00  0.00     0.111 A 
ATOM      9  C   UNL     1      14.167   1.395 -26.601  1.00  0.00     0.094 A 
ATOM     10  C   UNL     1      14.165  -1.011 -28.053  1.00  0.00     0.134 A 
ATOM     11  C   UNL     1      15.264   1.057 -27.395  1.00  0.00     0.123 A 
ATOM     12  C   UNL     1      15.256  -0.136 -28.116  1.00  0.00     0.093 A 
BRANCH   3  13
ATOM     13  C   UNL     1       9.827   0.740 -24.818  1.00  0.00     0.025 A 
ATOM     14  C   UNL     1       8.600   1.191 -25.334  1.00  0.00     0.016 A 
ATOM     15  C   UNL     1       7.598   1.646 -24.473  1.00  0.00     0.051 A 
ATOM     16  C   UNL     1       7.810   1.670 -23.089  1.00  0.00     0.157 A 
ATOM     17  C   UNL     1      10.045   0.789 -23.431  1.00  0.00     0.062 A 
ATOM     18  C   UNL     1       9.041   1.243 -22.565  1.00  0.00     0.158 A 
BRANCH  16  19
ATOM     19  O   UNL     1       6.790   2.123 -22.254  1.00  0.00    -0.504 OA
ATOM     20  H   UNL     1       6.241   2.948 -22.472  1.00  0.00     0.293 HD
ENDBRANCH  16  19
BRANCH  18  21
ATOM     21  O   UNL     1       9.263   1.269 -21.188  1.00  0.00    -0.504 OA
ATOM     22  H   UNL     1      10.124   1.634 -20.797  1.00  0.00     0.293 HD
ENDBRANCH  18  21
ENDBRANCH   3  13
BRANCH  10  23
ATOM     23  O   UNL     1      14.298  -2.227 -28.729  1.00  0.00    -0.507 OA
ATOM     24  H   UNL     1      14.524  -3.107 -28.293  1.00  0.00     0.293 HD
ENDBRANCH  10  23
BRANCH  11  25
ATOM     25  O   UNL     1      16.374   1.896 -27.467  1.00  0.00    -0.508 OA
ATOM     26  H   UNL     1      17.196   1.645 -28.002  1.00  0.00     0.293 HD
ENDBRANCH  11  25
ENDBRANCH   1   2
BRANCH   1  27
ATOM     27  C   UNL     1       9.403  -2.730 -25.209  1.00  0.00     0.339 C 
ATOM     28  C   UNL     1       9.019  -4.092 -25.819  1.00  0.00     0.214 C 
ATOM     29  O   UNL     1       8.436  -2.287 -24.264  1.00  0.00    -0.332 OA
ATOM     30  C   UNL     1       7.611  -4.020 -26.436  1.00  0.00     0.180 C 
ATOM     31  C   UNL     1       7.154  -2.117 -24.855  1.00  0.00     0.179 C 
ATOM     32  C   UNL     1       6.613  -3.456 -25.409  1.00  0.00     0.177 C 
BRANCH  28  33
ATOM     33  O   UNL     1       9.069  -5.073 -24.811  1.00  0.00    -0.384 OA
ATOM     34  H   UNL     1       8.399  -4.820 -24.126  1.00  0.00     0.211 HD
ENDBRANCH  28  33
BRANCH  30  35
ATOM     35  O   UNL     1       7.213  -5.303 -26.854  1.00  0.00    -0.387 OA
ATOM     36  H   UNL     1       6.922  -5.222 -27.797  1.00  0.00     0.211 HD
ENDBRANCH  30  35
BRANCH  31  37
ATOM     37  C   UNL     1       6.206  -1.541 -23.797  1.00  0.00     0.191 C 
BRANCH  37  38
ATOM     38  O   UNL     1       5.166  -0.846 -24.431  1.00  0.00    -0.394 OA
ATOM     39  H   UNL     1       5.154   0.062 -24.028  1.00  0.00     0.210 HD
ENDBRANCH  37  38
ENDBRANCH  31  37
BRANCH  32  40
ATOM     40  O   UNL     1       5.370  -3.241 -26.032  1.00  0.00    -0.387 OA
ATOM     41  H   UNL     1       5.516  -3.329 -27.010  1.00  0.00     0.211 HD
ENDBRANCH  32  40
ENDBRANCH   1  27
TORSDOF 12
ENDMDL
MODEL 3
REMARK VINA RESULT:    -5.656      1.920      2.994
REMARK INTER + INTRA:          -9.228
REMARK INTER:                  -7.391
REMARK INTRA:                  -1.837
REMARK UNBOUND:                -0.926
REMARK SMILES O=c1c(O[C@H]2O[C@H](CO)[C@@H](O)[C@H](O)[C@@H]2O)c(-c2ccc(O)c(O)c2)oc2cc(O)cc(O)c12
REMARK SMILES IDX 4 1 3 2 16 3 25 4 2 5 26 6 1 7 33 8 27 9 31 10 28 11 30 12
REMARK SMILES IDX 17 13 18 14 19 15 20 16 24 17 22 18 21 19 23 21 32 23 29 25
REMARK SMILES IDX 5 27 14 28 6 29 12 30 7 31 10 32 15 33 13 35 8 37 9 38 11 40
REMARK H PARENT 21 20 23 22 32 24 29 26 15 34 13 36 9 39 11 41
REMARK Flexibility Score: inf
ROOT
ATOM      1  O   UNL     1       7.968  -0.759 -24.075  1.00  0.00    -0.454 OA
ENDROOT
BRANCH   1   2
ATOM      2  C   UNL     1       9.034  -1.078 -24.931  1.00  0.00     0.214 A 
ATOM      3  C   UNL     1       9.037  -2.311 -25.607  1.00  0.00     0.180 A 
ATOM      4  O   UNL     1      10.017  -2.599 -26.456  1.00  0.00    -0.452 OA
ATOM      5  C   UNL     1      10.120  -0.204 -25.121  1.00  0.00     0.239 A 
ATOM      6  C   UNL     1      11.030  -1.781 -26.709  1.00  0.00     0.146 A 
ATOM      7  O   UNL     1      10.220   0.815 -24.388  1.00  0.00    -0.285 OA
ATOM      8  C   UNL     1      11.118  -0.515 -26.075  1.00  0.00     0.111 A 
ATOM      9  C   UNL     1      12.019  -2.198 -27.603  1.00  0.00     0.094 A 
ATOM     10  C   UNL     1      12.213   0.338 -26.407  1.00  0.00     0.134 A 
ATOM     11  C   UNL     1      13.115  -1.379 -27.876  1.00  0.00     0.123 A 
ATOM     12  C   UNL     1      13.208  -0.124 -27.276  1.00  0.00     0.093 A 
BRANCH   3  13
ATOM     13  C   UNL     1       7.955  -3.306 -25.433  1.00  0.00     0.025 A 
ATOM     14  C   UNL     1       7.900  -4.140 -24.303  1.00  0.00     0.016 A 
ATOM     15  C   UNL     1       6.849  -5.050 -24.151  1.00  0.00     0.051 A 
ATOM     16  C   UNL     1       5.850  -5.149 -25.127  1.00  0.00     0.157 A 
ATOM     17  C   UNL     1       6.965  -3.424 -26.421  1.00  0.00     0.062 A 
ATOM     18  C   UNL     1       5.909  -4.334 -26.270  1.00  0.00     0.158 A 
BRANCH  16  19
ATOM     19  O   UNL     1       4.811  -6.060 -24.945  1.00  0.00    -0.504 OA
ATOM     20  H   UNL     1       4.103  -5.933 -24.231  1.00  0.00     0.293 HD
ENDBRANCH  16  19
BRANCH  18  21
ATOM     21  O   UNL     1       4.921  -4.431 -27.250  1.00  0.00    -0.504 OA
ATOM     22  H   UNL     1       3.945  -4.265 -27.035  1.00  0.00     0.293 HD
ENDBRANCH  18  21
ENDBRANCH   3  13
BRANCH  10  23
ATOM     23  O   UNL     1      12.348   1.648 -25.941  1.00  0.00    -0.507 OA
ATOM     24  H   UNL     1      13.060   1.961 -25.300  1.00  0.00     0.293 HD
ENDBRANCH  10  23
BRANCH  11  25
ATOM     25  O   UNL     1      14.115  -1.800 -28.750  1.00  0.00    -0.508 OA
ATOM     26  H   UNL     1      15.058  -1.983 -28.429  1.00  0.00     0.293 HD
ENDBRANCH  11  25
ENDBRANCH   1   2
BRANCH   1  27
ATOM     27  C   UNL     1       6.854   0.065 -24.443  1.00  0.00     0.339 C 
ATOM     28  C   UNL     1       6.668   1.202 -23.421  1.00  0.00     0.214 C 
ATOM     29  O   UNL     1       5.668  -0.707 -24.592  1.00  0.00    -0.332 OA
ATOM     30  C   UNL     1       6.187   0.633 -22.074  1.00  0.00     0.180 C 
ATOM     31  C   UNL     1       5.279  -1.323 -23.371  1.00  0.00     0.179 C 
ATOM     32  C   UNL     1       4.955  -0.265 -22.291  1.00  0.00     0.177 C 
BRANCH  28  33
ATOM     33  O   UNL     1       5.735   2.125 -23.930  1.00  0.00    -0.384 OA
ATOM     34  H   UNL     1       5.975   3.014 -23.560  1.00  0.00     0.211 HD
ENDBRANCH  28  33
BRANCH  30  35
ATOM     35  O   UNL     1       5.877   1.688 -21.198  1.00  0.00    -0.387 OA
ATOM     36  H   UNL     1       5.360   2.353 -21.719  1.00  0.00     0.211 HD
ENDBRANCH  30  35
BRANCH  31  37
ATOM     37  C   UNL     1       4.062  -2.214 -23.646  1.00  0.00     0.191 C 
BRANCH  37  38
ATOM     38  O   UNL     1       4.061  -3.292 -22.750  1.00  0.00    -0.394 OA
ATOM     39  H   UNL     1       4.861  -3.172 -22.173  1.00  0.00     0.210 HD
ENDBRANCH  37  38
ENDBRANCH  31  37
BRANCH  32  40
ATOM     40  O   UNL     1       4.625  -0.908 -21.084  1.00  0.00    -0.387 OA
ATOM     41  H   UNL     1       4.219  -0.223 -20.491  1.00  0.00     0.211 HD
ENDBRANCH  32  40
ENDBRANCH   1  27
TORSDOF 12
ENDMDL
MODEL 4
REMARK VINA RESULT:    -5.380      1.847      3.229
REMARK INTER + INTRA:          -8.822
REMARK INTER:                  -7.784
REMARK INTRA:                  -1.038
REMARK UNBOUND:                -0.926
REMARK SMILES O=c1c(O[C@H]2O[C@H](CO)[C@@H](O)[C@H](O)[C@@H]2O)c(-c2ccc(O)c(O)c2)oc2cc(O)cc(O)c12
REMARK SMILES IDX 4 1 3 2 16 3 25 4 2 5 26 6 1 7 33 8 27 9 31 10 28 11 30 12
REMARK SMILES IDX 17 13 18 14 19 15 20 16 24 17 22 18 21 19 23 21 32 23 29 25
REMARK SMILES IDX 5 27 14 28 6 29 12 30 7 31 10 32 15 33 13 35 8 37 9 38 11 40
REMARK H PARENT 21 20 23 22 32 24 29 26 15 34 13 36 9 39 11 41
REMARK Flexibility Score: inf
ROOT
ATOM      1  O   UNL     1       8.144  -0.626 -24.643  1.00  0.00    -0.454 OA
ENDROOT
BRANCH   1   2
ATOM      2  C   UNL     1       9.285  -1.058 -25.337  1.00  0.00     0.214 A 
ATOM      3  C   UNL     1       9.396  -2.406 -25.724  1.00  0.00     0.180 A 
ATOM      4  O   UNL     1      10.450  -2.810 -26.422  1.00  0.00    -0.452 OA
ATOM      5  C   UNL     1      10.343  -0.180 -25.644  1.00  0.00     0.239 A 
ATOM      6  C   UNL     1      11.442  -2.006 -26.783  1.00  0.00     0.146 A 
ATOM      7  O   UNL     1      10.340   0.976 -25.148  1.00  0.00    -0.285 OA
ATOM      8  C   UNL     1      11.424  -0.629 -26.439  1.00  0.00     0.111 A 
ATOM      9  C   UNL     1      12.514  -2.545 -27.497  1.00  0.00     0.094 A 
ATOM     10  C   UNL     1      12.502   0.196 -26.878  1.00  0.00     0.134 A 
ATOM     11  C   UNL     1      13.591  -1.739 -27.871  1.00  0.00     0.123 A 
ATOM     12  C   UNL     1      13.580  -0.381 -27.559  1.00  0.00     0.093 A 
BRANCH   3  13
ATOM     13  C   UNL     1       8.351  -3.402 -25.405  1.00  0.00     0.025 A 
ATOM     14  C   UNL     1       7.953  -3.652 -24.081  1.00  0.00     0.016 A 
ATOM     15  C   UNL     1       6.941  -4.579 -23.812  1.00  0.00     0.051 A 
ATOM     16  C   UNL     1       6.323  -5.277 -24.857  1.00  0.00     0.157 A 
ATOM     17  C   UNL     1       7.746  -4.122 -26.449  1.00  0.00     0.062 A 
ATOM     18  C   UNL     1       6.730  -5.050 -26.182  1.00  0.00     0.158 A 
BRANCH  16  19
ATOM     19  O   UNL     1       5.313  -6.190 -24.559  1.00  0.00    -0.504 OA
ATOM     20  H   UNL     1       4.694  -6.068 -23.766  1.00  0.00     0.293 HD
ENDBRANCH  16  19
BRANCH  18  21
ATOM     21  O   UNL     1       6.124  -5.746 -27.229  1.00  0.00    -0.504 OA
ATOM     22  H   UNL     1       5.714  -6.662 -27.088  1.00  0.00     0.293 HD
ENDBRANCH  18  21
ENDBRANCH   3  13
BRANCH  10  23
ATOM     23  O   UNL     1      12.541   1.582 -26.705  1.00  0.00    -0.507 OA
ATOM     24  H   UNL     1      11.912   2.107 -26.118  1.00  0.00     0.293 HD
ENDBRANCH  10  23
BRANCH  11  25
ATOM     25  O   UNL     1      14.673  -2.278 -28.565  1.00  0.00    -0.508 OA
ATOM     26  H   UNL     1      14.562  -2.697 -29.479  1.00  0.00     0.293 HD
ENDBRANCH  11  25
ENDBRANCH   1   2
BRANCH   1  27
ATOM     27  C   UNL     1       7.267   0.414 -25.097  1.00  0.00     0.339 C 
ATOM     28  C   UNL     1       5.954   0.397 -24.291  1.00  0.00     0.214 C 
ATOM     29  O   UNL     1       7.026   0.312 -26.495  1.00  0.00    -0.332 OA
ATOM     30  C   UNL     1       5.135  -0.859 -24.637  1.00  0.00     0.180 C 
ATOM     31  C   UNL     1       6.362  -0.900 -26.833  1.00  0.00     0.179 C 
ATOM     32  C   UNL     1       4.971  -0.978 -26.163  1.00  0.00     0.177 C 
BRANCH  28  33
ATOM     33  O   UNL     1       5.223   1.563 -24.586  1.00  0.00    -0.384 OA
ATOM     34  H   UNL     1       4.350   1.272 -24.955  1.00  0.00     0.211 HD
ENDBRANCH  28  33
BRANCH  30  35
ATOM     35  O   UNL     1       3.877  -0.789 -24.012  1.00  0.00    -0.387 OA
ATOM     36  H   UNL     1       3.480   0.084 -24.259  1.00  0.00     0.211 HD
ENDBRANCH  30  35
BRANCH  31  37
ATOM     37  C   UNL     1       6.240  -0.975 -28.359  1.00  0.00     0.191 C 
BRANCH  37  38
ATOM     38  O   UNL     1       5.914  -2.285 -28.737  1.00  0.00    -0.394 OA
ATOM     39  H   UNL     1       6.741  -2.822 -28.611  1.00  0.00     0.210 HD
ENDBRANCH  37  38
ENDBRANCH  31  37
BRANCH  32  40
ATOM     40  O   UNL     1       4.365  -2.209 -26.475  1.00  0.00    -0.387 OA
ATOM     41  H   UNL     1       4.240  -2.230 -27.460  1.00  0.00     0.211 HD
ENDBRANCH  32  40
ENDBRANCH   1  27
TORSDOF 12
ENDMDL
MODEL 5
REMARK VINA RESULT:    -5.316      2.238      6.602
REMARK INTER + INTRA:          -8.729
REMARK INTER:                  -7.736
REMARK INTRA:                  -0.992
REMARK UNBOUND:                -0.926
REMARK SMILES O=c1c(O[C@H]2O[C@H](CO)[C@@H](O)[C@H](O)[C@@H]2O)c(-c2ccc(O)c(O)c2)oc2cc(O)cc(O)c12
REMARK SMILES IDX 4 1 3 2 16 3 25 4 2 5 26 6 1 7 33 8 27 9 31 10 28 11 30 12
REMARK SMILES IDX 17 13 18 14 19 15 20 16 24 17 22 18 21 19 23 21 32 23 29 25
REMARK SMILES IDX 5 27 14 28 6 29 12 30 7 31 10 32 15 33 13 35 8 37 9 38 11 40
REMARK H PARENT 21 20 23 22 32 24 29 26 15 34 13 36 9 39 11 41
REMARK Flexibility Score: inf
ROOT
ATOM      1  O   UNL     1       8.631  -1.633 -24.638  1.00  0.00    -0.454 OA
ENDROOT
BRANCH   1   2
ATOM      2  C   UNL     1       7.669  -1.031 -23.812  1.00  0.00     0.214 A 
ATOM      3  C   UNL     1       6.342  -1.498 -23.833  1.00  0.00     0.180 A 
ATOM      4  O   UNL     1       5.439  -0.966 -23.019  1.00  0.00    -0.452 OA
ATOM      5  C   UNL     1       7.988   0.050 -22.968  1.00  0.00     0.239 A 
ATOM      6  C   UNL     1       5.709   0.015 -22.167  1.00  0.00     0.146 A 
ATOM      7  O   UNL     1       9.118   0.593 -23.073  1.00  0.00    -0.285 OA
ATOM      8  C   UNL     1       7.017   0.556 -22.072  1.00  0.00     0.111 A 
ATOM      9  C   UNL     1       4.674   0.516 -21.374  1.00  0.00     0.094 A 
ATOM     10  C   UNL     1       7.258   1.589 -21.118  1.00  0.00     0.134 A 
ATOM     11  C   UNL     1       4.910   1.566 -20.485  1.00  0.00     0.123 A 
ATOM     12  C   UNL     1       6.193   2.096 -20.365  1.00  0.00     0.093 A 
BRANCH   3  13
ATOM     13  C   UNL     1       5.913  -2.602 -24.720  1.00  0.00     0.025 A 
ATOM     14  C   UNL     1       5.289  -2.352 -25.954  1.00  0.00     0.016 A 
ATOM     15  C   UNL     1       4.920  -3.415 -26.784  1.00  0.00     0.051 A 
ATOM     16  C   UNL     1       5.157  -4.737 -26.390  1.00  0.00     0.157 A 
ATOM     17  C   UNL     1       6.127  -3.930 -24.317  1.00  0.00     0.062 A 
ATOM     18  C   UNL     1       5.760  -4.997 -25.149  1.00  0.00     0.158 A 
BRANCH  16  19
ATOM     19  O   UNL     1       4.785  -5.776 -27.242  1.00  0.00    -0.504 OA
ATOM     20  H   UNL     1       3.854  -6.178 -27.226  1.00  0.00     0.293 HD
ENDBRANCH  16  19
BRANCH  18  21
ATOM     21  O   UNL     1       5.994  -6.312 -24.746  1.00  0.00    -0.504 OA
ATOM     22  H   UNL     1       5.411  -7.076 -25.068  1.00  0.00     0.293 HD
ENDBRANCH  18  21
ENDBRANCH   3  13
BRANCH  10  23
ATOM     23  O   UNL     1       8.523   2.120 -20.848  1.00  0.00    -0.507 OA
ATOM     24  H   UNL     1       9.373   1.849 -21.316  1.00  0.00     0.293 HD
ENDBRANCH  10  23
BRANCH  11  25
ATOM     25  O   UNL     1       3.875   2.083 -19.708  1.00  0.00    -0.508 OA
ATOM     26  H   UNL     1       3.887   2.020 -18.698  1.00  0.00     0.293 HD
ENDBRANCH  11  25
ENDBRANCH   1   2
BRANCH   1  27
ATOM     27  C   UNL     1       8.710  -1.443 -26.057  1.00  0.00     0.339 C 
ATOM     28  C   UNL     1       9.746  -2.406 -26.669  1.00  0.00     0.214 C 
ATOM     29  O   UNL     1       8.997  -0.088 -26.381  1.00  0.00    -0.332 OA
ATOM     30  C   UNL     1      11.166  -2.006 -26.232  1.00  0.00     0.180 C 
ATOM     31  C   UNL     1      10.267   0.319 -25.886  1.00  0.00     0.179 C 
ATOM     32  C   UNL     1      11.406  -0.512 -26.521  1.00  0.00     0.177 C 
BRANCH  28  33
ATOM     33  O   UNL     1       9.630  -2.369 -28.071  1.00  0.00    -0.384 OA
ATOM     34  H   UNL     1      10.539  -2.212 -28.434  1.00  0.00     0.211 HD
ENDBRANCH  28  33
BRANCH  30  35
ATOM     35  O   UNL     1      12.110  -2.794 -26.914  1.00  0.00    -0.387 OA
ATOM     36  H   UNL     1      11.605  -3.496 -27.397  1.00  0.00     0.211 HD
ENDBRANCH  30  35
BRANCH  31  37
ATOM     37  C   UNL     1      10.447   1.811 -26.185  1.00  0.00     0.191 C 
BRANCH  37  38
ATOM     38  O   UNL     1      11.359   1.970 -27.237  1.00  0.00    -0.394 OA
ATOM     39  H   UNL     1      10.848   1.804 -28.073  1.00  0.00     0.210 HD
ENDBRANCH  37  38
ENDBRANCH  31  37
BRANCH  32  40
ATOM     40  O   UNL     1      12.640  -0.120 -25.971  1.00  0.00    -0.387 OA
ATOM     41  H   UNL     1      12.944   0.678 -26.478  1.00  0.00     0.211 HD
ENDBRANCH  32  40
ENDBRANCH   1  27
TORSDOF 12
ENDMDL
MODEL 6
REMARK VINA RESULT:    -5.248      1.622      4.557
REMARK INTER + INTRA:          -8.628
REMARK INTER:                  -8.458
REMARK INTRA:                  -0.170
REMARK UNBOUND:                -0.926
REMARK SMILES O=c1c(O[C@H]2O[C@H](CO)[C@@H](O)[C@H](O)[C@@H]2O)c(-c2ccc(O)c(O)c2)oc2cc(O)cc(O)c12
REMARK SMILES IDX 4 1 3 2 16 3 25 4 2 5 26 6 1 7 33 8 27 9 31 10 28 11 30 12
REMARK SMILES IDX 17 13 18 14 19 15 20 16 24 17 22 18 21 19 23 21 32 23 29 25
REMARK SMILES IDX 5 27 14 28 6 29 12 30 7 31 10 32 15 33 13 35 8 37 9 38 11 40
REMARK H PARENT 21 20 23 22 32 24 29 26 15 34 13 36 9 39 11 41
REMARK Flexibility Score: inf
ROOT
ATOM      1  O   UNL     1       9.521  -1.585 -26.202  1.00  0.00    -0.454 OA
ENDROOT
BRANCH   1   2
ATOM      2  C   UNL     1      10.746  -0.905 -26.282  1.00  0.00     0.214 A 
ATOM      3  C   UNL     1      11.032   0.125 -25.366  1.00  0.00     0.180 A 
ATOM      4  O   UNL     1      12.208   0.739 -25.405  1.00  0.00    -0.452 OA
ATOM      5  C   UNL     1      11.701  -1.209 -27.271  1.00  0.00     0.239 A 
ATOM      6  C   UNL     1      13.158   0.446 -26.283  1.00  0.00     0.146 A 
ATOM      7  O   UNL     1      11.386  -1.995 -28.201  1.00  0.00    -0.285 OA
ATOM      8  C   UNL     1      12.966  -0.576 -27.249  1.00  0.00     0.111 A 
ATOM      9  C   UNL     1      14.349   1.174 -26.248  1.00  0.00     0.094 A 
ATOM     10  C   UNL     1      14.033  -0.870 -28.150  1.00  0.00     0.134 A 
ATOM     11  C   UNL     1      15.364   0.915 -27.171  1.00  0.00     0.123 A 
ATOM     12  C   UNL     1      15.199  -0.098 -28.114  1.00  0.00     0.093 A 
BRANCH   3  13
ATOM     13  C   UNL     1      10.068   0.536 -24.322  1.00  0.00     0.025 A 
ATOM     14  C   UNL     1      10.210   1.749 -23.628  1.00  0.00     0.016 A 
ATOM     15  C   UNL     1       9.267   2.125 -22.667  1.00  0.00     0.051 A 
ATOM     16  C   UNL     1       8.180   1.292 -22.376  1.00  0.00     0.157 A 
ATOM     17  C   UNL     1       8.990  -0.309 -24.011  1.00  0.00     0.062 A 
ATOM     18  C   UNL     1       8.041   0.067 -23.049  1.00  0.00     0.158 A 
BRANCH  16  19
ATOM     19  O   UNL     1       7.252   1.696 -21.418  1.00  0.00    -0.504 OA
ATOM     20  H   UNL     1       7.523   1.919 -20.466  1.00  0.00     0.293 HD
ENDBRANCH  16  19
BRANCH  18  21
ATOM     21  O   UNL     1       6.964  -0.772 -22.762  1.00  0.00    -0.504 OA
ATOM     22  H   UNL     1       6.256  -0.511 -22.086  1.00  0.00     0.293 HD
ENDBRANCH  18  21
ENDBRANCH   3  13
BRANCH  10  23
ATOM     23  O   UNL     1      14.010  -1.927 -29.064  1.00  0.00    -0.507 OA
ATOM     24  H   UNL     1      14.800  -2.508 -29.293  1.00  0.00     0.293 HD
ENDBRANCH  10  23
BRANCH  11  25
ATOM     25  O   UNL     1      16.545   1.654 -27.153  1.00  0.00    -0.508 OA
ATOM     26  H   UNL     1      17.443   1.216 -26.990  1.00  0.00     0.293 HD
ENDBRANCH  11  25
ENDBRANCH   1   2
BRANCH   1  27
ATOM     27  C   UNL     1       8.668  -1.848 -27.323  1.00  0.00     0.339 C 
ATOM     28  C   UNL     1       7.652  -0.704 -27.504  1.00  0.00     0.214 C 
ATOM     29  O   UNL     1       8.021  -3.109 -27.194  1.00  0.00    -0.332 OA
ATOM     30  C   UNL     1       6.637  -0.707 -26.348  1.00  0.00     0.180 C 
ATOM     31  C   UNL     1       7.160  -3.151 -26.063  1.00  0.00     0.179 C 
ATOM     32  C   UNL     1       6.024  -2.110 -26.187  1.00  0.00     0.177 C 
BRANCH  28  33
ATOM     33  O   UNL     1       6.997  -0.867 -28.739  1.00  0.00    -0.384 OA
ATOM     34  H   UNL     1       6.320  -0.145 -28.805  1.00  0.00     0.211 HD
ENDBRANCH  28  33
BRANCH  30  35
ATOM     35  O   UNL     1       5.630   0.242 -26.600  1.00  0.00    -0.387 OA
ATOM     36  H   UNL     1       6.084   1.074 -26.889  1.00  0.00     0.211 HD
ENDBRANCH  30  35
BRANCH  31  37
ATOM     37  C   UNL     1       6.592  -4.569 -25.941  1.00  0.00     0.191 C 
BRANCH  37  38
ATOM     38  O   UNL     1       7.042  -5.347 -27.017  1.00  0.00    -0.394 OA
ATOM     39  H   UNL     1       7.461  -6.155 -26.617  1.00  0.00     0.210 HD
ENDBRANCH  37  38
ENDBRANCH  31  37
BRANCH  32  40
ATOM     40  O   UNL     1       5.225  -2.143 -25.030  1.00  0.00    -0.387 OA
ATOM     41  H   UNL     1       4.680  -1.312 -25.028  1.00  0.00     0.211 HD
ENDBRANCH  32  40
ENDBRANCH   1  27
TORSDOF 12
ENDMDL
MODEL 7
REMARK VINA RESULT:    -5.015      2.221      3.749
REMARK INTER + INTRA:          -8.286
REMARK INTER:                  -7.181
REMARK INTRA:                  -1.105
REMARK UNBOUND:                -0.926
REMARK SMILES O=c1c(O[C@H]2O[C@H](CO)[C@@H](O)[C@H](O)[C@@H]2O)c(-c2ccc(O)c(O)c2)oc2cc(O)cc(O)c12
REMARK SMILES IDX 4 1 3 2 16 3 25 4 2 5 26 6 1 7 33 8 27 9 31 10 28 11 30 12
REMARK SMILES IDX 17 13 18 14 19 15 20 16 24 17 22 18 21 19 23 21 32 23 29 25
REMARK SMILES IDX 5 27 14 28 6 29 12 30 7 31 10 32 15 33 13 35 8 37 9 38 11 40
REMARK H PARENT 21 20 23 22 32 24 29 26 15 34 13 36 9 39 11 41
REMARK Flexibility Score: inf
ROOT
ATOM      1  O   UNL     1       6.997  -1.638 -23.517  1.00  0.00    -0.454 OA
ENDROOT
BRANCH   1   2
ATOM      2  C   UNL     1       8.067  -1.637 -24.425  1.00  0.00     0.214 A 
ATOM      3  C   UNL     1       8.179  -2.673 -25.370  1.00  0.00     0.180 A 
ATOM      4  O   UNL     1       9.160  -2.653 -26.264  1.00  0.00    -0.452 OA
ATOM      5  C   UNL     1       9.052  -0.632 -24.410  1.00  0.00     0.239 A 
ATOM      6  C   UNL     1      10.077  -1.695 -26.322  1.00  0.00     0.146 A 
ATOM      7  O   UNL     1       9.067   0.195 -23.461  1.00  0.00    -0.285 OA
ATOM      8  C   UNL     1      10.051  -0.607 -25.412  1.00  0.00     0.111 A 
ATOM      9  C   UNL     1      11.080  -1.788 -27.290  1.00  0.00     0.094 A 
ATOM     10  C   UNL     1      11.044   0.410 -25.539  1.00  0.00     0.134 A 
ATOM     11  C   UNL     1      12.079  -0.816 -27.368  1.00  0.00     0.123 A 
ATOM     12  C   UNL     1      12.058   0.270 -26.494  1.00  0.00     0.093 A 
BRANCH   3  13
ATOM     13  C   UNL     1       7.210  -3.790 -25.428  1.00  0.00     0.025 A 
ATOM     14  C   UNL     1       6.216  -3.849 -26.419  1.00  0.00     0.016 A 
ATOM     15  C   UNL     1       5.333  -4.932 -26.466  1.00  0.00     0.051 A 
ATOM     16  C   UNL     1       5.421  -5.961 -25.522  1.00  0.00     0.157 A 
ATOM     17  C   UNL     1       7.282  -4.812 -24.467  1.00  0.00     0.062 A 
ATOM     18  C   UNL     1       6.398  -5.900 -24.514  1.00  0.00     0.158 A 
BRANCH  16  19
ATOM     19  O   UNL     1       4.532  -7.032 -25.598  1.00  0.00    -0.504 OA
ATOM     20  H   UNL     1       4.611  -7.841 -24.993  1.00  0.00     0.293 HD
ENDBRANCH  16  19
BRANCH  18  21
ATOM     21  O   UNL     1       6.490  -6.918 -23.565  1.00  0.00    -0.504 OA
ATOM     22  H   UNL     1       7.097  -7.718 -23.704  1.00  0.00     0.293 HD
ENDBRANCH  18  21
ENDBRANCH   3  13
BRANCH  10  23
ATOM     23  O   UNL     1      11.056   1.585 -24.782  1.00  0.00    -0.507 OA
ATOM     24  H   UNL     1      10.944   1.626 -23.782  1.00  0.00     0.293 HD
ENDBRANCH  10  23
BRANCH  11  25
ATOM     25  O   UNL     1      13.093  -0.916 -28.318  1.00  0.00    -0.508 OA
ATOM     26  H   UNL     1      13.958  -0.398 -28.227  1.00  0.00     0.293 HD
ENDBRANCH  11  25
ENDBRANCH   1   2
BRANCH   1  27
ATOM     27  C   UNL     1       5.620  -1.504 -23.890  1.00  0.00     0.339 C 
ATOM     28  C   UNL     1       5.430  -0.282 -24.808  1.00  0.00     0.214 C 
ATOM     29  O   UNL     1       4.779  -1.436 -22.744  1.00  0.00    -0.332 OA
ATOM     30  C   UNL     1       5.654   1.018 -24.015  1.00  0.00     0.180 C 
ATOM     31  C   UNL     1       5.055  -0.289 -21.950  1.00  0.00     0.179 C 
ATOM     32  C   UNL     1       4.790   1.014 -22.740  1.00  0.00     0.177 C 
BRANCH  28  33
ATOM     33  O   UNL     1       4.131  -0.315 -25.349  1.00  0.00    -0.384 OA
ATOM     34  H   UNL     1       4.184   0.083 -26.256  1.00  0.00     0.211 HD
ENDBRANCH  28  33
BRANCH  30  35
ATOM     35  O   UNL     1       5.332   2.125 -24.821  1.00  0.00    -0.387 OA
ATOM     36  H   UNL     1       5.007   1.768 -25.685  1.00  0.00     0.211 HD
ENDBRANCH  30  35
BRANCH  31  37
ATOM     37  C   UNL     1       4.184  -0.351 -20.691  1.00  0.00     0.191 C 
BRANCH  37  38
ATOM     38  O   UNL     1       4.831   0.317 -19.642  1.00  0.00    -0.394 OA
ATOM     39  H   UNL     1       5.729   0.568 -19.986  1.00  0.00     0.210 HD
ENDBRANCH  37  38
ENDBRANCH  31  37
BRANCH  32  40
ATOM     40  O   UNL     1       5.124   2.125 -21.944  1.00  0.00    -0.387 OA
ATOM     41  H   UNL     1       5.141   1.813 -21.001  1.00  0.00     0.211 HD
ENDBRANCH  32  40
ENDBRANCH   1  27
TORSDOF 12
ENDMDL
MODEL 8
REMARK VINA RESULT:    -4.666      2.203      4.557
REMARK INTER + INTRA:          -7.775
REMARK INTER:                  -7.084
REMARK INTRA:                  -0.692
REMARK UNBOUND:                -0.926
REMARK SMILES O=c1c(O[C@H]2O[C@H](CO)[C@@H](O)[C@H](O)[C@@H]2O)c(-c2ccc(O)c(O)c2)oc2cc(O)cc(O)c12
REMARK SMILES IDX 4 1 3 2 16 3 25 4 2 5 26 6 1 7 33 8 27 9 31 10 28 11 30 12
REMARK SMILES IDX 17 13 18 14 19 15 20 16 24 17 22 18 21 19 23 21 32 23 29 25
REMARK SMILES IDX 5 27 14 28 6 29 12 30 7 31 10 32 15 33 13 35 8 37 9 38 11 40
REMARK H PARENT 21 20 23 22 32 24 29 26 15 34 13 36 9 39 11 41
REMARK Flexibility Score: inf
ROOT
ATOM      1  O   UNL     1       8.181  -3.363 -24.415  1.00  0.00    -0.454 OA
ENDROOT
BRANCH   1   2
ATOM      2  C   UNL     1       9.157  -2.677 -25.155  1.00  0.00     0.214 A 
ATOM      3  C   UNL     1       9.019  -1.294 -25.374  1.00  0.00     0.180 A 
ATOM      4  O   UNL     1       9.963  -0.630 -26.031  1.00  0.00    -0.452 OA
ATOM      5  C   UNL     1      10.270  -3.338 -25.706  1.00  0.00     0.239 A 
ATOM      6  C   UNL     1      11.056  -1.203 -26.518  1.00  0.00     0.146 A 
ATOM      7  O   UNL     1      10.311  -4.595 -25.674  1.00  0.00    -0.285 OA
ATOM      8  C   UNL     1      11.286  -2.593 -26.351  1.00  0.00     0.111 A 
ATOM      9  C   UNL     1      11.972  -0.410 -27.214  1.00  0.00     0.094 A 
ATOM     10  C   UNL     1      12.493  -3.150 -26.869  1.00  0.00     0.134 A 
ATOM     11  C   UNL     1      13.121  -0.979 -27.766  1.00  0.00     0.123 A 
ATOM     12  C   UNL     1      13.372  -2.339 -27.595  1.00  0.00     0.093 A 
BRANCH   3  13
ATOM     13  C   UNL     1       7.859  -0.530 -24.865  1.00  0.00     0.025 A 
ATOM     14  C   UNL     1       6.927   0.058 -25.737  1.00  0.00     0.016 A 
ATOM     15  C   UNL     1       5.825   0.749 -25.226  1.00  0.00     0.051 A 
ATOM     16  C   UNL     1       5.644   0.875 -23.843  1.00  0.00     0.157 A 
ATOM     17  C   UNL     1       7.689  -0.382 -23.479  1.00  0.00     0.062 A 
ATOM     18  C   UNL     1       6.583   0.310 -22.964  1.00  0.00     0.158 A 
BRANCH  16  19
ATOM     19  O   UNL     1       4.532   1.564 -23.363  1.00  0.00    -0.504 OA
ATOM     20  H   UNL     1       4.532   2.571 -23.248  1.00  0.00     0.293 HD
ENDBRANCH  16  19
BRANCH  18  21
ATOM     21  O   UNL     1       6.415   0.435 -21.585  1.00  0.00    -0.504 OA
ATOM     22  H   UNL     1       5.640  -0.008 -21.104  1.00  0.00     0.293 HD
ENDBRANCH  18  21
ENDBRANCH   3  13
BRANCH  10  23
ATOM     23  O   UNL     1      12.887  -4.476 -26.667  1.00  0.00    -0.507 OA
ATOM     24  H   UNL     1      12.360  -5.284 -26.959  1.00  0.00     0.293 HD
ENDBRANCH  10  23
BRANCH  11  25
ATOM     25  O   UNL     1      14.027  -0.196 -28.480  1.00  0.00    -0.508 OA
ATOM     26  H   UNL     1      14.345  -0.462 -29.404  1.00  0.00     0.293 HD
ENDBRANCH  11  25
ENDBRANCH   1   2
BRANCH   1  27
ATOM     27  C   UNL     1       7.478  -4.521 -24.883  1.00  0.00     0.339 C 
ATOM     28  C   UNL     1       7.059  -4.336 -26.354  1.00  0.00     0.214 C 
ATOM     29  O   UNL     1       6.361  -4.817 -24.052  1.00  0.00    -0.332 OA
ATOM     30  C   UNL     1       5.967  -3.258 -26.464  1.00  0.00     0.180 C 
ATOM     31  C   UNL     1       5.396  -3.773 -24.068  1.00  0.00     0.179 C 
ATOM     32  C   UNL     1       4.817  -3.570 -25.488  1.00  0.00     0.177 C 
BRANCH  28  33
ATOM     33  O   UNL     1       6.593  -5.567 -26.853  1.00  0.00    -0.384 OA
ATOM     34  H   UNL     1       7.369  -6.023 -27.269  1.00  0.00     0.211 HD
ENDBRANCH  28  33
BRANCH  30  35
ATOM     35  O   UNL     1       5.488  -3.204 -27.785  1.00  0.00    -0.387 OA
ATOM     36  H   UNL     1       5.984  -2.480 -28.243  1.00  0.00     0.211 HD
ENDBRANCH  30  35
BRANCH  31  37
ATOM     37  C   UNL     1       4.286  -4.126 -23.072  1.00  0.00     0.191 C 
BRANCH  37  38
ATOM     38  O   UNL     1       4.376  -5.483 -22.733  1.00  0.00    -0.394 OA
ATOM     39  H   UNL     1       4.839  -5.927 -23.493  1.00  0.00     0.210 HD
ENDBRANCH  37  38
ENDBRANCH  31  37
BRANCH  32  40
ATOM     40  O   UNL     1       3.907  -2.497 -25.478  1.00  0.00    -0.387 OA
ATOM     41  H   UNL     1       4.381  -1.710 -25.856  1.00  0.00     0.211 HD
ENDBRANCH  32  40
ENDBRANCH   1  27
TORSDOF 12
ENDMDL
MODEL 9
REMARK VINA RESULT:    -4.506      3.639      6.169
REMARK INTER + INTRA:          -7.540
REMARK INTER:                  -7.492
REMARK INTRA:                  -0.048
REMARK UNBOUND:                -0.926
REMARK SMILES O=c1c(O[C@H]2O[C@H](CO)[C@@H](O)[C@H](O)[C@@H]2O)c(-c2ccc(O)c(O)c2)oc2cc(O)cc(O)c12
REMARK SMILES IDX 4 1 3 2 16 3 25 4 2 5 26 6 1 7 33 8 27 9 31 10 28 11 30 12
REMARK SMILES IDX 17 13 18 14 19 15 20 16 24 17 22 18 21 19 23 21 32 23 29 25
REMARK SMILES IDX 5 27 14 28 6 29 12 30 7 31 10 32 15 33 13 35 8 37 9 38 11 40
REMARK H PARENT 21 20 23 22 32 24 29 26 15 34 13 36 9 39 11 41
REMARK Flexibility Score: inf
ROOT
ATOM      1  O   UNL     1       7.141  -4.357 -25.541  1.00  0.00    -0.454 OA
ENDROOT
BRANCH   1   2
ATOM      2  C   UNL     1       8.000  -3.264 -25.738  1.00  0.00     0.214 A 
ATOM      3  C   UNL     1       9.392  -3.447 -25.641  1.00  0.00     0.180 A 
ATOM      4  O   UNL     1      10.212  -2.430 -25.875  1.00  0.00    -0.452 OA
ATOM      5  C   UNL     1       7.509  -1.974 -26.014  1.00  0.00     0.239 A 
ATOM      6  C   UNL     1       9.795  -1.212 -26.193  1.00  0.00     0.146 A 
ATOM      7  O   UNL     1       6.273  -1.759 -25.923  1.00  0.00    -0.285 OA
ATOM      8  C   UNL     1       8.410  -0.925 -26.313  1.00  0.00     0.111 A 
ATOM      9  C   UNL     1      10.747  -0.210 -26.393  1.00  0.00     0.094 A 
ATOM     10  C   UNL     1       8.019   0.395 -26.688  1.00  0.00     0.134 A 
ATOM     11  C   UNL     1      10.349   1.092 -26.703  1.00  0.00     0.123 A 
ATOM     12  C   UNL     1       8.994   1.386 -26.844  1.00  0.00     0.093 A 
BRANCH   3  13
ATOM     13  C   UNL     1       9.990  -4.761 -25.315  1.00  0.00     0.025 A 
ATOM     14  C   UNL     1       9.259  -5.754 -24.641  1.00  0.00     0.016 A 
ATOM     15  C   UNL     1       9.841  -6.996 -24.373  1.00  0.00     0.051 A 
ATOM     16  C   UNL     1      11.161  -7.259 -24.760  1.00  0.00     0.157 A 
ATOM     17  C   UNL     1      11.321  -5.019 -25.681  1.00  0.00     0.062 A 
ATOM     18  C   UNL     1      11.906  -6.265 -25.414  1.00  0.00     0.158 A 
BRANCH  16  19
ATOM     19  O   UNL     1      11.713  -8.510 -24.485  1.00  0.00    -0.504 OA
ATOM     20  H   UNL     1      12.637  -8.613 -24.082  1.00  0.00     0.293 HD
ENDBRANCH  16  19
BRANCH  18  21
ATOM     21  O   UNL     1      13.224  -6.516 -25.798  1.00  0.00    -0.504 OA
ATOM     22  H   UNL     1      13.454  -7.264 -26.443  1.00  0.00     0.293 HD
ENDBRANCH  18  21
ENDBRANCH   3  13
BRANCH  10  23
ATOM     23  O   UNL     1       6.698   0.770 -26.952  1.00  0.00    -0.507 OA
ATOM     24  H   UNL     1       5.913   0.573 -26.352  1.00  0.00     0.293 HD
ENDBRANCH  10  23
BRANCH  11  25
ATOM     25  O   UNL     1      11.295   2.099 -26.882  1.00  0.00    -0.508 OA
ATOM     26  H   UNL     1      11.272   2.952 -26.336  1.00  0.00     0.293 HD
ENDBRANCH  11  25
ENDBRANCH   1   2
BRANCH   1  27
ATOM     27  C   UNL     1       5.808  -4.253 -25.024  1.00  0.00     0.339 C 
ATOM     28  C   UNL     1       5.680  -5.046 -23.709  1.00  0.00     0.214 C 
ATOM     29  O   UNL     1       4.847  -4.674 -25.986  1.00  0.00    -0.332 OA
ATOM     30  C   UNL     1       5.778  -6.556 -23.988  1.00  0.00     0.180 C 
ATOM     31  C   UNL     1       5.002  -6.046 -26.326  1.00  0.00     0.179 C 
ATOM     32  C   UNL     1       4.783  -6.954 -25.094  1.00  0.00     0.177 C 
BRANCH  28  33
ATOM     33  O   UNL     1       4.449  -4.732 -23.105  1.00  0.00    -0.384 OA
ATOM     34  H   UNL     1       4.201  -3.820 -23.407  1.00  0.00     0.211 HD
ENDBRANCH  28  33
BRANCH  30  35
ATOM     35  O   UNL     1       5.511  -7.272 -22.807  1.00  0.00    -0.387 OA
ATOM     36  H   UNL     1       6.033  -8.112 -22.855  1.00  0.00     0.211 HD
ENDBRANCH  30  35
BRANCH  31  37
ATOM     37  C   UNL     1       4.002  -6.383 -27.438  1.00  0.00     0.191 C 
BRANCH  37  38
ATOM     38  O   UNL     1       4.602  -7.259 -28.354  1.00  0.00    -0.394 OA
ATOM     39  H   UNL     1       5.300  -6.730 -28.825  1.00  0.00     0.210 HD
ENDBRANCH  37  38
ENDBRANCH  31  37
BRANCH  32  40
ATOM     40  O   UNL     1       4.995  -8.297 -25.454  1.00  0.00    -0.387 OA
ATOM     41  H   UNL     1       5.966  -8.478 -25.344  1.00  0.00     0.211 HD
ENDBRANCH  32  40
ENDBRANCH   1  27
TORSDOF 12
ENDMDL
