MODEL 1
REMARK VINA RESULT:    -4.805      0.000      0.000
REMARK INTER + INTRA:          -6.138
REMARK INTER:                  -5.789
REMARK INTRA:                  -0.349
REMARK UNBOUND:                -0.349
REMARK SMILES Oc1cc(O)c2cc(O)c(-c3ccc(O)c(O)c3)[o+]c2c1
REMARK SMILES IDX 10 1 19 2 20 3 21 4 2 5 3 6 4 7 6 8 7 9 8 10 11 11 12 12
REMARK SMILES IDX 13 13 14 14 18 15 16 16 15 17 17 19 9 21 1 23 5 25
REMARK H PARENT 15 18 17 20 9 22 1 24 5 26
REMARK Flexibility Score: inf
ROOT
ATOM      1  C   UNL     1      36.563  10.299  22.354  1.00  0.00     0.402 A 
ATOM      2  O   UNL     1      37.234   9.453  23.131  1.00  0.00    -0.202 OA
ATOM      3  C   UNL     1      38.560   9.373  23.148  1.00  0.00     0.368 A 
ATOM      4  C   UNL     1      39.176   8.450  23.998  1.00  0.00     0.162 A 
ATOM      5  C   UNL     1      40.566   8.342  24.034  1.00  0.00     0.128 A 
ATOM      6  C   UNL     1      41.350   9.161  23.214  1.00  0.00     0.093 A 
ATOM      7  C   UNL     1      40.758  10.095  22.353  1.00  0.00     0.136 A 
ATOM      8  C   UNL     1      39.344  10.209  22.316  1.00  0.00     0.125 A 
ATOM      9  C   UNL     1      38.664  11.124  21.495  1.00  0.00     0.078 A 
ATOM     10  C   UNL     1      37.268  11.182  21.516  1.00  0.00     0.223 A 
ENDROOT
BRANCH   1  11
ATOM     11  C   UNL     1      35.083  10.285  22.419  1.00  0.00     0.087 A 
ATOM     12  C   UNL     1      34.382  11.107  23.320  1.00  0.00     0.022 A 
ATOM     13  C   UNL     1      32.985  11.093  23.346  1.00  0.00     0.051 A 
ATOM     14  C   UNL     1      32.268  10.269  22.468  1.00  0.00     0.157 A 
ATOM     15  C   UNL     1      34.360   9.478  21.526  1.00  0.00     0.068 A 
ATOM     16  C   UNL     1      32.960   9.461  21.552  1.00  0.00     0.158 A 
BRANCH  14  17
ATOM     17  O   UNL     1      30.875  10.257  22.499  1.00  0.00    -0.504 OA
ATOM     18  H   UNL     1      30.327  10.980  22.047  1.00  0.00     0.293 HD
ENDBRANCH  14  17
BRANCH  16  19
ATOM     19  O   UNL     1      32.277   8.636  20.659  1.00  0.00    -0.504 OA
ATOM     20  H   UNL     1      32.733   7.870  20.179  1.00  0.00     0.293 HD
ENDBRANCH  16  19
ENDBRANCH   1  11
BRANCH  10  21
ATOM     21  O   UNL     1      36.595  12.125  20.738  1.00  0.00    -0.500 OA
ATOM     22  H   UNL     1      36.495  13.088  21.038  1.00  0.00     0.294 HD
ENDBRANCH  10  21
BRANCH   5  23
ATOM     23  O   UNL     1      41.160   7.415  24.888  1.00  0.00    -0.507 OA
ATOM     24  H   UNL     1      40.795   7.242  25.817  1.00  0.00     0.293 HD
ENDBRANCH   5  23
BRANCH   7  25
ATOM     25  O   UNL     1      41.609  10.873  21.565  1.00  0.00    -0.507 OA
ATOM     26  H   UNL     1      42.311  10.499  20.943  1.00  0.00     0.293 HD
ENDBRANCH   7  25
TORSDOF 6
ENDMDL
MODEL 2
REMARK VINA RESULT:    -4.564      3.965      7.243
REMARK INTER + INTRA:          -5.847
REMARK INTER:                  -5.547
REMARK INTRA:                  -0.301
REMARK UNBOUND:                -0.349
REMARK SMILES Oc1cc(O)c2cc(O)c(-c3ccc(O)c(O)c3)[o+]c2c1
REMARK SMILES IDX 10 1 19 2 20 3 21 4 2 5 3 6 4 7 6 8 7 9 8 10 11 11 12 12
REMARK SMILES IDX 13 13 14 14 18 15 16 16 15 17 17 19 9 21 1 23 5 25
REMARK H PARENT 15 18 17 20 9 22 1 24 5 26
REMARK Flexibility Score: inf
ROOT
ATOM      1  C   UNL     1      33.205   7.078  20.645  1.00  0.00     0.402 A 
ATOM      2  O   UNL     1      34.108   8.001  20.964  1.00  0.00    -0.202 OA
ATOM      3  C   UNL     1      33.807   9.126  21.603  1.00  0.00     0.368 A 
ATOM      4  C   UNL     1      34.825  10.038  21.893  1.00  0.00     0.162 A 
ATOM      5  C   UNL     1      34.538  11.229  22.560  1.00  0.00     0.128 A 
ATOM      6  C   UNL     1      33.222  11.514  22.942  1.00  0.00     0.093 A 
ATOM      7  C   UNL     1      32.183  10.617  22.663  1.00  0.00     0.136 A 
ATOM      8  C   UNL     1      32.473   9.403  21.987  1.00  0.00     0.125 A 
ATOM      9  C   UNL     1      31.498   8.440  21.678  1.00  0.00     0.078 A 
ATOM     10  C   UNL     1      31.860   7.265  21.013  1.00  0.00     0.223 A 
ENDROOT
BRANCH   1  11
ATOM     11  C   UNL     1      33.665   5.870  19.922  1.00  0.00     0.087 A 
ATOM     12  C   UNL     1      33.381   5.680  18.558  1.00  0.00     0.022 A 
ATOM     13  C   UNL     1      33.845   4.543  17.892  1.00  0.00     0.051 A 
ATOM     14  C   UNL     1      34.608   3.585  18.573  1.00  0.00     0.157 A 
ATOM     15  C   UNL     1      34.448   4.918  20.595  1.00  0.00     0.068 A 
ATOM     16  C   UNL     1      34.913   3.777  19.931  1.00  0.00     0.158 A 
BRANCH  14  17
ATOM     17  O   UNL     1      35.068   2.452  17.906  1.00  0.00    -0.504 OA
ATOM     18  H   UNL     1      35.756   2.513  17.165  1.00  0.00     0.293 HD
ENDBRANCH  14  17
BRANCH  16  19
ATOM     19  O   UNL     1      35.677   2.847  20.636  1.00  0.00    -0.504 OA
ATOM     20  H   UNL     1      36.685   2.807  20.554  1.00  0.00     0.293 HD
ENDBRANCH  16  19
ENDBRANCH   1  11
BRANCH  10  21
ATOM     21  O   UNL     1      30.901   6.286  20.750  1.00  0.00    -0.500 OA
ATOM     22  H   UNL     1      30.652   5.586  21.440  1.00  0.00     0.294 HD
ENDBRANCH  10  21
BRANCH   5  23
ATOM     23  O   UNL     1      35.568  12.125  22.840  1.00  0.00    -0.507 OA
ATOM     24  H   UNL     1      35.795  12.884  22.209  1.00  0.00     0.293 HD
ENDBRANCH   5  23
BRANCH   7  25
ATOM     25  O   UNL     1      30.896  10.976  23.074  1.00  0.00    -0.507 OA
ATOM     26  H   UNL     1      30.184  10.319  23.356  1.00  0.00     0.293 HD
ENDBRANCH   7  25
TORSDOF 6
ENDMDL
MODEL 3
REMARK VINA RESULT:    -4.501      4.513      7.575
REMARK INTER + INTRA:          -5.772
REMARK INTER:                  -5.423
REMARK INTRA:                  -0.349
REMARK UNBOUND:                -0.349
REMARK SMILES Oc1cc(O)c2cc(O)c(-c3ccc(O)c(O)c3)[o+]c2c1
REMARK SMILES IDX 10 1 19 2 20 3 21 4 2 5 3 6 4 7 6 8 7 9 8 10 11 11 12 12
REMARK SMILES IDX 13 13 14 14 18 15 16 16 15 17 17 19 9 21 1 23 5 25
REMARK H PARENT 15 18 17 20 9 22 1 24 5 26
REMARK Flexibility Score: inf
ROOT
ATOM      1  C   UNL     1      32.774   6.178  20.324  1.00  0.00     0.402 A 
ATOM      2  O   UNL     1      31.985   7.003  21.009  1.00  0.00    -0.202 OA
ATOM      3  C   UNL     1      32.349   8.228  21.370  1.00  0.00     0.368 A 
ATOM      4  C   UNL     1      31.452   9.021  22.090  1.00  0.00     0.162 A 
ATOM      5  C   UNL     1      31.808  10.310  22.486  1.00  0.00     0.128 A 
ATOM      6  C   UNL     1      33.072  10.814  22.160  1.00  0.00     0.093 A 
ATOM      7  C   UNL     1      33.990  10.041  21.438  1.00  0.00     0.136 A 
ATOM      8  C   UNL     1      33.630   8.729  21.033  1.00  0.00     0.125 A 
ATOM      9  C   UNL     1      34.480   7.888  20.296  1.00  0.00     0.078 A 
ATOM     10  C   UNL     1      34.053   6.609  19.928  1.00  0.00     0.223 A 
ENDROOT
BRANCH   1  11
ATOM     11  C   UNL     1      32.256   4.831  19.990  1.00  0.00     0.087 A 
ATOM     12  C   UNL     1      31.542   4.595  18.801  1.00  0.00     0.022 A 
ATOM     13  C   UNL     1      31.083   3.311  18.497  1.00  0.00     0.051 A 
ATOM     14  C   UNL     1      31.340   2.243  19.367  1.00  0.00     0.157 A 
ATOM     15  C   UNL     1      32.529   3.754  20.848  1.00  0.00     0.068 A 
ATOM     16  C   UNL     1      32.069   2.466  20.546  1.00  0.00     0.158 A 
BRANCH  14  17
ATOM     17  O   UNL     1      30.879   0.964  19.061  1.00  0.00    -0.504 OA
ATOM     18  H   UNL     1      30.172   0.504  19.624  1.00  0.00     0.293 HD
ENDBRANCH  14  17
BRANCH  16  19
ATOM     19  O   UNL     1      32.348   1.424  21.429  1.00  0.00    -0.504 OA
ATOM     20  H   UNL     1      31.620   0.952  21.952  1.00  0.00     0.293 HD
ENDBRANCH  16  19
ENDBRANCH   1  11
BRANCH  10  21
ATOM     21  O   UNL     1      34.877   5.792  19.153  1.00  0.00    -0.500 OA
ATOM     22  H   UNL     1      35.824   6.064  18.916  1.00  0.00     0.294 HD
ENDBRANCH  10  21
BRANCH   5  23
ATOM     23  O   UNL     1      30.898  11.084  23.204  1.00  0.00    -0.507 OA
ATOM     24  H   UNL     1      30.082  10.672  23.640  1.00  0.00     0.293 HD
ENDBRANCH   5  23
BRANCH   7  25
ATOM     25  O   UNL     1      35.233  10.614  21.155  1.00  0.00    -0.507 OA
ATOM     26  H   UNL     1      35.369  11.411  20.551  1.00  0.00     0.293 HD
ENDBRANCH   7  25
TORSDOF 6
ENDMDL
MODEL 4
REMARK VINA RESULT:    -4.384      5.111      7.117
REMARK INTER + INTRA:          -5.630
REMARK INTER:                  -5.314
REMARK INTRA:                  -0.316
REMARK UNBOUND:                -0.349
REMARK SMILES Oc1cc(O)c2cc(O)c(-c3ccc(O)c(O)c3)[o+]c2c1
REMARK SMILES IDX 10 1 19 2 20 3 21 4 2 5 3 6 4 7 6 8 7 9 8 10 11 11 12 12
REMARK SMILES IDX 13 13 14 14 18 15 16 16 15 17 17 19 9 21 1 23 5 25
REMARK H PARENT 15 18 17 20 9 22 1 24 5 26
REMARK Flexibility Score: inf
ROOT
ATOM      1  C   UNL     1      32.611   6.930  20.296  1.00  0.00     0.402 A 
ATOM      2  O   UNL     1      33.089   5.804  20.819  1.00  0.00    -0.202 OA
ATOM      3  C   UNL     1      33.388   4.732  20.094  1.00  0.00     0.368 A 
ATOM      4  C   UNL     1      33.882   3.593  20.735  1.00  0.00     0.162 A 
ATOM      5  C   UNL     1      34.201   2.451  19.999  1.00  0.00     0.128 A 
ATOM      6  C   UNL     1      34.024   2.445  18.611  1.00  0.00     0.093 A 
ATOM      7  C   UNL     1      33.530   3.574  17.944  1.00  0.00     0.136 A 
ATOM      8  C   UNL     1      33.207   4.737  18.690  1.00  0.00     0.125 A 
ATOM      9  C   UNL     1      32.719   5.918  18.105  1.00  0.00     0.078 A 
ATOM     10  C   UNL     1      32.427   7.027  18.905  1.00  0.00     0.223 A 
ENDROOT
BRANCH   1  11
ATOM     11  C   UNL     1      32.307   8.054  21.212  1.00  0.00     0.087 A 
ATOM     12  C   UNL     1      31.129   8.074  21.979  1.00  0.00     0.022 A 
ATOM     13  C   UNL     1      30.875   9.134  22.854  1.00  0.00     0.051 A 
ATOM     14  C   UNL     1      31.798  10.181  22.985  1.00  0.00     0.157 A 
ATOM     15  C   UNL     1      33.239   9.094  21.362  1.00  0.00     0.068 A 
ATOM     16  C   UNL     1      32.986  10.158  22.237  1.00  0.00     0.158 A 
BRANCH  14  17
ATOM     17  O   UNL     1      31.540  11.237  23.856  1.00  0.00    -0.504 OA
ATOM     18  H   UNL     1      30.697  11.269  24.418  1.00  0.00     0.293 HD
ENDBRANCH  14  17
BRANCH  16  19
ATOM     19  O   UNL     1      33.928  11.180  22.349  1.00  0.00    -0.504 OA
ATOM     20  H   UNL     1      34.282  11.675  21.539  1.00  0.00     0.293 HD
ENDBRANCH  16  19
ENDBRANCH   1  11
BRANCH  10  21
ATOM     21  O   UNL     1      31.990   8.216  18.319  1.00  0.00    -0.500 OA
ATOM     22  H   UNL     1      31.580   8.961  18.871  1.00  0.00     0.294 HD
ENDBRANCH  10  21
BRANCH   5  23
ATOM     23  O   UNL     1      34.693   1.326  20.657  1.00  0.00    -0.507 OA
ATOM     24  H   UNL     1      35.578   0.907  20.399  1.00  0.00     0.293 HD
ENDBRANCH   5  23
BRANCH   7  25
ATOM     25  O   UNL     1      33.379   3.487  16.558  1.00  0.00    -0.507 OA
ATOM     26  H   UNL     1      33.124   2.645  16.064  1.00  0.00     0.293 HD
ENDBRANCH   7  25
TORSDOF 6
ENDMDL
MODEL 5
REMARK VINA RESULT:    -4.355      2.191      2.834
REMARK INTER + INTRA:          -5.595
REMARK INTER:                  -5.274
REMARK INTRA:                  -0.321
REMARK UNBOUND:                -0.349
REMARK SMILES Oc1cc(O)c2cc(O)c(-c3ccc(O)c(O)c3)[o+]c2c1
REMARK SMILES IDX 10 1 19 2 20 3 21 4 2 5 3 6 4 7 6 8 7 9 8 10 11 11 12 12
REMARK SMILES IDX 13 13 14 14 18 15 16 16 15 17 17 19 9 21 1 23 5 25
REMARK H PARENT 15 18 17 20 9 22 1 24 5 26
REMARK Flexibility Score: inf
ROOT
ATOM      1  C   UNL     1      36.522   9.657  22.125  1.00  0.00     0.402 A 
ATOM      2  O   UNL     1      36.586   8.329  22.085  1.00  0.00    -0.202 OA
ATOM      3  C   UNL     1      37.576   7.629  22.628  1.00  0.00     0.368 A 
ATOM      4  C   UNL     1      37.557   6.236  22.533  1.00  0.00     0.162 A 
ATOM      5  C   UNL     1      38.586   5.476  23.090  1.00  0.00     0.128 A 
ATOM      6  C   UNL     1      39.645   6.112  23.748  1.00  0.00     0.093 A 
ATOM      7  C   UNL     1      39.687   7.508  23.858  1.00  0.00     0.136 A 
ATOM      8  C   UNL     1      38.641   8.283  23.293  1.00  0.00     0.125 A 
ATOM      9  C   UNL     1      38.594   9.686  23.366  1.00  0.00     0.078 A 
ATOM     10  C   UNL     1      37.527  10.382  22.790  1.00  0.00     0.223 A 
ENDROOT
BRANCH   1  11
ATOM     11  C   UNL     1      35.370  10.322  21.473  1.00  0.00     0.087 A 
ATOM     12  C   UNL     1      35.501  10.957  20.225  1.00  0.00     0.022 A 
ATOM     13  C   UNL     1      34.394  11.558  19.620  1.00  0.00     0.051 A 
ATOM     14  C   UNL     1      33.140  11.523  20.243  1.00  0.00     0.157 A 
ATOM     15  C   UNL     1      34.107  10.271  22.084  1.00  0.00     0.068 A 
ATOM     16  C   UNL     1      32.996  10.874  21.480  1.00  0.00     0.158 A 
BRANCH  14  17
ATOM     17  O   UNL     1      32.039  12.125  19.637  1.00  0.00    -0.504 OA
ATOM     18  H   UNL     1      31.348  11.583  19.131  1.00  0.00     0.293 HD
ENDBRANCH  14  17
BRANCH  16  19
ATOM     19  O   UNL     1      31.760  10.815  22.124  1.00  0.00    -0.504 OA
ATOM     20  H   UNL     1      31.677  10.584  23.107  1.00  0.00     0.293 HD
ENDBRANCH  16  19
ENDBRANCH   1  11
BRANCH  10  21
ATOM     21  O   UNL     1      37.454  11.771  22.905  1.00  0.00    -0.500 OA
ATOM     22  H   UNL     1      36.869  12.217  23.601  1.00  0.00     0.294 HD
ENDBRANCH  10  21
BRANCH   5  23
ATOM     23  O   UNL     1      38.548   4.087  22.984  1.00  0.00    -0.507 OA
ATOM     24  H   UNL     1      38.768   3.616  22.115  1.00  0.00     0.293 HD
ENDBRANCH   5  23
BRANCH   7  25
ATOM     25  O   UNL     1      40.779   8.068  24.527  1.00  0.00    -0.507 OA
ATOM     26  H   UNL     1      41.045   7.840  25.473  1.00  0.00     0.293 HD
ENDBRANCH   7  25
TORSDOF 6
ENDMDL
MODEL 6
REMARK VINA RESULT:    -4.324      1.355      7.008
REMARK INTER + INTRA:          -5.558
REMARK INTER:                  -5.276
REMARK INTRA:                  -0.282
REMARK UNBOUND:                -0.349
REMARK SMILES Oc1cc(O)c2cc(O)c(-c3ccc(O)c(O)c3)[o+]c2c1
REMARK SMILES IDX 10 1 19 2 20 3 21 4 2 5 3 6 4 7 6 8 7 9 8 10 11 11 12 12
REMARK SMILES IDX 13 13 14 14 18 15 16 16 15 17 17 19 9 21 1 23 5 25
REMARK H PARENT 15 18 17 20 9 22 1 24 5 26
REMARK Flexibility Score: inf
ROOT
ATOM      1  C   UNL     1      36.819  10.013  22.141  1.00  0.00     0.402 A 
ATOM      2  O   UNL     1      35.825  10.612  22.792  1.00  0.00    -0.202 OA
ATOM      3  C   UNL     1      34.543  10.350  22.566  1.00  0.00     0.368 A 
ATOM      4  C   UNL     1      33.569  11.032  23.299  1.00  0.00     0.162 A 
ATOM      5  C   UNL     1      32.214  10.780  23.080  1.00  0.00     0.128 A 
ATOM      6  C   UNL     1      31.827   9.838  22.119  1.00  0.00     0.093 A 
ATOM      7  C   UNL     1      32.784   9.140  21.371  1.00  0.00     0.136 A 
ATOM      8  C   UNL     1      34.163   9.393  21.593  1.00  0.00     0.125 A 
ATOM      9  C   UNL     1      35.190   8.732  20.900  1.00  0.00     0.078 A 
ATOM     10  C   UNL     1      36.527   9.031  21.177  1.00  0.00     0.223 A 
ENDROOT
BRANCH   1  11
ATOM     11  C   UNL     1      38.209  10.400  22.477  1.00  0.00     0.087 A 
ATOM     12  C   UNL     1      38.746  11.633  22.066  1.00  0.00     0.022 A 
ATOM     13  C   UNL     1      40.052  11.985  22.415  1.00  0.00     0.051 A 
ATOM     14  C   UNL     1      40.837  11.119  23.189  1.00  0.00     0.157 A 
ATOM     15  C   UNL     1      38.991   9.545  23.270  1.00  0.00     0.068 A 
ATOM     16  C   UNL     1      40.301   9.895  23.620  1.00  0.00     0.158 A 
BRANCH  14  17
ATOM     17  O   UNL     1      42.140  11.473  23.533  1.00  0.00    -0.504 OA
ATOM     18  H   UNL     1      42.825  11.727  22.831  1.00  0.00     0.293 HD
ENDBRANCH  14  17
BRANCH  16  19
ATOM     19  O   UNL     1      41.052   9.013  24.397  1.00  0.00    -0.504 OA
ATOM     20  H   UNL     1      42.031   9.176  24.600  1.00  0.00     0.293 HD
ENDBRANCH  16  19
ENDBRANCH   1  11
BRANCH  10  21
ATOM     21  O   UNL     1      37.548   8.340  20.524  1.00  0.00    -0.500 OA
ATOM     22  H   UNL     1      37.986   8.704  19.686  1.00  0.00     0.294 HD
ENDBRANCH  10  21
BRANCH   5  23
ATOM     23  O   UNL     1      31.259  11.471  23.822  1.00  0.00    -0.507 OA
ATOM     24  H   UNL     1      30.710  12.218  23.413  1.00  0.00     0.293 HD
ENDBRANCH   5  23
BRANCH   7  25
ATOM     25  O   UNL     1      32.317   8.219  20.429  1.00  0.00    -0.507 OA
ATOM     26  H   UNL     1      32.273   8.392  19.436  1.00  0.00     0.293 HD
ENDBRANCH   7  25
TORSDOF 6
ENDMDL
MODEL 7
REMARK VINA RESULT:    -4.311      1.661      3.259
REMARK INTER + INTRA:          -5.543
REMARK INTER:                  -5.255
REMARK INTRA:                  -0.288
REMARK UNBOUND:                -0.349
REMARK SMILES Oc1cc(O)c2cc(O)c(-c3ccc(O)c(O)c3)[o+]c2c1
REMARK SMILES IDX 10 1 19 2 20 3 21 4 2 5 3 6 4 7 6 8 7 9 8 10 11 11 12 12
REMARK SMILES IDX 13 13 14 14 18 15 16 16 15 17 17 19 9 21 1 23 5 25
REMARK H PARENT 15 18 17 20 9 22 1 24 5 26
REMARK Flexibility Score: inf
ROOT
ATOM      1  C   UNL     1      36.488  10.369  21.731  1.00  0.00     0.402 A 
ATOM      2  O   UNL     1      36.896  10.844  20.557  1.00  0.00    -0.202 OA
ATOM      3  C   UNL     1      38.176  10.956  20.220  1.00  0.00     0.368 A 
ATOM      4  C   UNL     1      38.507  11.470  18.963  1.00  0.00     0.162 A 
ATOM      5  C   UNL     1      39.843  11.601  18.584  1.00  0.00     0.128 A 
ATOM      6  C   UNL     1      40.859  11.217  19.466  1.00  0.00     0.093 A 
ATOM      7  C   UNL     1      40.554  10.698  20.731  1.00  0.00     0.136 A 
ATOM      8  C   UNL     1      39.196  10.562  21.119  1.00  0.00     0.125 A 
ATOM      9  C   UNL     1      38.797  10.040  22.361  1.00  0.00     0.078 A 
ATOM     10  C   UNL     1      37.438   9.931  22.671  1.00  0.00     0.223 A 
ENDROOT
BRANCH   1  11
ATOM     11  C   UNL     1      35.031  10.304  21.992  1.00  0.00     0.087 A 
ATOM     12  C   UNL     1      34.412  11.174  22.906  1.00  0.00     0.022 A 
ATOM     13  C   UNL     1      33.033  11.109  23.118  1.00  0.00     0.051 A 
ATOM     14  C   UNL     1      32.250  10.184  22.413  1.00  0.00     0.157 A 
ATOM     15  C   UNL     1      34.241   9.394  21.272  1.00  0.00     0.068 A 
ATOM     16  C   UNL     1      32.858   9.326  21.484  1.00  0.00     0.158 A 
BRANCH  14  17
ATOM     17  O   UNL     1      30.875  10.122  22.629  1.00  0.00    -0.504 OA
ATOM     18  H   UNL     1      30.431  10.632  23.384  1.00  0.00     0.293 HD
ENDBRANCH  14  17
BRANCH  16  19
ATOM     19  O   UNL     1      32.108   8.399  20.760  1.00  0.00    -0.504 OA
ATOM     20  H   UNL     1      31.157   8.161  21.015  1.00  0.00     0.293 HD
ENDBRANCH  16  19
ENDBRANCH   1  11
BRANCH  10  21
ATOM     21  O   UNL     1      37.040   9.367  23.884  1.00  0.00    -0.500 OA
ATOM     22  H   UNL     1      36.734   9.940  24.662  1.00  0.00     0.294 HD
ENDBRANCH  10  21
BRANCH   5  23
ATOM     23  O   UNL     1      40.151  12.116  17.326  1.00  0.00    -0.507 OA
ATOM     24  H   UNL     1      39.849  11.655  16.477  1.00  0.00     0.293 HD
ENDBRANCH   5  23
BRANCH   7  25
ATOM     25  O   UNL     1      41.625  10.341  21.555  1.00  0.00    -0.507 OA
ATOM     26  H   UNL     1      41.540  10.113  22.534  1.00  0.00     0.293 HD
ENDBRANCH   7  25
TORSDOF 6
ENDMDL
MODEL 8
REMARK VINA RESULT:    -4.152      3.896      6.746
REMARK INTER + INTRA:          -5.351
REMARK INTER:                  -5.026
REMARK INTRA:                  -0.324
REMARK UNBOUND:                -0.349
REMARK SMILES Oc1cc(O)c2cc(O)c(-c3ccc(O)c(O)c3)[o+]c2c1
REMARK SMILES IDX 10 1 19 2 20 3 21 4 2 5 3 6 4 7 6 8 7 9 8 10 11 11 12 12
REMARK SMILES IDX 13 13 14 14 18 15 16 16 15 17 17 19 9 21 1 23 5 25
REMARK H PARENT 15 18 17 20 9 22 1 24 5 26
REMARK Flexibility Score: inf
ROOT
ATOM      1  C   UNL     1      35.774   7.645  20.780  1.00  0.00     0.402 A 
ATOM      2  O   UNL     1      34.491   7.943  20.969  1.00  0.00    -0.202 OA
ATOM      3  C   UNL     1      34.081   9.039  21.597  1.00  0.00     0.368 A 
ATOM      4  C   UNL     1      32.711   9.265  21.750  1.00  0.00     0.162 A 
ATOM      5  C   UNL     1      32.252  10.407  22.407  1.00  0.00     0.128 A 
ATOM      6  C   UNL     1      33.169  11.332  22.918  1.00  0.00     0.093 A 
ATOM      7  C   UNL     1      34.548  11.130  22.778  1.00  0.00     0.136 A 
ATOM      8  C   UNL     1      35.018   9.970  22.108  1.00  0.00     0.125 A 
ATOM      9  C   UNL     1      36.381   9.692  21.910  1.00  0.00     0.078 A 
ATOM     10  C   UNL     1      36.767   8.530  21.235  1.00  0.00     0.223 A 
ENDROOT
BRANCH   1  11
ATOM     11  C   UNL     1      36.103   6.385  20.074  1.00  0.00     0.087 A 
ATOM     12  C   UNL     1      36.078   6.304  18.670  1.00  0.00     0.022 A 
ATOM     13  C   UNL     1      36.415   5.111  18.026  1.00  0.00     0.051 A 
ATOM     14  C   UNL     1      36.793   3.986  18.771  1.00  0.00     0.157 A 
ATOM     15  C   UNL     1      36.502   5.261  20.816  1.00  0.00     0.068 A 
ATOM     16  C   UNL     1      36.839   4.064  20.172  1.00  0.00     0.158 A 
BRANCH  14  17
ATOM     17  O   UNL     1      37.126   2.797  18.125  1.00  0.00    -0.504 OA
ATOM     18  H   UNL     1      38.091   2.535  17.959  1.00  0.00     0.293 HD
ENDBRANCH  14  17
BRANCH  16  19
ATOM     19  O   UNL     1      37.217   2.965  20.943  1.00  0.00    -0.504 OA
ATOM     20  H   UNL     1      37.089   2.944  21.948  1.00  0.00     0.293 HD
ENDBRANCH  16  19
ENDBRANCH   1  11
BRANCH  10  21
ATOM     21  O   UNL     1      38.119   8.278  20.994  1.00  0.00    -0.500 OA
ATOM     22  H   UNL     1      38.713   8.959  20.535  1.00  0.00     0.294 HD
ENDBRANCH  10  21
BRANCH   5  23
ATOM     23  O   UNL     1      30.882  10.613  22.549  1.00  0.00    -0.507 OA
ATOM     24  H   UNL     1      30.208   9.921  22.242  1.00  0.00     0.293 HD
ENDBRANCH   5  23
BRANCH   7  25
ATOM     25  O   UNL     1      35.399  12.098  23.319  1.00  0.00    -0.507 OA
ATOM     26  H   UNL     1      36.005  11.946  24.111  1.00  0.00     0.293 HD
ENDBRANCH   7  25
TORSDOF 6
ENDMDL
MODEL 9
REMARK VINA RESULT:    -2.059      4.736      7.959
REMARK INTER + INTRA:          -2.830
REMARK INTER:                  -2.482
REMARK INTRA:                  -0.348
REMARK UNBOUND:                -0.349
REMARK SMILES Oc1cc(O)c2cc(O)c(-c3ccc(O)c(O)c3)[o+]c2c1
REMARK SMILES IDX 10 1 19 2 20 3 21 4 2 5 3 6 4 7 6 8 7 9 8 10 11 11 12 12
REMARK SMILES IDX 13 13 14 14 18 15 16 16 15 17 17 19 9 21 1 23 5 25
REMARK H PARENT 15 18 17 20 9 22 1 24 5 26
REMARK Flexibility Score: inf
ROOT
ATOM      1  C   UNL     1      32.277   6.873  20.442  1.00  0.00     0.402 A 
ATOM      2  O   UNL     1      32.467   5.740  21.112  1.00  0.00    -0.202 OA
ATOM      3  C   UNL     1      32.196   4.541  20.609  1.00  0.00     0.368 A 
ATOM      4  C   UNL     1      32.428   3.406  21.391  1.00  0.00     0.162 A 
ATOM      5  C   UNL     1      32.149   2.134  20.890  1.00  0.00     0.128 A 
ATOM      6  C   UNL     1      31.634   1.993  19.596  1.00  0.00     0.093 A 
ATOM      7  C   UNL     1      31.394   3.114  18.792  1.00  0.00     0.136 A 
ATOM      8  C   UNL     1      31.678   4.409  19.298  1.00  0.00     0.125 A 
ATOM      9  C   UNL     1      31.480   5.587  18.559  1.00  0.00     0.078 A 
ATOM     10  C   UNL     1      31.789   6.828  19.124  1.00  0.00     0.223 A 
ENDROOT
BRANCH   1  11
ATOM     11  C   UNL     1      32.608   8.150  21.117  1.00  0.00     0.087 A 
ATOM     12  C   UNL     1      33.879   8.737  20.989  1.00  0.00     0.022 A 
ATOM     13  C   UNL     1      34.160   9.953  21.617  1.00  0.00     0.051 A 
ATOM     14  C   UNL     1      33.176  10.606  22.371  1.00  0.00     0.157 A 
ATOM     15  C   UNL     1      31.618   8.818  21.856  1.00  0.00     0.068 A 
ATOM     16  C   UNL     1      31.898  10.036  22.487  1.00  0.00     0.158 A 
BRANCH  14  17
ATOM     17  O   UNL     1      33.461  11.818  22.997  1.00  0.00    -0.504 OA
ATOM     18  H   UNL     1      32.727  12.414  23.362  1.00  0.00     0.293 HD
ENDBRANCH  14  17
BRANCH  16  19
ATOM     19  O   UNL     1      30.893  10.663  23.224  1.00  0.00    -0.504 OA
ATOM     20  H   UNL     1      31.100  11.261  24.014  1.00  0.00     0.293 HD
ENDBRANCH  16  19
ENDBRANCH   1  11
BRANCH  10  21
ATOM     21  O   UNL     1      31.639   7.995  18.373  1.00  0.00    -0.500 OA
ATOM     22  H   UNL     1      32.275   8.226  17.618  1.00  0.00     0.294 HD
ENDBRANCH  10  21
BRANCH   5  23
ATOM     23  O   UNL     1      32.388   1.016  21.686  1.00  0.00    -0.507 OA
ATOM     24  H   UNL     1      32.628   0.119  21.280  1.00  0.00     0.293 HD
ENDBRANCH   5  23
BRANCH   7  25
ATOM     25  O   UNL     1      30.875   2.889  17.514  1.00  0.00    -0.507 OA
ATOM     26  H   UNL     1      30.399   2.045  17.232  1.00  0.00     0.293 HD
ENDBRANCH   7  25
TORSDOF 6
ENDMDL
