MODEL 1
REMARK VINA RESULT:     4.450      0.000      0.000
REMARK INTER + INTRA:           5.831
REMARK INTER:                   5.360
REMARK INTRA:                   0.471
REMARK UNBOUND:                 0.471
REMARK SMILES O=c1c(O)c(-c2ccc(O)c(O)c2)oc2cc(O)cc(O)c12
REMARK SMILES IDX 5 1 3 2 2 3 1 4 22 5 20 6 19 7 17 8 16 9 15 10 14 11 6 12
REMARK SMILES IDX 7 13 8 14 9 15 13 16 11 17 10 18 12 20 4 22 21 24 18 26
REMARK H PARENT 10 19 12 21 4 23 21 25 18 27
REMARK Flexibility Score: inf
ROOT
ATOM      1  C   UNL     1      31.903  36.531  47.045  1.00  0.00     0.180 A 
ATOM      2  C   UNL     1      30.561  36.115  47.093  1.00  0.00     0.208 A 
ATOM      3  C   UNL     1      29.551  37.086  47.179  1.00  0.00     0.238 A 
ATOM      4  O   UNL     1      28.349  36.711  47.167  1.00  0.00    -0.285 OA
ATOM      5  C   UNL     1      29.895  38.458  47.233  1.00  0.00     0.111 A 
ATOM      6  C   UNL     1      28.955  39.526  47.362  1.00  0.00     0.134 A 
ATOM      7  C   UNL     1      29.398  40.851  47.273  1.00  0.00     0.093 A 
ATOM      8  C   UNL     1      30.756  41.147  47.126  1.00  0.00     0.123 A 
ATOM      9  C   UNL     1      31.687  40.114  47.059  1.00  0.00     0.094 A 
ATOM     10  C   UNL     1      31.272  38.782  47.109  1.00  0.00     0.146 A 
ATOM     11  O   UNL     1      32.190  37.827  47.031  1.00  0.00    -0.452 OA
ENDROOT
BRANCH   1  12
ATOM     12  C   UNL     1      33.024  35.565  46.979  1.00  0.00     0.025 A 
ATOM     13  C   UNL     1      32.797  34.178  46.997  1.00  0.00     0.016 A 
ATOM     14  C   UNL     1      33.872  33.285  46.958  1.00  0.00     0.051 A 
ATOM     15  C   UNL     1      35.187  33.766  46.915  1.00  0.00     0.157 A 
ATOM     16  C   UNL     1      34.346  36.041  46.957  1.00  0.00     0.062 A 
ATOM     17  C   UNL     1      35.425  35.146  46.917  1.00  0.00     0.158 A 
BRANCH  15  18
ATOM     18  O   UNL     1      36.262  32.879  46.875  1.00  0.00    -0.504 OA
ATOM     19  H   UNL     1      36.807  32.669  47.703  1.00  0.00     0.293 HD
ENDBRANCH  15  18
BRANCH  17  20
ATOM     20  O   UNL     1      36.735  35.621  46.881  1.00  0.00    -0.504 OA
ATOM     21  H   UNL     1      37.077  36.173  46.103  1.00  0.00     0.293 HD
ENDBRANCH  17  20
ENDBRANCH   1  12
BRANCH   2  22
ATOM     22  O   UNL     1      30.241  34.757  47.016  1.00  0.00    -0.502 OA
ATOM     23  H   UNL     1      30.932  34.047  46.806  1.00  0.00     0.293 HD
ENDBRANCH   2  22
BRANCH   6  24
ATOM     24  O   UNL     1      27.591  39.339  47.603  1.00  0.00    -0.507 OA
ATOM     25  H   UNL     1      26.855  39.568  46.950  1.00  0.00     0.293 HD
ENDBRANCH   6  24
BRANCH   8  26
ATOM     26  O   UNL     1      31.191  42.470  47.054  1.00  0.00    -0.508 OA
ATOM     27  H   UNL     1      32.102  42.708  46.683  1.00  0.00     0.293 HD
ENDBRANCH   8  26
TORSDOF 6
ENDMDL
MODEL 2
REMARK VINA RESULT:     7.053      1.326      2.172
REMARK INTER + INTRA:           8.968
REMARK INTER:                   8.433
REMARK INTRA:                   0.534
REMARK UNBOUND:                 0.471
REMARK SMILES O=c1c(O)c(-c2ccc(O)c(O)c2)oc2cc(O)cc(O)c12
REMARK SMILES IDX 5 1 3 2 2 3 1 4 22 5 20 6 19 7 17 8 16 9 15 10 14 11 6 12
REMARK SMILES IDX 7 13 8 14 9 15 13 16 11 17 10 18 12 20 4 22 21 24 18 26
REMARK H PARENT 10 19 12 21 4 23 21 25 18 27
REMARK Flexibility Score: inf
ROOT
ATOM      1  C   UNL     1      30.685  37.534  47.138  1.00  0.00     0.180 A 
ATOM      2  C   UNL     1      29.336  37.140  47.144  1.00  0.00     0.208 A 
ATOM      3  C   UNL     1      28.338  38.127  47.183  1.00  0.00     0.238 A 
ATOM      4  O   UNL     1      27.132  37.770  47.134  1.00  0.00    -0.285 OA
ATOM      5  C   UNL     1      28.702  39.494  47.232  1.00  0.00     0.111 A 
ATOM      6  C   UNL     1      27.774  40.577  47.315  1.00  0.00     0.134 A 
ATOM      7  C   UNL     1      28.241  41.894  47.225  1.00  0.00     0.093 A 
ATOM      8  C   UNL     1      29.607  42.168  47.122  1.00  0.00     0.123 A 
ATOM      9  C   UNL     1      30.524  41.120  47.101  1.00  0.00     0.094 A 
ATOM     10  C   UNL     1      30.086  39.795  47.152  1.00  0.00     0.146 A 
ATOM     11  O   UNL     1      30.992  38.826  47.118  1.00  0.00    -0.452 OA
ENDROOT
BRANCH   1  12
ATOM     12  C   UNL     1      31.793  36.551  47.123  1.00  0.00     0.025 A 
ATOM     13  C   UNL     1      33.123  36.950  46.910  1.00  0.00     0.016 A 
ATOM     14  C   UNL     1      34.149  36.002  46.876  1.00  0.00     0.051 A 
ATOM     15  C   UNL     1      33.858  34.641  47.039  1.00  0.00     0.157 A 
ATOM     16  C   UNL     1      31.504  35.183  47.264  1.00  0.00     0.062 A 
ATOM     17  C   UNL     1      32.533  34.231  47.231  1.00  0.00     0.158 A 
BRANCH  15  18
ATOM     18  O   UNL     1      34.878  33.692  47.007  1.00  0.00    -0.504 OA
ATOM     19  H   UNL     1      34.893  32.908  47.648  1.00  0.00     0.293 HD
ENDBRANCH  15  18
BRANCH  17  20
ATOM     20  O   UNL     1      32.246  32.876  47.386  1.00  0.00    -0.504 OA
ATOM     21  H   UNL     1      31.583  32.402  46.784  1.00  0.00     0.293 HD
ENDBRANCH  17  20
ENDBRANCH   1  12
BRANCH   2  22
ATOM     22  O   UNL     1      28.998  35.785  47.073  1.00  0.00    -0.502 OA
ATOM     23  H   UNL     1      29.689  35.048  47.137  1.00  0.00     0.293 HD
ENDBRANCH   2  22
BRANCH   6  24
ATOM     24  O   UNL     1      26.400  40.414  47.511  1.00  0.00    -0.507 OA
ATOM     25  H   UNL     1      25.828  39.734  47.032  1.00  0.00     0.293 HD
ENDBRANCH   6  24
BRANCH   8  26
ATOM     26  O   UNL     1      30.064  43.483  47.049  1.00  0.00    -0.508 OA
ATOM     27  H   UNL     1      30.974  43.707  46.663  1.00  0.00     0.293 HD
ENDBRANCH   8  26
TORSDOF 6
ENDMDL
