MODEL 1
REMARK VINA RESULT:    -3.521      0.000      0.000
REMARK INTER + INTRA:          -8.192
REMARK INTER:                  -6.403
REMARK INTRA:                  -1.789
REMARK UNBOUND:                -1.789
REMARK SMILES CCCCCCCCCCCCCCCC(=O)[O-]
REMARK SMILES IDX 9 1 10 2 11 3 12 4 13 5 14 6 15 7 16 8 17 9 18 10 8 11 7 12
REMARK SMILES IDX 6 13 5 14 4 15 3 16 2 17 1 18
REMARK H PARENT
REMARK Flexibility Score: inf
ROOT
ATOM      1  C   UNL     1     142.003 137.896 142.885  1.00  0.00     0.000 C 
ENDROOT
BRANCH   1   2
ATOM      2  C   UNL     1     143.124 137.339 141.991  1.00  0.00     0.000 C 
BRANCH   2   3
ATOM      3  C   UNL     1     142.974 137.767 140.521  1.00  0.00     0.000 C 
BRANCH   3   4
ATOM      4  C   UNL     1     142.828 136.572 139.562  1.00  0.00     0.000 C 
BRANCH   4   5
ATOM      5  C   UNL     1     142.092 135.348 140.141  1.00  0.00     0.000 C 
BRANCH   5   6
ATOM      6  C   UNL     1     140.596 135.246 139.782  1.00  0.00     0.006 C 
BRANCH   6   7
ATOM      7  C   UNL     1     140.271 134.130 138.772  1.00  0.00     0.053 C 
BRANCH   7   8
ATOM      8  C   UNL     1     139.956 134.668 137.409  1.00  0.00     0.041 C 
ATOM      9  O   UNL     1     140.283 135.844 137.098  1.00  0.00    -0.550 OA
ATOM     10  O   UNL     1     139.268 133.883 136.491  1.00  0.00    -0.550 OA
ENDBRANCH   7   8
ENDBRANCH   6   7
ENDBRANCH   5   6
ENDBRANCH   4   5
ENDBRANCH   3   4
ENDBRANCH   2   3
ENDBRANCH   1   2
BRANCH   1  11
ATOM     11  C   UNL     1     140.841 138.493 142.077  1.00  0.00     0.000 C 
BRANCH  11  12
ATOM     12  C   UNL     1     139.562 137.667 142.265  1.00  0.00    -0.000 C 
BRANCH  12  13
ATOM     13  C   UNL     1     139.430 137.176 143.712  1.00  0.00    -0.000 C 
BRANCH  13  14
ATOM     14  C   UNL     1     138.069 137.570 144.305  1.00  0.00    -0.000 C 
BRANCH  14  15
ATOM     15  C   UNL     1     137.001 137.809 143.227  1.00  0.00    -0.000 C 
BRANCH  15  16
ATOM     16  C   UNL     1     136.153 136.557 142.946  1.00  0.00    -0.000 C 
BRANCH  16  17
ATOM     17  C   UNL     1     135.871 136.361 141.448  1.00  0.00    -0.003 C 
ATOM     18  C   UNL     1     136.941 135.521 140.751  1.00  0.00     0.004 C 
ENDBRANCH  16  17
ENDBRANCH  15  16
ENDBRANCH  14  15
ENDBRANCH  13  14
ENDBRANCH  12  13
ENDBRANCH  11  12
ENDBRANCH   1  11
TORSDOF 14
ENDMDL
MODEL 2
REMARK VINA RESULT:    -3.408      7.944     10.038
REMARK INTER + INTRA:          -7.987
REMARK INTER:                  -6.339
REMARK INTRA:                  -1.647
REMARK UNBOUND:                -1.789
REMARK SMILES CCCCCCCCCCCCCCCC(=O)[O-]
REMARK SMILES IDX 9 1 10 2 11 3 12 4 13 5 14 6 15 7 16 8 17 9 18 10 8 11 7 12
REMARK SMILES IDX 6 13 5 14 4 15 3 16 2 17 1 18
REMARK H PARENT
REMARK Flexibility Score: inf
ROOT
ATOM      1  C   UNL     1     135.643 130.205 132.074  1.00  0.00     0.000 C 
ENDROOT
BRANCH   1   2
ATOM      2  C   UNL     1     136.838 129.244 132.191  1.00  0.00     0.000 C 
BRANCH   2   3
ATOM      3  C   UNL     1     138.190 129.974 132.143  1.00  0.00     0.000 C 
BRANCH   3   4
ATOM      4  C   UNL     1     138.720 130.345 133.540  1.00  0.00     0.000 C 
BRANCH   4   5
ATOM      5  C   UNL     1     139.676 131.552 133.582  1.00  0.00     0.000 C 
BRANCH   5   6
ATOM      6  C   UNL     1     139.102 132.828 134.230  1.00  0.00     0.006 C 
BRANCH   6   7
ATOM      7  C   UNL     1     137.823 133.352 133.551  1.00  0.00     0.053 C 
BRANCH   7   8
ATOM      8  C   UNL     1     137.081 134.330 134.410  1.00  0.00     0.041 C 
ATOM      9  O   UNL     1     136.573 133.960 135.501  1.00  0.00    -0.550 OA
ATOM     10  O   UNL     1     136.917 135.645 133.989  1.00  0.00    -0.550 OA
ENDBRANCH   7   8
ENDBRANCH   6   7
ENDBRANCH   5   6
ENDBRANCH   4   5
ENDBRANCH   3   4
ENDBRANCH   2   3
ENDBRANCH   1   2
BRANCH   1  11
ATOM     11  C   UNL     1     134.704 130.136 133.287  1.00  0.00     0.000 C 
BRANCH  11  12
ATOM     12  C   UNL     1     135.219 131.020 134.430  1.00  0.00    -0.000 C 
BRANCH  12  13
ATOM     13  C   UNL     1     135.497 130.189 135.688  1.00  0.00    -0.000 C 
BRANCH  13  14
ATOM     14  C   UNL     1     134.971 128.755 135.528  1.00  0.00    -0.000 C 
BRANCH  14  15
ATOM     15  C   UNL     1     133.948 128.376 136.610  1.00  0.00    -0.000 C 
BRANCH  15  16
ATOM     16  C   UNL     1     133.660 129.532 137.583  1.00  0.00    -0.000 C 
BRANCH  16  17
ATOM     17  C   UNL     1     133.999 129.174 139.039  1.00  0.00    -0.003 C 
ATOM     18  C   UNL     1     133.246 127.939 139.533  1.00  0.00     0.004 C 
ENDBRANCH  16  17
ENDBRANCH  15  16
ENDBRANCH  14  15
ENDBRANCH  13  14
ENDBRANCH  12  13
ENDBRANCH  11  12
ENDBRANCH   1  11
TORSDOF 14
ENDMDL
MODEL 3
REMARK VINA RESULT:    -3.392      2.664      4.815
REMARK INTER + INTRA:          -7.956
REMARK INTER:                  -5.546
REMARK INTRA:                  -2.410
REMARK UNBOUND:                -1.789
REMARK SMILES CCCCCCCCCCCCCCCC(=O)[O-]
REMARK SMILES IDX 9 1 10 2 11 3 12 4 13 5 14 6 15 7 16 8 17 9 18 10 8 11 7 12
REMARK SMILES IDX 6 13 5 14 4 15 3 16 2 17 1 18
REMARK H PARENT
REMARK Flexibility Score: inf
ROOT
ATOM      1  C   UNL     1     141.101 138.187 142.044  1.00  0.00     0.000 C 
ENDROOT
BRANCH   1   2
ATOM      2  C   UNL     1     139.617 137.895 142.316  1.00  0.00     0.000 C 
BRANCH   2   3
ATOM      3  C   UNL     1     139.352 137.501 143.779  1.00  0.00     0.000 C 
BRANCH   3   4
ATOM      4  C   UNL     1     137.864 137.586 144.162  1.00  0.00     0.000 C 
BRANCH   4   5
ATOM      5  C   UNL     1     136.894 137.822 142.989  1.00  0.00     0.000 C 
BRANCH   5   6
ATOM      6  C   UNL     1     135.996 136.624 142.622  1.00  0.00     0.006 C 
BRANCH   6   7
ATOM      7  C   UNL     1     136.154 136.147 141.167  1.00  0.00     0.053 C 
BRANCH   7   8
ATOM      8  C   UNL     1     135.490 134.825 140.924  1.00  0.00     0.041 C 
ATOM      9  O   UNL     1     135.552 134.281 139.790  1.00  0.00    -0.550 OA
ATOM     10  O   UNL     1     134.770 134.210 141.941  1.00  0.00    -0.550 OA
ENDBRANCH   7   8
ENDBRANCH   6   7
ENDBRANCH   5   6
ENDBRANCH   4   5
ENDBRANCH   3   4
ENDBRANCH   2   3
ENDBRANCH   1   2
BRANCH   1  11
ATOM     11  C   UNL     1     141.932 136.910 141.849  1.00  0.00     0.000 C 
BRANCH  11  12
ATOM     12  C   UNL     1     142.815 136.639 143.073  1.00  0.00    -0.000 C 
BRANCH  12  13
ATOM     13  C   UNL     1     142.458 135.297 143.724  1.00  0.00    -0.000 C 
BRANCH  13  14
ATOM     14  C   UNL     1     141.523 134.478 142.821  1.00  0.00    -0.000 C 
BRANCH  14  15
ATOM     15  C   UNL     1     140.264 133.995 143.556  1.00  0.00    -0.000 C 
BRANCH  15  16
ATOM     16  C   UNL     1     139.010 134.027 142.665  1.00  0.00    -0.000 C 
BRANCH  16  17
ATOM     17  C   UNL     1     139.340 134.330 141.195  1.00  0.00    -0.003 C 
ATOM     18  C   UNL     1     139.042 133.152 140.269  1.00  0.00     0.004 C 
ENDBRANCH  16  17
ENDBRANCH  15  16
ENDBRANCH  14  15
ENDBRANCH  13  14
ENDBRANCH  12  13
ENDBRANCH  11  12
ENDBRANCH   1  11
TORSDOF 14
ENDMDL
MODEL 4
REMARK VINA RESULT:    -3.347      2.537      5.747
REMARK INTER + INTRA:          -7.876
REMARK INTER:                  -5.991
REMARK INTRA:                  -1.885
REMARK UNBOUND:                -1.789
REMARK SMILES CCCCCCCCCCCCCCCC(=O)[O-]
REMARK SMILES IDX 9 1 10 2 11 3 12 4 13 5 14 6 15 7 16 8 17 9 18 10 8 11 7 12
REMARK SMILES IDX 6 13 5 14 4 15 3 16 2 17 1 18
REMARK H PARENT
REMARK Flexibility Score: inf
ROOT
ATOM      1  C   UNL     1     139.662 137.551 143.262  1.00  0.00     0.000 C 
ENDROOT
BRANCH   1   2
ATOM      2  C   UNL     1     138.273 137.168 142.724  1.00  0.00     0.000 C 
BRANCH   2   3
ATOM      3  C   UNL     1     137.141 137.959 143.399  1.00  0.00     0.000 C 
BRANCH   3   4
ATOM      4  C   UNL     1     136.398 137.143 144.473  1.00  0.00     0.000 C 
BRANCH   4   5
ATOM      5  C   UNL     1     136.225 135.644 144.159  1.00  0.00     0.000 C 
BRANCH   5   6
ATOM      6  C   UNL     1     134.865 135.250 143.551  1.00  0.00     0.006 C 
BRANCH   6   7
ATOM      7  C   UNL     1     134.971 134.533 142.193  1.00  0.00     0.053 C 
BRANCH   7   8
ATOM      8  C   UNL     1     135.408 135.454 141.094  1.00  0.00     0.041 C 
ATOM      9  O   UNL     1     136.320 135.107 140.299  1.00  0.00    -0.550 OA
ATOM     10  O   UNL     1     134.832 136.714 140.970  1.00  0.00    -0.550 OA
ENDBRANCH   7   8
ENDBRANCH   6   7
ENDBRANCH   5   6
ENDBRANCH   4   5
ENDBRANCH   3   4
ENDBRANCH   2   3
ENDBRANCH   1   2
BRANCH   1  11
ATOM     11  C   UNL     1     140.534 138.251 142.209  1.00  0.00     0.000 C 
BRANCH  11  12
ATOM     12  C   UNL     1     142.015 138.208 142.607  1.00  0.00    -0.000 C 
BRANCH  12  13
ATOM     13  C   UNL     1     142.893 137.787 141.423  1.00  0.00    -0.000 C 
BRANCH  13  14
ATOM     14  C   UNL     1     142.223 136.667 140.612  1.00  0.00    -0.000 C 
BRANCH  14  15
ATOM     15  C   UNL     1     142.530 135.269 141.169  1.00  0.00    -0.000 C 
BRANCH  15  16
ATOM     16  C   UNL     1     141.288 134.582 141.763  1.00  0.00    -0.000 C 
BRANCH  16  17
ATOM     17  C   UNL     1     141.550 133.998 143.160  1.00  0.00    -0.003 C 
ATOM     18  C   UNL     1     142.307 134.964 144.071  1.00  0.00     0.004 C 
ENDBRANCH  16  17
ENDBRANCH  15  16
ENDBRANCH  14  15
ENDBRANCH  13  14
ENDBRANCH  12  13
ENDBRANCH  11  12
ENDBRANCH   1  11
TORSDOF 14
ENDMDL
MODEL 5
REMARK VINA RESULT:    -3.279      1.848      5.149
REMARK INTER + INTRA:          -7.752
REMARK INTER:                  -5.839
REMARK INTRA:                  -1.913
REMARK UNBOUND:                -1.789
REMARK SMILES CCCCCCCCCCCCCCCC(=O)[O-]
REMARK SMILES IDX 9 1 10 2 11 3 12 4 13 5 14 6 15 7 16 8 17 9 18 10 8 11 7 12
REMARK SMILES IDX 6 13 5 14 4 15 3 16 2 17 1 18
REMARK H PARENT
REMARK Flexibility Score: inf
ROOT
ATOM      1  C   UNL     1     138.663 136.265 145.874  1.00  0.00     0.000 C 
ENDROOT
BRANCH   1   2
ATOM      2  C   UNL     1     137.446 136.313 144.934  1.00  0.00     0.000 C 
BRANCH   2   3
ATOM      3  C   UNL     1     137.145 137.735 144.432  1.00  0.00     0.000 C 
BRANCH   3   4
ATOM      4  C   UNL     1     136.789 137.779 142.935  1.00  0.00     0.000 C 
BRANCH   4   5
ATOM      5  C   UNL     1     136.366 136.432 142.319  1.00  0.00     0.000 C 
BRANCH   5   6
ATOM      6  C   UNL     1     137.032 136.082 140.974  1.00  0.00     0.006 C 
BRANCH   6   7
ATOM      7  C   UNL     1     137.519 134.624 140.878  1.00  0.00     0.053 C 
BRANCH   7   8
ATOM      8  C   UNL     1     137.087 133.960 139.606  1.00  0.00     0.041 C 
ATOM      9  O   UNL     1     135.863 133.824 139.344  1.00  0.00    -0.550 OA
ATOM     10  O   UNL     1     138.037 133.458 138.724  1.00  0.00    -0.550 OA
ENDBRANCH   7   8
ENDBRANCH   6   7
ENDBRANCH   5   6
ENDBRANCH   4   5
ENDBRANCH   3   4
ENDBRANCH   2   3
ENDBRANCH   1   2
BRANCH   1  11
ATOM     11  C   UNL     1     139.775 135.340 145.358  1.00  0.00     0.000 C 
BRANCH  11  12
ATOM     12  C   UNL     1     139.744 135.246 143.827  1.00  0.00    -0.000 C 
BRANCH  12  13
ATOM     13  C   UNL     1     140.830 136.129 143.199  1.00  0.00    -0.000 C 
BRANCH  13  14
ATOM     14  C   UNL     1     140.206 137.296 142.419  1.00  0.00    -0.000 C 
BRANCH  14  15
ATOM     15  C   UNL     1     141.216 138.416 142.122  1.00  0.00    -0.000 C 
BRANCH  15  16
ATOM     16  C   UNL     1     142.652 137.888 141.956  1.00  0.00    -0.000 C 
BRANCH  16  17
ATOM     17  C   UNL     1     143.116 137.896 140.491  1.00  0.00    -0.003 C 
ATOM     18  C   UNL     1     142.898 136.552 139.796  1.00  0.00     0.004 C 
ENDBRANCH  16  17
ENDBRANCH  15  16
ENDBRANCH  14  15
ENDBRANCH  13  14
ENDBRANCH  12  13
ENDBRANCH  11  12
ENDBRANCH   1  11
TORSDOF 14
ENDMDL
MODEL 6
REMARK VINA RESULT:    -3.277      1.449      3.210
REMARK INTER + INTRA:          -7.748
REMARK INTER:                  -5.725
REMARK INTRA:                  -2.022
REMARK UNBOUND:                -1.789
REMARK SMILES CCCCCCCCCCCCCCCC(=O)[O-]
REMARK SMILES IDX 9 1 10 2 11 3 12 4 13 5 14 6 15 7 16 8 17 9 18 10 8 11 7 12
REMARK SMILES IDX 6 13 5 14 4 15 3 16 2 17 1 18
REMARK H PARENT
REMARK Flexibility Score: inf
ROOT
ATOM      1  C   UNL     1     138.195 137.497 144.224  1.00  0.00     0.000 C 
ENDROOT
BRANCH   1   2
ATOM      2  C   UNL     1     139.372 136.936 143.409  1.00  0.00     0.000 C 
BRANCH   2   3
ATOM      3  C   UNL     1     139.816 137.885 142.283  1.00  0.00     0.000 C 
BRANCH   3   4
ATOM      4  C   UNL     1     141.297 138.292 142.391  1.00  0.00     0.000 C 
BRANCH   4   5
ATOM      5  C   UNL     1     142.215 137.738 141.285  1.00  0.00     0.000 C 
BRANCH   5   6
ATOM      6  C   UNL     1     141.755 136.412 140.647  1.00  0.00     0.006 C 
BRANCH   6   7
ATOM      7  C   UNL     1     142.345 136.154 139.248  1.00  0.00     0.053 C 
BRANCH   7   8
ATOM      8  C   UNL     1     141.455 135.294 138.403  1.00  0.00     0.041 C 
ATOM      9  O   UNL     1     140.884 135.774 137.389  1.00  0.00    -0.550 OA
ATOM     10  O   UNL     1     141.226 133.969 138.756  1.00  0.00    -0.550 OA
ENDBRANCH   7   8
ENDBRANCH   6   7
ENDBRANCH   5   6
ENDBRANCH   4   5
ENDBRANCH   3   4
ENDBRANCH   2   3
ENDBRANCH   1   2
BRANCH   1  11
ATOM     11  C   UNL     1     137.142 138.189 143.346  1.00  0.00     0.000 C 
BRANCH  11  12
ATOM     12  C   UNL     1     136.273 137.156 142.617  1.00  0.00    -0.000 C 
BRANCH  12  13
ATOM     13  C   UNL     1     135.767 136.079 143.584  1.00  0.00    -0.000 C 
BRANCH  13  14
ATOM     14  C   UNL     1     135.756 134.698 142.913  1.00  0.00    -0.000 C 
BRANCH  14  15
ATOM     15  C   UNL     1     136.971 133.841 143.304  1.00  0.00    -0.000 C 
BRANCH  15  16
ATOM     16  C   UNL     1     138.052 133.813 142.210  1.00  0.00    -0.000 C 
BRANCH  16  17
ATOM     17  C   UNL     1     137.484 134.115 140.814  1.00  0.00    -0.003 C 
ATOM     18  C   UNL     1     138.184 135.291 140.134  1.00  0.00     0.004 C 
ENDBRANCH  16  17
ENDBRANCH  15  16
ENDBRANCH  14  15
ENDBRANCH  13  14
ENDBRANCH  12  13
ENDBRANCH  11  12
ENDBRANCH   1  11
TORSDOF 14
ENDMDL
MODEL 7
REMARK VINA RESULT:    -3.271      1.648      4.908
REMARK INTER + INTRA:          -7.737
REMARK INTER:                  -5.543
REMARK INTRA:                  -2.194
REMARK UNBOUND:                -1.789
REMARK SMILES CCCCCCCCCCCCCCCC(=O)[O-]
REMARK SMILES IDX 9 1 10 2 11 3 12 4 13 5 14 6 15 7 16 8 17 9 18 10 8 11 7 12
REMARK SMILES IDX 6 13 5 14 4 15 3 16 2 17 1 18
REMARK H PARENT
REMARK Flexibility Score: inf
ROOT
ATOM      1  C   UNL     1     136.356 136.598 144.236  1.00  0.00     0.000 C 
ENDROOT
BRANCH   1   2
ATOM      2  C   UNL     1     135.398 136.038 143.172  1.00  0.00     0.000 C 
BRANCH   2   3
ATOM      3  C   UNL     1     135.645 136.642 141.779  1.00  0.00     0.000 C 
BRANCH   3   4
ATOM      4  C   UNL     1     136.364 135.671 140.826  1.00  0.00     0.000 C 
BRANCH   4   5
ATOM      5  C   UNL     1     136.582 134.248 141.375  1.00  0.00     0.000 C 
BRANCH   5   6
ATOM      6  C   UNL     1     137.319 133.280 140.428  1.00  0.00     0.006 C 
BRANCH   6   7
ATOM      7  C   UNL     1     137.988 133.970 139.225  1.00  0.00     0.053 C 
BRANCH   7   8
ATOM      8  C   UNL     1     137.502 133.431 137.914  1.00  0.00     0.041 C 
ATOM      9  O   UNL     1     137.999 133.843 136.834  1.00  0.00    -0.550 OA
ATOM     10  O   UNL     1     136.471 132.499 137.883  1.00  0.00    -0.550 OA
ENDBRANCH   7   8
ENDBRANCH   6   7
ENDBRANCH   5   6
ENDBRANCH   4   5
ENDBRANCH   3   4
ENDBRANCH   2   3
ENDBRANCH   1   2
BRANCH   1  11
ATOM     11  C   UNL     1     137.120 137.840 143.753  1.00  0.00     0.000 C 
BRANCH  11  12
ATOM     12  C   UNL     1     138.631 137.582 143.734  1.00  0.00    -0.000 C 
BRANCH  12  13
ATOM     13  C   UNL     1     138.941 136.102 143.992  1.00  0.00    -0.000 C 
BRANCH  13  14
ATOM     14  C   UNL     1     139.618 135.460 142.772  1.00  0.00    -0.000 C 
BRANCH  14  15
ATOM     15  C   UNL     1     139.924 136.477 141.662  1.00  0.00    -0.000 C 
BRANCH  15  16
ATOM     16  C   UNL     1     141.298 136.245 141.009  1.00  0.00    -0.000 C 
BRANCH  16  17
ATOM     17  C   UNL     1     142.231 137.457 141.154  1.00  0.00    -0.003 C 
ATOM     18  C   UNL     1     142.107 138.136 142.517  1.00  0.00     0.004 C 
ENDBRANCH  16  17
ENDBRANCH  15  16
ENDBRANCH  14  15
ENDBRANCH  13  14
ENDBRANCH  12  13
ENDBRANCH  11  12
ENDBRANCH   1  11
TORSDOF 14
ENDMDL
MODEL 8
REMARK VINA RESULT:    -3.249      2.090      5.346
REMARK INTER + INTRA:          -7.698
REMARK INTER:                  -5.626
REMARK INTRA:                  -2.071
REMARK UNBOUND:                -1.789
REMARK SMILES CCCCCCCCCCCCCCCC(=O)[O-]
REMARK SMILES IDX 9 1 10 2 11 3 12 4 13 5 14 6 15 7 16 8 17 9 18 10 8 11 7 12
REMARK SMILES IDX 6 13 5 14 4 15 3 16 2 17 1 18
REMARK H PARENT
REMARK Flexibility Score: inf
ROOT
ATOM      1  C   UNL     1     135.637 136.877 142.000  1.00  0.00     0.000 C 
ENDROOT
BRANCH   1   2
ATOM      2  C   UNL     1     136.810 136.484 142.914  1.00  0.00     0.000 C 
BRANCH   2   3
ATOM      3  C   UNL     1     137.461 137.700 143.595  1.00  0.00     0.000 C 
BRANCH   3   4
ATOM      4  C   UNL     1     138.988 137.566 143.727  1.00  0.00     0.000 C 
BRANCH   4   5
ATOM      5  C   UNL     1     139.790 137.868 142.447  1.00  0.00     0.000 C 
BRANCH   5   6
ATOM      6  C   UNL     1     141.318 137.950 142.628  1.00  0.00     0.006 C 
BRANCH   6   7
ATOM      7  C   UNL     1     142.104 137.978 141.304  1.00  0.00     0.053 C 
BRANCH   7   8
ATOM      8  C   UNL     1     142.331 136.607 140.744  1.00  0.00     0.041 C 
ATOM      9  O   UNL     1     142.195 136.393 139.511  1.00  0.00    -0.550 OA
ATOM     10  O   UNL     1     142.655 135.553 141.591  1.00  0.00    -0.550 OA
ENDBRANCH   7   8
ENDBRANCH   6   7
ENDBRANCH   5   6
ENDBRANCH   4   5
ENDBRANCH   3   4
ENDBRANCH   2   3
ENDBRANCH   1   2
BRANCH   1  11
ATOM     11  C   UNL     1     134.996 135.668 141.303  1.00  0.00     0.000 C 
BRANCH  11  12
ATOM     12  C   UNL     1     135.215 134.387 142.118  1.00  0.00    -0.000 C 
BRANCH  12  13
ATOM     13  C   UNL     1     135.709 133.243 141.224  1.00  0.00    -0.000 C 
BRANCH  13  14
ATOM     14  C   UNL     1     136.042 133.751 139.813  1.00  0.00    -0.000 C 
BRANCH  14  15
ATOM     15  C   UNL     1     137.344 133.151 139.260  1.00  0.00    -0.000 C 
BRANCH  15  16
ATOM     16  C   UNL     1     138.394 134.226 138.925  1.00  0.00    -0.000 C 
BRANCH  16  17
ATOM     17  C   UNL     1     138.696 135.146 140.118  1.00  0.00    -0.003 C 
ATOM     18  C   UNL     1     139.363 134.407 141.278  1.00  0.00     0.004 C 
ENDBRANCH  16  17
ENDBRANCH  15  16
ENDBRANCH  14  15
ENDBRANCH  13  14
ENDBRANCH  12  13
ENDBRANCH  11  12
ENDBRANCH   1  11
TORSDOF 14
ENDMDL
MODEL 9
REMARK VINA RESULT:    -3.247      4.033      6.876
REMARK INTER + INTRA:          -7.694
REMARK INTER:                  -5.464
REMARK INTRA:                  -2.231
REMARK UNBOUND:                -1.789
REMARK SMILES CCCCCCCCCCCCCCCC(=O)[O-]
REMARK SMILES IDX 9 1 10 2 11 3 12 4 13 5 14 6 15 7 16 8 17 9 18 10 8 11 7 12
REMARK SMILES IDX 6 13 5 14 4 15 3 16 2 17 1 18
REMARK H PARENT
REMARK Flexibility Score: inf
ROOT
ATOM      1  C   UNL     1     138.232 137.516 144.790  1.00  0.00     0.000 C 
ENDROOT
BRANCH   1   2
ATOM      2  C   UNL     1     136.949 137.887 144.028  1.00  0.00     0.000 C 
BRANCH   2   3
ATOM      3  C   UNL     1     136.924 137.314 142.601  1.00  0.00     0.000 C 
BRANCH   3   4
ATOM      4  C   UNL     1     135.655 136.494 142.307  1.00  0.00     0.000 C 
BRANCH   4   5
ATOM      5  C   UNL     1     135.771 134.981 142.578  1.00  0.00     0.000 C 
BRANCH   5   6
ATOM      6  C   UNL     1     134.684 134.389 143.496  1.00  0.00     0.006 C 
BRANCH   6   7
ATOM      7  C   UNL     1     135.040 134.429 144.994  1.00  0.00     0.053 C 
BRANCH   7   8
ATOM      8  C   UNL     1     134.396 135.581 145.703  1.00  0.00     0.041 C 
ATOM      9  O   UNL     1     133.389 136.151 145.206  1.00  0.00    -0.550 OA
ATOM     10  O   UNL     1     134.929 136.051 146.898  1.00  0.00    -0.550 OA
ENDBRANCH   7   8
ENDBRANCH   6   7
ENDBRANCH   5   6
ENDBRANCH   4   5
ENDBRANCH   3   4
ENDBRANCH   2   3
ENDBRANCH   1   2
BRANCH   1  11
ATOM     11  C   UNL     1     138.152 136.131 145.450  1.00  0.00     0.000 C 
BRANCH  11  12
ATOM     12  C   UNL     1     139.023 135.116 144.700  1.00  0.00    -0.000 C 
BRANCH  12  13
ATOM     13  C   UNL     1     140.219 135.804 144.030  1.00  0.00    -0.000 C 
BRANCH  13  14
ATOM     14  C   UNL     1     140.364 135.356 142.568  1.00  0.00    -0.000 C 
BRANCH  14  15
ATOM     15  C   UNL     1     140.457 136.540 141.594  1.00  0.00    -0.000 C 
BRANCH  15  16
ATOM     16  C   UNL     1     140.922 137.836 142.280  1.00  0.00    -0.000 C 
BRANCH  16  17
ATOM     17  C   UNL     1     142.448 138.011 142.236  1.00  0.00    -0.003 C 
ATOM     18  C   UNL     1     143.014 137.900 140.820  1.00  0.00     0.004 C 
ENDBRANCH  16  17
ENDBRANCH  15  16
ENDBRANCH  14  15
ENDBRANCH  13  14
ENDBRANCH  12  13
ENDBRANCH  11  12
ENDBRANCH   1  11
TORSDOF 14
ENDMDL
