MODEL 1
REMARK VINA RESULT:    -2.801      0.000      0.000
REMARK INTER + INTRA:         -13.608
REMARK INTER:                  -7.387
REMARK INTRA:                  -6.221
REMARK UNBOUND:                -6.221
REMARK SMILES CCCCCCCCCCCCCCCCCCCCCCCCCCCCCC(=O)[O-]
REMARK SMILES IDX 16 1 17 2 18 3 19 4 20 5 21 6 22 7 23 8 24 9 25 10 26 11
REMARK SMILES IDX 27 12 28 13 29 14 30 15 31 16 32 17 15 18 14 19 13 20 12 21
REMARK SMILES IDX 11 22 10 23 9 24 8 25 7 26 6 27 5 28 4 29 3 30 2 31 1 32
REMARK H PARENT
REMARK Flexibility Score: inf
ROOT
ATOM      1  C   UNL     1      13.878   0.003 203.223  1.00  0.00     0.000 C 
ENDROOT
BRANCH   1   2
ATOM      2  C   UNL     1      14.210  -1.282 204.002  1.00  0.00     0.000 C 
BRANCH   2   3
ATOM      3  C   UNL     1      13.032  -2.269 204.046  1.00  0.00     0.000 C 
BRANCH   3   4
ATOM      4  C   UNL     1      11.687  -1.595 203.740  1.00  0.00     0.000 C 
BRANCH   4   5
ATOM      5  C   UNL     1      10.961  -2.313 202.592  1.00  0.00     0.000 C 
BRANCH   5   6
ATOM      6  C   UNL     1      11.276  -1.701 201.216  1.00  0.00     0.000 C 
BRANCH   6   7
ATOM      7  C   UNL     1      11.578  -2.769 200.149  1.00  0.00     0.000 C 
BRANCH   7   8
ATOM      8  C   UNL     1      11.342  -2.262 198.716  1.00  0.00     0.000 C 
BRANCH   8   9
ATOM      9  C   UNL     1      10.686  -0.872 198.678  1.00  0.00     0.000 C 
BRANCH   9  10
ATOM     10  C   UNL     1       9.209  -0.973 198.268  1.00  0.00     0.000 C 
BRANCH  10  11
ATOM     11  C   UNL     1       8.277  -0.166 199.190  1.00  0.00     0.000 C 
BRANCH  11  12
ATOM     12  C   UNL     1       8.984   0.868 200.092  1.00  0.00     0.000 C 
BRANCH  12  13
ATOM     13  C   UNL     1       8.486   0.915 201.550  1.00  0.00     0.006 C 
BRANCH  13  14
ATOM     14  C   UNL     1       9.568   1.276 202.580  1.00  0.00     0.053 C 
BRANCH  14  15
ATOM     15  C   UNL     1       9.732   2.757 202.726  1.00  0.00     0.041 C 
ATOM     16  O   UNL     1      10.799   3.233 203.198  1.00  0.00    -0.550 OA
ATOM     17  O   UNL     1       8.716   3.614 202.322  1.00  0.00    -0.550 OA
ENDBRANCH  14  15
ENDBRANCH  13  14
ENDBRANCH  12  13
ENDBRANCH  11  12
ENDBRANCH  10  11
ENDBRANCH   9  10
ENDBRANCH   8   9
ENDBRANCH   7   8
ENDBRANCH   6   7
ENDBRANCH   5   6
ENDBRANCH   4   5
ENDBRANCH   3   4
ENDBRANCH   2   3
ENDBRANCH   1   2
BRANCH   1  18
ATOM     18  C   UNL     1      15.087   0.959 203.133  1.00  0.00     0.000 C 
BRANCH  18  19
ATOM     19  C   UNL     1      16.374   0.409 203.780  1.00  0.00     0.000 C 
BRANCH  19  20
ATOM     20  C   UNL     1      17.674   0.694 203.008  1.00  0.00     0.000 C 
BRANCH  20  21
ATOM     21  C   UNL     1      18.117  -0.480 202.121  1.00  0.00     0.000 C 
BRANCH  21  22
ATOM     22  C   UNL     1      17.789  -1.848 202.742  1.00  0.00     0.000 C 
BRANCH  22  23
ATOM     23  C   UNL     1      16.798  -2.689 201.908  1.00  0.00     0.000 C 
BRANCH  23  24
ATOM     24  C   UNL     1      16.545  -2.092 200.510  1.00  0.00    -0.000 C 
BRANCH  24  25
ATOM     25  C   UNL     1      15.086  -1.606 200.349  1.00  0.00    -0.000 C 
BRANCH  25  26
ATOM     26  C   UNL     1      14.844  -0.801 199.061  1.00  0.00    -0.000 C 
BRANCH  26  27
ATOM     27  C   UNL     1      15.981   0.184 198.753  1.00  0.00    -0.000 C 
BRANCH  27  28
ATOM     28  C   UNL     1      15.991   1.345 199.757  1.00  0.00    -0.000 C 
BRANCH  28  29
ATOM     29  C   UNL     1      15.175   2.555 199.269  1.00  0.00    -0.000 C 
BRANCH  29  30
ATOM     30  C   UNL     1      14.538   3.342 200.425  1.00  0.00    -0.000 C 
BRANCH  30  31
ATOM     31  C   UNL     1      13.007   3.264 200.365  1.00  0.00    -0.003 C 
ATOM     32  C   UNL     1      12.531   1.813 200.314  1.00  0.00     0.004 C 
ENDBRANCH  30  31
ENDBRANCH  29  30
ENDBRANCH  28  29
ENDBRANCH  27  28
ENDBRANCH  26  27
ENDBRANCH  25  26
ENDBRANCH  24  25
ENDBRANCH  23  24
ENDBRANCH  22  23
ENDBRANCH  21  22
ENDBRANCH  20  21
ENDBRANCH  19  20
ENDBRANCH  18  19
ENDBRANCH   1  18
TORSDOF 28
ENDMDL
MODEL 2
REMARK VINA RESULT:    -2.764     15.380     18.422
REMARK INTER + INTRA:         -13.508
REMARK INTER:                  -7.942
REMARK INTRA:                  -5.566
REMARK UNBOUND:                -6.221
REMARK SMILES CCCCCCCCCCCCCCCCCCCCCCCCCCCCCC(=O)[O-]
REMARK SMILES IDX 16 1 17 2 18 3 19 4 20 5 21 6 22 7 23 8 24 9 25 10 26 11
REMARK SMILES IDX 27 12 28 13 29 14 30 15 31 16 32 17 15 18 14 19 13 20 12 21
REMARK SMILES IDX 11 22 10 23 9 24 8 25 7 26 6 27 5 28 4 29 3 30 2 31 1 32
REMARK H PARENT
REMARK Flexibility Score: inf
ROOT
ATOM      1  C   UNL     1      19.021 -10.666 188.385  1.00  0.00     0.000 C 
ENDROOT
BRANCH   1   2
ATOM      2  C   UNL     1      19.744  -9.317 188.229  1.00  0.00     0.000 C 
BRANCH   2   3
ATOM      3  C   UNL     1      19.879  -8.883 186.761  1.00  0.00     0.000 C 
BRANCH   3   4
ATOM      4  C   UNL     1      19.340  -7.466 186.514  1.00  0.00     0.000 C 
BRANCH   4   5
ATOM      5  C   UNL     1      17.989  -7.512 185.783  1.00  0.00     0.000 C 
BRANCH   5   6
ATOM      6  C   UNL     1      17.585  -8.938 185.372  1.00  0.00     0.000 C 
BRANCH   6   7
ATOM      7  C   UNL     1      16.270  -9.393 186.032  1.00  0.00     0.000 C 
BRANCH   7   8
ATOM      8  C   UNL     1      15.777  -8.414 187.111  1.00  0.00     0.000 C 
BRANCH   8   9
ATOM      9  C   UNL     1      15.890  -8.989 188.532  1.00  0.00     0.000 C 
BRANCH   9  10
ATOM     10  C   UNL     1      15.966  -7.863 189.575  1.00  0.00     0.000 C 
BRANCH  10  11
ATOM     11  C   UNL     1      17.154  -6.911 189.341  1.00  0.00     0.000 C 
BRANCH  11  12
ATOM     12  C   UNL     1      17.794  -6.338 190.622  1.00  0.00     0.000 C 
BRANCH  12  13
ATOM     13  C   UNL     1      17.416  -7.067 191.928  1.00  0.00     0.006 C 
BRANCH  13  14
ATOM     14  C   UNL     1      18.612  -7.632 192.709  1.00  0.00     0.053 C 
BRANCH  14  15
ATOM     15  C   UNL     1      18.853  -6.884 193.983  1.00  0.00     0.041 C 
ATOM     16  O   UNL     1      19.605  -7.370 194.871  1.00  0.00    -0.550 OA
ATOM     17  O   UNL     1      18.268  -5.640 194.184  1.00  0.00    -0.550 OA
ENDBRANCH  14  15
ENDBRANCH  13  14
ENDBRANCH  12  13
ENDBRANCH  11  12
ENDBRANCH  10  11
ENDBRANCH   9  10
ENDBRANCH   8   9
ENDBRANCH   7   8
ENDBRANCH   6   7
ENDBRANCH   5   6
ENDBRANCH   4   5
ENDBRANCH   3   4
ENDBRANCH   2   3
ENDBRANCH   1   2
BRANCH   1  18
ATOM     18  C   UNL     1      19.376 -11.652 187.251  1.00  0.00     0.000 C 
BRANCH  18  19
ATOM     19  C   UNL     1      18.229 -12.609 186.867  1.00  0.00     0.000 C 
BRANCH  19  20
ATOM     20  C   UNL     1      18.578 -14.107 186.911  1.00  0.00     0.000 C 
BRANCH  20  21
ATOM     21  C   UNL     1      17.389 -14.990 187.321  1.00  0.00     0.000 C 
BRANCH  21  22
ATOM     22  C   UNL     1      16.821 -15.801 186.144  1.00  0.00     0.000 C 
BRANCH  22  23
ATOM     23  C   UNL     1      15.296 -15.645 185.960  1.00  0.00     0.000 C 
BRANCH  23  24
ATOM     24  C   UNL     1      14.931 -14.806 184.721  1.00  0.00    -0.000 C 
BRANCH  24  25
ATOM     25  C   UNL     1      15.340 -13.325 184.888  1.00  0.00    -0.000 C 
BRANCH  25  26
ATOM     26  C   UNL     1      14.150 -12.379 185.121  1.00  0.00    -0.000 C 
BRANCH  26  27
ATOM     27  C   UNL     1      13.551 -12.513 186.528  1.00  0.00    -0.000 C 
BRANCH  27  28
ATOM     28  C   UNL     1      14.613 -12.249 187.606  1.00  0.00    -0.000 C 
BRANCH  28  29
ATOM     29  C   UNL     1      14.529 -13.246 188.775  1.00  0.00    -0.000 C 
BRANCH  29  30
ATOM     30  C   UNL     1      13.254 -14.102 188.730  1.00  0.00    -0.000 C 
BRANCH  30  31
ATOM     31  C   UNL     1      13.530 -15.526 189.230  1.00  0.00    -0.003 C 
ATOM     32  C   UNL     1      14.910 -15.625 189.877  1.00  0.00     0.004 C 
ENDBRANCH  30  31
ENDBRANCH  29  30
ENDBRANCH  28  29
ENDBRANCH  27  28
ENDBRANCH  26  27
ENDBRANCH  25  26
ENDBRANCH  24  25
ENDBRANCH  23  24
ENDBRANCH  22  23
ENDBRANCH  21  22
ENDBRANCH  20  21
ENDBRANCH  19  20
ENDBRANCH  18  19
ENDBRANCH   1  18
TORSDOF 28
ENDMDL
MODEL 3
REMARK VINA RESULT:    -2.726      3.633      7.312
REMARK INTER + INTRA:         -13.410
REMARK INTER:                  -6.699
REMARK INTRA:                  -6.711
REMARK UNBOUND:                -6.221
REMARK SMILES CCCCCCCCCCCCCCCCCCCCCCCCCCCCCC(=O)[O-]
REMARK SMILES IDX 16 1 17 2 18 3 19 4 20 5 21 6 22 7 23 8 24 9 25 10 26 11
REMARK SMILES IDX 27 12 28 13 29 14 30 15 31 16 32 17 15 18 14 19 13 20 12 21
REMARK SMILES IDX 11 22 10 23 9 24 8 25 7 26 6 27 5 28 4 29 3 30 2 31 1 32
REMARK H PARENT
REMARK Flexibility Score: inf
ROOT
ATOM      1  C   UNL     1      11.206  -1.074 202.452  1.00  0.00     0.000 C 
ENDROOT
BRANCH   1   2
ATOM      2  C   UNL     1      11.731  -1.841 203.678  1.00  0.00     0.000 C 
BRANCH   2   3
ATOM      3  C   UNL     1      13.255  -1.725 203.841  1.00  0.00     0.000 C 
BRANCH   3   4
ATOM      4  C   UNL     1      14.013  -2.837 203.101  1.00  0.00     0.000 C 
BRANCH   4   5
ATOM      5  C   UNL     1      14.967  -2.247 202.051  1.00  0.00     0.000 C 
BRANCH   5   6
ATOM      6  C   UNL     1      14.308  -2.096 200.668  1.00  0.00     0.000 C 
BRANCH   6   7
ATOM      7  C   UNL     1      15.308  -1.662 199.582  1.00  0.00     0.000 C 
BRANCH   7   8
ATOM      8  C   UNL     1      16.666  -1.232 200.162  1.00  0.00     0.000 C 
BRANCH   8   9
ATOM      9  C   UNL     1      17.824  -1.418 199.167  1.00  0.00     0.000 C 
BRANCH   9  10
ATOM     10  C   UNL     1      18.755  -2.555 199.616  1.00  0.00     0.000 C 
BRANCH  10  11
ATOM     11  C   UNL     1      18.072  -3.935 199.584  1.00  0.00     0.000 C 
BRANCH  11  12
ATOM     12  C   UNL     1      17.865  -4.595 200.963  1.00  0.00     0.000 C 
BRANCH  12  13
ATOM     13  C   UNL     1      16.540  -5.366 201.128  1.00  0.00     0.006 C 
BRANCH  13  14
ATOM     14  C   UNL     1      15.718  -5.501 199.837  1.00  0.00     0.053 C 
BRANCH  14  15
ATOM     15  C   UNL     1      15.795  -6.882 199.265  1.00  0.00     0.041 C 
ATOM     16  O   UNL     1      14.756  -7.591 199.179  1.00  0.00    -0.550 OA
ATOM     17  O   UNL     1      17.008  -7.380 198.805  1.00  0.00    -0.550 OA
ENDBRANCH  14  15
ENDBRANCH  13  14
ENDBRANCH  12  13
ENDBRANCH  11  12
ENDBRANCH  10  11
ENDBRANCH   9  10
ENDBRANCH   8   9
ENDBRANCH   7   8
ENDBRANCH   6   7
ENDBRANCH   5   6
ENDBRANCH   4   5
ENDBRANCH   3   4
ENDBRANCH   2   3
ENDBRANCH   1   2
BRANCH   1  18
ATOM     18  C   UNL     1      10.762  -2.022 201.317  1.00  0.00     0.000 C 
BRANCH  18  19
ATOM     19  C   UNL     1      10.369  -1.300 200.012  1.00  0.00     0.000 C 
BRANCH  19  20
ATOM     20  C   UNL     1      10.999  -1.869 198.728  1.00  0.00     0.000 C 
BRANCH  20  21
ATOM     21  C   UNL     1      12.012  -0.913 198.079  1.00  0.00     0.000 C 
BRANCH  21  22
ATOM     22  C   UNL     1      12.043   0.466 198.760  1.00  0.00     0.000 C 
BRANCH  22  23
ATOM     23  C   UNL     1      13.340   1.261 198.496  1.00  0.00     0.000 C 
BRANCH  23  24
ATOM     24  C   UNL     1      14.024   1.729 199.794  1.00  0.00    -0.000 C 
BRANCH  24  25
ATOM     25  C   UNL     1      13.036   1.773 200.981  1.00  0.00    -0.000 C 
BRANCH  25  26
ATOM     26  C   UNL     1      13.706   1.557 202.349  1.00  0.00    -0.000 C 
BRANCH  26  27
ATOM     27  C   UNL     1      15.232   1.429 202.250  1.00  0.00    -0.000 C 
BRANCH  27  28
ATOM     28  C   UNL     1      15.855   1.186 203.632  1.00  0.00    -0.000 C 
BRANCH  28  29
ATOM     29  C   UNL     1      17.026   0.188 203.586  1.00  0.00    -0.000 C 
BRANCH  29  30
ATOM     30  C   UNL     1      18.237   0.736 202.817  1.00  0.00    -0.000 C 
BRANCH  30  31
ATOM     31  C   UNL     1      19.413  -0.249 202.868  1.00  0.00    -0.003 C 
ATOM     32  C   UNL     1      18.927  -1.673 203.132  1.00  0.00     0.004 C 
ENDBRANCH  30  31
ENDBRANCH  29  30
ENDBRANCH  28  29
ENDBRANCH  27  28
ENDBRANCH  26  27
ENDBRANCH  25  26
ENDBRANCH  24  25
ENDBRANCH  23  24
ENDBRANCH  22  23
ENDBRANCH  21  22
ENDBRANCH  20  21
ENDBRANCH  19  20
ENDBRANCH  18  19
ENDBRANCH   1  18
TORSDOF 28
ENDMDL
MODEL 4
REMARK VINA RESULT:    -2.715      3.730      7.499
REMARK INTER + INTRA:         -13.379
REMARK INTER:                  -7.179
REMARK INTRA:                  -6.201
REMARK UNBOUND:                -6.221
REMARK SMILES CCCCCCCCCCCCCCCCCCCCCCCCCCCCCC(=O)[O-]
REMARK SMILES IDX 16 1 17 2 18 3 19 4 20 5 21 6 22 7 23 8 24 9 25 10 26 11
REMARK SMILES IDX 27 12 28 13 29 14 30 15 31 16 32 17 15 18 14 19 13 20 12 21
REMARK SMILES IDX 11 22 10 23 9 24 8 25 7 26 6 27 5 28 4 29 3 30 2 31 1 32
REMARK H PARENT
REMARK Flexibility Score: inf
ROOT
ATOM      1  C   UNL     1      11.737   0.497 201.877  1.00  0.00     0.000 C 
ENDROOT
BRANCH   1   2
ATOM      2  C   UNL     1      12.861   0.408 200.830  1.00  0.00     0.000 C 
BRANCH   2   3
ATOM      3  C   UNL     1      14.187   1.003 201.332  1.00  0.00     0.000 C 
BRANCH   3   4
ATOM      4  C   UNL     1      14.207   1.194 202.855  1.00  0.00     0.000 C 
BRANCH   4   5
ATOM      5  C   UNL     1      15.624   1.527 203.348  1.00  0.00     0.000 C 
BRANCH   5   6
ATOM      6  C   UNL     1      16.412   0.277 203.778  1.00  0.00     0.000 C 
BRANCH   6   7
ATOM      7  C   UNL     1      17.675   0.052 202.928  1.00  0.00     0.000 C 
BRANCH   7   8
ATOM      8  C   UNL     1      18.953  -0.046 203.777  1.00  0.00     0.000 C 
BRANCH   8   9
ATOM      9  C   UNL     1      19.677  -1.392 203.609  1.00  0.00     0.000 C 
BRANCH   9  10
ATOM     10  C   UNL     1      18.736  -2.451 203.017  1.00  0.00     0.000 C 
BRANCH  10  11
ATOM     11  C   UNL     1      19.485  -3.540 202.225  1.00  0.00     0.000 C 
BRANCH  11  12
ATOM     12  C   UNL     1      18.623  -4.321 201.211  1.00  0.00     0.000 C 
BRANCH  12  13
ATOM     13  C   UNL     1      18.162  -5.715 201.681  1.00  0.00     0.006 C 
BRANCH  13  14
ATOM     14  C   UNL     1      16.667  -5.997 201.460  1.00  0.00     0.053 C 
BRANCH  14  15
ATOM     15  C   UNL     1      16.416  -6.713 200.168  1.00  0.00     0.041 C 
ATOM     16  O   UNL     1      15.852  -7.840 200.167  1.00  0.00    -0.550 OA
ATOM     17  O   UNL     1      16.785  -6.127 198.963  1.00  0.00    -0.550 OA
ENDBRANCH  14  15
ENDBRANCH  13  14
ENDBRANCH  12  13
ENDBRANCH  11  12
ENDBRANCH  10  11
ENDBRANCH   9  10
ENDBRANCH   8   9
ENDBRANCH   7   8
ENDBRANCH   6   7
ENDBRANCH   5   6
ENDBRANCH   4   5
ENDBRANCH   3   4
ENDBRANCH   2   3
ENDBRANCH   1   2
BRANCH   1  18
ATOM     18  C   UNL     1      10.737  -0.674 201.760  1.00  0.00     0.000 C 
BRANCH  18  19
ATOM     19  C   UNL     1      11.221  -1.983 202.416  1.00  0.00     0.000 C 
BRANCH  19  20
ATOM     20  C   UNL     1      11.851  -1.828 203.811  1.00  0.00     0.000 C 
BRANCH  20  21
ATOM     21  C   UNL     1      13.316  -2.290 203.866  1.00  0.00     0.000 C 
BRANCH  21  22
ATOM     22  C   UNL     1      13.792  -2.902 202.537  1.00  0.00     0.000 C 
BRANCH  22  23
ATOM     23  C   UNL     1      15.302  -2.713 202.272  1.00  0.00     0.000 C 
BRANCH  23  24
ATOM     24  C   UNL     1      15.598  -2.248 200.834  1.00  0.00    -0.000 C 
BRANCH  24  25
ATOM     25  C   UNL     1      14.901  -3.144 199.785  1.00  0.00    -0.000 C 
BRANCH  25  26
ATOM     26  C   UNL     1      14.857  -2.526 198.377  1.00  0.00    -0.000 C 
BRANCH  26  27
ATOM     27  C   UNL     1      15.175  -1.024 198.378  1.00  0.00    -0.000 C 
BRANCH  27  28
ATOM     28  C   UNL     1      15.990  -0.633 197.136  1.00  0.00    -0.000 C 
BRANCH  28  29
ATOM     29  C   UNL     1      17.507  -0.689 197.384  1.00  0.00    -0.000 C 
BRANCH  29  30
ATOM     30  C   UNL     1      17.901  -0.135 198.762  1.00  0.00    -0.000 C 
BRANCH  30  31
ATOM     31  C   UNL     1      18.888  -1.073 199.470  1.00  0.00    -0.003 C 
ATOM     32  C   UNL     1      20.054  -0.291 200.073  1.00  0.00     0.004 C 
ENDBRANCH  30  31
ENDBRANCH  29  30
ENDBRANCH  28  29
ENDBRANCH  27  28
ENDBRANCH  26  27
ENDBRANCH  25  26
ENDBRANCH  24  25
ENDBRANCH  23  24
ENDBRANCH  22  23
ENDBRANCH  21  22
ENDBRANCH  20  21
ENDBRANCH  19  20
ENDBRANCH  18  19
ENDBRANCH   1  18
TORSDOF 28
ENDMDL
MODEL 5
REMARK VINA RESULT:    -2.680      2.547      5.205
REMARK INTER + INTRA:         -13.287
REMARK INTER:                  -6.479
REMARK INTRA:                  -6.807
REMARK UNBOUND:                -6.221
REMARK SMILES CCCCCCCCCCCCCCCCCCCCCCCCCCCCCC(=O)[O-]
REMARK SMILES IDX 16 1 17 2 18 3 19 4 20 5 21 6 22 7 23 8 24 9 25 10 26 11
REMARK SMILES IDX 27 12 28 13 29 14 30 15 31 16 32 17 15 18 14 19 13 20 12 21
REMARK SMILES IDX 11 22 10 23 9 24 8 25 7 26 6 27 5 28 4 29 3 30 2 31 1 32
REMARK H PARENT
REMARK Flexibility Score: inf
ROOT
ATOM      1  C   UNL     1      10.875  -1.675 200.035  1.00  0.00     0.000 C 
ENDROOT
BRANCH   1   2
ATOM      2  C   UNL     1      11.814  -0.644 199.385  1.00  0.00     0.000 C 
BRANCH   2   3
ATOM      3  C   UNL     1      13.263  -0.767 199.882  1.00  0.00     0.000 C 
BRANCH   3   4
ATOM      4  C   UNL     1      14.278  -0.186 198.886  1.00  0.00     0.000 C 
BRANCH   4   5
ATOM      5  C   UNL     1      15.359  -1.221 198.537  1.00  0.00     0.000 C 
BRANCH   5   6
ATOM      6  C   UNL     1      15.303  -2.465 199.441  1.00  0.00     0.000 C 
BRANCH   6   7
ATOM      7  C   UNL     1      15.020  -3.756 198.652  1.00  0.00     0.000 C 
BRANCH   7   8
ATOM      8  C   UNL     1      13.805  -4.529 199.195  1.00  0.00     0.000 C 
BRANCH   8   9
ATOM      9  C   UNL     1      12.576  -4.427 198.276  1.00  0.00     0.000 C 
BRANCH   9  10
ATOM     10  C   UNL     1      12.969  -3.892 196.891  1.00  0.00     0.000 C 
BRANCH  10  11
ATOM     11  C   UNL     1      12.285  -2.556 196.550  1.00  0.00     0.000 C 
BRANCH  11  12
ATOM     12  C   UNL     1      10.804  -2.668 196.131  1.00  0.00     0.000 C 
BRANCH  12  13
ATOM     13  C   UNL     1      10.186  -1.377 195.556  1.00  0.00     0.006 C 
BRANCH  13  14
ATOM     14  C   UNL     1       9.289  -0.609 196.540  1.00  0.00     0.053 C 
BRANCH  14  15
ATOM     15  C   UNL     1       8.101  -1.417 196.964  1.00  0.00     0.041 C 
ATOM     16  O   UNL     1       7.838  -1.564 198.188  1.00  0.00    -0.550 OA
ATOM     17  O   UNL     1       7.271  -1.991 196.008  1.00  0.00    -0.550 OA
ENDBRANCH  14  15
ENDBRANCH  13  14
ENDBRANCH  12  13
ENDBRANCH  11  12
ENDBRANCH  10  11
ENDBRANCH   9  10
ENDBRANCH   8   9
ENDBRANCH   7   8
ENDBRANCH   6   7
ENDBRANCH   5   6
ENDBRANCH   4   5
ENDBRANCH   3   4
ENDBRANCH   2   3
ENDBRANCH   1   2
BRANCH   1  18
ATOM     18  C   UNL     1      11.521  -2.365 201.255  1.00  0.00     0.000 C 
BRANCH  18  19
ATOM     19  C   UNL     1      10.905  -1.958 202.609  1.00  0.00     0.000 C 
BRANCH  19  20
ATOM     20  C   UNL     1      11.881  -1.933 203.798  1.00  0.00     0.000 C 
BRANCH  20  21
ATOM     21  C   UNL     1      13.337  -2.201 203.387  1.00  0.00     0.000 C 
BRANCH  21  22
ATOM     22  C   UNL     1      14.272  -1.026 203.720  1.00  0.00     0.000 C 
BRANCH  22  23
ATOM     23  C   UNL     1      15.559  -0.994 202.868  1.00  0.00     0.000 C 
BRANCH  23  24
ATOM     24  C   UNL     1      15.851   0.402 202.285  1.00  0.00    -0.000 C 
BRANCH  24  25
ATOM     25  C   UNL     1      15.718   1.510 203.354  1.00  0.00    -0.000 C 
BRANCH  25  26
ATOM     26  C   UNL     1      14.582   2.508 203.070  1.00  0.00    -0.000 C 
BRANCH  26  27
ATOM     27  C   UNL     1      14.237   2.606 201.577  1.00  0.00    -0.000 C 
BRANCH  27  28
ATOM     28  C   UNL     1      12.717   2.587 201.361  1.00  0.00    -0.000 C 
BRANCH  28  29
ATOM     29  C   UNL     1      11.995   1.623 202.319  1.00  0.00    -0.000 C 
BRANCH  29  30
ATOM     30  C   UNL     1      10.529   2.014 202.555  1.00  0.00    -0.000 C 
BRANCH  30  31
ATOM     31  C   UNL     1       9.712   1.896 201.261  1.00  0.00    -0.003 C 
ATOM     32  C   UNL     1       8.629   0.827 201.390  1.00  0.00     0.004 C 
ENDBRANCH  30  31
ENDBRANCH  29  30
ENDBRANCH  28  29
ENDBRANCH  27  28
ENDBRANCH  26  27
ENDBRANCH  25  26
ENDBRANCH  24  25
ENDBRANCH  23  24
ENDBRANCH  22  23
ENDBRANCH  21  22
ENDBRANCH  20  21
ENDBRANCH  19  20
ENDBRANCH  18  19
ENDBRANCH   1  18
TORSDOF 28
ENDMDL
MODEL 6
REMARK VINA RESULT:    -2.668      2.090      4.887
REMARK INTER + INTRA:         -13.256
REMARK INTER:                  -6.919
REMARK INTRA:                  -6.336
REMARK UNBOUND:                -6.221
REMARK SMILES CCCCCCCCCCCCCCCCCCCCCCCCCCCCCC(=O)[O-]
REMARK SMILES IDX 16 1 17 2 18 3 19 4 20 5 21 6 22 7 23 8 24 9 25 10 26 11
REMARK SMILES IDX 27 12 28 13 29 14 30 15 31 16 32 17 15 18 14 19 13 20 12 21
REMARK SMILES IDX 11 22 10 23 9 24 8 25 7 26 6 27 5 28 4 29 3 30 2 31 1 32
REMARK H PARENT
REMARK Flexibility Score: inf
ROOT
ATOM      1  C   UNL     1      12.949   0.942 198.538  1.00  0.00     0.000 C 
ENDROOT
BRANCH   1   2
ATOM      2  C   UNL     1      11.786   1.012 199.543  1.00  0.00     0.000 C 
BRANCH   2   3
ATOM      3  C   UNL     1      11.010   2.337 199.461  1.00  0.00     0.000 C 
BRANCH   3   4
ATOM      4  C   UNL     1      11.157   3.184 200.734  1.00  0.00     0.000 C 
BRANCH   4   5
ATOM      5  C   UNL     1      11.270   2.289 201.979  1.00  0.00     0.000 C 
BRANCH   5   6
ATOM      6  C   UNL     1      10.089   2.471 202.949  1.00  0.00     0.000 C 
BRANCH   6   7
ATOM      7  C   UNL     1       8.907   1.541 202.621  1.00  0.00     0.000 C 
BRANCH   7   8
ATOM      8  C   UNL     1       7.751   2.274 201.919  1.00  0.00     0.000 C 
BRANCH   8   9
ATOM      9  C   UNL     1       7.219   1.511 200.695  1.00  0.00     0.000 C 
BRANCH   9  10
ATOM     10  C   UNL     1       8.088   0.280 200.395  1.00  0.00     0.000 C 
BRANCH  10  11
ATOM     11  C   UNL     1       7.395  -0.726 199.457  1.00  0.00     0.000 C 
BRANCH  11  12
ATOM     12  C   UNL     1       8.248  -1.201 198.262  1.00  0.00     0.000 C 
BRANCH  12  13
ATOM     13  C   UNL     1       8.874  -0.074 197.416  1.00  0.00     0.006 C 
BRANCH  13  14
ATOM     14  C   UNL     1       7.876   0.681 196.525  1.00  0.00     0.053 C 
BRANCH  14  15
ATOM     15  C   UNL     1       7.744   2.118 196.923  1.00  0.00     0.041 C 
ATOM     16  O   UNL     1       6.670   2.540 197.430  1.00  0.00    -0.550 OA
ATOM     17  O   UNL     1       8.814   2.989 196.755  1.00  0.00    -0.550 OA
ENDBRANCH  14  15
ENDBRANCH  13  14
ENDBRANCH  12  13
ENDBRANCH  11  12
ENDBRANCH  10  11
ENDBRANCH   9  10
ENDBRANCH   8   9
ENDBRANCH   7   8
ENDBRANCH   6   7
ENDBRANCH   5   6
ENDBRANCH   4   5
ENDBRANCH   3   4
ENDBRANCH   2   3
ENDBRANCH   1   2
BRANCH   1  18
ATOM     18  C   UNL     1      14.076   1.940 198.879  1.00  0.00     0.000 C 
BRANCH  18  19
ATOM     19  C   UNL     1      14.665   1.764 200.293  1.00  0.00     0.000 C 
BRANCH  19  20
ATOM     20  C   UNL     1      14.898   3.067 201.078  1.00  0.00     0.000 C 
BRANCH  20  21
ATOM     21  C   UNL     1      14.893   2.863 202.601  1.00  0.00     0.000 C 
BRANCH  21  22
ATOM     22  C   UNL     1      14.725   1.387 202.999  1.00  0.00     0.000 C 
BRANCH  22  23
ATOM     23  C   UNL     1      15.943   0.803 203.747  1.00  0.00     0.000 C 
BRANCH  23  24
ATOM     24  C   UNL     1      17.198   0.713 202.859  1.00  0.00    -0.000 C 
BRANCH  24  25
ATOM     25  C   UNL     1      17.156  -0.521 201.928  1.00  0.00    -0.000 C 
BRANCH  25  26
ATOM     26  C   UNL     1      16.909  -1.845 202.670  1.00  0.00    -0.000 C 
BRANCH  26  27
ATOM     27  C   UNL     1      15.711  -2.625 202.110  1.00  0.00    -0.000 C 
BRANCH  27  28
ATOM     28  C   UNL     1      14.949  -1.792 201.069  1.00  0.00    -0.000 C 
BRANCH  28  29
ATOM     29  C   UNL     1      13.436  -1.743 201.343  1.00  0.00    -0.000 C 
BRANCH  29  30
ATOM     30  C   UNL     1      13.101  -1.900 202.834  1.00  0.00    -0.000 C 
BRANCH  30  31
ATOM     31  C   UNL     1      11.645  -1.508 203.115  1.00  0.00    -0.003 C 
ATOM     32  C   UNL     1      10.777  -1.683 201.870  1.00  0.00     0.004 C 
ENDBRANCH  30  31
ENDBRANCH  29  30
ENDBRANCH  28  29
ENDBRANCH  27  28
ENDBRANCH  26  27
ENDBRANCH  25  26
ENDBRANCH  24  25
ENDBRANCH  23  24
ENDBRANCH  22  23
ENDBRANCH  21  22
ENDBRANCH  20  21
ENDBRANCH  19  20
ENDBRANCH  18  19
ENDBRANCH   1  18
TORSDOF 28
ENDMDL
MODEL 7
REMARK VINA RESULT:    -2.658     15.341     18.009
REMARK INTER + INTRA:         -13.231
REMARK INTER:                  -7.884
REMARK INTRA:                  -5.346
REMARK UNBOUND:                -6.221
REMARK SMILES CCCCCCCCCCCCCCCCCCCCCCCCCCCCCC(=O)[O-]
REMARK SMILES IDX 16 1 17 2 18 3 19 4 20 5 21 6 22 7 23 8 24 9 25 10 26 11
REMARK SMILES IDX 27 12 28 13 29 14 30 15 31 16 32 17 15 18 14 19 13 20 12 21
REMARK SMILES IDX 11 22 10 23 9 24 8 25 7 26 6 27 5 28 4 29 3 30 2 31 1 32
REMARK H PARENT
REMARK Flexibility Score: inf
ROOT
ATOM      1  C   UNL     1      14.849 -14.780 187.070  1.00  0.00     0.000 C 
ENDROOT
BRANCH   1   2
ATOM      2  C   UNL     1      15.050 -14.984 185.558  1.00  0.00     0.000 C 
BRANCH   2   3
ATOM      3  C   UNL     1      14.905 -13.678 184.760  1.00  0.00     0.000 C 
BRANCH   3   4
ATOM      4  C   UNL     1      14.165 -12.586 185.546  1.00  0.00     0.000 C 
BRANCH   4   5
ATOM      5  C   UNL     1      14.997 -11.296 185.611  1.00  0.00     0.000 C 
BRANCH   5   6
ATOM      6  C   UNL     1      15.266 -10.834 187.054  1.00  0.00     0.000 C 
BRANCH   6   7
ATOM      7  C   UNL     1      14.873  -9.364 187.286  1.00  0.00     0.000 C 
BRANCH   7   8
ATOM      8  C   UNL     1      15.146  -8.897 188.726  1.00  0.00     0.000 C 
BRANCH   8   9
ATOM      9  C   UNL     1      16.433  -8.064 188.847  1.00  0.00     0.000 C 
BRANCH   9  10
ATOM     10  C   UNL     1      16.170  -6.593 188.493  1.00  0.00     0.000 C 
BRANCH  10  11
ATOM     11  C   UNL     1      17.209  -5.636 189.105  1.00  0.00     0.000 C 
BRANCH  11  12
ATOM     12  C   UNL     1      18.674  -6.112 189.008  1.00  0.00     0.000 C 
BRANCH  12  13
ATOM     13  C   UNL     1      19.386  -6.321 190.360  1.00  0.00     0.006 C 
BRANCH  13  14
ATOM     14  C   UNL     1      19.056  -7.652 191.053  1.00  0.00     0.053 C 
BRANCH  14  15
ATOM     15  C   UNL     1      18.414  -7.445 192.389  1.00  0.00     0.041 C 
ATOM     16  O   UNL     1      18.961  -7.893 193.432  1.00  0.00    -0.550 OA
ATOM     17  O   UNL     1      17.222  -6.737 192.487  1.00  0.00    -0.550 OA
ENDBRANCH  14  15
ENDBRANCH  13  14
ENDBRANCH  12  13
ENDBRANCH  11  12
ENDBRANCH  10  11
ENDBRANCH   9  10
ENDBRANCH   8   9
ENDBRANCH   7   8
ENDBRANCH   6   7
ENDBRANCH   5   6
ENDBRANCH   4   5
ENDBRANCH   3   4
ENDBRANCH   2   3
ENDBRANCH   1   2
BRANCH   1  18
ATOM     18  C   UNL     1      16.182 -14.830 187.847  1.00  0.00     0.000 C 
BRANCH  18  19
ATOM     19  C   UNL     1      17.371 -15.364 187.023  1.00  0.00     0.000 C 
BRANCH  19  20
ATOM     20  C   UNL     1      18.577 -14.414 186.914  1.00  0.00     0.000 C 
BRANCH  20  21
ATOM     21  C   UNL     1      18.176 -12.931 186.885  1.00  0.00     0.000 C 
BRANCH  21  22
ATOM     22  C   UNL     1      19.334 -11.998 187.278  1.00  0.00     0.000 C 
BRANCH  22  23
ATOM     23  C   UNL     1      18.889 -10.767 188.097  1.00  0.00     0.000 C 
BRANCH  23  24
ATOM     24  C   UNL     1      19.844  -9.569 187.934  1.00  0.00    -0.000 C 
BRANCH  24  25
ATOM     25  C   UNL     1      19.874  -9.052 186.478  1.00  0.00    -0.000 C 
BRANCH  25  26
ATOM     26  C   UNL     1      18.603  -8.288 186.068  1.00  0.00    -0.000 C 
BRANCH  26  27
ATOM     27  C   UNL     1      17.771  -9.038 185.019  1.00  0.00    -0.000 C 
BRANCH  27  28
ATOM     28  C   UNL     1      17.103  -8.059 184.043  1.00  0.00    -0.000 C 
BRANCH  28  29
ATOM     29  C   UNL     1      16.512  -6.828 184.753  1.00  0.00    -0.000 C 
BRANCH  29  30
ATOM     30  C   UNL     1      17.290  -5.540 184.445  1.00  0.00    -0.000 C 
BRANCH  30  31
ATOM     31  C   UNL     1      17.052  -4.480 185.529  1.00  0.00    -0.003 C 
ATOM     32  C   UNL     1      18.066  -3.343 185.420  1.00  0.00     0.004 C 
ENDBRANCH  30  31
ENDBRANCH  29  30
ENDBRANCH  28  29
ENDBRANCH  27  28
ENDBRANCH  26  27
ENDBRANCH  25  26
ENDBRANCH  24  25
ENDBRANCH  23  24
ENDBRANCH  22  23
ENDBRANCH  21  22
ENDBRANCH  20  21
ENDBRANCH  19  20
ENDBRANCH  18  19
ENDBRANCH   1  18
TORSDOF 28
ENDMDL
MODEL 8
REMARK VINA RESULT:    -2.626     15.494     18.445
REMARK INTER + INTRA:         -13.145
REMARK INTER:                  -6.529
REMARK INTRA:                  -6.616
REMARK UNBOUND:                -6.221
REMARK SMILES CCCCCCCCCCCCCCCCCCCCCCCCCCCCCC(=O)[O-]
REMARK SMILES IDX 16 1 17 2 18 3 19 4 20 5 21 6 22 7 23 8 24 9 25 10 26 11
REMARK SMILES IDX 27 12 28 13 29 14 30 15 31 16 32 17 15 18 14 19 13 20 12 21
REMARK SMILES IDX 11 22 10 23 9 24 8 25 7 26 6 27 5 28 4 29 3 30 2 31 1 32
REMARK H PARENT
REMARK Flexibility Score: inf
ROOT
ATOM      1  C   UNL     1      19.381 -11.622 187.162  1.00  0.00     0.000 C 
ENDROOT
BRANCH   1   2
ATOM      2  C   UNL     1      18.841 -10.863 188.386  1.00  0.00     0.000 C 
BRANCH   2   3
ATOM      3  C   UNL     1      18.873  -9.338 188.199  1.00  0.00     0.000 C 
BRANCH   3   4
ATOM      4  C   UNL     1      19.637  -8.916 186.935  1.00  0.00     0.000 C 
BRANCH   4   5
ATOM      5  C   UNL     1      18.758  -8.039 186.029  1.00  0.00     0.000 C 
BRANCH   5   6
ATOM      6  C   UNL     1      17.919  -8.865 185.038  1.00  0.00     0.000 C 
BRANCH   6   7
ATOM      7  C   UNL     1      17.010  -7.987 184.160  1.00  0.00     0.000 C 
BRANCH   7   8
ATOM      8  C   UNL     1      17.065  -6.499 184.548  1.00  0.00     0.000 C 
BRANCH   8   9
ATOM      9  C   UNL     1      15.696  -5.945 184.977  1.00  0.00     0.000 C 
BRANCH   9  10
ATOM     10  C   UNL     1      15.741  -5.432 186.424  1.00  0.00     0.000 C 
BRANCH  10  11
ATOM     11  C   UNL     1      15.486  -6.543 187.459  1.00  0.00     0.000 C 
BRANCH  11  12
ATOM     12  C   UNL     1      16.464  -6.561 188.653  1.00  0.00     0.000 C 
BRANCH  12  13
ATOM     13  C   UNL     1      17.676  -5.616 188.522  1.00  0.00     0.006 C 
BRANCH  13  14
ATOM     14  C   UNL     1      18.096  -4.936 189.834  1.00  0.00     0.053 C 
BRANCH  14  15
ATOM     15  C   UNL     1      18.479  -5.932 190.885  1.00  0.00     0.041 C 
ATOM     16  O   UNL     1      17.926  -5.903 192.017  1.00  0.00    -0.550 OA
ATOM     17  O   UNL     1      19.429  -6.907 190.608  1.00  0.00    -0.550 OA
ENDBRANCH  14  15
ENDBRANCH  13  14
ENDBRANCH  12  13
ENDBRANCH  11  12
ENDBRANCH  10  11
ENDBRANCH   9  10
ENDBRANCH   8   9
ENDBRANCH   7   8
ENDBRANCH   6   7
ENDBRANCH   5   6
ENDBRANCH   4   5
ENDBRANCH   3   4
ENDBRANCH   2   3
ENDBRANCH   1   2
BRANCH   1  18
ATOM     18  C   UNL     1      18.268 -12.380 186.407  1.00  0.00     0.000 C 
BRANCH  18  19
ATOM     19  C   UNL     1      17.502 -13.400 187.273  1.00  0.00     0.000 C 
BRANCH  19  20
ATOM     20  C   UNL     1      17.440 -14.830 186.707  1.00  0.00     0.000 C 
BRANCH  20  21
ATOM     21  C   UNL     1      16.229 -15.063 185.791  1.00  0.00     0.000 C 
BRANCH  21  22
ATOM     22  C   UNL     1      14.940 -14.430 186.342  1.00  0.00     0.000 C 
BRANCH  22  23
ATOM     23  C   UNL     1      14.219 -13.510 185.332  1.00  0.00     0.000 C 
BRANCH  23  24
ATOM     24  C   UNL     1      15.179 -12.902 184.292  1.00  0.00    -0.000 C 
BRANCH  24  25
ATOM     25  C   UNL     1      15.386 -11.387 184.517  1.00  0.00    -0.000 C 
BRANCH  25  26
ATOM     26  C   UNL     1      14.115 -10.653 184.977  1.00  0.00    -0.000 C 
BRANCH  26  27
ATOM     27  C   UNL     1      14.375  -9.687 186.142  1.00  0.00    -0.000 C 
BRANCH  27  28
ATOM     28  C   UNL     1      15.422 -10.261 187.108  1.00  0.00    -0.000 C 
BRANCH  28  29
ATOM     29  C   UNL     1      14.873 -10.447 188.533  1.00  0.00    -0.000 C 
BRANCH  29  30
ATOM     30  C   UNL     1      14.461 -11.899 188.821  1.00  0.00    -0.000 C 
BRANCH  30  31
ATOM     31  C   UNL     1      12.980 -11.985 189.211  1.00  0.00    -0.003 C 
ATOM     32  C   UNL     1      12.082 -11.952 187.976  1.00  0.00     0.004 C 
ENDBRANCH  30  31
ENDBRANCH  29  30
ENDBRANCH  28  29
ENDBRANCH  27  28
ENDBRANCH  26  27
ENDBRANCH  25  26
ENDBRANCH  24  25
ENDBRANCH  23  24
ENDBRANCH  22  23
ENDBRANCH  21  22
ENDBRANCH  20  21
ENDBRANCH  19  20
ENDBRANCH  18  19
ENDBRANCH   1  18
TORSDOF 28
ENDMDL
MODEL 9
REMARK VINA RESULT:    -1.887      2.726      7.280
REMARK INTER + INTRA:         -11.196
REMARK INTER:                  -5.090
REMARK INTRA:                  -6.106
REMARK UNBOUND:                -6.221
REMARK SMILES CCCCCCCCCCCCCCCCCCCCCCCCCCCCCC(=O)[O-]
REMARK SMILES IDX 16 1 17 2 18 3 19 4 20 5 21 6 22 7 23 8 24 9 25 10 26 11
REMARK SMILES IDX 27 12 28 13 29 14 30 15 31 16 32 17 15 18 14 19 13 20 12 21
REMARK SMILES IDX 11 22 10 23 9 24 8 25 7 26 6 27 5 28 4 29 3 30 2 31 1 32
REMARK H PARENT
REMARK Flexibility Score: inf
ROOT
ATOM      1  C   UNL     1      11.122  -2.257 202.084  1.00  0.00     0.000 C 
ENDROOT
BRANCH   1   2
ATOM      2  C   UNL     1      11.414  -1.436 203.352  1.00  0.00     0.000 C 
BRANCH   2   3
ATOM      3  C   UNL     1      12.638  -1.954 204.125  1.00  0.00     0.000 C 
BRANCH   3   4
ATOM      4  C   UNL     1      13.919  -1.179 203.784  1.00  0.00     0.000 C 
BRANCH   4   5
ATOM      5  C   UNL     1      13.589   0.155 203.098  1.00  0.00     0.000 C 
BRANCH   5   6
ATOM      6  C   UNL     1      14.813   1.079 202.974  1.00  0.00     0.000 C 
BRANCH   6   7
ATOM      7  C   UNL     1      16.031   0.552 203.754  1.00  0.00     0.000 C 
BRANCH   7   8
ATOM      8  C   UNL     1      17.364   0.856 203.049  1.00  0.00     0.000 C 
BRANCH   8   9
ATOM      9  C   UNL     1      17.769  -0.237 202.046  1.00  0.00     0.000 C 
BRANCH   9  10
ATOM     10  C   UNL     1      17.413  -1.632 202.581  1.00  0.00     0.000 C 
BRANCH  10  11
ATOM     11  C   UNL     1      16.526  -2.435 201.611  1.00  0.00     0.000 C 
BRANCH  11  12
ATOM     12  C   UNL     1      15.853  -1.604 200.499  1.00  0.00     0.000 C 
BRANCH  12  13
ATOM     13  C   UNL     1      14.402  -2.006 200.167  1.00  0.00     0.006 C 
BRANCH  13  14
ATOM     14  C   UNL     1      14.040  -3.450 200.549  1.00  0.00     0.053 C 
BRANCH  14  15
ATOM     15  C   UNL     1      13.766  -4.296 199.345  1.00  0.00     0.041 C 
ATOM     16  O   UNL     1      14.417  -5.359 199.155  1.00  0.00    -0.550 OA
ATOM     17  O   UNL     1      12.777  -3.926 198.442  1.00  0.00    -0.550 OA
ENDBRANCH  14  15
ENDBRANCH  13  14
ENDBRANCH  12  13
ENDBRANCH  11  12
ENDBRANCH  10  11
ENDBRANCH   9  10
ENDBRANCH   8   9
ENDBRANCH   7   8
ENDBRANCH   6   7
ENDBRANCH   5   6
ENDBRANCH   4   5
ENDBRANCH   3   4
ENDBRANCH   2   3
ENDBRANCH   1   2
BRANCH   1  18
ATOM     18  C   UNL     1      10.208  -1.500 201.097  1.00  0.00     0.000 C 
BRANCH  18  19
ATOM     19  C   UNL     1      10.791  -1.365 199.676  1.00  0.00     0.000 C 
BRANCH  19  20
ATOM     20  C   UNL     1      11.030   0.077 199.194  1.00  0.00     0.000 C 
BRANCH  20  21
ATOM     21  C   UNL     1      11.781   0.938 200.222  1.00  0.00     0.000 C 
BRANCH  21  22
ATOM     22  C   UNL     1      11.102   2.297 200.463  1.00  0.00     0.000 C 
BRANCH  22  23
ATOM     23  C   UNL     1      10.878   2.623 201.956  1.00  0.00     0.000 C 
BRANCH  23  24
ATOM     24  C   UNL     1       9.806   1.729 202.605  1.00  0.00    -0.000 C 
BRANCH  24  25
ATOM     25  C   UNL     1       8.407   2.385 202.563  1.00  0.00    -0.000 C 
BRANCH  25  26
ATOM     26  C   UNL     1       7.665   2.169 201.232  1.00  0.00    -0.000 C 
BRANCH  26  27
ATOM     27  C   UNL     1       7.599   0.692 200.821  1.00  0.00    -0.000 C 
BRANCH  27  28
ATOM     28  C   UNL     1       7.013   0.538 199.410  1.00  0.00    -0.000 C 
BRANCH  28  29
ATOM     29  C   UNL     1       7.716   1.436 198.377  1.00  0.00    -0.000 C 
BRANCH  29  30
ATOM     30  C   UNL     1       7.982   0.710 197.049  1.00  0.00    -0.000 C 
BRANCH  30  31
ATOM     31  C   UNL     1       7.923  -0.812 197.233  1.00  0.00    -0.003 C 
ATOM     32  C   UNL     1       8.997  -1.509 196.400  1.00  0.00     0.004 C 
ENDBRANCH  30  31
ENDBRANCH  29  30
ENDBRANCH  28  29
ENDBRANCH  27  28
ENDBRANCH  26  27
ENDBRANCH  25  26
ENDBRANCH  24  25
ENDBRANCH  23  24
ENDBRANCH  22  23
ENDBRANCH  21  22
ENDBRANCH  20  21
ENDBRANCH  19  20
ENDBRANCH  18  19
ENDBRANCH   1  18
TORSDOF 28
ENDMDL
