MODEL 1
REMARK VINA RESULT:    -6.443      0.000      0.000
REMARK INTER + INTRA:          -9.983
REMARK INTER:                  -9.456
REMARK INTRA:                  -0.527
REMARK UNBOUND:                -0.527
REMARK SMILES O=c1c(O[C@@H]2O[C@@H](CO)[C@H](O)[C@H](O)[C@H]2O)c(-c2ccc(O)c(O)c2)oc2cc(O)cc(O)c12
REMARK SMILES IDX 4 1 3 2 16 3 25 4 2 5 26 6 1 7 33 8 27 9 31 10 28 11 30 12
REMARK SMILES IDX 17 13 18 14 19 15 20 16 24 17 22 18 21 19 23 21 32 23 29 25
REMARK SMILES IDX 5 27 14 28 6 29 12 30 7 31 10 32 15 33 13 35 8 37 9 38 11 40
REMARK H PARENT 21 20 23 22 32 24 29 26 15 34 13 36 9 39 11 41
REMARK Flexibility Score: inf
ROOT
ATOM      1  O   UNL     1      -0.119  -5.843  -9.256  1.00  0.00    -0.454 OA
ENDROOT
BRANCH   1   2
ATOM      2  C   UNL     1      -0.052  -6.570  -8.031  1.00  0.00     0.214 A 
ATOM      3  C   UNL     1       1.134  -7.226  -7.695  1.00  0.00     0.180 A 
ATOM      4  O   UNL     1       1.129  -8.176  -6.782  1.00  0.00    -0.452 OA
ATOM      5  C   UNL     1      -1.159  -6.735  -7.192  1.00  0.00     0.239 A 
ATOM      6  C   UNL     1       0.058  -8.502  -6.079  1.00  0.00     0.146 A 
ATOM      7  O   UNL     1      -2.188  -6.043  -7.388  1.00  0.00    -0.285 OA
ATOM      8  C   UNL     1      -1.136  -7.733  -6.186  1.00  0.00     0.111 A 
ATOM      9  C   UNL     1       0.069  -9.638  -5.239  1.00  0.00     0.094 A 
ATOM     10  C   UNL     1      -2.236  -8.022  -5.304  1.00  0.00     0.134 A 
ATOM     11  C   UNL     1      -1.046  -9.980  -4.496  1.00  0.00     0.123 A 
ATOM     12  C   UNL     1      -2.192  -9.188  -4.515  1.00  0.00     0.093 A 
BRANCH   3  13
ATOM     13  C   UNL     1       2.470  -6.841  -8.260  1.00  0.00     0.025 A 
ATOM     14  C   UNL     1       3.420  -6.310  -7.366  1.00  0.00     0.016 A 
ATOM     15  C   UNL     1       4.769  -6.204  -7.709  1.00  0.00     0.051 A 
ATOM     16  C   UNL     1       5.210  -6.708  -8.941  1.00  0.00     0.157 A 
ATOM     17  C   UNL     1       2.896  -7.294  -9.497  1.00  0.00     0.062 A 
ATOM     18  C   UNL     1       4.254  -7.231  -9.870  1.00  0.00     0.158 A 
BRANCH  16  19
ATOM     19  O   UNL     1       6.622  -6.712  -9.155  1.00  0.00    -0.504 OA
ATOM     20  H   UNL     1       7.271  -7.137  -8.503  1.00  0.00     0.293 HD
ENDBRANCH  16  19
BRANCH  18  21
ATOM     21  O   UNL     1       4.639  -7.734 -11.112  1.00  0.00    -0.504 OA
ATOM     22  H   UNL     1       4.149  -7.519 -11.980  1.00  0.00     0.293 HD
ENDBRANCH  18  21
ENDBRANCH   3  13
BRANCH  10  23
ATOM     23  O   UNL     1      -3.360  -7.190  -5.176  1.00  0.00    -0.507 OA
ATOM     24  H   UNL     1      -3.522  -6.658  -4.337  1.00  0.00     0.293 HD
ENDBRANCH  10  23
BRANCH  11  25
ATOM     25  O   UNL     1      -0.981 -11.125  -3.692  1.00  0.00    -0.508 OA
ATOM     26  H   UNL     1      -1.825 -11.547  -3.294  1.00  0.00     0.293 HD
ENDBRANCH  11  25
ENDBRANCH   1   2
BRANCH   1  27
ATOM     27  C   UNL     1       0.385  -4.485  -9.430  1.00  0.00     0.339 C 
ATOM     28  C   UNL     1      -0.362  -3.752 -10.579  1.00  0.00     0.214 C 
ATOM     29  O   UNL     1       0.276  -3.723  -8.230  1.00  0.00    -0.332 OA
ATOM     30  C   UNL     1      -1.827  -3.544 -10.225  1.00  0.00     0.180 C 
ATOM     31  C   UNL     1      -1.076  -3.570  -7.757  1.00  0.00     0.179 C 
ATOM     32  C   UNL     1      -1.978  -2.895  -8.836  1.00  0.00     0.177 C 
BRANCH  28  33
ATOM     33  O   UNL     1       0.262  -2.537 -10.902  1.00  0.00    -0.384 OA
ATOM     34  H   UNL     1       0.654  -2.597 -11.807  1.00  0.00     0.211 HD
ENDBRANCH  28  33
BRANCH  30  35
ATOM     35  O   UNL     1      -2.511  -4.787 -10.302  1.00  0.00    -0.387 OA
ATOM     36  H   UNL     1      -1.784  -5.456 -10.308  1.00  0.00     0.211 HD
ENDBRANCH  30  35
BRANCH  31  37
ATOM     37  C   UNL     1      -1.012  -2.712  -6.465  1.00  0.00     0.191 C 
BRANCH  37  38
ATOM     38  O   UNL     1      -2.257  -2.658  -5.821  1.00  0.00    -0.394 OA
ATOM     39  H   UNL     1      -2.678  -1.807  -6.085  1.00  0.00     0.210 HD
ENDBRANCH  37  38
ENDBRANCH  31  37
BRANCH  32  40
ATOM     40  O   UNL     1      -3.354  -2.863  -8.463  1.00  0.00    -0.387 OA
ATOM     41  H   UNL     1      -3.468  -2.292  -7.646  1.00  0.00     0.211 HD
ENDBRANCH  32  40
ENDBRANCH   1  27
TORSDOF 12
ENDMDL
MODEL 2
REMARK VINA RESULT:    -5.554      1.879      5.762
REMARK INTER + INTRA:          -8.678
REMARK INTER:                  -7.605
REMARK INTRA:                  -1.074
REMARK UNBOUND:                -0.527
REMARK SMILES O=c1c(O[C@@H]2O[C@@H](CO)[C@H](O)[C@H](O)[C@H]2O)c(-c2ccc(O)c(O)c2)oc2cc(O)cc(O)c12
REMARK SMILES IDX 4 1 3 2 16 3 25 4 2 5 26 6 1 7 33 8 27 9 31 10 28 11 30 12
REMARK SMILES IDX 17 13 18 14 19 15 20 16 24 17 22 18 21 19 23 21 32 23 29 25
REMARK SMILES IDX 5 27 14 28 6 29 12 30 7 31 10 32 15 33 13 35 8 37 9 38 11 40
REMARK H PARENT 21 20 23 22 32 24 29 26 15 34 13 36 9 39 11 41
REMARK Flexibility Score: inf
ROOT
ATOM      1  O   UNL     1       0.626  -5.806  -7.450  1.00  0.00    -0.454 OA
ENDROOT
BRANCH   1   2
ATOM      2  C   UNL     1      -0.418  -6.723  -7.128  1.00  0.00     0.214 A 
ATOM      3  C   UNL     1      -1.657  -6.224  -6.716  1.00  0.00     0.180 A 
ATOM      4  O   UNL     1      -2.506  -7.006  -6.082  1.00  0.00    -0.452 OA
ATOM      5  C   UNL     1      -0.226  -8.108  -7.115  1.00  0.00     0.239 A 
ATOM      6  C   UNL     1      -2.296  -8.295  -5.879  1.00  0.00     0.146 A 
ATOM      7  O   UNL     1       0.818  -8.589  -7.617  1.00  0.00    -0.285 OA
ATOM      8  C   UNL     1      -1.170  -8.943  -6.466  1.00  0.00     0.111 A 
ATOM      9  C   UNL     1      -3.161  -9.042  -5.049  1.00  0.00     0.094 A 
ATOM     10  C   UNL     1      -1.046 -10.371  -6.348  1.00  0.00     0.134 A 
ATOM     11  C   UNL     1      -2.950 -10.393  -4.839  1.00  0.00     0.123 A 
ATOM     12  C   UNL     1      -1.909 -11.065  -5.477  1.00  0.00     0.093 A 
BRANCH   3  13
ATOM     13  C   UNL     1      -2.128  -4.838  -7.041  1.00  0.00     0.025 A 
ATOM     14  C   UNL     1      -3.477  -4.687  -7.416  1.00  0.00     0.016 A 
ATOM     15  C   UNL     1      -4.095  -3.434  -7.443  1.00  0.00     0.051 A 
ATOM     16  C   UNL     1      -3.383  -2.304  -7.014  1.00  0.00     0.157 A 
ATOM     17  C   UNL     1      -1.410  -3.716  -6.664  1.00  0.00     0.062 A 
ATOM     18  C   UNL     1      -2.005  -2.438  -6.650  1.00  0.00     0.158 A 
BRANCH  16  19
ATOM     19  O   UNL     1      -4.125  -1.088  -6.916  1.00  0.00    -0.504 OA
ATOM     20  H   UNL     1      -4.683  -0.726  -7.680  1.00  0.00     0.293 HD
ENDBRANCH  16  19
BRANCH  18  21
ATOM     21  O   UNL     1      -1.250  -1.344  -6.227  1.00  0.00    -0.504 OA
ATOM     22  H   UNL     1      -1.627  -0.594  -5.648  1.00  0.00     0.293 HD
ENDBRANCH  18  21
ENDBRANCH   3  13
BRANCH  10  23
ATOM     23  O   UNL     1      -0.106 -11.125  -7.071  1.00  0.00    -0.507 OA
ATOM     24  H   UNL     1       0.721 -10.699  -7.453  1.00  0.00     0.293 HD
ENDBRANCH  10  23
BRANCH  11  25
ATOM     25  O   UNL     1      -3.832 -11.078  -3.995  1.00  0.00    -0.508 OA
ATOM     26  H   UNL     1      -3.624 -11.213  -3.001  1.00  0.00     0.293 HD
ENDBRANCH  11  25
ENDBRANCH   1   2
BRANCH   1  27
ATOM     27  C   UNL     1       0.967  -5.399  -8.808  1.00  0.00     0.339 C 
ATOM     28  C   UNL     1       1.296  -3.881  -8.875  1.00  0.00     0.214 C 
ATOM     29  O   UNL     1       2.068  -6.146  -9.322  1.00  0.00    -0.332 OA
ATOM     30  C   UNL     1       2.555  -3.567  -8.083  1.00  0.00     0.180 C 
ATOM     31  C   UNL     1       3.282  -5.995  -8.562  1.00  0.00     0.179 C 
ATOM     32  C   UNL     1       3.715  -4.497  -8.485  1.00  0.00     0.177 C 
BRANCH  28  33
ATOM     33  O   UNL     1       1.403  -3.440 -10.202  1.00  0.00    -0.384 OA
ATOM     34  H   UNL     1       0.500  -3.327 -10.588  1.00  0.00     0.211 HD
ENDBRANCH  28  33
BRANCH  30  35
ATOM     35  O   UNL     1       2.271  -3.650  -6.693  1.00  0.00    -0.387 OA
ATOM     36  H   UNL     1       1.299  -3.483  -6.641  1.00  0.00     0.211 HD
ENDBRANCH  30  35
BRANCH  31  37
ATOM     37  C   UNL     1       4.368  -6.855  -9.262  1.00  0.00     0.191 C 
BRANCH  37  38
ATOM     38  O   UNL     1       5.602  -6.764  -8.601  1.00  0.00    -0.394 OA
ATOM     39  H   UNL     1       6.274  -6.529  -9.282  1.00  0.00     0.210 HD
ENDBRANCH  37  38
ENDBRANCH  31  37
BRANCH  32  40
ATOM     40  O   UNL     1       4.827  -4.290  -7.617  1.00  0.00    -0.387 OA
ATOM     41  H   UNL     1       4.917  -5.071  -6.994  1.00  0.00     0.211 HD
ENDBRANCH  32  40
ENDBRANCH   1  27
TORSDOF 12
ENDMDL
MODEL 3
REMARK VINA RESULT:    -4.830      1.737      5.428
REMARK INTER + INTRA:          -7.616
REMARK INTER:                  -8.989
REMARK INTRA:                   1.374
REMARK UNBOUND:                -0.527
REMARK SMILES O=c1c(O[C@@H]2O[C@@H](CO)[C@H](O)[C@H](O)[C@H]2O)c(-c2ccc(O)c(O)c2)oc2cc(O)cc(O)c12
REMARK SMILES IDX 4 1 3 2 16 3 25 4 2 5 26 6 1 7 33 8 27 9 31 10 28 11 30 12
REMARK SMILES IDX 17 13 18 14 19 15 20 16 24 17 22 18 21 19 23 21 32 23 29 25
REMARK SMILES IDX 5 27 14 28 6 29 12 30 7 31 10 32 15 33 13 35 8 37 9 38 11 40
REMARK H PARENT 21 20 23 22 32 24 29 26 15 34 13 36 9 39 11 41
REMARK Flexibility Score: inf
ROOT
ATOM      1  O   UNL     1       0.440  -7.563  -7.469  1.00  0.00    -0.454 OA
ENDROOT
BRANCH   1   2
ATOM      2  C   UNL     1       0.005  -6.207  -7.543  1.00  0.00     0.214 A 
ATOM      3  C   UNL     1       0.954  -5.200  -7.736  1.00  0.00     0.180 A 
ATOM      4  O   UNL     1       0.654  -3.948  -7.459  1.00  0.00    -0.452 OA
ATOM      5  C   UNL     1      -1.325  -5.830  -7.335  1.00  0.00     0.239 A 
ATOM      6  C   UNL     1      -0.550  -3.555  -7.080  1.00  0.00     0.146 A 
ATOM      7  O   UNL     1      -2.217  -6.712  -7.306  1.00  0.00    -0.285 OA
ATOM      8  C   UNL     1      -1.640  -4.472  -7.079  1.00  0.00     0.111 A 
ATOM      9  C   UNL     1      -0.766  -2.232  -6.634  1.00  0.00     0.094 A 
ATOM     10  C   UNL     1      -2.965  -3.984  -6.801  1.00  0.00     0.134 A 
ATOM     11  C   UNL     1      -2.025  -1.814  -6.242  1.00  0.00     0.123 A 
ATOM     12  C   UNL     1      -3.123  -2.668  -6.323  1.00  0.00     0.093 A 
BRANCH   3  13
ATOM     13  C   UNL     1       2.302  -5.452  -8.344  1.00  0.00     0.025 A 
ATOM     14  C   UNL     1       3.430  -5.058  -7.599  1.00  0.00     0.016 A 
ATOM     15  C   UNL     1       4.712  -5.510  -7.917  1.00  0.00     0.051 A 
ATOM     16  C   UNL     1       4.880  -6.439  -8.954  1.00  0.00     0.157 A 
ATOM     17  C   UNL     1       2.472  -6.331  -9.400  1.00  0.00     0.062 A 
ATOM     18  C   UNL     1       3.747  -6.832  -9.735  1.00  0.00     0.158 A 
BRANCH  16  19
ATOM     19  O   UNL     1       6.193  -6.977  -9.117  1.00  0.00    -0.504 OA
ATOM     20  H   UNL     1       6.621  -7.106 -10.026  1.00  0.00     0.293 HD
ENDBRANCH  16  19
BRANCH  18  21
ATOM     21  O   UNL     1       3.861  -7.744 -10.784  1.00  0.00    -0.504 OA
ATOM     22  H   UNL     1       3.282  -7.710 -11.622  1.00  0.00     0.293 HD
ENDBRANCH  18  21
ENDBRANCH   3  13
BRANCH  10  23
ATOM     23  O   UNL     1      -4.125  -4.751  -6.993  1.00  0.00    -0.507 OA
ATOM     24  H   UNL     1      -4.726  -4.598  -7.786  1.00  0.00     0.293 HD
ENDBRANCH  10  23
BRANCH  11  25
ATOM     25  O   UNL     1      -2.176  -0.495  -5.796  1.00  0.00    -0.508 OA
ATOM     26  H   UNL     1      -2.045   0.301  -6.428  1.00  0.00     0.293 HD
ENDBRANCH  11  25
ENDBRANCH   1   2
BRANCH   1  27
ATOM     27  C   UNL     1      -0.406  -8.711  -7.773  1.00  0.00     0.339 C 
ATOM     28  C   UNL     1       0.387 -10.043  -7.649  1.00  0.00     0.214 C 
ATOM     29  O   UNL     1      -1.553  -8.762  -6.927  1.00  0.00    -0.332 OA
ATOM     30  C   UNL     1       0.811 -10.286  -6.209  1.00  0.00     0.180 C 
ATOM     31  C   UNL     1      -1.241  -8.879  -5.526  1.00  0.00     0.179 C 
ATOM     32  C   UNL     1      -0.383 -10.152  -5.245  1.00  0.00     0.177 C 
BRANCH  28  33
ATOM     33  O   UNL     1      -0.349 -11.125  -8.155  1.00  0.00    -0.384 OA
ATOM     34  H   UNL     1      -1.315 -10.941  -8.063  1.00  0.00     0.211 HD
ENDBRANCH  28  33
BRANCH  30  35
ATOM     35  O   UNL     1       1.863  -9.393  -5.870  1.00  0.00    -0.387 OA
ATOM     36  H   UNL     1       2.460  -9.938  -5.302  1.00  0.00     0.211 HD
ENDBRANCH  30  35
BRANCH  31  37
ATOM     37  C   UNL     1      -2.591  -8.934  -4.761  1.00  0.00     0.191 C 
BRANCH  37  38
ATOM     38  O   UNL     1      -3.559  -8.121  -5.368  1.00  0.00    -0.394 OA
ATOM     39  H   UNL     1      -4.276  -8.718  -5.684  1.00  0.00     0.210 HD
ENDBRANCH  37  38
ENDBRANCH  31  37
BRANCH  32  40
ATOM     40  O   UNL     1       0.072 -10.223  -3.896  1.00  0.00    -0.387 OA
ATOM     41  H   UNL     1      -0.673  -9.965  -3.276  1.00  0.00     0.211 HD
ENDBRANCH  32  40
ENDBRANCH   1  27
TORSDOF 12
ENDMDL
MODEL 4
REMARK VINA RESULT:    -4.633      1.385      5.559
REMARK INTER + INTRA:          -7.327
REMARK INTER:                  -6.504
REMARK INTRA:                  -0.823
REMARK UNBOUND:                -0.527
REMARK SMILES O=c1c(O[C@@H]2O[C@@H](CO)[C@H](O)[C@H](O)[C@H]2O)c(-c2ccc(O)c(O)c2)oc2cc(O)cc(O)c12
REMARK SMILES IDX 4 1 3 2 16 3 25 4 2 5 26 6 1 7 33 8 27 9 31 10 28 11 30 12
REMARK SMILES IDX 17 13 18 14 19 15 20 16 24 17 22 18 21 19 23 21 32 23 29 25
REMARK SMILES IDX 5 27 14 28 6 29 12 30 7 31 10 32 15 33 13 35 8 37 9 38 11 40
REMARK H PARENT 21 20 23 22 32 24 29 26 15 34 13 36 9 39 11 41
REMARK Flexibility Score: inf
ROOT
ATOM      1  O   UNL     1      -0.587  -5.587  -8.962  1.00  0.00    -0.454 OA
ENDROOT
BRANCH   1   2
ATOM      2  C   UNL     1       0.699  -6.167  -8.755  1.00  0.00     0.214 A 
ATOM      3  C   UNL     1       0.967  -6.810  -7.544  1.00  0.00     0.180 A 
ATOM      4  O   UNL     1       2.212  -7.036  -7.177  1.00  0.00    -0.452 OA
ATOM      5  C   UNL     1       1.741  -6.038  -9.679  1.00  0.00     0.239 A 
ATOM      6  C   UNL     1       3.256  -6.766  -7.940  1.00  0.00     0.146 A 
ATOM      7  O   UNL     1       1.494  -5.600 -10.828  1.00  0.00    -0.285 OA
ATOM      8  C   UNL     1       3.072  -6.325  -9.283  1.00  0.00     0.111 A 
ATOM      9  C   UNL     1       4.567  -6.872  -7.427  1.00  0.00     0.094 A 
ATOM     10  C   UNL     1       4.222  -6.177 -10.134  1.00  0.00     0.134 A 
ATOM     11  C   UNL     1       5.664  -6.596  -8.223  1.00  0.00     0.123 A 
ATOM     12  C   UNL     1       5.509  -6.254  -9.566  1.00  0.00     0.093 A 
BRANCH   3  13
ATOM     13  C   UNL     1      -0.110  -7.356  -6.653  1.00  0.00     0.025 A 
ATOM     14  C   UNL     1      -1.035  -6.436  -6.122  1.00  0.00     0.016 A 
ATOM     15  C   UNL     1      -2.234  -6.856  -5.543  1.00  0.00     0.051 A 
ATOM     16  C   UNL     1      -2.568  -8.218  -5.555  1.00  0.00     0.157 A 
ATOM     17  C   UNL     1      -0.415  -8.706  -6.621  1.00  0.00     0.062 A 
ATOM     18  C   UNL     1      -1.628  -9.168  -6.071  1.00  0.00     0.158 A 
BRANCH  16  19
ATOM     19  O   UNL     1      -3.876  -8.554  -5.092  1.00  0.00    -0.504 OA
ATOM     20  H   UNL     1      -4.678  -7.952  -5.238  1.00  0.00     0.293 HD
ENDBRANCH  16  19
BRANCH  18  21
ATOM     21  O   UNL     1      -1.906 -10.533  -6.096  1.00  0.00    -0.504 OA
ATOM     22  H   UNL     1      -1.825 -11.137  -5.278  1.00  0.00     0.293 HD
ENDBRANCH  18  21
ENDBRANCH   3  13
BRANCH  10  23
ATOM     23  O   UNL     1       4.134  -5.968 -11.520  1.00  0.00    -0.507 OA
ATOM     24  H   UNL     1       4.921  -6.137 -12.124  1.00  0.00     0.293 HD
ENDBRANCH  10  23
BRANCH  11  25
ATOM     25  O   UNL     1       6.940  -6.705  -7.656  1.00  0.00    -0.508 OA
ATOM     26  H   UNL     1       7.473  -7.578  -7.703  1.00  0.00     0.293 HD
ENDBRANCH  11  25
ENDBRANCH   1   2
BRANCH   1  27
ATOM     27  C   UNL     1      -0.804  -4.256  -9.516  1.00  0.00     0.339 C 
ATOM     28  C   UNL     1      -2.183  -4.160 -10.227  1.00  0.00     0.214 C 
ATOM     29  O   UNL     1      -0.716  -3.245  -8.513  1.00  0.00    -0.332 OA
ATOM     30  C   UNL     1      -3.318  -4.318  -9.227  1.00  0.00     0.180 C 
ATOM     31  C   UNL     1      -1.689  -3.383  -7.459  1.00  0.00     0.179 C 
ATOM     32  C   UNL     1      -3.142  -3.367  -8.028  1.00  0.00     0.177 C 
BRANCH  28  33
ATOM     33  O   UNL     1      -2.303  -2.965 -10.952  1.00  0.00    -0.384 OA
ATOM     34  H   UNL     1      -2.094  -3.132 -11.903  1.00  0.00     0.211 HD
ENDBRANCH  28  33
BRANCH  30  35
ATOM     35  O   UNL     1      -3.398  -5.676  -8.815  1.00  0.00    -0.387 OA
ATOM     36  H   UNL     1      -3.907  -6.112  -9.541  1.00  0.00     0.211 HD
ENDBRANCH  30  35
BRANCH  31  37
ATOM     37  C   UNL     1      -1.461  -2.206  -6.473  1.00  0.00     0.191 C 
BRANCH  37  38
ATOM     38  O   UNL     1      -2.663  -1.549  -6.170  1.00  0.00    -0.394 OA
ATOM     39  H   UNL     1      -2.477  -0.949  -5.412  1.00  0.00     0.210 HD
ENDBRANCH  37  38
ENDBRANCH  31  37
BRANCH  32  40
ATOM     40  O   UNL     1      -4.125  -3.652  -7.035  1.00  0.00    -0.387 OA
ATOM     41  H   UNL     1      -3.700  -3.633  -6.127  1.00  0.00     0.211 HD
ENDBRANCH  32  40
ENDBRANCH   1  27
TORSDOF 12
ENDMDL
MODEL 5
REMARK VINA RESULT:    -4.029      1.576      7.148
REMARK INTER + INTRA:          -6.441
REMARK INTER:                  -5.556
REMARK INTRA:                  -0.885
REMARK UNBOUND:                -0.527
REMARK SMILES O=c1c(O[C@@H]2O[C@@H](CO)[C@H](O)[C@H](O)[C@H]2O)c(-c2ccc(O)c(O)c2)oc2cc(O)cc(O)c12
REMARK SMILES IDX 4 1 3 2 16 3 25 4 2 5 26 6 1 7 33 8 27 9 31 10 28 11 30 12
REMARK SMILES IDX 17 13 18 14 19 15 20 16 24 17 22 18 21 19 23 21 32 23 29 25
REMARK SMILES IDX 5 27 14 28 6 29 12 30 7 31 10 32 15 33 13 35 8 37 9 38 11 40
REMARK H PARENT 21 20 23 22 32 24 29 26 15 34 13 36 9 39 11 41
REMARK Flexibility Score: inf
ROOT
ATOM      1  O   UNL     1       0.463  -7.570  -6.822  1.00  0.00    -0.454 OA
ENDROOT
BRANCH   1   2
ATOM      2  C   UNL     1       1.432  -6.854  -7.585  1.00  0.00     0.214 A 
ATOM      3  C   UNL     1       0.997  -5.978  -8.583  1.00  0.00     0.180 A 
ATOM      4  O   UNL     1       1.830  -5.583  -9.524  1.00  0.00    -0.452 OA
ATOM      5  C   UNL     1       2.807  -7.063  -7.443  1.00  0.00     0.239 A 
ATOM      6  C   UNL     1       3.113  -5.900  -9.540  1.00  0.00     0.146 A 
ATOM      7  O   UNL     1       3.231  -7.726  -6.466  1.00  0.00    -0.285 OA
ATOM      8  C   UNL     1       3.697  -6.595  -8.442  1.00  0.00     0.111 A 
ATOM      9  C   UNL     1       3.915  -5.590 -10.661  1.00  0.00     0.094 A 
ATOM     10  C   UNL     1       5.121  -6.800  -8.422  1.00  0.00     0.134 A 
ATOM     11  C   UNL     1       5.259  -5.914 -10.680  1.00  0.00     0.123 A 
ATOM     12  C   UNL     1       5.871  -6.510  -9.579  1.00  0.00     0.093 A 
BRANCH   3  13
ATOM     13  C   UNL     1      -0.374  -5.370  -8.596  1.00  0.00     0.025 A 
ATOM     14  C   UNL     1      -0.997  -5.156  -7.351  1.00  0.00     0.016 A 
ATOM     15  C   UNL     1      -2.119  -4.334  -7.224  1.00  0.00     0.051 A 
ATOM     16  C   UNL     1      -2.596  -3.641  -8.346  1.00  0.00     0.157 A 
ATOM     17  C   UNL     1      -0.875  -4.725  -9.714  1.00  0.00     0.062 A 
ATOM     18  C   UNL     1      -1.988  -3.864  -9.623  1.00  0.00     0.158 A 
BRANCH  16  19
ATOM     19  O   UNL     1      -3.642  -2.697  -8.109  1.00  0.00    -0.504 OA
ATOM     20  H   UNL     1      -4.550  -2.968  -7.749  1.00  0.00     0.293 HD
ENDBRANCH  16  19
BRANCH  18  21
ATOM     21  O   UNL     1      -2.432  -3.208 -10.770  1.00  0.00    -0.504 OA
ATOM     22  H   UNL     1      -2.358  -2.199 -10.903  1.00  0.00     0.293 HD
ENDBRANCH  18  21
ENDBRANCH   3  13
BRANCH  10  23
ATOM     23  O   UNL     1       5.816  -7.269  -7.296  1.00  0.00    -0.507 OA
ATOM     24  H   UNL     1       6.822  -7.302  -7.280  1.00  0.00     0.293 HD
ENDBRANCH  10  23
BRANCH  11  25
ATOM     25  O   UNL     1       6.002  -5.594 -11.824  1.00  0.00    -0.508 OA
ATOM     26  H   UNL     1       7.020  -5.702 -11.848  1.00  0.00     0.293 HD
ENDBRANCH  11  25
ENDBRANCH   1   2
BRANCH   1  27
ATOM     27  C   UNL     1      -0.464  -8.545  -7.384  1.00  0.00     0.339 C 
ATOM     28  C   UNL     1       0.133  -9.980  -7.337  1.00  0.00     0.214 C 
ATOM     29  O   UNL     1      -1.720  -8.531  -6.710  1.00  0.00    -0.332 OA
ATOM     30  C   UNL     1       0.307 -10.445  -5.899  1.00  0.00     0.180 C 
ATOM     31  C   UNL     1      -1.634  -8.852  -5.308  1.00  0.00     0.179 C 
ATOM     32  C   UNL     1      -0.990 -10.257  -5.090  1.00  0.00     0.177 C 
BRANCH  28  33
ATOM     33  O   UNL     1      -0.648 -10.883  -8.074  1.00  0.00    -0.384 OA
ATOM     34  H   UNL     1      -1.572 -10.883  -7.726  1.00  0.00     0.211 HD
ENDBRANCH  28  33
BRANCH  30  35
ATOM     35  O   UNL     1       1.400  -9.753  -5.310  1.00  0.00    -0.387 OA
ATOM     36  H   UNL     1       1.919 -10.467  -4.867  1.00  0.00     0.211 HD
ENDBRANCH  30  35
BRANCH  31  37
ATOM     37  C   UNL     1      -3.078  -8.804  -4.740  1.00  0.00     0.191 C 
BRANCH  37  38
ATOM     38  O   UNL     1      -3.866  -7.862  -5.418  1.00  0.00    -0.394 OA
ATOM     39  H   UNL     1      -3.354  -7.021  -5.434  1.00  0.00     0.210 HD
ENDBRANCH  37  38
ENDBRANCH  31  37
BRANCH  32  40
ATOM     40  O   UNL     1      -0.750 -10.545  -3.715  1.00  0.00    -0.387 OA
ATOM     41  H   UNL     1      -0.139 -11.337  -3.639  1.00  0.00     0.211 HD
ENDBRANCH  32  40
ENDBRANCH   1  27
TORSDOF 12
ENDMDL
MODEL 6
REMARK VINA RESULT:    -3.914      1.451      5.648
REMARK INTER + INTRA:          -6.272
REMARK INTER:                  -5.020
REMARK INTRA:                  -1.252
REMARK UNBOUND:                -0.527
REMARK SMILES O=c1c(O[C@@H]2O[C@@H](CO)[C@H](O)[C@H](O)[C@H]2O)c(-c2ccc(O)c(O)c2)oc2cc(O)cc(O)c12
REMARK SMILES IDX 4 1 3 2 16 3 25 4 2 5 26 6 1 7 33 8 27 9 31 10 28 11 30 12
REMARK SMILES IDX 17 13 18 14 19 15 20 16 24 17 22 18 21 19 23 21 32 23 29 25
REMARK SMILES IDX 5 27 14 28 6 29 12 30 7 31 10 32 15 33 13 35 8 37 9 38 11 40
REMARK H PARENT 21 20 23 22 32 24 29 26 15 34 13 36 9 39 11 41
REMARK Flexibility Score: inf
ROOT
ATOM      1  O   UNL     1      -0.180  -5.856  -9.087  1.00  0.00    -0.454 OA
ENDROOT
BRANCH   1   2
ATOM      2  C   UNL     1       1.135  -6.378  -8.909  1.00  0.00     0.214 A 
ATOM      3  C   UNL     1       1.403  -7.179  -7.796  1.00  0.00     0.180 A 
ATOM      4  O   UNL     1       2.645  -7.379  -7.408  1.00  0.00    -0.452 OA
ATOM      5  C   UNL     1       2.199  -6.044  -9.753  1.00  0.00     0.239 A 
ATOM      6  C   UNL     1       3.696  -6.930  -8.073  1.00  0.00     0.146 A 
ATOM      7  O   UNL     1       1.964  -5.453 -10.834  1.00  0.00    -0.285 OA
ATOM      8  C   UNL     1       3.531  -6.304  -9.343  1.00  0.00     0.111 A 
ATOM      9  C   UNL     1       4.992  -7.030  -7.521  1.00  0.00     0.094 A 
ATOM     10  C   UNL     1       4.698  -5.956 -10.108  1.00  0.00     0.134 A 
ATOM     11  C   UNL     1       6.095  -6.568  -8.216  1.00  0.00     0.123 A 
ATOM     12  C   UNL     1       5.966  -6.037  -9.498  1.00  0.00     0.093 A 
BRANCH   3  13
ATOM     13  C   UNL     1       0.335  -7.921  -7.047  1.00  0.00     0.025 A 
ATOM     14  C   UNL     1       0.622  -9.243  -6.655  1.00  0.00     0.016 A 
ATOM     15  C   UNL     1      -0.158  -9.912  -5.708  1.00  0.00     0.051 A 
ATOM     16  C   UNL     1      -1.207  -9.231  -5.072  1.00  0.00     0.157 A 
ATOM     17  C   UNL     1      -0.731  -7.264  -6.456  1.00  0.00     0.062 A 
ATOM     18  C   UNL     1      -1.525  -7.895  -5.476  1.00  0.00     0.158 A 
BRANCH  16  19
ATOM     19  O   UNL     1      -1.855  -9.923  -4.004  1.00  0.00    -0.504 OA
ATOM     20  H   UNL     1      -1.392 -10.128  -3.126  1.00  0.00     0.293 HD
ENDBRANCH  16  19
BRANCH  18  21
ATOM     21  O   UNL     1      -2.564  -7.179  -4.882  1.00  0.00    -0.504 OA
ATOM     22  H   UNL     1      -3.529  -7.508  -4.858  1.00  0.00     0.293 HD
ENDBRANCH  18  21
ENDBRANCH   3  13
BRANCH  10  23
ATOM     23  O   UNL     1       4.646  -5.545 -11.450  1.00  0.00    -0.507 OA
ATOM     24  H   UNL     1       4.202  -6.112 -12.152  1.00  0.00     0.293 HD
ENDBRANCH  10  23
BRANCH  11  25
ATOM     25  O   UNL     1       7.353  -6.680  -7.612  1.00  0.00    -0.508 OA
ATOM     26  H   UNL     1       8.194  -6.879  -8.162  1.00  0.00     0.293 HD
ENDBRANCH  11  25
ENDBRANCH   1   2
BRANCH   1  27
ATOM     27  C   UNL     1      -0.499  -4.433  -9.105  1.00  0.00     0.339 C 
ATOM     28  C   UNL     1      -1.882  -4.176  -9.766  1.00  0.00     0.214 C 
ATOM     29  O   UNL     1      -0.487  -3.871  -7.795  1.00  0.00    -0.332 OA
ATOM     30  C   UNL     1      -3.000  -4.779  -8.930  1.00  0.00     0.180 C 
ATOM     31  C   UNL     1      -1.445  -4.465  -6.897  1.00  0.00     0.179 C 
ATOM     32  C   UNL     1      -2.896  -4.340  -7.458  1.00  0.00     0.177 C 
BRANCH  28  33
ATOM     33  O   UNL     1      -2.095  -2.807  -9.992  1.00  0.00    -0.384 OA
ATOM     34  H   UNL     1      -2.338  -2.365  -9.143  1.00  0.00     0.211 HD
ENDBRANCH  28  33
BRANCH  30  35
ATOM     35  O   UNL     1      -2.975  -6.194  -9.061  1.00  0.00    -0.387 OA
ATOM     36  H   UNL     1      -3.755  -6.493  -8.534  1.00  0.00     0.211 HD
ENDBRANCH  30  35
BRANCH  31  37
ATOM     37  C   UNL     1      -1.307  -3.733  -5.535  1.00  0.00     0.191 C 
BRANCH  37  38
ATOM     38  O   UNL     1      -1.888  -4.471  -4.493  1.00  0.00    -0.394 OA
ATOM     39  H   UNL     1      -1.789  -3.934  -3.673  1.00  0.00     0.210 HD
ENDBRANCH  37  38
ENDBRANCH  31  37
BRANCH  32  40
ATOM     40  O   UNL     1      -3.853  -5.047  -6.672  1.00  0.00    -0.387 OA
ATOM     41  H   UNL     1      -4.256  -5.785  -7.217  1.00  0.00     0.211 HD
ENDBRANCH  32  40
ENDBRANCH   1  27
TORSDOF 12
ENDMDL
