MODEL 1
REMARK VINA RESULT:    -3.883      0.000      0.000
REMARK INTER + INTRA:          -9.762
REMARK INTER:                  -7.514
REMARK INTRA:                  -2.247
REMARK UNBOUND:                -2.247
REMARK SMILES CCCCCCCCCCCCCCCCCC(=O)[O-]
REMARK SMILES IDX 10 1 11 2 12 3 13 4 14 5 15 6 16 7 17 8 18 9 19 10 20 11
REMARK SMILES IDX 9 12 8 13 7 14 6 15 5 16 4 17 3 18 2 19 1 20
REMARK H PARENT
REMARK Flexibility Score: inf
ROOT
ATOM      1  C   UNL     1       9.677  63.995   8.446  1.00  0.00     0.000 C 
ENDROOT
BRANCH   1   2
ATOM      2  C   UNL     1      10.995  63.382   8.951  1.00  0.00     0.000 C 
BRANCH   2   3
ATOM      3  C   UNL     1      11.523  62.269   8.031  1.00  0.00     0.000 C 
BRANCH   3   4
ATOM      4  C   UNL     1      12.692  62.733   7.142  1.00  0.00     0.000 C 
BRANCH   4   5
ATOM      5  C   UNL     1      13.437  63.979   7.652  1.00  0.00     0.000 C 
BRANCH   5   6
ATOM      6  C   UNL     1      13.268  65.197   6.732  1.00  0.00     0.000 C 
BRANCH   6   7
ATOM      7  C   UNL     1      12.563  64.804   5.427  1.00  0.00     0.006 C 
BRANCH   7   8
ATOM      8  C   UNL     1      11.516  65.851   5.031  1.00  0.00     0.053 C 
BRANCH   8   9
ATOM      9  C   UNL     1      11.282  65.821   3.554  1.00  0.00     0.041 C 
ATOM     10  O   UNL     1      12.245  65.977   2.757  1.00  0.00    -0.550 OA
ATOM     11  O   UNL     1       9.993  65.681   3.058  1.00  0.00    -0.550 OA
ENDBRANCH   8   9
ENDBRANCH   7   8
ENDBRANCH   6   7
ENDBRANCH   5   6
ENDBRANCH   4   5
ENDBRANCH   3   4
ENDBRANCH   2   3
ENDBRANCH   1   2
BRANCH   1  12
ATOM     12  C   UNL     1       9.766  65.519   8.269  1.00  0.00     0.000 C 
BRANCH  12  13
ATOM     13  C   UNL     1       9.002  66.285   9.360  1.00  0.00    -0.000 C 
BRANCH  13  14
ATOM     14  C   UNL     1       8.013  67.311   8.784  1.00  0.00    -0.000 C 
BRANCH  14  15
ATOM     15  C   UNL     1       8.070  67.327   7.252  1.00  0.00    -0.000 C 
BRANCH  15  16
ATOM     16  C   UNL     1       6.659  67.308   6.647  1.00  0.00    -0.000 C 
BRANCH  16  17
ATOM     17  C   UNL     1       5.558  67.238   7.717  1.00  0.00    -0.000 C 
BRANCH  17  18
ATOM     18  C   UNL     1       4.742  65.936   7.643  1.00  0.00    -0.000 C 
BRANCH  18  19
ATOM     19  C   UNL     1       5.031  64.992   8.820  1.00  0.00    -0.003 C 
ATOM     20  C   UNL     1       5.917  63.809   8.424  1.00  0.00     0.004 C 
ENDBRANCH  18  19
ENDBRANCH  17  18
ENDBRANCH  16  17
ENDBRANCH  15  16
ENDBRANCH  14  15
ENDBRANCH  13  14
ENDBRANCH  12  13
ENDBRANCH   1  12
TORSDOF 16
ENDMDL
MODEL 2
REMARK VINA RESULT:    -3.844      1.130      2.209
REMARK INTER + INTRA:          -9.686
REMARK INTER:                  -7.860
REMARK INTRA:                  -1.827
REMARK UNBOUND:                -2.247
REMARK SMILES CCCCCCCCCCCCCCCCCC(=O)[O-]
REMARK SMILES IDX 10 1 11 2 12 3 13 4 14 5 15 6 16 7 17 8 18 9 19 10 20 11
REMARK SMILES IDX 9 12 8 13 7 14 6 15 5 16 4 17 3 18 2 19 1 20
REMARK H PARENT
REMARK Flexibility Score: inf
ROOT
ATOM      1  C   UNL     1       9.675  63.330   8.522  1.00  0.00     0.000 C 
ENDROOT
BRANCH   1   2
ATOM      2  C   UNL     1      11.158  63.022   8.789  1.00  0.00     0.000 C 
BRANCH   2   3
ATOM      3  C   UNL     1      11.760  62.057   7.753  1.00  0.00     0.000 C 
BRANCH   3   4
ATOM      4  C   UNL     1      12.869  62.706   6.906  1.00  0.00     0.000 C 
BRANCH   4   5
ATOM      5  C   UNL     1      13.440  64.015   7.481  1.00  0.00     0.000 C 
BRANCH   5   6
ATOM      6  C   UNL     1      13.345  65.193   6.500  1.00  0.00     0.000 C 
BRANCH   6   7
ATOM      7  C   UNL     1      11.912  65.356   5.977  1.00  0.00     0.006 C 
BRANCH   7   8
ATOM      8  C   UNL     1      11.889  65.417   4.446  1.00  0.00     0.053 C 
BRANCH   8   9
ATOM      9  C   UNL     1      10.636  66.081   3.970  1.00  0.00     0.041 C 
ATOM     10  O   UNL     1      10.157  65.795   2.841  1.00  0.00    -0.550 OA
ATOM     11  O   UNL     1      10.030  67.060   4.747  1.00  0.00    -0.550 OA
ENDBRANCH   8   9
ENDBRANCH   7   8
ENDBRANCH   6   7
ENDBRANCH   5   6
ENDBRANCH   4   5
ENDBRANCH   3   4
ENDBRANCH   2   3
ENDBRANCH   1   2
BRANCH   1  12
ATOM     12  C   UNL     1       9.352  64.828   8.648  1.00  0.00     0.000 C 
BRANCH  12  13
ATOM     13  C   UNL     1       7.841  65.100   8.725  1.00  0.00    -0.000 C 
BRANCH  13  14
ATOM     14  C   UNL     1       7.004  63.811   8.706  1.00  0.00    -0.000 C 
BRANCH  14  15
ATOM     15  C   UNL     1       5.522  64.123   8.466  1.00  0.00    -0.000 C 
BRANCH  15  16
ATOM     16  C   UNL     1       5.111  65.423   9.171  1.00  0.00    -0.000 C 
BRANCH  16  17
ATOM     17  C   UNL     1       4.361  66.389   8.241  1.00  0.00    -0.000 C 
BRANCH  17  18
ATOM     18  C   UNL     1       4.748  66.207   6.763  1.00  0.00    -0.000 C 
BRANCH  18  19
ATOM     19  C   UNL     1       5.835  67.197   6.313  1.00  0.00    -0.003 C 
ATOM     20  C   UNL     1       5.986  68.381   7.269  1.00  0.00     0.004 C 
ENDBRANCH  18  19
ENDBRANCH  17  18
ENDBRANCH  16  17
ENDBRANCH  15  16
ENDBRANCH  14  15
ENDBRANCH  13  14
ENDBRANCH  12  13
ENDBRANCH   1  12
TORSDOF 16
ENDMDL
MODEL 3
REMARK VINA RESULT:    -3.799      2.650      6.179
REMARK INTER + INTRA:          -9.599
REMARK INTER:                  -7.799
REMARK INTRA:                  -1.800
REMARK UNBOUND:                -2.247
REMARK SMILES CCCCCCCCCCCCCCCCCC(=O)[O-]
REMARK SMILES IDX 10 1 11 2 12 3 13 4 14 5 15 6 16 7 17 8 18 9 19 10 20 11
REMARK SMILES IDX 9 12 8 13 7 14 6 15 5 16 4 17 3 18 2 19 1 20
REMARK H PARENT
REMARK Flexibility Score: inf
ROOT
ATOM      1  C   UNL     1      11.537  62.017   7.930  1.00  0.00     0.000 C 
ENDROOT
BRANCH   1   2
ATOM      2  C   UNL     1      10.979  62.982   8.989  1.00  0.00     0.000 C 
BRANCH   2   3
ATOM      3  C   UNL     1       9.696  63.694   8.527  1.00  0.00     0.000 C 
BRANCH   3   4
ATOM      4  C   UNL     1       9.924  65.180   8.194  1.00  0.00     0.000 C 
BRANCH   4   5
ATOM      5  C   UNL     1       8.934  66.151   8.863  1.00  0.00     0.000 C 
BRANCH   5   6
ATOM      6  C   UNL     1       7.790  66.575   7.931  1.00  0.00     0.000 C 
BRANCH   6   7
ATOM      7  C   UNL     1       6.441  66.522   8.661  1.00  0.00     0.006 C 
BRANCH   7   8
ATOM      8  C   UNL     1       5.467  65.578   7.950  1.00  0.00     0.053 C 
BRANCH   8   9
ATOM      9  C   UNL     1       5.431  64.250   8.640  1.00  0.00     0.041 C 
ATOM     10  O   UNL     1       6.270  63.359   8.342  1.00  0.00    -0.550 OA
ATOM     11  O   UNL     1       4.434  63.977   9.567  1.00  0.00    -0.550 OA
ENDBRANCH   8   9
ENDBRANCH   7   8
ENDBRANCH   6   7
ENDBRANCH   5   6
ENDBRANCH   4   5
ENDBRANCH   3   4
ENDBRANCH   2   3
ENDBRANCH   1   2
BRANCH   1  12
ATOM     12  C   UNL     1      12.686  62.635   7.116  1.00  0.00     0.000 C 
BRANCH  12  13
ATOM     13  C   UNL     1      13.507  63.647   7.930  1.00  0.00    -0.000 C 
BRANCH  13  14
ATOM     14  C   UNL     1      13.883  64.897   7.118  1.00  0.00    -0.000 C 
BRANCH  14  15
ATOM     15  C   UNL     1      12.874  65.142   5.990  1.00  0.00    -0.000 C 
BRANCH  15  16
ATOM     16  C   UNL     1      12.427  66.611   5.960  1.00  0.00    -0.000 C 
BRANCH  16  17
ATOM     17  C   UNL     1      11.449  66.909   4.813  1.00  0.00    -0.000 C 
BRANCH  17  18
ATOM     18  C   UNL     1      11.534  65.871   3.679  1.00  0.00    -0.000 C 
BRANCH  18  19
ATOM     19  C   UNL     1      10.193  65.685   2.951  1.00  0.00    -0.003 C 
ATOM     20  C   UNL     1       9.189  66.793   3.271  1.00  0.00     0.004 C 
ENDBRANCH  18  19
ENDBRANCH  17  18
ENDBRANCH  16  17
ENDBRANCH  15  16
ENDBRANCH  14  15
ENDBRANCH  13  14
ENDBRANCH  12  13
ENDBRANCH   1  12
TORSDOF 16
ENDMDL
MODEL 4
REMARK VINA RESULT:    -3.792      2.158      6.575
REMARK INTER + INTRA:          -9.585
REMARK INTER:                  -7.610
REMARK INTRA:                  -1.976
REMARK UNBOUND:                -2.247
REMARK SMILES CCCCCCCCCCCCCCCCCC(=O)[O-]
REMARK SMILES IDX 10 1 11 2 12 3 13 4 14 5 15 6 16 7 17 8 18 9 19 10 20 11
REMARK SMILES IDX 9 12 8 13 7 14 6 15 5 16 4 17 3 18 2 19 1 20
REMARK H PARENT
REMARK Flexibility Score: inf
ROOT
ATOM      1  C   UNL     1       9.845  63.569   8.560  1.00  0.00     0.000 C 
ENDROOT
BRANCH   1   2
ATOM      2  C   UNL     1       9.916  65.071   8.881  1.00  0.00     0.000 C 
BRANCH   2   3
ATOM      3  C   UNL     1       8.642  65.828   8.468  1.00  0.00     0.000 C 
BRANCH   3   4
ATOM      4  C   UNL     1       7.922  66.482   9.662  1.00  0.00     0.000 C 
BRANCH   4   5
ATOM      5  C   UNL     1       6.447  66.078   9.829  1.00  0.00     0.000 C 
BRANCH   5   6
ATOM      6  C   UNL     1       6.067  64.841   9.002  1.00  0.00     0.000 C 
BRANCH   6   7
ATOM      7  C   UNL     1       4.751  65.068   8.247  1.00  0.00     0.006 C 
BRANCH   7   8
ATOM      8  C   UNL     1       4.604  66.534   7.827  1.00  0.00     0.053 C 
BRANCH   8   9
ATOM      9  C   UNL     1       5.078  66.723   6.421  1.00  0.00     0.041 C 
ATOM     10  O   UNL     1       4.410  66.260   5.459  1.00  0.00    -0.550 OA
ATOM     11  O   UNL     1       6.288  67.359   6.176  1.00  0.00    -0.550 OA
ENDBRANCH   8   9
ENDBRANCH   7   8
ENDBRANCH   6   7
ENDBRANCH   5   6
ENDBRANCH   4   5
ENDBRANCH   3   4
ENDBRANCH   2   3
ENDBRANCH   1   2
BRANCH   1  12
ATOM     12  C   UNL     1      11.180  62.848   8.812  1.00  0.00     0.000 C 
BRANCH  12  13
ATOM     13  C   UNL     1      11.621  61.990   7.616  1.00  0.00    -0.000 C 
BRANCH  13  14
ATOM     14  C   UNL     1      12.853  62.563   6.897  1.00  0.00    -0.000 C 
BRANCH  14  15
ATOM     15  C   UNL     1      13.377  63.811   7.617  1.00  0.00    -0.000 C 
BRANCH  15  16
ATOM     16  C   UNL     1      13.775  64.901   6.612  1.00  0.00    -0.000 C 
BRANCH  16  17
ATOM     17  C   UNL     1      12.752  66.046   6.543  1.00  0.00    -0.000 C 
BRANCH  17  18
ATOM     18  C   UNL     1      11.547  65.709   5.647  1.00  0.00    -0.000 C 
BRANCH  18  19
ATOM     19  C   UNL     1      11.955  65.442   4.190  1.00  0.00    -0.003 C 
ATOM     20  C   UNL     1      10.798  65.639   3.209  1.00  0.00     0.004 C 
ENDBRANCH  18  19
ENDBRANCH  17  18
ENDBRANCH  16  17
ENDBRANCH  15  16
ENDBRANCH  14  15
ENDBRANCH  13  14
ENDBRANCH  12  13
ENDBRANCH   1  12
TORSDOF 16
ENDMDL
MODEL 5
REMARK VINA RESULT:    -3.778      3.485      5.491
REMARK INTER + INTRA:          -9.559
REMARK INTER:                  -6.533
REMARK INTRA:                  -3.026
REMARK UNBOUND:                -2.247
REMARK SMILES CCCCCCCCCCCCCCCCCC(=O)[O-]
REMARK SMILES IDX 10 1 11 2 12 3 13 4 14 5 15 6 16 7 17 8 18 9 19 10 20 11
REMARK SMILES IDX 9 12 8 13 7 14 6 15 5 16 4 17 3 18 2 19 1 20
REMARK H PARENT
REMARK Flexibility Score: inf
ROOT
ATOM      1  C   UNL     1      13.647  63.696   7.783  1.00  0.00     0.000 C 
ENDROOT
BRANCH   1   2
ATOM      2  C   UNL     1      12.729  62.846   6.888  1.00  0.00     0.000 C 
BRANCH   2   3
ATOM      3  C   UNL     1      11.704  62.031   7.694  1.00  0.00     0.000 C 
BRANCH   3   4
ATOM      4  C   UNL     1      11.094  62.825   8.864  1.00  0.00     0.000 C 
BRANCH   4   5
ATOM      5  C   UNL     1       9.810  63.601   8.518  1.00  0.00     0.000 C 
BRANCH   5   6
ATOM      6  C   UNL     1       9.950  65.116   8.729  1.00  0.00     0.000 C 
BRANCH   6   7
ATOM      7  C   UNL     1      11.076  65.429   9.723  1.00  0.00     0.006 C 
BRANCH   7   8
ATOM      8  C   UNL     1      11.479  66.905   9.650  1.00  0.00     0.053 C 
BRANCH   8   9
ATOM      9  C   UNL     1      12.927  67.068   9.991  1.00  0.00     0.041 C 
ATOM     10  O   UNL     1      13.471  66.298  10.826  1.00  0.00    -0.550 OA
ATOM     11  O   UNL     1      13.659  68.107   9.432  1.00  0.00    -0.550 OA
ENDBRANCH   8   9
ENDBRANCH   7   8
ENDBRANCH   6   7
ENDBRANCH   5   6
ENDBRANCH   4   5
ENDBRANCH   3   4
ENDBRANCH   2   3
ENDBRANCH   1   2
BRANCH   1  12
ATOM     12  C   UNL     1      13.973  65.064   7.161  1.00  0.00     0.000 C 
BRANCH  12  13
ATOM     13  C   UNL     1      12.833  65.597   6.278  1.00  0.00    -0.000 C 
BRANCH  13  14
ATOM     14  C   UNL     1      12.877  67.124   6.110  1.00  0.00    -0.000 C 
BRANCH  14  15
ATOM     15  C   UNL     1      11.462  67.712   6.067  1.00  0.00    -0.000 C 
BRANCH  15  16
ATOM     16  C   UNL     1      10.442  66.662   5.603  1.00  0.00    -0.000 C 
BRANCH  16  17
ATOM     17  C   UNL     1       9.513  67.187   4.498  1.00  0.00    -0.000 C 
BRANCH  17  18
ATOM     18  C   UNL     1      10.030  66.860   3.086  1.00  0.00    -0.000 C 
BRANCH  18  19
ATOM     19  C   UNL     1      10.961  65.637   3.069  1.00  0.00    -0.003 C 
ATOM     20  C   UNL     1      12.359  65.968   2.545  1.00  0.00     0.004 C 
ENDBRANCH  18  19
ENDBRANCH  17  18
ENDBRANCH  16  17
ENDBRANCH  15  16
ENDBRANCH  14  15
ENDBRANCH  13  14
ENDBRANCH  12  13
ENDBRANCH   1  12
TORSDOF 16
ENDMDL
MODEL 6
REMARK VINA RESULT:    -3.735      2.653      6.767
REMARK INTER + INTRA:          -9.476
REMARK INTER:                  -7.554
REMARK INTRA:                  -1.921
REMARK UNBOUND:                -2.247
REMARK SMILES CCCCCCCCCCCCCCCCCC(=O)[O-]
REMARK SMILES IDX 10 1 11 2 12 3 13 4 14 5 15 6 16 7 17 8 18 9 19 10 20 11
REMARK SMILES IDX 9 12 8 13 7 14 6 15 5 16 4 17 3 18 2 19 1 20
REMARK H PARENT
REMARK Flexibility Score: inf
ROOT
ATOM      1  C   UNL     1       9.816  63.533   8.682  1.00  0.00     0.000 C 
ENDROOT
BRANCH   1   2
ATOM      2  C   UNL     1       9.878  65.068   8.624  1.00  0.00     0.000 C 
BRANCH   2   3
ATOM      3  C   UNL     1       8.493  65.724   8.753  1.00  0.00     0.000 C 
BRANCH   3   4
ATOM      4  C   UNL     1       8.461  67.166   8.213  1.00  0.00     0.000 C 
BRANCH   4   5
ATOM      5  C   UNL     1       7.646  67.355   6.922  1.00  0.00     0.000 C 
BRANCH   5   6
ATOM      6  C   UNL     1       6.178  67.718   7.187  1.00  0.00     0.000 C 
BRANCH   6   7
ATOM      7  C   UNL     1       5.261  66.515   6.933  1.00  0.00     0.006 C 
BRANCH   7   8
ATOM      8  C   UNL     1       4.330  66.271   8.125  1.00  0.00     0.053 C 
BRANCH   8   9
ATOM      9  C   UNL     1       4.805  65.103   8.929  1.00  0.00     0.041 C 
ATOM     10  O   UNL     1       4.674  65.100  10.182  1.00  0.00    -0.550 OA
ATOM     11  O   UNL     1       5.448  64.044   8.302  1.00  0.00    -0.550 OA
ENDBRANCH   8   9
ENDBRANCH   7   8
ENDBRANCH   6   7
ENDBRANCH   5   6
ENDBRANCH   4   5
ENDBRANCH   3   4
ENDBRANCH   2   3
ENDBRANCH   1   2
BRANCH   1  12
ATOM     12  C   UNL     1      11.197  62.895   8.912  1.00  0.00     0.000 C 
BRANCH  12  13
ATOM     13  C   UNL     1      11.623  61.979   7.754  1.00  0.00    -0.000 C 
BRANCH  13  14
ATOM     14  C   UNL     1      12.712  62.607   6.870  1.00  0.00    -0.000 C 
BRANCH  14  15
ATOM     15  C   UNL     1      13.397  63.775   7.590  1.00  0.00    -0.000 C 
BRANCH  15  16
ATOM     16  C   UNL     1      13.565  64.979   6.652  1.00  0.00    -0.000 C 
BRANCH  16  17
ATOM     17  C   UNL     1      12.520  65.001   5.526  1.00  0.00    -0.000 C 
BRANCH  17  18
ATOM     18  C   UNL     1      11.524  66.166   5.666  1.00  0.00    -0.000 C 
BRANCH  18  19
ATOM     19  C   UNL     1      10.481  66.187   4.537  1.00  0.00    -0.003 C 
ATOM     20  C   UNL     1      11.014  65.596   3.231  1.00  0.00     0.004 C 
ENDBRANCH  18  19
ENDBRANCH  17  18
ENDBRANCH  16  17
ENDBRANCH  15  16
ENDBRANCH  14  15
ENDBRANCH  13  14
ENDBRANCH  12  13
ENDBRANCH   1  12
TORSDOF 16
ENDMDL
MODEL 7
REMARK VINA RESULT:    -3.717      1.009      2.570
REMARK INTER + INTRA:          -9.442
REMARK INTER:                  -7.682
REMARK INTRA:                  -1.759
REMARK UNBOUND:                -2.247
REMARK SMILES CCCCCCCCCCCCCCCCCC(=O)[O-]
REMARK SMILES IDX 10 1 11 2 12 3 13 4 14 5 15 6 16 7 17 8 18 9 19 10 20 11
REMARK SMILES IDX 9 12 8 13 7 14 6 15 5 16 4 17 3 18 2 19 1 20
REMARK H PARENT
REMARK Flexibility Score: inf
ROOT
ATOM      1  C   UNL     1       9.096  64.944   8.681  1.00  0.00     0.000 C 
ENDROOT
BRANCH   1   2
ATOM      2  C   UNL     1       9.444  63.448   8.609  1.00  0.00     0.000 C 
BRANCH   2   3
ATOM      3  C   UNL     1      10.938  63.173   8.852  1.00  0.00     0.000 C 
BRANCH   3   4
ATOM      4  C   UNL     1      11.506  62.089   7.918  1.00  0.00     0.000 C 
BRANCH   4   5
ATOM      5  C   UNL     1      12.638  62.565   6.989  1.00  0.00     0.000 C 
BRANCH   5   6
ATOM      6  C   UNL     1      13.159  63.964   7.347  1.00  0.00     0.000 C 
BRANCH   6   7
ATOM      7  C   UNL     1      13.122  64.892   6.126  1.00  0.00     0.006 C 
BRANCH   7   8
ATOM      8  C   UNL     1      11.744  65.542   5.970  1.00  0.00     0.053 C 
BRANCH   8   9
ATOM      9  C   UNL     1      11.415  65.726   4.523  1.00  0.00     0.041 C 
ATOM     10  O   UNL     1      10.404  66.397   4.183  1.00  0.00    -0.550 OA
ATOM     11  O   UNL     1      12.189  65.108   3.550  1.00  0.00    -0.550 OA
ENDBRANCH   8   9
ENDBRANCH   7   8
ENDBRANCH   6   7
ENDBRANCH   5   6
ENDBRANCH   4   5
ENDBRANCH   3   4
ENDBRANCH   2   3
ENDBRANCH   1   2
BRANCH   1  12
ATOM     12  C   UNL     1       7.601  65.190   8.943  1.00  0.00     0.000 C 
BRANCH  12  13
ATOM     13  C   UNL     1       6.732  63.977   8.575  1.00  0.00    -0.000 C 
BRANCH  13  14
ATOM     14  C   UNL     1       5.232  64.312   8.537  1.00  0.00    -0.000 C 
BRANCH  14  15
ATOM     15  C   UNL     1       4.902  65.460   9.499  1.00  0.00    -0.000 C 
BRANCH  15  16
ATOM     16  C   UNL     1       4.514  66.730   8.729  1.00  0.00    -0.000 C 
BRANCH  16  17
ATOM     17  C   UNL     1       4.194  66.452   7.251  1.00  0.00    -0.000 C 
BRANCH  17  18
ATOM     18  C   UNL     1       5.359  66.818   6.315  1.00  0.00    -0.000 C 
BRANCH  18  19
ATOM     19  C   UNL     1       6.135  68.054   6.797  1.00  0.00    -0.003 C 
ATOM     20  C   UNL     1       7.632  67.964   6.498  1.00  0.00     0.004 C 
ENDBRANCH  18  19
ENDBRANCH  17  18
ENDBRANCH  16  17
ENDBRANCH  15  16
ENDBRANCH  14  15
ENDBRANCH  13  14
ENDBRANCH  12  13
ENDBRANCH   1  12
TORSDOF 16
ENDMDL
MODEL 8
REMARK VINA RESULT:    -3.712      2.709      5.816
REMARK INTER + INTRA:          -9.432
REMARK INTER:                  -7.069
REMARK INTRA:                  -2.363
REMARK UNBOUND:                -2.247
REMARK SMILES CCCCCCCCCCCCCCCCCC(=O)[O-]
REMARK SMILES IDX 10 1 11 2 12 3 13 4 14 5 15 6 16 7 17 8 18 9 19 10 20 11
REMARK SMILES IDX 9 12 8 13 7 14 6 15 5 16 4 17 3 18 2 19 1 20
REMARK H PARENT
REMARK Flexibility Score: inf
ROOT
ATOM      1  C   UNL     1      13.627  64.022   8.771  1.00  0.00     0.000 C 
ENDROOT
BRANCH   1   2
ATOM      2  C   UNL     1      13.286  63.120   7.573  1.00  0.00     0.000 C 
BRANCH   2   3
ATOM      3  C   UNL     1      11.867  62.531   7.658  1.00  0.00     0.000 C 
BRANCH   3   4
ATOM      4  C   UNL     1      11.075  63.053   8.870  1.00  0.00     0.000 C 
BRANCH   4   5
ATOM      5  C   UNL     1       9.730  63.718   8.527  1.00  0.00     0.000 C 
BRANCH   5   6
ATOM      6  C   UNL     1       9.720  65.228   8.807  1.00  0.00     0.000 C 
BRANCH   6   7
ATOM      7  C   UNL     1       8.387  65.856   8.379  1.00  0.00     0.006 C 
BRANCH   7   8
ATOM      8  C   UNL     1       7.241  65.385   9.280  1.00  0.00     0.053 C 
BRANCH   8   9
ATOM      9  C   UNL     1       6.100  64.882   8.453  1.00  0.00     0.041 C 
ATOM     10  O   UNL     1       5.832  63.652   8.426  1.00  0.00    -0.550 OA
ATOM     11  O   UNL     1       5.371  65.763   7.667  1.00  0.00    -0.550 OA
ENDBRANCH   8   9
ENDBRANCH   7   8
ENDBRANCH   6   7
ENDBRANCH   5   6
ENDBRANCH   4   5
ENDBRANCH   3   4
ENDBRANCH   2   3
ENDBRANCH   1   2
BRANCH   1  12
ATOM     12  C   UNL     1      13.986  65.455   8.346  1.00  0.00     0.000 C 
BRANCH  12  13
ATOM     13  C   UNL     1      13.728  65.709   6.853  1.00  0.00    -0.000 C 
BRANCH  13  14
ATOM     14  C   UNL     1      12.482  66.575   6.605  1.00  0.00    -0.000 C 
BRANCH  14  15
ATOM     15  C   UNL     1      11.481  65.849   5.699  1.00  0.00    -0.000 C 
BRANCH  15  16
ATOM     16  C   UNL     1      12.207  65.005   4.641  1.00  0.00    -0.000 C 
BRANCH  16  17
ATOM     17  C   UNL     1      11.808  65.384   3.206  1.00  0.00    -0.000 C 
BRANCH  17  18
ATOM     18  C   UNL     1      11.492  66.883   3.057  1.00  0.00    -0.000 C 
BRANCH  18  19
ATOM     19  C   UNL     1      10.183  67.135   2.292  1.00  0.00    -0.003 C 
ATOM     20  C   UNL     1       8.946  67.006   3.182  1.00  0.00     0.004 C 
ENDBRANCH  18  19
ENDBRANCH  17  18
ENDBRANCH  16  17
ENDBRANCH  15  16
ENDBRANCH  14  15
ENDBRANCH  13  14
ENDBRANCH  12  13
ENDBRANCH   1  12
TORSDOF 16
ENDMDL
MODEL 9
REMARK VINA RESULT:    -3.711      1.449      3.005
REMARK INTER + INTRA:          -9.430
REMARK INTER:                  -7.640
REMARK INTRA:                  -1.790
REMARK UNBOUND:                -2.247
REMARK SMILES CCCCCCCCCCCCCCCCCC(=O)[O-]
REMARK SMILES IDX 10 1 11 2 12 3 13 4 14 5 15 6 16 7 17 8 18 9 19 10 20 11
REMARK SMILES IDX 9 12 8 13 7 14 6 15 5 16 4 17 3 18 2 19 1 20
REMARK H PARENT
REMARK Flexibility Score: inf
ROOT
ATOM      1  C   UNL     1      12.246  62.356   7.486  1.00  0.00     0.000 C 
ENDROOT
BRANCH   1   2
ATOM      2  C   UNL     1      12.980  63.044   6.322  1.00  0.00     0.000 C 
BRANCH   2   3
ATOM      3  C   UNL     1      13.543  64.422   6.707  1.00  0.00     0.000 C 
BRANCH   3   4
ATOM      4  C   UNL     1      12.899  65.574   5.914  1.00  0.00     0.000 C 
BRANCH   4   5
ATOM      5  C   UNL     1      11.764  65.150   4.965  1.00  0.00     0.000 C 
BRANCH   5   6
ATOM      6  C   UNL     1      12.181  65.165   3.487  1.00  0.00     0.000 C 
BRANCH   6   7
ATOM      7  C   UNL     1      11.291  66.114   2.676  1.00  0.00     0.006 C 
BRANCH   7   8
ATOM      8  C   UNL     1       9.826  66.001   3.110  1.00  0.00     0.053 C 
BRANCH   8   9
ATOM      9  C   UNL     1       9.144  67.328   2.996  1.00  0.00     0.041 C 
ATOM     10  O   UNL     1       8.406  67.743   3.928  1.00  0.00    -0.550 OA
ATOM     11  O   UNL     1       9.275  68.078   1.835  1.00  0.00    -0.550 OA
ENDBRANCH   8   9
ENDBRANCH   7   8
ENDBRANCH   6   7
ENDBRANCH   5   6
ENDBRANCH   4   5
ENDBRANCH   3   4
ENDBRANCH   2   3
ENDBRANCH   1   2
BRANCH   1  12
ATOM     12  C   UNL     1      11.952  63.319   8.649  1.00  0.00     0.000 C 
BRANCH  12  13
ATOM     13  C   UNL     1      10.540  63.131   9.227  1.00  0.00    -0.000 C 
BRANCH  13  14
ATOM     14  C   UNL     1       9.468  63.899   8.436  1.00  0.00    -0.000 C 
BRANCH  14  15
ATOM     15  C   UNL     1       9.932  65.327   8.128  1.00  0.00    -0.000 C 
BRANCH  15  16
ATOM     16  C   UNL     1       8.793  66.334   8.338  1.00  0.00    -0.000 C 
BRANCH  16  17
ATOM     17  C   UNL     1       7.593  65.724   9.079  1.00  0.00    -0.000 C 
BRANCH  17  18
ATOM     18  C   UNL     1       6.253  66.351   8.653  1.00  0.00    -0.000 C 
BRANCH  18  19
ATOM     19  C   UNL     1       5.115  65.321   8.591  1.00  0.00    -0.003 C 
ATOM     20  C   UNL     1       5.625  63.882   8.501  1.00  0.00     0.004 C 
ENDBRANCH  18  19
ENDBRANCH  17  18
ENDBRANCH  16  17
ENDBRANCH  15  16
ENDBRANCH  14  15
ENDBRANCH  13  14
ENDBRANCH  12  13
ENDBRANCH   1  12
TORSDOF 16
ENDMDL
