MODEL 1
REMARK VINA RESULT:    -6.584      0.000      0.000
REMARK INTER + INTRA:         -11.221
REMARK INTER:                  -9.664
REMARK INTRA:                  -1.558
REMARK UNBOUND:                -1.558
REMARK SMILES O=c1c(O[C@@H]2O[C@@H](CO)[C@@H](O)[C@@H](O)[C@@H]2O)c(-c2ccc(O)c(O)c2)oc2cc(O)cc(O)c12
REMARK SMILES IDX 4 1 3 2 16 3 25 4 2 5 26 6 1 7 33 8 27 9 31 10 28 11 30 12
REMARK SMILES IDX 17 13 18 14 19 15 20 16 24 17 22 18 21 19 23 21 32 23 29 25
REMARK SMILES IDX 5 27 14 28 6 29 12 30 7 31 10 32 15 33 13 35 8 37 9 38 11 40
REMARK H PARENT 21 20 23 22 32 24 29 26 15 34 13 36 9 39 11 41
REMARK Flexibility Score: inf
ROOT
ATOM      1  O   UNL     1      17.253  -3.127 -14.236  1.00  0.00    -0.454 OA
ENDROOT
BRANCH   1   2
ATOM      2  C   UNL     1      17.859  -3.105 -15.498  1.00  0.00     0.214 A 
ATOM      3  C   UNL     1      17.796  -4.229 -16.343  1.00  0.00     0.180 A 
ATOM      4  O   UNL     1      18.304  -4.167 -17.570  1.00  0.00    -0.452 OA
ATOM      5  C   UNL     1      18.515  -1.953 -15.954  1.00  0.00     0.239 A 
ATOM      6  C   UNL     1      18.915  -3.090 -18.051  1.00  0.00     0.146 A 
ATOM      7  O   UNL     1      18.610  -0.952 -15.194  1.00  0.00    -0.285 OA
ATOM      8  C   UNL     1      19.057  -1.928 -17.256  1.00  0.00     0.111 A 
ATOM      9  C   UNL     1      19.424  -3.120 -19.352  1.00  0.00     0.094 A 
ATOM     10  C   UNL     1      19.725  -0.802 -17.795  1.00  0.00     0.134 A 
ATOM     11  C   UNL     1      20.085  -2.005 -19.878  1.00  0.00     0.123 A 
ATOM     12  C   UNL     1      20.234  -0.854 -19.101  1.00  0.00     0.093 A 
BRANCH   3  13
ATOM     13  C   UNL     1      17.170  -5.493 -15.908  1.00  0.00     0.025 A 
ATOM     14  C   UNL     1      17.856  -6.387 -15.070  1.00  0.00     0.016 A 
ATOM     15  C   UNL     1      17.261  -7.591 -14.686  1.00  0.00     0.051 A 
ATOM     16  C   UNL     1      15.979  -7.923 -15.144  1.00  0.00     0.157 A 
ATOM     17  C   UNL     1      15.895  -5.838 -16.383  1.00  0.00     0.062 A 
ATOM     18  C   UNL     1      15.293  -7.041 -15.998  1.00  0.00     0.158 A 
BRANCH  16  19
ATOM     19  O   UNL     1      15.386  -9.125 -14.759  1.00  0.00    -0.504 OA
ATOM     20  H   UNL     1      15.933  -9.886 -14.372  1.00  0.00     0.293 HD
ENDBRANCH  16  19
BRANCH  18  21
ATOM     21  O   UNL     1      14.018  -7.344 -16.474  1.00  0.00    -0.504 OA
ATOM     22  H   UNL     1      13.735  -7.137 -17.424  1.00  0.00     0.293 HD
ENDBRANCH  18  21
ENDBRANCH   3  13
BRANCH  10  23
ATOM     23  O   UNL     1      19.887   0.364 -17.045  1.00  0.00    -0.507 OA
ATOM     24  H   UNL     1      20.601   1.046 -17.269  1.00  0.00     0.293 HD
ENDBRANCH  10  23
BRANCH  11  25
ATOM     25  O   UNL     1      20.601  -2.032 -21.172  1.00  0.00    -0.508 OA
ATOM     26  H   UNL     1      20.123  -2.516 -21.923  1.00  0.00     0.293 HD
ENDBRANCH  11  25
ENDBRANCH   1   2
BRANCH   1  27
ATOM     27  C   UNL     1      15.857  -2.851 -14.073  1.00  0.00     0.339 C 
ATOM     28  C   UNL     1      15.292  -3.519 -12.802  1.00  0.00     0.214 C 
ATOM     29  O   UNL     1      15.604  -1.454 -14.088  1.00  0.00    -0.332 OA
ATOM     30  C   UNL     1      15.818  -2.820 -11.535  1.00  0.00     0.180 C 
ATOM     31  C   UNL     1      16.223  -0.797 -12.990  1.00  0.00     0.179 C 
ATOM     32  C   UNL     1      15.642  -1.296 -11.644  1.00  0.00     0.177 C 
BRANCH  28  33
ATOM     33  O   UNL     1      15.650  -4.876 -12.790  1.00  0.00    -0.384 OA
ATOM     34  H   UNL     1      15.353  -5.264 -13.654  1.00  0.00     0.211 HD
ENDBRANCH  28  33
BRANCH  30  35
ATOM     35  O   UNL     1      15.136  -3.289 -10.400  1.00  0.00    -0.387 OA
ATOM     36  H   UNL     1      15.189  -2.574  -9.712  1.00  0.00     0.211 HD
ENDBRANCH  30  35
BRANCH  31  37
ATOM     37  C   UNL     1      16.042   0.718 -13.164  1.00  0.00     0.191 C 
BRANCH  37  38
ATOM     38  O   UNL     1      14.742   1.019 -13.600  1.00  0.00    -0.394 OA
ATOM     39  H   UNL     1      14.740   1.976 -13.865  1.00  0.00     0.210 HD
ENDBRANCH  37  38
ENDBRANCH  31  37
BRANCH  32  40
ATOM     40  O   UNL     1      14.295  -0.919 -11.473  1.00  0.00    -0.387 OA
ATOM     41  H   UNL     1      13.789  -1.707 -11.148  1.00  0.00     0.211 HD
ENDBRANCH  32  40
ENDBRANCH   1  27
TORSDOF 12
ENDMDL
MODEL 2
REMARK VINA RESULT:    -6.438      2.713      6.861
REMARK INTER + INTRA:         -11.006
REMARK INTER:                  -9.123
REMARK INTRA:                  -1.884
REMARK UNBOUND:                -1.558
REMARK SMILES O=c1c(O[C@@H]2O[C@@H](CO)[C@@H](O)[C@@H](O)[C@@H]2O)c(-c2ccc(O)c(O)c2)oc2cc(O)cc(O)c12
REMARK SMILES IDX 4 1 3 2 16 3 25 4 2 5 26 6 1 7 33 8 27 9 31 10 28 11 30 12
REMARK SMILES IDX 17 13 18 14 19 15 20 16 24 17 22 18 21 19 23 21 32 23 29 25
REMARK SMILES IDX 5 27 14 28 6 29 12 30 7 31 10 32 15 33 13 35 8 37 9 38 11 40
REMARK H PARENT 21 20 23 22 32 24 29 26 15 34 13 36 9 39 11 41
REMARK Flexibility Score: inf
ROOT
ATOM      1  O   UNL     1      19.119  -1.785 -14.027  1.00  0.00    -0.454 OA
ENDROOT
BRANCH   1   2
ATOM      2  C   UNL     1      18.700  -2.085 -12.725  1.00  0.00     0.214 A 
ATOM      3  C   UNL     1      17.956  -3.251 -12.463  1.00  0.00     0.180 A 
ATOM      4  O   UNL     1      17.636  -3.567 -11.212  1.00  0.00    -0.452 OA
ATOM      5  C   UNL     1      19.038  -1.245 -11.655  1.00  0.00     0.239 A 
ATOM      6  C   UNL     1      17.954  -2.811 -10.167  1.00  0.00     0.146 A 
ATOM      7  O   UNL     1      19.672  -0.179 -11.881  1.00  0.00    -0.285 OA
ATOM      8  C   UNL     1      18.667  -1.602 -10.342  1.00  0.00     0.111 A 
ATOM      9  C   UNL     1      17.568  -3.221  -8.887  1.00  0.00     0.094 A 
ATOM     10  C   UNL     1      18.978  -0.814  -9.208  1.00  0.00     0.134 A 
ATOM     11  C   UNL     1      17.876  -2.437  -7.771  1.00  0.00     0.123 A 
ATOM     12  C   UNL     1      18.577  -1.240  -7.934  1.00  0.00     0.093 A 
BRANCH   3  13
ATOM     13  C   UNL     1      17.519  -4.154 -13.546  1.00  0.00     0.025 A 
ATOM     14  C   UNL     1      16.190  -4.142 -14.001  1.00  0.00     0.016 A 
ATOM     15  C   UNL     1      15.784  -5.019 -15.010  1.00  0.00     0.051 A 
ATOM     16  C   UNL     1      16.695  -5.926 -15.567  1.00  0.00     0.157 A 
ATOM     17  C   UNL     1      18.423  -5.078 -14.090  1.00  0.00     0.062 A 
ATOM     18  C   UNL     1      18.022  -5.955 -15.104  1.00  0.00     0.158 A 
BRANCH  16  19
ATOM     19  O   UNL     1      16.287  -6.799 -16.575  1.00  0.00    -0.504 OA
ATOM     20  H   UNL     1      15.380  -6.711 -17.018  1.00  0.00     0.293 HD
ENDBRANCH  16  19
BRANCH  18  21
ATOM     21  O   UNL     1      18.951  -6.848 -15.636  1.00  0.00    -0.504 OA
ATOM     22  H   UNL     1      18.824  -7.282 -16.542  1.00  0.00     0.293 HD
ENDBRANCH  18  21
ENDBRANCH   3  13
BRANCH  10  23
ATOM     23  O   UNL     1      19.680   0.385  -9.338  1.00  0.00    -0.507 OA
ATOM     24  H   UNL     1      20.028   0.704 -10.234  1.00  0.00     0.293 HD
ENDBRANCH  10  23
BRANCH  11  25
ATOM     25  O   UNL     1      17.487  -2.837  -6.494  1.00  0.00    -0.508 OA
ATOM     26  H   UNL     1      18.138  -2.831  -5.716  1.00  0.00     0.293 HD
ENDBRANCH  11  25
ENDBRANCH   1   2
BRANCH   1  27
ATOM     27  C   UNL     1      18.293  -1.032 -14.923  1.00  0.00     0.339 C 
ATOM     28  C   UNL     1      19.040   0.195 -15.487  1.00  0.00     0.214 C 
ATOM     29  O   UNL     1      17.778  -1.855 -15.960  1.00  0.00    -0.332 OA
ATOM     30  C   UNL     1      20.132  -0.238 -16.483  1.00  0.00     0.180 C 
ATOM     31  C   UNL     1      18.813  -2.370 -16.785  1.00  0.00     0.179 C 
ATOM     32  C   UNL     1      19.565  -1.228 -17.513  1.00  0.00     0.177 C 
BRANCH  28  33
ATOM     33  O   UNL     1      19.610   0.920 -14.429  1.00  0.00    -0.384 OA
ATOM     34  H   UNL     1      19.322   1.864 -14.534  1.00  0.00     0.211 HD
ENDBRANCH  28  33
BRANCH  30  35
ATOM     35  O   UNL     1      20.656   0.882 -17.149  1.00  0.00    -0.387 OA
ATOM     36  H   UNL     1      20.538   0.723 -18.122  1.00  0.00     0.211 HD
ENDBRANCH  30  35
BRANCH  31  37
ATOM     37  C   UNL     1      18.197  -3.371 -17.774  1.00  0.00     0.191 C 
BRANCH  37  38
ATOM     38  O   UNL     1      18.993  -3.489 -18.925  1.00  0.00    -0.394 OA
ATOM     39  H   UNL     1      19.274  -2.571 -19.177  1.00  0.00     0.210 HD
ENDBRANCH  37  38
ENDBRANCH  31  37
BRANCH  32  40
ATOM     40  O   UNL     1      18.750  -0.575 -18.461  1.00  0.00    -0.387 OA
ATOM     41  H   UNL     1      17.993  -1.174 -18.686  1.00  0.00     0.211 HD
ENDBRANCH  32  40
ENDBRANCH   1  27
TORSDOF 12
ENDMDL
MODEL 3
REMARK VINA RESULT:    -6.307      1.347      2.662
REMARK INTER + INTRA:         -10.814
REMARK INTER:                  -8.981
REMARK INTRA:                  -1.832
REMARK UNBOUND:                -1.558
REMARK SMILES O=c1c(O[C@@H]2O[C@@H](CO)[C@@H](O)[C@@H](O)[C@@H]2O)c(-c2ccc(O)c(O)c2)oc2cc(O)cc(O)c12
REMARK SMILES IDX 4 1 3 2 16 3 25 4 2 5 26 6 1 7 33 8 27 9 31 10 28 11 30 12
REMARK SMILES IDX 17 13 18 14 19 15 20 16 24 17 22 18 21 19 23 21 32 23 29 25
REMARK SMILES IDX 5 27 14 28 6 29 12 30 7 31 10 32 15 33 13 35 8 37 9 38 11 40
REMARK H PARENT 21 20 23 22 32 24 29 26 15 34 13 36 9 39 11 41
REMARK Flexibility Score: inf
ROOT
ATOM      1  O   UNL     1      16.885  -3.189 -14.503  1.00  0.00    -0.454 OA
ENDROOT
BRANCH   1   2
ATOM      2  C   UNL     1      17.617  -3.160 -15.696  1.00  0.00     0.214 A 
ATOM      3  C   UNL     1      17.635  -4.276 -16.553  1.00  0.00     0.180 A 
ATOM      4  O   UNL     1      18.266  -4.207 -17.721  1.00  0.00    -0.452 OA
ATOM      5  C   UNL     1      18.323  -2.008 -16.072  1.00  0.00     0.239 A 
ATOM      6  C   UNL     1      18.929  -3.130 -18.127  1.00  0.00     0.146 A 
ATOM      7  O   UNL     1      18.345  -1.015 -15.297  1.00  0.00    -0.285 OA
ATOM      8  C   UNL     1      18.996  -1.975 -17.311  1.00  0.00     0.111 A 
ATOM      9  C   UNL     1      19.569  -3.151 -19.369  1.00  0.00     0.094 A 
ATOM     10  C   UNL     1      19.722  -0.849 -17.768  1.00  0.00     0.134 A 
ATOM     11  C   UNL     1      20.286  -2.037 -19.814  1.00  0.00     0.123 A 
ATOM     12  C   UNL     1      20.361  -0.893 -19.015  1.00  0.00     0.093 A 
BRANCH   3  13
ATOM     13  C   UNL     1      16.960  -5.540 -16.197  1.00  0.00     0.025 A 
ATOM     14  C   UNL     1      15.586  -5.713 -16.430  1.00  0.00     0.016 A 
ATOM     15  C   UNL     1      14.955  -6.905 -16.066  1.00  0.00     0.051 A 
ATOM     16  C   UNL     1      15.685  -7.933 -15.455  1.00  0.00     0.157 A 
ATOM     17  C   UNL     1      17.684  -6.562 -15.565  1.00  0.00     0.062 A 
ATOM     18  C   UNL     1      17.057  -7.759 -15.203  1.00  0.00     0.158 A 
BRANCH  16  19
ATOM     19  O   UNL     1      15.052  -9.122 -15.093  1.00  0.00    -0.504 OA
ATOM     20  H   UNL     1      15.486 -10.024 -15.253  1.00  0.00     0.293 HD
ENDBRANCH  16  19
BRANCH  18  21
ATOM     21  O   UNL     1      17.810  -8.761 -14.592  1.00  0.00    -0.504 OA
ATOM     22  H   UNL     1      17.836  -9.709 -14.949  1.00  0.00     0.293 HD
ENDBRANCH  18  21
ENDBRANCH   3  13
BRANCH  10  23
ATOM     23  O   UNL     1      19.812   0.309 -16.994  1.00  0.00    -0.507 OA
ATOM     24  H   UNL     1      20.643   0.889 -16.999  1.00  0.00     0.293 HD
ENDBRANCH  10  23
BRANCH  11  25
ATOM     25  O   UNL     1      20.932  -2.055 -21.049  1.00  0.00    -0.508 OA
ATOM     26  H   UNL     1      20.413  -2.014 -21.919  1.00  0.00     0.293 HD
ENDBRANCH  11  25
ENDBRANCH   1   2
BRANCH   1  27
ATOM     27  C   UNL     1      17.470  -3.646 -13.278  1.00  0.00     0.339 C 
ATOM     28  C   UNL     1      17.362  -2.580 -12.167  1.00  0.00     0.214 C 
ATOM     29  O   UNL     1      16.909  -4.885 -12.871  1.00  0.00    -0.332 OA
ATOM     30  C   UNL     1      15.906  -2.430 -11.689  1.00  0.00     0.180 C 
ATOM     31  C   UNL     1      15.524  -4.763 -12.576  1.00  0.00     0.179 C 
ATOM     32  C   UNL     1      15.293  -3.806 -11.381  1.00  0.00     0.177 C 
BRANCH  28  33
ATOM     33  O   UNL     1      17.842  -1.352 -12.650  1.00  0.00    -0.384 OA
ATOM     34  H   UNL     1      18.561  -1.557 -13.303  1.00  0.00     0.211 HD
ENDBRANCH  28  33
BRANCH  30  35
ATOM     35  O   UNL     1      15.850  -1.625 -10.540  1.00  0.00    -0.387 OA
ATOM     36  H   UNL     1      15.605  -0.709 -10.838  1.00  0.00     0.211 HD
ENDBRANCH  30  35
BRANCH  31  37
ATOM     37  C   UNL     1      14.958  -6.164 -12.304  1.00  0.00     0.191 C 
BRANCH  37  38
ATOM     38  O   UNL     1      13.833  -6.094 -11.466  1.00  0.00    -0.394 OA
ATOM     39  H   UNL     1      13.034  -6.167 -12.049  1.00  0.00     0.210 HD
ENDBRANCH  37  38
ENDBRANCH  31  37
BRANCH  32  40
ATOM     40  O   UNL     1      15.791  -4.334 -10.172  1.00  0.00    -0.387 OA
ATOM     41  H   UNL     1      15.168  -5.038  -9.859  1.00  0.00     0.211 HD
ENDBRANCH  32  40
ENDBRANCH   1  27
TORSDOF 12
ENDMDL
MODEL 4
REMARK VINA RESULT:    -6.259      4.540      8.805
REMARK INTER + INTRA:         -10.743
REMARK INTER:                  -9.137
REMARK INTRA:                  -1.606
REMARK UNBOUND:                -1.558
REMARK SMILES O=c1c(O[C@@H]2O[C@@H](CO)[C@@H](O)[C@@H](O)[C@@H]2O)c(-c2ccc(O)c(O)c2)oc2cc(O)cc(O)c12
REMARK SMILES IDX 4 1 3 2 16 3 25 4 2 5 26 6 1 7 33 8 27 9 31 10 28 11 30 12
REMARK SMILES IDX 17 13 18 14 19 15 20 16 24 17 22 18 21 19 23 21 32 23 29 25
REMARK SMILES IDX 5 27 14 28 6 29 12 30 7 31 10 32 15 33 13 35 8 37 9 38 11 40
REMARK H PARENT 21 20 23 22 32 24 29 26 15 34 13 36 9 39 11 41
REMARK Flexibility Score: inf
ROOT
ATOM      1  O   UNL     1      17.757  -0.272 -10.856  1.00  0.00    -0.454 OA
ENDROOT
BRANCH   1   2
ATOM      2  C   UNL     1      18.715  -0.776  -9.968  1.00  0.00     0.214 A 
ATOM      3  C   UNL     1      20.084  -0.527 -10.173  1.00  0.00     0.180 A 
ATOM      4  O   UNL     1      20.977  -0.940  -9.279  1.00  0.00    -0.452 OA
ATOM      5  C   UNL     1      18.324  -1.514  -8.841  1.00  0.00     0.239 A 
ATOM      6  C   UNL     1      20.650  -1.623  -8.188  1.00  0.00     0.146 A 
ATOM      7  O   UNL     1      17.105  -1.776  -8.665  1.00  0.00    -0.285 OA
ATOM      8  C   UNL     1      19.300  -1.952  -7.921  1.00  0.00     0.111 A 
ATOM      9  C   UNL     1      21.659  -2.023  -7.307  1.00  0.00     0.094 A 
ATOM     10  C   UNL     1      18.987  -2.693  -6.756  1.00  0.00     0.134 A 
ATOM     11  C   UNL     1      21.345  -2.756  -6.158  1.00  0.00     0.123 A 
ATOM     12  C   UNL     1      20.015  -3.089  -5.888  1.00  0.00     0.093 A 
BRANCH   3  13
ATOM     13  C   UNL     1      20.572   0.196 -11.364  1.00  0.00     0.025 A 
ATOM     14  C   UNL     1      21.479  -0.406 -12.252  1.00  0.00     0.016 A 
ATOM     15  C   UNL     1      21.951   0.299 -13.362  1.00  0.00     0.051 A 
ATOM     16  C   UNL     1      21.534   1.616 -13.593  1.00  0.00     0.157 A 
ATOM     17  C   UNL     1      20.173   1.524 -11.586  1.00  0.00     0.062 A 
ATOM     18  C   UNL     1      20.640   2.231 -12.699  1.00  0.00     0.158 A 
BRANCH  16  19
ATOM     19  O   UNL     1      22.006   2.317 -14.702  1.00  0.00    -0.504 OA
ATOM     20  H   UNL     1      21.811   3.303 -14.829  1.00  0.00     0.293 HD
ENDBRANCH  16  19
BRANCH  18  21
ATOM     21  O   UNL     1      20.209   3.542 -12.898  1.00  0.00    -0.504 OA
ATOM     22  H   UNL     1      20.856   4.318 -12.960  1.00  0.00     0.293 HD
ENDBRANCH  18  21
ENDBRANCH   3  13
BRANCH  10  23
ATOM     23  O   UNL     1      17.669  -3.038  -6.456  1.00  0.00    -0.507 OA
ATOM     24  H   UNL     1      17.019  -3.334  -7.175  1.00  0.00     0.293 HD
ENDBRANCH  10  23
BRANCH  11  25
ATOM     25  O   UNL     1      22.347  -3.163  -5.280  1.00  0.00    -0.508 OA
ATOM     26  H   UNL     1      23.176  -3.643  -5.608  1.00  0.00     0.293 HD
ENDBRANCH  11  25
ENDBRANCH   1   2
BRANCH   1  27
ATOM     27  C   UNL     1      17.022  -1.135 -11.731  1.00  0.00     0.339 C 
ATOM     28  C   UNL     1      15.560  -0.668 -11.892  1.00  0.00     0.214 C 
ATOM     29  O   UNL     1      17.671  -1.268 -12.987  1.00  0.00    -0.332 OA
ATOM     30  C   UNL     1      15.487   0.626 -12.724  1.00  0.00     0.180 C 
ATOM     31  C   UNL     1      17.729  -0.030 -13.681  1.00  0.00     0.179 C 
ATOM     32  C   UNL     1      16.308   0.487 -14.016  1.00  0.00     0.177 C 
BRANCH  28  33
ATOM     33  O   UNL     1      14.994  -0.461 -10.624  1.00  0.00    -0.384 OA
ATOM     34  H   UNL     1      14.576  -1.318 -10.348  1.00  0.00     0.211 HD
ENDBRANCH  28  33
BRANCH  30  35
ATOM     35  O   UNL     1      14.153   0.923 -13.047  1.00  0.00    -0.387 OA
ATOM     36  H   UNL     1      14.018   0.661 -13.995  1.00  0.00     0.211 HD
ENDBRANCH  30  35
BRANCH  31  37
ATOM     37  C   UNL     1      18.582  -0.218 -14.945  1.00  0.00     0.191 C 
BRANCH  37  38
ATOM     38  O   UNL     1      18.141   0.630 -15.974  1.00  0.00    -0.394 OA
ATOM     39  H   UNL     1      17.200   0.868 -15.770  1.00  0.00     0.210 HD
ENDBRANCH  37  38
ENDBRANCH  31  37
BRANCH  32  40
ATOM     40  O   UNL     1      15.653  -0.332 -14.958  1.00  0.00    -0.387 OA
ATOM     41  H   UNL     1      14.748  -0.544 -14.611  1.00  0.00     0.211 HD
ENDBRANCH  32  40
ENDBRANCH   1  27
TORSDOF 12
ENDMDL
MODEL 5
REMARK VINA RESULT:    -6.248      2.470      3.879
REMARK INTER + INTRA:         -10.728
REMARK INTER:                  -9.192
REMARK INTRA:                  -1.536
REMARK UNBOUND:                -1.558
REMARK SMILES O=c1c(O[C@@H]2O[C@@H](CO)[C@@H](O)[C@@H](O)[C@@H]2O)c(-c2ccc(O)c(O)c2)oc2cc(O)cc(O)c12
REMARK SMILES IDX 4 1 3 2 16 3 25 4 2 5 26 6 1 7 33 8 27 9 31 10 28 11 30 12
REMARK SMILES IDX 17 13 18 14 19 15 20 16 24 17 22 18 21 19 23 21 32 23 29 25
REMARK SMILES IDX 5 27 14 28 6 29 12 30 7 31 10 32 15 33 13 35 8 37 9 38 11 40
REMARK H PARENT 21 20 23 22 32 24 29 26 15 34 13 36 9 39 11 41
REMARK Flexibility Score: inf
ROOT
ATOM      1  O   UNL     1      16.602  -0.587 -13.113  1.00  0.00    -0.454 OA
ENDROOT
BRANCH   1   2
ATOM      2  C   UNL     1      17.057  -1.441 -14.126  1.00  0.00     0.214 A 
ATOM      3  C   UNL     1      16.778  -2.819 -14.079  1.00  0.00     0.180 A 
ATOM      4  O   UNL     1      17.143  -3.606 -15.087  1.00  0.00    -0.452 OA
ATOM      5  C   UNL     1      17.773  -0.933 -15.219  1.00  0.00     0.239 A 
ATOM      6  C   UNL     1      17.804  -3.165 -16.151  1.00  0.00     0.146 A 
ATOM      7  O   UNL     1      18.061   0.293 -15.256  1.00  0.00    -0.285 OA
ATOM      8  C   UNL     1      18.160  -1.800 -16.263  1.00  0.00     0.111 A 
ATOM      9  C   UNL     1      18.153  -4.068 -17.159  1.00  0.00     0.094 A 
ATOM     10  C   UNL     1      18.876  -1.365 -17.404  1.00  0.00     0.134 A 
ATOM     11  C   UNL     1      18.862  -3.633 -18.283  1.00  0.00     0.123 A 
ATOM     12  C   UNL     1      19.221  -2.288 -18.402  1.00  0.00     0.093 A 
BRANCH   3  13
ATOM     13  C   UNL     1      16.077  -3.432 -12.933  1.00  0.00     0.025 A 
ATOM     14  C   UNL     1      14.699  -3.700 -12.991  1.00  0.00     0.016 A 
ATOM     15  C   UNL     1      14.043  -4.257 -11.891  1.00  0.00     0.051 A 
ATOM     16  C   UNL     1      14.751  -4.542 -10.716  1.00  0.00     0.157 A 
ATOM     17  C   UNL     1      16.778  -3.697 -11.747  1.00  0.00     0.062 A 
ATOM     18  C   UNL     1      16.126  -4.259 -10.645  1.00  0.00     0.158 A 
BRANCH  16  19
ATOM     19  O   UNL     1      14.094  -5.098  -9.619  1.00  0.00    -0.504 OA
ATOM     20  H   UNL     1      13.663  -4.519  -8.909  1.00  0.00     0.293 HD
ENDBRANCH  16  19
BRANCH  18  21
ATOM     21  O   UNL     1      16.858  -4.527  -9.488  1.00  0.00    -0.504 OA
ATOM     22  H   UNL     1      17.729  -5.041  -9.509  1.00  0.00     0.293 HD
ENDBRANCH  18  21
ENDBRANCH   3  13
BRANCH  10  23
ATOM     23  O   UNL     1      19.245  -0.027 -17.554  1.00  0.00    -0.507 OA
ATOM     24  H   UNL     1      18.966   0.680 -16.885  1.00  0.00     0.293 HD
ENDBRANCH  10  23
BRANCH  11  25
ATOM     25  O   UNL     1      19.218  -4.530 -19.288  1.00  0.00    -0.508 OA
ATOM     26  H   UNL     1      18.607  -5.291 -19.560  1.00  0.00     0.293 HD
ENDBRANCH  11  25
ENDBRANCH   1   2
BRANCH   1  27
ATOM     27  C   UNL     1      15.254  -0.103 -13.093  1.00  0.00     0.339 C 
ATOM     28  C   UNL     1      14.770   0.166 -11.653  1.00  0.00     0.214 C 
ATOM     29  O   UNL     1      15.107   1.043 -13.919  1.00  0.00    -0.332 OA
ATOM     30  C   UNL     1      15.471   1.403 -11.061  1.00  0.00     0.180 C 
ATOM     31  C   UNL     1      15.880   2.136 -13.443  1.00  0.00     0.179 C 
ATOM     32  C   UNL     1      15.401   2.587 -12.041  1.00  0.00     0.177 C 
BRANCH  28  33
ATOM     33  O   UNL     1      15.025  -0.962 -10.857  1.00  0.00    -0.384 OA
ATOM     34  H   UNL     1      14.292  -1.019 -10.189  1.00  0.00     0.211 HD
ENDBRANCH  28  33
BRANCH  30  35
ATOM     35  O   UNL     1      14.873   1.767  -9.844  1.00  0.00    -0.387 OA
ATOM     36  H   UNL     1      14.091   1.169  -9.713  1.00  0.00     0.211 HD
ENDBRANCH  30  35
BRANCH  31  37
ATOM     37  C   UNL     1      15.798   3.275 -14.469  1.00  0.00     0.191 C 
BRANCH  37  38
ATOM     38  O   UNL     1      16.510   2.950 -15.634  1.00  0.00    -0.394 OA
ATOM     39  H   UNL     1      16.646   1.967 -15.625  1.00  0.00     0.210 HD
ENDBRANCH  37  38
ENDBRANCH  31  37
BRANCH  32  40
ATOM     40  O   UNL     1      14.110   3.150 -12.076  1.00  0.00    -0.387 OA
ATOM     41  H   UNL     1      13.478   2.509 -11.660  1.00  0.00     0.211 HD
ENDBRANCH  32  40
ENDBRANCH   1  27
TORSDOF 12
ENDMDL
MODEL 6
REMARK VINA RESULT:    -6.240      2.778      4.272
REMARK INTER + INTRA:         -10.715
REMARK INTER:                  -8.938
REMARK INTRA:                  -1.778
REMARK UNBOUND:                -1.558
REMARK SMILES O=c1c(O[C@@H]2O[C@@H](CO)[C@@H](O)[C@@H](O)[C@@H]2O)c(-c2ccc(O)c(O)c2)oc2cc(O)cc(O)c12
REMARK SMILES IDX 4 1 3 2 16 3 25 4 2 5 26 6 1 7 33 8 27 9 31 10 28 11 30 12
REMARK SMILES IDX 17 13 18 14 19 15 20 16 24 17 22 18 21 19 23 21 32 23 29 25
REMARK SMILES IDX 5 27 14 28 6 29 12 30 7 31 10 32 15 33 13 35 8 37 9 38 11 40
REMARK H PARENT 21 20 23 22 32 24 29 26 15 34 13 36 9 39 11 41
REMARK Flexibility Score: inf
ROOT
ATOM      1  O   UNL     1      17.763  -0.473 -12.395  1.00  0.00    -0.454 OA
ENDROOT
BRANCH   1   2
ATOM      2  C   UNL     1      18.015  -0.840 -13.723  1.00  0.00     0.214 A 
ATOM      3  C   UNL     1      17.197  -1.783 -14.374  1.00  0.00     0.180 A 
ATOM      4  O   UNL     1      17.396  -2.061 -15.659  1.00  0.00    -0.452 OA
ATOM      5  C   UNL     1      19.069  -0.253 -14.437  1.00  0.00     0.239 A 
ATOM      6  C   UNL     1      18.369  -1.513 -16.379  1.00  0.00     0.146 A 
ATOM      7  O   UNL     1      19.831   0.565 -13.857  1.00  0.00    -0.285 OA
ATOM      8  C   UNL     1      19.262  -0.584 -15.795  1.00  0.00     0.111 A 
ATOM      9  C   UNL     1      18.505  -1.872 -17.723  1.00  0.00     0.094 A 
ATOM     10  C   UNL     1      20.296  -0.029 -16.587  1.00  0.00     0.134 A 
ATOM     11  C   UNL     1      19.530  -1.323 -18.500  1.00  0.00     0.123 A 
ATOM     12  C   UNL     1      20.419  -0.407 -17.933  1.00  0.00     0.093 A 
BRANCH   3  13
ATOM     13  C   UNL     1      16.103  -2.480 -13.669  1.00  0.00     0.025 A 
ATOM     14  C   UNL     1      16.169  -3.862 -13.424  1.00  0.00     0.016 A 
ATOM     15  C   UNL     1      15.117  -4.513 -12.777  1.00  0.00     0.051 A 
ATOM     16  C   UNL     1      13.980  -3.797 -12.379  1.00  0.00     0.157 A 
ATOM     17  C   UNL     1      14.954  -1.770 -13.289  1.00  0.00     0.062 A 
ATOM     18  C   UNL     1      13.900  -2.417 -12.637  1.00  0.00     0.158 A 
BRANCH  16  19
ATOM     19  O   UNL     1      12.931  -4.450 -11.734  1.00  0.00    -0.504 OA
ATOM     20  H   UNL     1      12.021  -4.016 -11.628  1.00  0.00     0.293 HD
ENDBRANCH  16  19
BRANCH  18  21
ATOM     21  O   UNL     1      12.781  -1.677 -12.258  1.00  0.00    -0.504 OA
ATOM     22  H   UNL     1      11.879  -2.109 -12.095  1.00  0.00     0.293 HD
ENDBRANCH  18  21
ENDBRANCH   3  13
BRANCH  10  23
ATOM     23  O   UNL     1      21.197   0.891 -16.051  1.00  0.00    -0.507 OA
ATOM     24  H   UNL     1      22.146   0.629 -15.813  1.00  0.00     0.293 HD
ENDBRANCH  10  23
BRANCH  11  25
ATOM     25  O   UNL     1      19.675  -1.682 -19.839  1.00  0.00    -0.508 OA
ATOM     26  H   UNL     1      20.506  -2.158 -20.172  1.00  0.00     0.293 HD
ENDBRANCH  11  25
ENDBRANCH   1   2
BRANCH   1  27
ATOM     27  C   UNL     1      18.623  -0.891 -11.329  1.00  0.00     0.339 C 
ATOM     28  C   UNL     1      18.826   0.234 -10.292  1.00  0.00     0.214 C 
ATOM     29  O   UNL     1      18.147  -2.083 -10.722  1.00  0.00    -0.332 OA
ATOM     30  C   UNL     1      17.540   0.469  -9.478  1.00  0.00     0.180 C 
ATOM     31  C   UNL     1      16.884  -1.889 -10.101  1.00  0.00     0.179 C 
ATOM     32  C   UNL     1      16.985  -0.863  -8.945  1.00  0.00     0.177 C 
BRANCH  28  33
ATOM     33  O   UNL     1      19.203   1.414 -10.952  1.00  0.00    -0.384 OA
ATOM     34  H   UNL     1      19.009   2.168 -10.335  1.00  0.00     0.211 HD
ENDBRANCH  28  33
BRANCH  30  35
ATOM     35  O   UNL     1      17.795   1.333  -8.401  1.00  0.00    -0.387 OA
ATOM     36  H   UNL     1      18.743   1.198  -8.137  1.00  0.00     0.211 HD
ENDBRANCH  30  35
BRANCH  31  37
ATOM     37  C   UNL     1      16.365  -3.250  -9.614  1.00  0.00     0.191 C 
BRANCH  37  38
ATOM     38  O   UNL     1      17.373  -3.955  -8.937  1.00  0.00    -0.394 OA
ATOM     39  H   UNL     1      18.076  -4.166  -9.604  1.00  0.00     0.210 HD
ENDBRANCH  37  38
ENDBRANCH  31  37
BRANCH  32  40
ATOM     40  O   UNL     1      17.756  -1.349  -7.869  1.00  0.00    -0.387 OA
ATOM     41  H   UNL     1      18.073  -0.574  -7.338  1.00  0.00     0.211 HD
ENDBRANCH  32  40
ENDBRANCH   1  27
TORSDOF 12
ENDMDL
MODEL 7
REMARK VINA RESULT:    -6.212      1.653      7.029
REMARK INTER + INTRA:         -10.674
REMARK INTER:                  -9.555
REMARK INTRA:                  -1.120
REMARK UNBOUND:                -1.558
REMARK SMILES O=c1c(O[C@@H]2O[C@@H](CO)[C@@H](O)[C@@H](O)[C@@H]2O)c(-c2ccc(O)c(O)c2)oc2cc(O)cc(O)c12
REMARK SMILES IDX 4 1 3 2 16 3 25 4 2 5 26 6 1 7 33 8 27 9 31 10 28 11 30 12
REMARK SMILES IDX 17 13 18 14 19 15 20 16 24 17 22 18 21 19 23 21 32 23 29 25
REMARK SMILES IDX 5 27 14 28 6 29 12 30 7 31 10 32 15 33 13 35 8 37 9 38 11 40
REMARK H PARENT 21 20 23 22 32 24 29 26 15 34 13 36 9 39 11 41
REMARK Flexibility Score: inf
ROOT
ATOM      1  O   UNL     1      17.763  -3.608 -15.469  1.00  0.00    -0.454 OA
ENDROOT
BRANCH   1   2
ATOM      2  C   UNL     1      17.138  -2.404 -15.120  1.00  0.00     0.214 A 
ATOM      3  C   UNL     1      17.364  -1.236 -15.871  1.00  0.00     0.180 A 
ATOM      4  O   UNL     1      16.702  -0.120 -15.581  1.00  0.00    -0.452 OA
ATOM      5  C   UNL     1      16.254  -2.348 -14.034  1.00  0.00     0.239 A 
ATOM      6  C   UNL     1      15.840  -0.028 -14.574  1.00  0.00     0.146 A 
ATOM      7  O   UNL     1      16.070  -3.378 -13.331  1.00  0.00    -0.285 OA
ATOM      8  C   UNL     1      15.581  -1.143 -13.743  1.00  0.00     0.111 A 
ATOM      9  C   UNL     1      15.195   1.190 -14.340  1.00  0.00     0.094 A 
ATOM     10  C   UNL     1      14.666  -1.007 -12.671  1.00  0.00     0.134 A 
ATOM     11  C   UNL     1      14.294   1.319 -13.278  1.00  0.00     0.123 A 
ATOM     12  C   UNL     1      14.033   0.225 -12.450  1.00  0.00     0.093 A 
BRANCH   3  13
ATOM     13  C   UNL     1      18.323  -1.207 -16.994  1.00  0.00     0.025 A 
ATOM     14  C   UNL     1      17.921  -1.558 -18.293  1.00  0.00     0.016 A 
ATOM     15  C   UNL     1      18.844  -1.550 -19.342  1.00  0.00     0.051 A 
ATOM     16  C   UNL     1      20.180  -1.204 -19.104  1.00  0.00     0.157 A 
ATOM     17  C   UNL     1      19.667  -0.882 -16.755  1.00  0.00     0.062 A 
ATOM     18  C   UNL     1      20.593  -0.868 -17.803  1.00  0.00     0.158 A 
BRANCH  16  19
ATOM     19  O   UNL     1      21.099  -1.196 -20.153  1.00  0.00    -0.504 OA
ATOM     20  H   UNL     1      21.060  -1.882 -20.898  1.00  0.00     0.293 HD
ENDBRANCH  16  19
BRANCH  18  21
ATOM     21  O   UNL     1      21.917  -0.523 -17.533  1.00  0.00    -0.504 OA
ATOM     22  H   UNL     1      22.176   0.022 -16.720  1.00  0.00     0.293 HD
ENDBRANCH  18  21
ENDBRANCH   3  13
BRANCH  10  23
ATOM     23  O   UNL     1      14.382  -2.082 -11.828  1.00  0.00    -0.507 OA
ATOM     24  H   UNL     1      13.609  -2.056 -11.175  1.00  0.00     0.293 HD
ENDBRANCH  10  23
BRANCH  11  25
ATOM     25  O   UNL     1      13.653   2.532 -13.035  1.00  0.00    -0.508 OA
ATOM     26  H   UNL     1      12.681   2.677 -13.283  1.00  0.00     0.293 HD
ENDBRANCH  11  25
ENDBRANCH   1   2
BRANCH   1  27
ATOM     27  C   UNL     1      17.082  -4.608 -16.236  1.00  0.00     0.339 C 
ATOM     28  C   UNL     1      18.066  -5.431 -17.094  1.00  0.00     0.214 C 
ATOM     29  O   UNL     1      16.287  -5.441 -15.405  1.00  0.00    -0.332 OA
ATOM     30  C   UNL     1      18.922  -6.357 -16.210  1.00  0.00     0.180 C 
ATOM     31  C   UNL     1      17.083  -6.181 -14.489  1.00  0.00     0.179 C 
ATOM     32  C   UNL     1      18.035  -7.148 -15.235  1.00  0.00     0.177 C 
BRANCH  28  33
ATOM     33  O   UNL     1      18.890  -4.560 -17.823  1.00  0.00    -0.384 OA
ATOM     34  H   UNL     1      19.760  -4.514 -17.347  1.00  0.00     0.211 HD
ENDBRANCH  28  33
BRANCH  30  35
ATOM     35  O   UNL     1      19.655  -7.252 -17.007  1.00  0.00    -0.387 OA
ATOM     36  H   UNL     1      19.074  -7.502 -17.773  1.00  0.00     0.211 HD
ENDBRANCH  30  35
BRANCH  31  37
ATOM     37  C   UNL     1      16.150  -6.927 -13.524  1.00  0.00     0.191 C 
BRANCH  37  38
ATOM     38  O   UNL     1      15.028  -6.143 -13.209  1.00  0.00    -0.394 OA
ATOM     39  H   UNL     1      15.023  -6.031 -12.223  1.00  0.00     0.210 HD
ENDBRANCH  37  38
ENDBRANCH  31  37
BRANCH  32  40
ATOM     40  O   UNL     1      17.335  -8.179 -15.895  1.00  0.00    -0.387 OA
ATOM     41  H   UNL     1      16.367  -8.060 -15.719  1.00  0.00     0.211 HD
ENDBRANCH  32  40
ENDBRANCH   1  27
TORSDOF 12
ENDMDL
MODEL 8
REMARK VINA RESULT:    -6.150      2.903      6.047
REMARK INTER + INTRA:         -10.584
REMARK INTER:                  -8.832
REMARK INTRA:                  -1.752
REMARK UNBOUND:                -1.558
REMARK SMILES O=c1c(O[C@@H]2O[C@@H](CO)[C@@H](O)[C@@H](O)[C@@H]2O)c(-c2ccc(O)c(O)c2)oc2cc(O)cc(O)c12
REMARK SMILES IDX 4 1 3 2 16 3 25 4 2 5 26 6 1 7 33 8 27 9 31 10 28 11 30 12
REMARK SMILES IDX 17 13 18 14 19 15 20 16 24 17 22 18 21 19 23 21 32 23 29 25
REMARK SMILES IDX 5 27 14 28 6 29 12 30 7 31 10 32 15 33 13 35 8 37 9 38 11 40
REMARK H PARENT 21 20 23 22 32 24 29 26 15 34 13 36 9 39 11 41
REMARK Flexibility Score: inf
ROOT
ATOM      1  O   UNL     1      17.654  -3.270 -11.846  1.00  0.00    -0.454 OA
ENDROOT
BRANCH   1   2
ATOM      2  C   UNL     1      17.237  -3.913 -13.019  1.00  0.00     0.214 A 
ATOM      3  C   UNL     1      16.943  -3.170 -14.177  1.00  0.00     0.180 A 
ATOM      4  O   UNL     1      16.629  -3.796 -15.307  1.00  0.00    -0.452 OA
ATOM      5  C   UNL     1      17.134  -5.310 -13.068  1.00  0.00     0.239 A 
ATOM      6  C   UNL     1      16.539  -5.118 -15.404  1.00  0.00     0.146 A 
ATOM      7  O   UNL     1      17.359  -5.985 -12.028  1.00  0.00    -0.285 OA
ATOM      8  C   UNL     1      16.781  -5.941 -14.279  1.00  0.00     0.111 A 
ATOM      9  C   UNL     1      16.195  -5.688 -16.633  1.00  0.00     0.094 A 
ATOM     10  C   UNL     1      16.664  -7.346 -14.414  1.00  0.00     0.134 A 
ATOM     11  C   UNL     1      16.079  -7.076 -16.760  1.00  0.00     0.123 A 
ATOM     12  C   UNL     1      16.313  -7.898 -15.655  1.00  0.00     0.093 A 
BRANCH   3  13
ATOM     13  C   UNL     1      16.978  -1.694 -14.183  1.00  0.00     0.025 A 
ATOM     14  C   UNL     1      15.790  -0.944 -14.197  1.00  0.00     0.016 A 
ATOM     15  C   UNL     1      15.839   0.452 -14.228  1.00  0.00     0.051 A 
ATOM     16  C   UNL     1      17.072   1.115 -14.256  1.00  0.00     0.157 A 
ATOM     17  C   UNL     1      18.212  -1.027 -14.234  1.00  0.00     0.062 A 
ATOM     18  C   UNL     1      18.265   0.371 -14.260  1.00  0.00     0.158 A 
BRANCH  16  19
ATOM     19  O   UNL     1      17.117   2.509 -14.286  1.00  0.00    -0.504 OA
ATOM     20  H   UNL     1      17.906   3.006 -14.684  1.00  0.00     0.293 HD
ENDBRANCH  16  19
BRANCH  18  21
ATOM     21  O   UNL     1      19.508   1.002 -14.293  1.00  0.00    -0.504 OA
ATOM     22  H   UNL     1      19.715   1.751 -14.941  1.00  0.00     0.293 HD
ENDBRANCH  18  21
ENDBRANCH   3  13
BRANCH  10  23
ATOM     23  O   UNL     1      16.895  -8.193 -13.330  1.00  0.00    -0.507 OA
ATOM     24  H   UNL     1      16.424  -9.086 -13.243  1.00  0.00     0.293 HD
ENDBRANCH  10  23
BRANCH  11  25
ATOM     25  O   UNL     1      15.730  -7.650 -17.981  1.00  0.00    -0.508 OA
ATOM     26  H   UNL     1      15.980  -7.215 -18.862  1.00  0.00     0.293 HD
ENDBRANCH  11  25
ENDBRANCH   1   2
BRANCH   1  27
ATOM     27  C   UNL     1      16.722  -2.603 -10.988  1.00  0.00     0.339 C 
ATOM     28  C   UNL     1      16.708  -3.223  -9.575  1.00  0.00     0.214 C 
ATOM     29  O   UNL     1      16.973  -1.205 -10.945  1.00  0.00    -0.332 OA
ATOM     30  C   UNL     1      18.005  -2.888  -8.816  1.00  0.00     0.180 C 
ATOM     31  C   UNL     1      18.243  -0.918 -10.377  1.00  0.00     0.179 C 
ATOM     32  C   UNL     1      18.310  -1.384  -8.901  1.00  0.00     0.177 C 
BRANCH  28  33
ATOM     33  O   UNL     1      16.552  -4.614  -9.678  1.00  0.00    -0.384 OA
ATOM     34  H   UNL     1      16.234  -4.938  -8.796  1.00  0.00     0.211 HD
ENDBRANCH  28  33
BRANCH  30  35
ATOM     35  O   UNL     1      17.894  -3.268  -7.469  1.00  0.00    -0.387 OA
ATOM     36  H   UNL     1      17.247  -4.020  -7.430  1.00  0.00     0.211 HD
ENDBRANCH  30  35
BRANCH  31  37
ATOM     37  C   UNL     1      18.508   0.589 -10.513  1.00  0.00     0.191 C 
BRANCH  37  38
ATOM     38  O   UNL     1      17.304   1.311 -10.502  1.00  0.00    -0.394 OA
ATOM     39  H   UNL     1      17.321   1.888  -9.695  1.00  0.00     0.210 HD
ENDBRANCH  37  38
ENDBRANCH  31  37
BRANCH  32  40
ATOM     40  O   UNL     1      17.454  -0.636  -8.068  1.00  0.00    -0.387 OA
ATOM     41  H   UNL     1      17.457   0.305  -8.381  1.00  0.00     0.211 HD
ENDBRANCH  32  40
ENDBRANCH   1  27
TORSDOF 12
ENDMDL
MODEL 9
REMARK VINA RESULT:    -6.090      2.559      3.999
REMARK INTER + INTRA:         -10.496
REMARK INTER:                  -8.752
REMARK INTRA:                  -1.744
REMARK UNBOUND:                -1.558
REMARK SMILES O=c1c(O[C@@H]2O[C@@H](CO)[C@@H](O)[C@@H](O)[C@@H]2O)c(-c2ccc(O)c(O)c2)oc2cc(O)cc(O)c12
REMARK SMILES IDX 4 1 3 2 16 3 25 4 2 5 26 6 1 7 33 8 27 9 31 10 28 11 30 12
REMARK SMILES IDX 17 13 18 14 19 15 20 16 24 17 22 18 21 19 23 21 32 23 29 25
REMARK SMILES IDX 5 27 14 28 6 29 12 30 7 31 10 32 15 33 13 35 8 37 9 38 11 40
REMARK H PARENT 21 20 23 22 32 24 29 26 15 34 13 36 9 39 11 41
REMARK Flexibility Score: inf
ROOT
ATOM      1  O   UNL     1      16.560  -0.575 -13.289  1.00  0.00    -0.454 OA
ENDROOT
BRANCH   1   2
ATOM      2  C   UNL     1      17.028  -1.436 -14.290  1.00  0.00     0.214 A 
ATOM      3  C   UNL     1      16.713  -2.807 -14.260  1.00  0.00     0.180 A 
ATOM      4  O   UNL     1      17.092  -3.598 -15.259  1.00  0.00    -0.452 OA
ATOM      5  C   UNL     1      17.794  -0.942 -15.356  1.00  0.00     0.239 A 
ATOM      6  C   UNL     1      17.801  -3.169 -16.298  1.00  0.00     0.146 A 
ATOM      7  O   UNL     1      18.113   0.277 -15.376  1.00  0.00    -0.285 OA
ATOM      8  C   UNL     1      18.194  -1.813 -16.390  1.00  0.00     0.111 A 
ATOM      9  C   UNL     1      18.161  -4.076 -17.298  1.00  0.00     0.094 A 
ATOM     10  C   UNL     1      18.960  -1.391 -17.504  1.00  0.00     0.134 A 
ATOM     11  C   UNL     1      18.919  -3.654 -18.395  1.00  0.00     0.123 A 
ATOM     12  C   UNL     1      19.315  -2.319 -18.494  1.00  0.00     0.093 A 
BRANCH   3  13
ATOM     13  C   UNL     1      15.957  -3.407 -13.143  1.00  0.00     0.025 A 
ATOM     14  C   UNL     1      16.582  -4.277 -12.235  1.00  0.00     0.016 A 
ATOM     15  C   UNL     1      15.849  -4.857 -11.196  1.00  0.00     0.051 A 
ATOM     16  C   UNL     1      14.482  -4.584 -11.059  1.00  0.00     0.157 A 
ATOM     17  C   UNL     1      14.583  -3.153 -13.016  1.00  0.00     0.062 A 
ATOM     18  C   UNL     1      13.846  -3.727 -11.974  1.00  0.00     0.158 A 
BRANCH  16  19
ATOM     19  O   UNL     1      13.752  -5.163 -10.021  1.00  0.00    -0.504 OA
ATOM     20  H   UNL     1      14.211  -5.626  -9.245  1.00  0.00     0.293 HD
ENDBRANCH  16  19
BRANCH  18  21
ATOM     21  O   UNL     1      12.486  -3.439 -11.867  1.00  0.00    -0.504 OA
ATOM     22  H   UNL     1      11.959  -3.634 -11.025  1.00  0.00     0.293 HD
ENDBRANCH  18  21
ENDBRANCH   3  13
BRANCH  10  23
ATOM     23  O   UNL     1      19.368  -0.063 -17.634  1.00  0.00    -0.507 OA
ATOM     24  H   UNL     1      18.877   0.588 -18.234  1.00  0.00     0.293 HD
ENDBRANCH  10  23
BRANCH  11  25
ATOM     25  O   UNL     1      19.287  -4.556 -19.392  1.00  0.00    -0.508 OA
ATOM     26  H   UNL     1      18.763  -4.633 -20.256  1.00  0.00     0.293 HD
ENDBRANCH  11  25
ENDBRANCH   1   2
BRANCH   1  27
ATOM     27  C   UNL     1      17.449   0.004 -12.327  1.00  0.00     0.339 C 
ATOM     28  C   UNL     1      17.061   1.462 -12.003  1.00  0.00     0.214 C 
ATOM     29  O   UNL     1      17.524  -0.792 -11.153  1.00  0.00    -0.332 OA
ATOM     30  C   UNL     1      15.760   1.515 -11.182  1.00  0.00     0.180 C 
ATOM     31  C   UNL     1      16.273  -0.857 -10.482  1.00  0.00     0.179 C 
ATOM     32  C   UNL     1      15.831   0.544  -9.991  1.00  0.00     0.177 C 
BRANCH  28  33
ATOM     33  O   UNL     1      16.908   2.180 -13.200  1.00  0.00    -0.384 OA
ATOM     34  H   UNL     1      16.882   3.143 -12.961  1.00  0.00     0.211 HD
ENDBRANCH  28  33
BRANCH  30  35
ATOM     35  O   UNL     1      15.533   2.818 -10.710  1.00  0.00    -0.387 OA
ATOM     36  H   UNL     1      16.281   3.040 -10.096  1.00  0.00     0.211 HD
ENDBRANCH  30  35
BRANCH  31  37
ATOM     37  C   UNL     1      16.392  -1.857  -9.324  1.00  0.00     0.191 C 
BRANCH  37  38
ATOM     38  O   UNL     1      17.552  -1.614  -8.572  1.00  0.00    -0.394 OA
ATOM     39  H   UNL     1      17.268  -1.145  -7.745  1.00  0.00     0.210 HD
ENDBRANCH  37  38
ENDBRANCH  31  37
BRANCH  32  40
ATOM     40  O   UNL     1      16.670   1.039  -8.972  1.00  0.00    -0.387 OA
ATOM     41  H   UNL     1      16.836   2.001  -9.145  1.00  0.00     0.211 HD
ENDBRANCH  32  40
ENDBRANCH   1  27
TORSDOF 12
ENDMDL
