MODEL 1
REMARK VINA RESULT:    -7.747      0.000      0.000
REMARK INTER + INTRA:          -9.495
REMARK INTER:                  -9.332
REMARK INTRA:                  -0.162
REMARK UNBOUND:                -0.162
REMARK SMILES O=c1c(O)c(-c2ccc(O)c(O)c2)oc2cc(O)cc(O)c12
REMARK SMILES IDX 5 1 3 2 2 3 1 4 22 5 20 6 19 7 17 8 16 9 15 10 14 11 6 12
REMARK SMILES IDX 7 13 8 14 9 15 13 16 11 17 10 18 12 20 4 22 21 24 18 26
REMARK H PARENT 10 19 12 21 4 23 21 25 18 27
REMARK Flexibility Score: inf
ROOT
ATOM      1  C   UNL     1       1.961  45.687   2.620  1.00  0.00     0.180 A 
ATOM      2  C   UNL     1       1.567  45.191   1.362  1.00  0.00     0.208 A 
ATOM      3  C   UNL     1       0.223  44.837   1.164  1.00  0.00     0.238 A 
ATOM      4  O   UNL     1      -0.140  44.381   0.045  1.00  0.00    -0.285 OA
ATOM      5  C   UNL     1      -0.704  45.002   2.213  1.00  0.00     0.111 A 
ATOM      6  C   UNL     1      -2.076  44.674   2.093  1.00  0.00     0.134 A 
ATOM      7  C   UNL     1      -2.937  44.877   3.182  1.00  0.00     0.093 A 
ATOM      8  C   UNL     1      -2.454  45.403   4.385  1.00  0.00     0.123 A 
ATOM      9  C   UNL     1      -1.101  45.727   4.508  1.00  0.00     0.094 A 
ATOM     10  C   UNL     1      -0.227  45.531   3.436  1.00  0.00     0.146 A 
ATOM     11  O   UNL     1       1.056  45.844   3.581  1.00  0.00    -0.452 OA
ENDROOT
BRANCH   1  12
ATOM     12  C   UNL     1       3.363  46.063   2.912  1.00  0.00     0.025 A 
ATOM     13  C   UNL     1       4.100  45.311   3.838  1.00  0.00     0.016 A 
ATOM     14  C   UNL     1       5.429  45.636   4.114  1.00  0.00     0.051 A 
ATOM     15  C   UNL     1       6.054  46.704   3.461  1.00  0.00     0.157 A 
ATOM     16  C   UNL     1       3.993  47.123   2.238  1.00  0.00     0.062 A 
ATOM     17  C   UNL     1       5.327  47.454   2.505  1.00  0.00     0.158 A 
BRANCH  15  18
ATOM     18  O   UNL     1       7.383  46.982   3.787  1.00  0.00    -0.504 OA
ATOM     19  H   UNL     1       8.152  46.353   3.607  1.00  0.00     0.293 HD
ENDBRANCH  15  18
BRANCH  17  20
ATOM     20  O   UNL     1       5.888  48.521   1.801  1.00  0.00    -0.504 OA
ATOM     21  H   UNL     1       5.614  48.787   0.865  1.00  0.00     0.293 HD
ENDBRANCH  17  20
ENDBRANCH   1  12
BRANCH   2  22
ATOM     22  O   UNL     1       2.495  45.082   0.324  1.00  0.00    -0.502 OA
ATOM     23  H   UNL     1       2.228  44.822  -0.618  1.00  0.00     0.293 HD
ENDBRANCH   2  22
BRANCH   6  24
ATOM     24  O   UNL     1      -2.588  44.150   0.906  1.00  0.00    -0.507 OA
ATOM     25  H   UNL     1      -2.398  44.578   0.008  1.00  0.00     0.293 HD
ENDBRANCH   6  24
BRANCH   8  26
ATOM     26  O   UNL     1      -3.309  45.606   5.466  1.00  0.00    -0.508 OA
ATOM     27  H   UNL     1      -4.180  46.114   5.365  1.00  0.00     0.293 HD
ENDBRANCH   8  26
TORSDOF 6
ENDMDL
MODEL 2
REMARK VINA RESULT:    -7.467      1.804      3.715
REMARK INTER + INTRA:          -9.157
REMARK INTER:                  -8.975
REMARK INTRA:                  -0.182
REMARK UNBOUND:                -0.162
REMARK SMILES O=c1c(O)c(-c2ccc(O)c(O)c2)oc2cc(O)cc(O)c12
REMARK SMILES IDX 5 1 3 2 2 3 1 4 22 5 20 6 19 7 17 8 16 9 15 10 14 11 6 12
REMARK SMILES IDX 7 13 8 14 9 15 13 16 11 17 10 18 12 20 4 22 21 24 18 26
REMARK H PARENT 10 19 12 21 4 23 21 25 18 27
REMARK Flexibility Score: inf
ROOT
ATOM      1  C   UNL     1       1.859  45.527   2.378  1.00  0.00     0.180 A 
ATOM      2  C   UNL     1       0.696  45.783   3.130  1.00  0.00     0.208 A 
ATOM      3  C   UNL     1      -0.552  45.719   2.490  1.00  0.00     0.238 A 
ATOM      4  O   UNL     1      -1.600  45.957   3.150  1.00  0.00    -0.285 OA
ATOM      5  C   UNL     1      -0.618  45.383   1.122  1.00  0.00     0.111 A 
ATOM      6  C   UNL     1      -1.835  45.293   0.405  1.00  0.00     0.134 A 
ATOM      7  C   UNL     1      -1.818  44.943  -0.953  1.00  0.00     0.093 A 
ATOM      8  C   UNL     1      -0.609  44.680  -1.606  1.00  0.00     0.123 A 
ATOM      9  C   UNL     1       0.594  44.768  -0.903  1.00  0.00     0.094 A 
ATOM     10  C   UNL     1       0.598  45.116   0.451  1.00  0.00     0.146 A 
ATOM     11  O   UNL     1       1.757  45.198   1.094  1.00  0.00    -0.452 OA
ENDROOT
BRANCH   1  12
ATOM     12  C   UNL     1       3.212  45.594   2.977  1.00  0.00     0.025 A 
ATOM     13  C   UNL     1       4.085  46.622   2.596  1.00  0.00     0.016 A 
ATOM     14  C   UNL     1       5.357  46.716   3.162  1.00  0.00     0.051 A 
ATOM     15  C   UNL     1       5.777  45.798   4.130  1.00  0.00     0.157 A 
ATOM     16  C   UNL     1       3.621  44.683   3.965  1.00  0.00     0.062 A 
ATOM     17  C   UNL     1       4.895  44.771   4.542  1.00  0.00     0.158 A 
BRANCH  15  18
ATOM     18  O   UNL     1       7.065  45.942   4.651  1.00  0.00    -0.504 OA
ATOM     19  H   UNL     1       7.887  46.106   4.089  1.00  0.00     0.293 HD
ENDBRANCH  15  18
BRANCH  17  20
ATOM     20  O   UNL     1       5.237  43.830   5.515  1.00  0.00    -0.504 OA
ATOM     21  H   UNL     1       6.057  43.241   5.469  1.00  0.00     0.293 HD
ENDBRANCH  17  20
ENDBRANCH   1  12
BRANCH   2  22
ATOM     22  O   UNL     1       0.785  46.067   4.495  1.00  0.00    -0.502 OA
ATOM     23  H   UNL     1       1.669  46.249   4.954  1.00  0.00     0.293 HD
ENDBRANCH   2  22
BRANCH   6  24
ATOM     24  O   UNL     1      -3.057  45.548   1.029  1.00  0.00    -0.507 OA
ATOM     25  H   UNL     1      -3.934  45.504   0.522  1.00  0.00     0.293 HD
ENDBRANCH   6  24
BRANCH   8  26
ATOM     26  O   UNL     1      -0.591  44.331  -2.955  1.00  0.00    -0.508 OA
ATOM     27  H   UNL     1      -0.196  44.946  -3.656  1.00  0.00     0.293 HD
ENDBRANCH   8  26
TORSDOF 6
ENDMDL
MODEL 3
REMARK VINA RESULT:    -7.317      3.443      6.653
REMARK INTER + INTRA:          -8.976
REMARK INTER:                  -9.295
REMARK INTRA:                   0.319
REMARK UNBOUND:                -0.162
REMARK SMILES O=c1c(O)c(-c2ccc(O)c(O)c2)oc2cc(O)cc(O)c12
REMARK SMILES IDX 5 1 3 2 2 3 1 4 22 5 20 6 19 7 17 8 16 9 15 10 14 11 6 12
REMARK SMILES IDX 7 13 8 14 9 15 13 16 11 17 10 18 12 20 4 22 21 24 18 26
REMARK H PARENT 10 19 12 21 4 23 21 25 18 27
REMARK Flexibility Score: inf
ROOT
ATOM      1  C   UNL     1      -1.162  45.067   1.601  1.00  0.00     0.180 A 
ATOM      2  C   UNL     1       0.232  44.999   1.409  1.00  0.00     0.208 A 
ATOM      3  C   UNL     1       0.730  44.847   0.106  1.00  0.00     0.238 A 
ATOM      4  O   UNL     1       1.976  44.773  -0.078  1.00  0.00    -0.285 OA
ATOM      5  C   UNL     1      -0.167  44.786  -0.981  1.00  0.00     0.111 A 
ATOM      6  C   UNL     1       0.254  44.639  -2.325  1.00  0.00     0.134 A 
ATOM      7  C   UNL     1      -0.701  44.597  -3.351  1.00  0.00     0.093 A 
ATOM      8  C   UNL     1      -2.066  44.701  -3.061  1.00  0.00     0.123 A 
ATOM      9  C   UNL     1      -2.485  44.845  -1.736  1.00  0.00     0.094 A 
ATOM     10  C   UNL     1      -1.550  44.889  -0.699  1.00  0.00     0.146 A 
ATOM     11  O   UNL     1      -1.976  45.022   0.552  1.00  0.00    -0.452 OA
ENDROOT
BRANCH   1  12
ATOM     12  C   UNL     1      -1.763  45.208   2.947  1.00  0.00     0.025 A 
ATOM     13  C   UNL     1      -1.066  45.903   3.945  1.00  0.00     0.016 A 
ATOM     14  C   UNL     1      -1.622  46.065   5.215  1.00  0.00     0.051 A 
ATOM     15  C   UNL     1      -2.891  45.552   5.509  1.00  0.00     0.157 A 
ATOM     16  C   UNL     1      -3.046  44.711   3.231  1.00  0.00     0.062 A 
ATOM     17  C   UNL     1      -3.615  44.871   4.502  1.00  0.00     0.158 A 
BRANCH  15  18
ATOM     18  O   UNL     1      -3.388  45.741   6.800  1.00  0.00    -0.504 OA
ATOM     19  H   UNL     1      -4.371  45.796   7.025  1.00  0.00     0.293 HD
ENDBRANCH  15  18
BRANCH  17  20
ATOM     20  O   UNL     1      -4.892  44.349   4.715  1.00  0.00    -0.504 OA
ATOM     21  H   UNL     1      -5.199  43.449   4.373  1.00  0.00     0.293 HD
ENDBRANCH  17  20
ENDBRANCH   1  12
BRANCH   2  22
ATOM     22  O   UNL     1       1.101  45.110   2.497  1.00  0.00    -0.502 OA
ATOM     23  H   UNL     1       1.959  45.647   2.454  1.00  0.00     0.293 HD
ENDBRANCH   2  22
BRANCH   6  24
ATOM     24  O   UNL     1       1.607  44.534  -2.647  1.00  0.00    -0.507 OA
ATOM     25  H   UNL     1       2.334  44.742  -1.971  1.00  0.00     0.293 HD
ENDBRANCH   6  24
BRANCH   8  26
ATOM     26  O   UNL     1      -3.015  44.660  -4.080  1.00  0.00    -0.508 OA
ATOM     27  H   UNL     1      -2.824  44.201  -4.963  1.00  0.00     0.293 HD
ENDBRANCH   8  26
TORSDOF 6
ENDMDL
MODEL 4
REMARK VINA RESULT:    -7.306      5.439      7.211
REMARK INTER + INTRA:          -8.963
REMARK INTER:                  -9.018
REMARK INTRA:                   0.054
REMARK UNBOUND:                -0.162
REMARK SMILES O=c1c(O)c(-c2ccc(O)c(O)c2)oc2cc(O)cc(O)c12
REMARK SMILES IDX 5 1 3 2 2 3 1 4 22 5 20 6 19 7 17 8 16 9 15 10 14 11 6 12
REMARK SMILES IDX 7 13 8 14 9 15 13 16 11 17 10 18 12 20 4 22 21 24 18 26
REMARK H PARENT 10 19 12 21 4 23 21 25 18 27
REMARK Flexibility Score: inf
ROOT
ATOM      1  C   UNL     1       6.997  45.986   5.208  1.00  0.00     0.180 A 
ATOM      2  C   UNL     1       7.702  46.326   6.380  1.00  0.00     0.208 A 
ATOM      3  C   UNL     1       7.238  45.843   7.614  1.00  0.00     0.238 A 
ATOM      4  O   UNL     1       7.854  46.150   8.671  1.00  0.00    -0.285 OA
ATOM      5  C   UNL     1       6.096  45.017   7.655  1.00  0.00     0.111 A 
ATOM      6  C   UNL     1       5.568  44.486   8.856  1.00  0.00     0.134 A 
ATOM      7  C   UNL     1       4.432  43.664   8.813  1.00  0.00     0.093 A 
ATOM      8  C   UNL     1       3.818  43.360   7.593  1.00  0.00     0.123 A 
ATOM      9  C   UNL     1       4.335  43.882   6.405  1.00  0.00     0.094 A 
ATOM     10  C   UNL     1       5.465  44.705   6.428  1.00  0.00     0.146 A 
ATOM     11  O   UNL     1       5.934  45.192   5.284  1.00  0.00    -0.452 OA
ENDROOT
BRANCH   1  12
ATOM     12  C   UNL     1       7.413  46.471   3.873  1.00  0.00     0.025 A 
ATOM     13  C   UNL     1       8.750  46.333   3.474  1.00  0.00     0.016 A 
ATOM     14  C   UNL     1       9.160  46.766   2.212  1.00  0.00     0.051 A 
ATOM     15  C   UNL     1       8.242  47.328   1.317  1.00  0.00     0.157 A 
ATOM     16  C   UNL     1       6.484  47.014   2.969  1.00  0.00     0.062 A 
ATOM     17  C   UNL     1       6.885  47.448   1.699  1.00  0.00     0.158 A 
BRANCH  15  18
ATOM     18  O   UNL     1       8.717  47.748   0.073  1.00  0.00    -0.504 OA
ATOM     19  H   UNL     1       8.644  47.201  -0.773  1.00  0.00     0.293 HD
ENDBRANCH  15  18
BRANCH  17  20
ATOM     20  O   UNL     1       5.909  47.981   0.854  1.00  0.00    -0.504 OA
ATOM     21  H   UNL     1       6.064  48.202  -0.120  1.00  0.00     0.293 HD
ENDBRANCH  17  20
ENDBRANCH   1  12
BRANCH   2  22
ATOM     22  O   UNL     1       8.858  47.106   6.307  1.00  0.00    -0.502 OA
ATOM     23  H   UNL     1       9.603  46.912   5.649  1.00  0.00     0.293 HD
ENDBRANCH   2  22
BRANCH   6  24
ATOM     24  O   UNL     1       6.159  44.769  10.088  1.00  0.00    -0.507 OA
ATOM     25  H   UNL     1       6.470  45.704  10.328  1.00  0.00     0.293 HD
ENDBRANCH   6  24
BRANCH   8  26
ATOM     26  O   UNL     1       2.691  42.543   7.549  1.00  0.00    -0.508 OA
ATOM     27  H   UNL     1       1.971  42.594   8.260  1.00  0.00     0.293 HD
ENDBRANCH   8  26
TORSDOF 6
ENDMDL
MODEL 5
REMARK VINA RESULT:    -7.304      1.897      6.785
REMARK INTER + INTRA:          -8.960
REMARK INTER:                  -8.762
REMARK INTRA:                  -0.198
REMARK UNBOUND:                -0.162
REMARK SMILES O=c1c(O)c(-c2ccc(O)c(O)c2)oc2cc(O)cc(O)c12
REMARK SMILES IDX 5 1 3 2 2 3 1 4 22 5 20 6 19 7 17 8 16 9 15 10 14 11 6 12
REMARK SMILES IDX 7 13 8 14 9 15 13 16 11 17 10 18 12 20 4 22 21 24 18 26
REMARK H PARENT 10 19 12 21 4 23 21 25 18 27
REMARK Flexibility Score: inf
ROOT
ATOM      1  C   UNL     1       2.889  45.501   2.725  1.00  0.00     0.180 A 
ATOM      2  C   UNL     1       3.883  46.358   2.214  1.00  0.00     0.208 A 
ATOM      3  C   UNL     1       5.076  46.518   2.936  1.00  0.00     0.238 A 
ATOM      4  O   UNL     1       5.969  47.291   2.495  1.00  0.00    -0.285 OA
ATOM      5  C   UNL     1       5.264  45.808   4.140  1.00  0.00     0.111 A 
ATOM      6  C   UNL     1       6.437  45.910   4.924  1.00  0.00     0.134 A 
ATOM      7  C   UNL     1       6.551  45.163   6.106  1.00  0.00     0.093 A 
ATOM      8  C   UNL     1       5.516  44.316   6.517  1.00  0.00     0.123 A 
ATOM      9  C   UNL     1       4.356  44.213   5.746  1.00  0.00     0.094 A 
ATOM     10  C   UNL     1       4.223  44.949   4.566  1.00  0.00     0.146 A 
ATOM     11  O   UNL     1       3.107  44.836   3.855  1.00  0.00    -0.452 OA
ENDROOT
BRANCH   1  12
ATOM     12  C   UNL     1       1.597  45.295   2.031  1.00  0.00     0.025 A 
ATOM     13  C   UNL     1       1.570  44.589   0.820  1.00  0.00     0.016 A 
ATOM     14  C   UNL     1       0.361  44.366   0.158  1.00  0.00     0.051 A 
ATOM     15  C   UNL     1      -0.844  44.826   0.700  1.00  0.00     0.157 A 
ATOM     16  C   UNL     1       0.387  45.738   2.590  1.00  0.00     0.062 A 
ATOM     17  C   UNL     1      -0.832  45.516   1.935  1.00  0.00     0.158 A 
BRANCH  15  18
ATOM     18  O   UNL     1      -2.018  44.577  -0.015  1.00  0.00    -0.504 OA
ATOM     19  H   UNL     1      -2.846  45.152   0.040  1.00  0.00     0.293 HD
ENDBRANCH  15  18
BRANCH  17  20
ATOM     20  O   UNL     1      -1.995  45.988   2.546  1.00  0.00    -0.504 OA
ATOM     21  H   UNL     1      -2.754  45.395   2.851  1.00  0.00     0.293 HD
ENDBRANCH  17  20
ENDBRANCH   1  12
BRANCH   2  22
ATOM     22  O   UNL     1       3.693  47.012   0.994  1.00  0.00    -0.502 OA
ATOM     23  H   UNL     1       4.339  47.710   0.647  1.00  0.00     0.293 HD
ENDBRANCH   2  22
BRANCH   6  24
ATOM     24  O   UNL     1       7.487  46.746   4.541  1.00  0.00    -0.507 OA
ATOM     25  H   UNL     1       8.452  46.521   4.754  1.00  0.00     0.293 HD
ENDBRANCH   6  24
BRANCH   8  26
ATOM     26  O   UNL     1       5.629  43.573   7.689  1.00  0.00    -0.508 OA
ATOM     27  H   UNL     1       6.002  42.631   7.686  1.00  0.00     0.293 HD
ENDBRANCH   8  26
TORSDOF 6
ENDMDL
MODEL 6
REMARK VINA RESULT:    -7.303      5.708      8.014
REMARK INTER + INTRA:          -8.959
REMARK INTER:                  -8.986
REMARK INTRA:                   0.026
REMARK UNBOUND:                -0.162
REMARK SMILES O=c1c(O)c(-c2ccc(O)c(O)c2)oc2cc(O)cc(O)c12
REMARK SMILES IDX 5 1 3 2 2 3 1 4 22 5 20 6 19 7 17 8 16 9 15 10 14 11 6 12
REMARK SMILES IDX 7 13 8 14 9 15 13 16 11 17 10 18 12 20 4 22 21 24 18 26
REMARK H PARENT 10 19 12 21 4 23 21 25 18 27
REMARK Flexibility Score: inf
ROOT
ATOM      1  C   UNL     1       7.372  46.465   3.688  1.00  0.00     0.180 A 
ATOM      2  C   UNL     1       8.711  46.415   3.251  1.00  0.00     0.208 A 
ATOM      3  C   UNL     1       9.023  46.894   1.969  1.00  0.00     0.238 A 
ATOM      4  O   UNL     1      10.216  46.845   1.562  1.00  0.00    -0.285 OA
ATOM      5  C   UNL     1       8.003  47.430   1.157  1.00  0.00     0.111 A 
ATOM      6  C   UNL     1       8.235  47.938  -0.144  1.00  0.00     0.134 A 
ATOM      7  C   UNL     1       7.167  48.463  -0.886  1.00  0.00     0.093 A 
ATOM      8  C   UNL     1       5.874  48.494  -0.352  1.00  0.00     0.123 A 
ATOM      9  C   UNL     1       5.640  47.994   0.931  1.00  0.00     0.094 A 
ATOM     10  C   UNL     1       6.691  47.464   1.686  1.00  0.00     0.146 A 
ATOM     11  O   UNL     1       6.440  46.991   2.901  1.00  0.00    -0.452 OA
ENDROOT
BRANCH   1  12
ATOM     12  C   UNL     1       6.961  45.961   5.018  1.00  0.00     0.025 A 
ATOM     13  C   UNL     1       7.642  46.401   6.162  1.00  0.00     0.016 A 
ATOM     14  C   UNL     1       7.259  45.955   7.428  1.00  0.00     0.051 A 
ATOM     15  C   UNL     1       6.180  45.077   7.580  1.00  0.00     0.157 A 
ATOM     16  C   UNL     1       5.863  45.098   5.168  1.00  0.00     0.062 A 
ATOM     17  C   UNL     1       5.469  44.647   6.434  1.00  0.00     0.158 A 
BRANCH  15  18
ATOM     18  O   UNL     1       5.852  44.663   8.872  1.00  0.00    -0.504 OA
ATOM     19  H   UNL     1       5.555  43.727   9.107  1.00  0.00     0.293 HD
ENDBRANCH  15  18
BRANCH  17  20
ATOM     20  O   UNL     1       4.371  43.788   6.508  1.00  0.00    -0.504 OA
ATOM     21  H   UNL     1       3.452  44.013   6.154  1.00  0.00     0.293 HD
ENDBRANCH  17  20
ENDBRANCH   1  12
BRANCH   2  22
ATOM     22  O   UNL     1       9.711  45.923   4.093  1.00  0.00    -0.502 OA
ATOM     23  H   UNL     1       9.789  46.203   5.063  1.00  0.00     0.293 HD
ENDBRANCH   2  22
BRANCH   6  24
ATOM     24  O   UNL     1       9.513  47.922  -0.704  1.00  0.00    -0.507 OA
ATOM     25  H   UNL     1       9.871  48.706  -1.238  1.00  0.00     0.293 HD
ENDBRANCH   6  24
BRANCH   8  26
ATOM     26  O   UNL     1       4.814  49.017  -1.088  1.00  0.00    -0.508 OA
ATOM     27  H   UNL     1       3.959  48.493  -1.233  1.00  0.00     0.293 HD
ENDBRANCH   8  26
TORSDOF 6
ENDMDL
MODEL 7
REMARK VINA RESULT:    -6.994      1.526      7.380
REMARK INTER + INTRA:          -8.587
REMARK INTER:                  -8.367
REMARK INTRA:                  -0.220
REMARK UNBOUND:                -0.162
REMARK SMILES O=c1c(O)c(-c2ccc(O)c(O)c2)oc2cc(O)cc(O)c12
REMARK SMILES IDX 5 1 3 2 2 3 1 4 22 5 20 6 19 7 17 8 16 9 15 10 14 11 6 12
REMARK SMILES IDX 7 13 8 14 9 15 13 16 11 17 10 18 12 20 4 22 21 24 18 26
REMARK H PARENT 10 19 12 21 4 23 21 25 18 27
REMARK Flexibility Score: inf
ROOT
ATOM      1  C   UNL     1       2.994  45.916   2.973  1.00  0.00     0.180 A 
ATOM      2  C   UNL     1       3.684  45.272   4.019  1.00  0.00     0.208 A 
ATOM      3  C   UNL     1       5.068  45.473   4.142  1.00  0.00     0.238 A 
ATOM      4  O   UNL     1       5.699  44.894   5.068  1.00  0.00    -0.285 OA
ATOM      5  C   UNL     1       5.733  46.324   3.235  1.00  0.00     0.111 A 
ATOM      6  C   UNL     1       7.124  46.582   3.293  1.00  0.00     0.134 A 
ATOM      7  C   UNL     1       7.709  47.449   2.358  1.00  0.00     0.093 A 
ATOM      8  C   UNL     1       6.932  48.063   1.370  1.00  0.00     0.123 A 
ATOM      9  C   UNL     1       5.560  47.810   1.309  1.00  0.00     0.094 A 
ATOM     10  C   UNL     1       4.958  46.949   2.230  1.00  0.00     0.146 A 
ATOM     11  O   UNL     1       3.651  46.722   2.146  1.00  0.00    -0.452 OA
ENDROOT
BRANCH   1  12
ATOM     12  C   UNL     1       1.539  45.739   2.766  1.00  0.00     0.025 A 
ATOM     13  C   UNL     1       0.638  46.333   3.661  1.00  0.00     0.016 A 
ATOM     14  C   UNL     1      -0.738  46.196   3.475  1.00  0.00     0.051 A 
ATOM     15  C   UNL     1      -1.243  45.479   2.385  1.00  0.00     0.157 A 
ATOM     16  C   UNL     1       1.036  45.037   1.658  1.00  0.00     0.062 A 
ATOM     17  C   UNL     1      -0.344  44.897   1.460  1.00  0.00     0.158 A 
BRANCH  15  18
ATOM     18  O   UNL     1      -2.630  45.373   2.259  1.00  0.00    -0.504 OA
ATOM     19  H   UNL     1      -3.272  46.134   2.423  1.00  0.00     0.293 HD
ENDBRANCH  15  18
BRANCH  17  20
ATOM     20  O   UNL     1      -0.773  44.183   0.339  1.00  0.00    -0.504 OA
ATOM     21  H   UNL     1      -1.448  44.530  -0.328  1.00  0.00     0.293 HD
ENDBRANCH  17  20
ENDBRANCH   1  12
BRANCH   2  22
ATOM     22  O   UNL     1       2.994  44.473   4.934  1.00  0.00    -0.502 OA
ATOM     23  H   UNL     1       2.876  44.738   5.904  1.00  0.00     0.293 HD
ENDBRANCH   2  22
BRANCH   6  24
ATOM     24  O   UNL     1       7.925  45.986   4.267  1.00  0.00    -0.507 OA
ATOM     25  H   UNL     1       8.033  44.980   4.327  1.00  0.00     0.293 HD
ENDBRANCH   6  24
BRANCH   8  26
ATOM     26  O   UNL     1       7.513  48.924   0.443  1.00  0.00    -0.508 OA
ATOM     27  H   UNL     1       7.550  48.695  -0.543  1.00  0.00     0.293 HD
ENDBRANCH   8  26
TORSDOF 6
ENDMDL
MODEL 8
REMARK VINA RESULT:    -6.969      8.331     10.301
REMARK INTER + INTRA:          -8.557
REMARK INTER:                  -8.242
REMARK INTRA:                  -0.315
REMARK UNBOUND:                -0.162
REMARK SMILES O=c1c(O)c(-c2ccc(O)c(O)c2)oc2cc(O)cc(O)c12
REMARK SMILES IDX 5 1 3 2 2 3 1 4 22 5 20 6 19 7 17 8 16 9 15 10 14 11 6 12
REMARK SMILES IDX 7 13 8 14 9 15 13 16 11 17 10 18 12 20 4 22 21 24 18 26
REMARK H PARENT 10 19 12 21 4 23 21 25 18 27
REMARK Flexibility Score: inf
ROOT
ATOM      1  C   UNL     1       5.026  41.326   9.264  1.00  0.00     0.180 A 
ATOM      2  C   UNL     1       5.395  41.094   7.925  1.00  0.00     0.208 A 
ATOM      3  C   UNL     1       5.848  39.817   7.558  1.00  0.00     0.238 A 
ATOM      4  O   UNL     1       6.191  39.601   6.363  1.00  0.00    -0.285 OA
ATOM      5  C   UNL     1       5.906  38.793   8.525  1.00  0.00     0.111 A 
ATOM      6  C   UNL     1       6.345  37.479   8.236  1.00  0.00     0.134 A 
ATOM      7  C   UNL     1       6.365  36.513   9.253  1.00  0.00     0.093 A 
ATOM      8  C   UNL     1       5.952  36.834  10.550  1.00  0.00     0.123 A 
ATOM      9  C   UNL     1       5.518  38.130  10.840  1.00  0.00     0.094 A 
ATOM     10  C   UNL     1       5.492  39.107   9.841  1.00  0.00     0.146 A 
ATOM     11  O   UNL     1       5.080  40.333  10.145  1.00  0.00    -0.452 OA
ENDROOT
BRANCH   1  12
ATOM     12  C   UNL     1       4.558  42.651   9.732  1.00  0.00     0.025 A 
ATOM     13  C   UNL     1       5.497  43.632  10.079  1.00  0.00     0.016 A 
ATOM     14  C   UNL     1       5.079  44.894  10.504  1.00  0.00     0.051 A 
ATOM     15  C   UNL     1       3.717  45.207  10.575  1.00  0.00     0.157 A 
ATOM     16  C   UNL     1       3.190  42.969   9.781  1.00  0.00     0.062 A 
ATOM     17  C   UNL     1       2.759  44.233  10.202  1.00  0.00     0.158 A 
BRANCH  15  18
ATOM     18  O   UNL     1       3.363  46.484  11.014  1.00  0.00    -0.504 OA
ATOM     19  H   UNL     1       3.061  47.229  10.403  1.00  0.00     0.293 HD
ENDBRANCH  15  18
BRANCH  17  20
ATOM     20  O   UNL     1       1.386  44.479  10.229  1.00  0.00    -0.504 OA
ATOM     21  H   UNL     1       0.774  44.361   9.433  1.00  0.00     0.293 HD
ENDBRANCH  17  20
ENDBRANCH   1  12
BRANCH   2  22
ATOM     22  O   UNL     1       5.283  42.113   6.975  1.00  0.00    -0.502 OA
ATOM     23  H   UNL     1       5.752  42.073   6.079  1.00  0.00     0.293 HD
ENDBRANCH   2  22
BRANCH   6  24
ATOM     24  O   UNL     1       6.762  37.127   6.951  1.00  0.00    -0.507 OA
ATOM     25  H   UNL     1       6.661  37.759   6.166  1.00  0.00     0.293 HD
ENDBRANCH   6  24
BRANCH   8  26
ATOM     26  O   UNL     1       5.970  35.875  11.560  1.00  0.00    -0.508 OA
ATOM     27  H   UNL     1       5.181  35.745  12.182  1.00  0.00     0.293 HD
ENDBRANCH   8  26
TORSDOF 6
ENDMDL
MODEL 9
REMARK VINA RESULT:    -6.760      8.396     10.099
REMARK INTER + INTRA:          -8.306
REMARK INTER:                  -8.002
REMARK INTRA:                  -0.304
REMARK UNBOUND:                -0.162
REMARK SMILES O=c1c(O)c(-c2ccc(O)c(O)c2)oc2cc(O)cc(O)c12
REMARK SMILES IDX 5 1 3 2 2 3 1 4 22 5 20 6 19 7 17 8 16 9 15 10 14 11 6 12
REMARK SMILES IDX 7 13 8 14 9 15 13 16 11 17 10 18 12 20 4 22 21 24 18 26
REMARK H PARENT 10 19 12 21 4 23 21 25 18 27
REMARK Flexibility Score: inf
ROOT
ATOM      1  C   UNL     1       9.253  47.512  -1.923  1.00  0.00     0.180 A 
ATOM      2  C   UNL     1       7.914  47.931  -1.788  1.00  0.00     0.208 A 
ATOM      3  C   UNL     1       6.997  47.602  -2.798  1.00  0.00     0.238 A 
ATOM      4  O   UNL     1       5.798  47.981  -2.694  1.00  0.00    -0.285 OA
ATOM      5  C   UNL     1       7.423  46.848  -3.911  1.00  0.00     0.111 A 
ATOM      6  C   UNL     1       6.561  46.471  -4.968  1.00  0.00     0.134 A 
ATOM      7  C   UNL     1       7.061  45.712  -6.036  1.00  0.00     0.093 A 
ATOM      8  C   UNL     1       8.404  45.319  -6.065  1.00  0.00     0.123 A 
ATOM      9  C   UNL     1       9.258  45.689  -5.024  1.00  0.00     0.094 A 
ATOM     10  C   UNL     1       8.780  46.447  -3.952  1.00  0.00     0.146 A 
ATOM     11  O   UNL     1       9.616  46.789  -2.978  1.00  0.00    -0.452 OA
ENDROOT
BRANCH   1  12
ATOM     12  C   UNL     1      10.283  47.835  -0.910  1.00  0.00     0.025 A 
ATOM     13  C   UNL     1      11.107  48.954  -1.098  1.00  0.00     0.016 A 
ATOM     14  C   UNL     1      12.072  49.289  -0.147  1.00  0.00     0.051 A 
ATOM     15  C   UNL     1      12.222  48.527   1.017  1.00  0.00     0.157 A 
ATOM     16  C   UNL     1      10.415  47.081   0.268  1.00  0.00     0.062 A 
ATOM     17  C   UNL     1      11.377  47.412   1.231  1.00  0.00     0.158 A 
BRANCH  15  18
ATOM     18  O   UNL     1      13.210  48.912   1.926  1.00  0.00    -0.504 OA
ATOM     19  H   UNL     1      14.201  48.827   1.752  1.00  0.00     0.293 HD
ENDBRANCH  15  18
BRANCH  17  20
ATOM     20  O   UNL     1      11.455  46.617   2.375  1.00  0.00    -0.504 OA
ATOM     21  H   UNL     1      10.659  46.370   2.948  1.00  0.00     0.293 HD
ENDBRANCH  17  20
ENDBRANCH   1  12
BRANCH   2  22
ATOM     22  O   UNL     1       7.506  48.635  -0.653  1.00  0.00    -0.502 OA
ATOM     23  H   UNL     1       8.162  48.976   0.039  1.00  0.00     0.293 HD
ENDBRANCH   2  22
BRANCH   6  24
ATOM     24  O   UNL     1       5.217  46.846  -4.967  1.00  0.00    -0.507 OA
ATOM     25  H   UNL     1       4.931  47.807  -5.116  1.00  0.00     0.293 HD
ENDBRANCH   6  24
BRANCH   8  26
ATOM     26  O   UNL     1       8.900  44.564  -7.125  1.00  0.00    -0.508 OA
ATOM     27  H   UNL     1       9.884  44.570  -7.365  1.00  0.00     0.293 HD
ENDBRANCH   8  26
TORSDOF 6
ENDMDL
