MODEL 1
REMARK VINA RESULT:    -5.510      0.000      0.000
REMARK INTER + INTRA:          -6.971
REMARK INTER:                  -6.638
REMARK INTRA:                  -0.333
REMARK UNBOUND:                -0.333
REMARK SMILES O=c1c(O)c(-c2ccc(O)c(O)c2)oc2cc(O)cc(O)c12
REMARK SMILES IDX 5 1 3 2 2 3 1 4 22 5 20 6 19 7 17 8 16 9 15 10 14 11 6 12
REMARK SMILES IDX 7 13 8 14 9 15 13 16 11 17 10 18 12 20 4 22 21 24 18 26
REMARK H PARENT 10 19 12 21 4 23 21 25 18 27
REMARK Flexibility Score: inf
ROOT
ATOM      1  C   UNL     1    -105.052 187.800  50.950  1.00  0.00     0.180 A 
ATOM      2  C   UNL     1    -105.438 186.487  51.268  1.00  0.00     0.208 A 
ATOM      3  C   UNL     1    -104.615 185.420  50.872  1.00  0.00     0.238 A 
ATOM      4  O   UNL     1    -104.993 184.243  51.112  1.00  0.00    -0.285 OA
ATOM      5  C   UNL     1    -103.409 185.680  50.177  1.00  0.00     0.111 A 
ATOM      6  C   UNL     1    -102.480 184.680  49.763  1.00  0.00     0.134 A 
ATOM      7  C   UNL     1    -101.385 185.041  48.968  1.00  0.00     0.093 A 
ATOM      8  C   UNL     1    -101.150 186.375  48.628  1.00  0.00     0.123 A 
ATOM      9  C   UNL     1    -102.019 187.366  49.077  1.00  0.00     0.094 A 
ATOM     10  C   UNL     1    -103.141 187.033  49.841  1.00  0.00     0.146 A 
ATOM     11  O   UNL     1    -103.948 188.008  50.240  1.00  0.00    -0.452 OA
ENDROOT
BRANCH   1  12
ATOM     12  C   UNL     1    -105.854 188.977  51.355  1.00  0.00     0.025 A 
ATOM     13  C   UNL     1    -106.776 189.529  50.452  1.00  0.00     0.016 A 
ATOM     14  C   UNL     1    -107.528 190.652  50.805  1.00  0.00     0.051 A 
ATOM     15  C   UNL     1    -107.359 191.250  52.058  1.00  0.00     0.157 A 
ATOM     16  C   UNL     1    -105.671 189.592  52.606  1.00  0.00     0.062 A 
ATOM     17  C   UNL     1    -106.423 190.721  52.963  1.00  0.00     0.158 A 
BRANCH  15  18
ATOM     18  O   UNL     1    -108.125 192.368  52.384  1.00  0.00    -0.504 OA
ATOM     19  H   UNL     1    -108.238 193.148  51.746  1.00  0.00     0.293 HD
ENDBRANCH  15  18
BRANCH  17  20
ATOM     20  O   UNL     1    -106.240 191.321  54.208  1.00  0.00    -0.504 OA
ATOM     21  H   UNL     1    -106.018 192.305  54.295  1.00  0.00     0.293 HD
ENDBRANCH  17  20
ENDBRANCH   1  12
BRANCH   2  22
ATOM     22  O   UNL     1    -106.643 186.250  51.935  1.00  0.00    -0.502 OA
ATOM     23  H   UNL     1    -107.537 186.551  51.567  1.00  0.00     0.293 HD
ENDBRANCH   2  22
BRANCH   6  24
ATOM     24  O   UNL     1    -102.571 183.333  50.126  1.00  0.00    -0.507 OA
ATOM     25  H   UNL     1    -102.863 183.000  51.032  1.00  0.00     0.293 HD
ENDBRANCH   6  24
BRANCH   8  26
ATOM     26  O   UNL     1    -100.050 186.727  47.849  1.00  0.00    -0.508 OA
ATOM     27  H   UNL     1     -99.640 186.079  47.188  1.00  0.00     0.293 HD
ENDBRANCH   8  26
TORSDOF 6
ENDMDL
MODEL 2
REMARK VINA RESULT:    -5.378      1.325      1.729
REMARK INTER + INTRA:          -6.811
REMARK INTER:                  -6.477
REMARK INTRA:                  -0.334
REMARK UNBOUND:                -0.333
REMARK SMILES O=c1c(O)c(-c2ccc(O)c(O)c2)oc2cc(O)cc(O)c12
REMARK SMILES IDX 5 1 3 2 2 3 1 4 22 5 20 6 19 7 17 8 16 9 15 10 14 11 6 12
REMARK SMILES IDX 7 13 8 14 9 15 13 16 11 17 10 18 12 20 4 22 21 24 18 26
REMARK H PARENT 10 19 12 21 4 23 21 25 18 27
REMARK Flexibility Score: inf
ROOT
ATOM      1  C   UNL     1    -105.647 187.243  50.138  1.00  0.00     0.180 A 
ATOM      2  C   UNL     1    -105.856 186.101  50.931  1.00  0.00     0.208 A 
ATOM      3  C   UNL     1    -104.822 185.161  51.059  1.00  0.00     0.238 A 
ATOM      4  O   UNL     1    -105.034 184.114  51.726  1.00  0.00    -0.285 OA
ATOM      5  C   UNL     1    -103.584 185.382  50.406  1.00  0.00     0.111 A 
ATOM      6  C   UNL     1    -102.453 184.517  50.499  1.00  0.00     0.134 A 
ATOM      7  C   UNL     1    -101.326 184.766  49.706  1.00  0.00     0.093 A 
ATOM      8  C   UNL     1    -101.264 185.887  48.875  1.00  0.00     0.123 A 
ATOM      9  C   UNL     1    -102.340 186.769  48.822  1.00  0.00     0.094 A 
ATOM     10  C   UNL     1    -103.493 186.528  49.573  1.00  0.00     0.146 A 
ATOM     11  O   UNL     1    -104.499 187.389  49.486  1.00  0.00    -0.452 OA
ENDROOT
BRANCH   1  12
ATOM     12  C   UNL     1    -106.681 188.290  49.975  1.00  0.00     0.025 A 
ATOM     13  C   UNL     1    -107.543 188.244  48.869  1.00  0.00     0.016 A 
ATOM     14  C   UNL     1    -108.512 189.233  48.684  1.00  0.00     0.051 A 
ATOM     15  C   UNL     1    -108.624 190.290  49.592  1.00  0.00     0.157 A 
ATOM     16  C   UNL     1    -106.782 189.365  50.876  1.00  0.00     0.062 A 
ATOM     17  C   UNL     1    -107.753 190.361  50.692  1.00  0.00     0.158 A 
BRANCH  15  18
ATOM     18  O   UNL     1    -109.602 191.262  49.383  1.00  0.00    -0.504 OA
ATOM     19  H   UNL     1    -110.250 191.540  50.112  1.00  0.00     0.293 HD
ENDBRANCH  15  18
BRANCH  17  20
ATOM     20  O   UNL     1    -107.850 191.420  51.593  1.00  0.00    -0.504 OA
ATOM     21  H   UNL     1    -108.158 192.339  51.300  1.00  0.00     0.293 HD
ENDBRANCH  17  20
ENDBRANCH   1  12
BRANCH   2  22
ATOM     22  O   UNL     1    -107.092 185.892  51.549  1.00  0.00    -0.502 OA
ATOM     23  H   UNL     1    -107.242 186.058  52.537  1.00  0.00     0.293 HD
ENDBRANCH   2  22
BRANCH   6  24
ATOM     24  O   UNL     1    -102.377 183.423  51.367  1.00  0.00    -0.507 OA
ATOM     25  H   UNL     1    -101.519 182.977  51.654  1.00  0.00     0.293 HD
ENDBRANCH   6  24
BRANCH   8  26
ATOM     26  O   UNL     1    -100.132 186.136  48.101  1.00  0.00    -0.508 OA
ATOM     27  H   UNL     1     -99.321 186.606  48.484  1.00  0.00     0.293 HD
ENDBRANCH   8  26
TORSDOF 6
ENDMDL
MODEL 3
REMARK VINA RESULT:    -5.340      1.860      2.565
REMARK INTER + INTRA:          -6.765
REMARK INTER:                  -6.449
REMARK INTRA:                  -0.316
REMARK UNBOUND:                -0.333
REMARK SMILES O=c1c(O)c(-c2ccc(O)c(O)c2)oc2cc(O)cc(O)c12
REMARK SMILES IDX 5 1 3 2 2 3 1 4 22 5 20 6 19 7 17 8 16 9 15 10 14 11 6 12
REMARK SMILES IDX 7 13 8 14 9 15 13 16 11 17 10 18 12 20 4 22 21 24 18 26
REMARK H PARENT 10 19 12 21 4 23 21 25 18 27
REMARK Flexibility Score: inf
ROOT
ATOM      1  C   UNL     1    -105.685 187.137  50.039  1.00  0.00     0.180 A 
ATOM      2  C   UNL     1    -105.869 186.002  50.847  1.00  0.00     0.208 A 
ATOM      3  C   UNL     1    -104.809 185.096  51.001  1.00  0.00     0.238 A 
ATOM      4  O   UNL     1    -104.997 184.054  51.682  1.00  0.00    -0.285 OA
ATOM      5  C   UNL     1    -103.571 185.343  50.359  1.00  0.00     0.111 A 
ATOM      6  C   UNL     1    -102.416 184.514  50.478  1.00  0.00     0.134 A 
ATOM      7  C   UNL     1    -101.287 184.784  49.694  1.00  0.00     0.093 A 
ATOM      8  C   UNL     1    -101.250 185.893  48.845  1.00  0.00     0.123 A 
ATOM      9  C   UNL     1    -102.351 186.742  48.767  1.00  0.00     0.094 A 
ATOM     10  C   UNL     1    -103.504 186.478  49.509  1.00  0.00     0.146 A 
ATOM     11  O   UNL     1    -104.534 187.308  49.397  1.00  0.00    -0.452 OA
ENDROOT
BRANCH   1  12
ATOM     12  C   UNL     1    -106.747 188.150  49.848  1.00  0.00     0.025 A 
ATOM     13  C   UNL     1    -106.800 189.266  50.698  1.00  0.00     0.016 A 
ATOM     14  C   UNL     1    -107.807 190.223  50.549  1.00  0.00     0.051 A 
ATOM     15  C   UNL     1    -108.784 190.072  49.560  1.00  0.00     0.157 A 
ATOM     16  C   UNL     1    -107.744 187.990  48.869  1.00  0.00     0.062 A 
ATOM     17  C   UNL     1    -108.757 188.949  48.718  1.00  0.00     0.158 A 
BRANCH  15  18
ATOM     18  O   UNL     1    -109.775 191.045  49.434  1.00  0.00    -0.504 OA
ATOM     19  H   UNL     1    -109.942 191.740  50.152  1.00  0.00     0.293 HD
ENDBRANCH  15  18
BRANCH  17  20
ATOM     20  O   UNL     1    -109.737 188.785  47.740  1.00  0.00    -0.504 OA
ATOM     21  H   UNL     1    -109.496 188.640  46.767  1.00  0.00     0.293 HD
ENDBRANCH  17  20
ENDBRANCH   1  12
BRANCH   2  22
ATOM     22  O   UNL     1    -107.106 185.766  51.455  1.00  0.00    -0.502 OA
ATOM     23  H   UNL     1    -107.222 185.741  52.461  1.00  0.00     0.293 HD
ENDBRANCH   2  22
BRANCH   6  24
ATOM     24  O   UNL     1    -102.317 183.437  51.364  1.00  0.00    -0.507 OA
ATOM     25  H   UNL     1    -102.005 182.512  51.111  1.00  0.00     0.293 HD
ENDBRANCH   6  24
BRANCH   8  26
ATOM     26  O   UNL     1    -100.117 186.164  48.080  1.00  0.00    -0.508 OA
ATOM     27  H   UNL     1    -100.183 186.623  47.179  1.00  0.00     0.293 HD
ENDBRANCH   8  26
TORSDOF 6
ENDMDL
MODEL 4
REMARK VINA RESULT:    -5.099      1.805      6.948
REMARK INTER + INTRA:          -6.475
REMARK INTER:                  -6.150
REMARK INTRA:                  -0.325
REMARK UNBOUND:                -0.333
REMARK SMILES O=c1c(O)c(-c2ccc(O)c(O)c2)oc2cc(O)cc(O)c12
REMARK SMILES IDX 5 1 3 2 2 3 1 4 22 5 20 6 19 7 17 8 16 9 15 10 14 11 6 12
REMARK SMILES IDX 7 13 8 14 9 15 13 16 11 17 10 18 12 20 4 22 21 24 18 26
REMARK H PARENT 10 19 12 21 4 23 21 25 18 27
REMARK Flexibility Score: inf
ROOT
ATOM      1  C   UNL     1    -105.341 187.920  50.264  1.00  0.00     0.180 A 
ATOM      2  C   UNL     1    -106.420 188.090  49.379  1.00  0.00     0.208 A 
ATOM      3  C   UNL     1    -107.161 189.281  49.429  1.00  0.00     0.238 A 
ATOM      4  O   UNL     1    -108.158 189.406  48.671  1.00  0.00    -0.285 OA
ATOM      5  C   UNL     1    -106.805 190.295  50.352  1.00  0.00     0.111 A 
ATOM      6  C   UNL     1    -107.460 191.557  50.462  1.00  0.00     0.134 A 
ATOM      7  C   UNL     1    -107.107 192.431  51.499  1.00  0.00     0.093 A 
ATOM      8  C   UNL     1    -106.078 192.114  52.388  1.00  0.00     0.123 A 
ATOM      9  C   UNL     1    -105.393 190.909  52.252  1.00  0.00     0.094 A 
ATOM     10  C   UNL     1    -105.746 190.001  51.251  1.00  0.00     0.146 A 
ATOM     11  O   UNL     1    -105.073 188.861  51.163  1.00  0.00    -0.452 OA
ENDROOT
BRANCH   1  12
ATOM     12  C   UNL     1    -104.499 186.703  50.255  1.00  0.00     0.025 A 
ATOM     13  C   UNL     1    -104.861 185.605  51.050  1.00  0.00     0.016 A 
ATOM     14  C   UNL     1    -104.069 184.454  51.073  1.00  0.00     0.051 A 
ATOM     15  C   UNL     1    -102.896 184.389  50.314  1.00  0.00     0.157 A 
ATOM     16  C   UNL     1    -103.308 186.643  49.509  1.00  0.00     0.062 A 
ATOM     17  C   UNL     1    -102.510 185.490  49.531  1.00  0.00     0.158 A 
BRANCH  15  18
ATOM     18  O   UNL     1    -102.127 183.227  50.355  1.00  0.00    -0.504 OA
ATOM     19  H   UNL     1    -101.122 183.250  50.491  1.00  0.00     0.293 HD
ENDBRANCH  15  18
BRANCH  17  20
ATOM     20  O   UNL     1    -101.334 185.436  48.784  1.00  0.00    -0.504 OA
ATOM     21  H   UNL     1    -101.301 185.755  47.823  1.00  0.00     0.293 HD
ENDBRANCH  17  20
ENDBRANCH   1  12
BRANCH   2  22
ATOM     22  O   UNL     1    -106.767 187.069  48.490  1.00  0.00    -0.502 OA
ATOM     23  H   UNL     1    -106.954 187.241  47.509  1.00  0.00     0.293 HD
ENDBRANCH   2  22
BRANCH   6  24
ATOM     24  O   UNL     1    -108.437 192.010  49.570  1.00  0.00    -0.507 OA
ATOM     25  H   UNL     1    -108.245 192.472  48.694  1.00  0.00     0.293 HD
ENDBRANCH   6  24
BRANCH   8  26
ATOM     26  O   UNL     1    -105.723 192.995  53.407  1.00  0.00    -0.508 OA
ATOM     27  H   UNL     1    -105.871 192.765  54.383  1.00  0.00     0.293 HD
ENDBRANCH   8  26
TORSDOF 6
ENDMDL
MODEL 5
REMARK VINA RESULT:    -5.043      3.547      5.607
REMARK INTER + INTRA:          -6.408
REMARK INTER:                  -6.114
REMARK INTRA:                  -0.294
REMARK UNBOUND:                -0.333
REMARK SMILES O=c1c(O)c(-c2ccc(O)c(O)c2)oc2cc(O)cc(O)c12
REMARK SMILES IDX 5 1 3 2 2 3 1 4 22 5 20 6 19 7 17 8 16 9 15 10 14 11 6 12
REMARK SMILES IDX 7 13 8 14 9 15 13 16 11 17 10 18 12 20 4 22 21 24 18 26
REMARK H PARENT 10 19 12 21 4 23 21 25 18 27
REMARK Flexibility Score: inf
ROOT
ATOM      1  C   UNL     1    -105.440 184.331  52.168  1.00  0.00     0.180 A 
ATOM      2  C   UNL     1    -106.452 185.019  51.477  1.00  0.00     0.208 A 
ATOM      3  C   UNL     1    -106.134 185.671  50.275  1.00  0.00     0.238 A 
ATOM      4  O   UNL     1    -107.032 186.330  49.689  1.00  0.00    -0.285 OA
ATOM      5  C   UNL     1    -104.812 185.614  49.771  1.00  0.00     0.111 A 
ATOM      6  C   UNL     1    -104.386 186.203  48.543  1.00  0.00     0.134 A 
ATOM      7  C   UNL     1    -103.026 186.196  48.208  1.00  0.00     0.093 A 
ATOM      8  C   UNL     1    -102.087 185.563  49.024  1.00  0.00     0.123 A 
ATOM      9  C   UNL     1    -102.501 184.933  50.195  1.00  0.00     0.094 A 
ATOM     10  C   UNL     1    -103.845 184.955  50.575  1.00  0.00     0.146 A 
ATOM     11  O   UNL     1    -104.195 184.351  51.704  1.00  0.00    -0.452 OA
ENDROOT
BRANCH   1  12
ATOM     12  C   UNL     1    -105.703 183.599  53.428  1.00  0.00     0.025 A 
ATOM     13  C   UNL     1    -106.300 182.329  53.378  1.00  0.00     0.016 A 
ATOM     14  C   UNL     1    -106.577 181.630  54.556  1.00  0.00     0.051 A 
ATOM     15  C   UNL     1    -106.277 182.195  55.799  1.00  0.00     0.157 A 
ATOM     16  C   UNL     1    -105.422 184.173  54.680  1.00  0.00     0.062 A 
ATOM     17  C   UNL     1    -105.701 183.474  55.864  1.00  0.00     0.158 A 
BRANCH  15  18
ATOM     18  O   UNL     1    -106.563 181.472  56.958  1.00  0.00    -0.504 OA
ATOM     19  H   UNL     1    -107.451 181.556  57.439  1.00  0.00     0.293 HD
ENDBRANCH  15  18
BRANCH  17  20
ATOM     20  O   UNL     1    -105.413 184.048  57.102  1.00  0.00    -0.504 OA
ATOM     21  H   UNL     1    -104.728 184.789  57.196  1.00  0.00     0.293 HD
ENDBRANCH  17  20
ENDBRANCH   1  12
BRANCH   2  22
ATOM     22  O   UNL     1    -107.745 185.080  52.003  1.00  0.00    -0.502 OA
ATOM     23  H   UNL     1    -108.064 185.853  52.575  1.00  0.00     0.293 HD
ENDBRANCH   2  22
BRANCH   6  24
ATOM     24  O   UNL     1    -105.256 186.780  47.612  1.00  0.00    -0.507 OA
ATOM     25  H   UNL     1    -105.477 186.385  46.711  1.00  0.00     0.293 HD
ENDBRANCH   6  24
BRANCH   8  26
ATOM     26  O   UNL     1    -100.738 185.547  48.676  1.00  0.00    -0.508 OA
ATOM     27  H   UNL     1    -100.213 184.682  48.627  1.00  0.00     0.293 HD
ENDBRANCH   8  26
TORSDOF 6
ENDMDL
MODEL 6
REMARK VINA RESULT:    -5.010      2.904      6.504
REMARK INTER + INTRA:          -6.367
REMARK INTER:                  -6.103
REMARK INTRA:                  -0.265
REMARK UNBOUND:                -0.333
REMARK SMILES O=c1c(O)c(-c2ccc(O)c(O)c2)oc2cc(O)cc(O)c12
REMARK SMILES IDX 5 1 3 2 2 3 1 4 22 5 20 6 19 7 17 8 16 9 15 10 14 11 6 12
REMARK SMILES IDX 7 13 8 14 9 15 13 16 11 17 10 18 12 20 4 22 21 24 18 26
REMARK H PARENT 10 19 12 21 4 23 21 25 18 27
REMARK Flexibility Score: inf
ROOT
ATOM      1  C   UNL     1    -104.851 185.909  50.666  1.00  0.00     0.180 A 
ATOM      2  C   UNL     1    -106.028 186.638  50.424  1.00  0.00     0.208 A 
ATOM      3  C   UNL     1    -107.161 186.385  51.214  1.00  0.00     0.238 A 
ATOM      4  O   UNL     1    -108.227 187.004  50.957  1.00  0.00    -0.285 OA
ATOM      5  C   UNL     1    -107.099 185.418  52.246  1.00  0.00     0.111 A 
ATOM      6  C   UNL     1    -108.173 185.109  53.133  1.00  0.00     0.134 A 
ATOM      7  C   UNL     1    -108.043 184.042  54.031  1.00  0.00     0.093 A 
ATOM      8  C   UNL     1    -106.852 183.317  54.118  1.00  0.00     0.123 A 
ATOM      9  C   UNL     1    -105.778 183.649  53.298  1.00  0.00     0.094 A 
ATOM     10  C   UNL     1    -105.889 184.684  52.367  1.00  0.00     0.146 A 
ATOM     11  O   UNL     1    -104.844 184.962  51.598  1.00  0.00    -0.452 OA
ENDROOT
BRANCH   1  12
ATOM     12  C   UNL     1    -103.610 186.136  49.892  1.00  0.00     0.025 A 
ATOM     13  C   UNL     1    -103.169 185.156  48.989  1.00  0.00     0.016 A 
ATOM     14  C   UNL     1    -101.989 185.341  48.264  1.00  0.00     0.051 A 
ATOM     15  C   UNL     1    -101.224 186.498  48.442  1.00  0.00     0.157 A 
ATOM     16  C   UNL     1    -102.828 187.289  50.085  1.00  0.00     0.062 A 
ATOM     17  C   UNL     1    -101.642 187.476  49.359  1.00  0.00     0.158 A 
BRANCH  15  18
ATOM     18  O   UNL     1    -100.052 186.656  47.703  1.00  0.00    -0.504 OA
ATOM     19  H   UNL     1    -100.030 186.538  46.696  1.00  0.00     0.293 HD
ENDBRANCH  15  18
BRANCH  17  20
ATOM     20  O   UNL     1    -100.876 188.625  49.551  1.00  0.00    -0.504 OA
ATOM     21  H   UNL     1    -100.007 188.773  49.054  1.00  0.00     0.293 HD
ENDBRANCH  17  20
ENDBRANCH   1  12
BRANCH   2  22
ATOM     22  O   UNL     1    -106.073 187.574  49.387  1.00  0.00    -0.502 OA
ATOM     23  H   UNL     1    -106.917 187.760  48.858  1.00  0.00     0.293 HD
ENDBRANCH   2  22
BRANCH   6  24
ATOM     24  O   UNL     1    -109.369 185.831  53.190  1.00  0.00    -0.507 OA
ATOM     25  H   UNL     1    -109.671 186.499  52.498  1.00  0.00     0.293 HD
ENDBRANCH   6  24
BRANCH   8  26
ATOM     26  O   UNL     1    -106.726 182.266  55.026  1.00  0.00    -0.508 OA
ATOM     27  H   UNL     1    -106.057 182.301  55.786  1.00  0.00     0.293 HD
ENDBRANCH   8  26
TORSDOF 6
ENDMDL
MODEL 7
REMARK VINA RESULT:    -4.819      3.229      6.996
REMARK INTER + INTRA:          -6.139
REMARK INTER:                  -5.804
REMARK INTRA:                  -0.335
REMARK UNBOUND:                -0.333
REMARK SMILES O=c1c(O)c(-c2ccc(O)c(O)c2)oc2cc(O)cc(O)c12
REMARK SMILES IDX 5 1 3 2 2 3 1 4 22 5 20 6 19 7 17 8 16 9 15 10 14 11 6 12
REMARK SMILES IDX 7 13 8 14 9 15 13 16 11 17 10 18 12 20 4 22 21 24 18 26
REMARK H PARENT 10 19 12 21 4 23 21 25 18 27
REMARK Flexibility Score: inf
ROOT
ATOM      1  C   UNL     1    -105.767 185.119  50.374  1.00  0.00     0.180 A 
ATOM      2  C   UNL     1    -106.379 185.971  51.309  1.00  0.00     0.208 A 
ATOM      3  C   UNL     1    -107.695 185.703  51.717  1.00  0.00     0.238 A 
ATOM      4  O   UNL     1    -108.256 186.500  52.514  1.00  0.00    -0.285 OA
ATOM      5  C   UNL     1    -108.379 184.577  51.197  1.00  0.00     0.111 A 
ATOM      6  C   UNL     1    -109.699 184.186  51.570  1.00  0.00     0.134 A 
ATOM      7  C   UNL     1    -110.325 183.131  50.895  1.00  0.00     0.093 A 
ATOM      8  C   UNL     1    -109.651 182.410  49.906  1.00  0.00     0.123 A 
ATOM      9  C   UNL     1    -108.341 182.745  49.576  1.00  0.00     0.094 A 
ATOM     10  C   UNL     1    -107.703 183.817  50.206  1.00  0.00     0.146 A 
ATOM     11  O   UNL     1    -106.457 184.109  49.855  1.00  0.00    -0.452 OA
ENDROOT
BRANCH   1  12
ATOM     12  C   UNL     1    -104.375 185.322  49.914  1.00  0.00     0.025 A 
ATOM     13  C   UNL     1    -104.133 186.064  48.747  1.00  0.00     0.016 A 
ATOM     14  C   UNL     1    -102.829 186.251  48.284  1.00  0.00     0.051 A 
ATOM     15  C   UNL     1    -101.748 185.687  48.969  1.00  0.00     0.157 A 
ATOM     16  C   UNL     1    -103.289 184.738  50.590  1.00  0.00     0.062 A 
ATOM     17  C   UNL     1    -101.978 184.923  50.126  1.00  0.00     0.158 A 
BRANCH  15  18
ATOM     18  O   UNL     1    -100.457 185.892  48.484  1.00  0.00    -0.504 OA
ATOM     19  H   UNL     1     -99.857 186.625  48.845  1.00  0.00     0.293 HD
ENDBRANCH  15  18
BRANCH  17  20
ATOM     20  O   UNL     1    -100.906 184.346  50.805  1.00  0.00    -0.504 OA
ATOM     21  H   UNL     1    -101.028 183.896  51.704  1.00  0.00     0.293 HD
ENDBRANCH  17  20
ENDBRANCH   1  12
BRANCH   2  22
ATOM     22  O   UNL     1    -105.694 187.089  51.794  1.00  0.00    -0.502 OA
ATOM     23  H   UNL     1    -105.791 188.008  51.379  1.00  0.00     0.293 HD
ENDBRANCH   2  22
BRANCH   6  24
ATOM     24  O   UNL     1    -110.424 184.780  52.608  1.00  0.00    -0.507 OA
ATOM     25  H   UNL     1    -110.177 185.648  53.058  1.00  0.00     0.293 HD
ENDBRANCH   6  24
BRANCH   8  26
ATOM     26  O   UNL     1    -110.276 181.351  49.249  1.00  0.00    -0.508 OA
ATOM     27  H   UNL     1    -111.256 181.141  49.396  1.00  0.00     0.293 HD
ENDBRANCH   8  26
TORSDOF 6
ENDMDL
MODEL 8
REMARK VINA RESULT:    -4.769      2.644      6.780
REMARK INTER + INTRA:          -6.078
REMARK INTER:                  -5.743
REMARK INTRA:                  -0.335
REMARK UNBOUND:                -0.333
REMARK SMILES O=c1c(O)c(-c2ccc(O)c(O)c2)oc2cc(O)cc(O)c12
REMARK SMILES IDX 5 1 3 2 2 3 1 4 22 5 20 6 19 7 17 8 16 9 15 10 14 11 6 12
REMARK SMILES IDX 7 13 8 14 9 15 13 16 11 17 10 18 12 20 4 22 21 24 18 26
REMARK H PARENT 10 19 12 21 4 23 21 25 18 27
REMARK Flexibility Score: inf
ROOT
ATOM      1  C   UNL     1    -105.287 186.716  50.745  1.00  0.00     0.180 A 
ATOM      2  C   UNL     1    -106.424 187.113  50.019  1.00  0.00     0.208 A 
ATOM      3  C   UNL     1    -107.632 187.318  50.703  1.00  0.00     0.238 A 
ATOM      4  O   UNL     1    -108.659 187.621  50.040  1.00  0.00    -0.285 OA
ATOM      5  C   UNL     1    -107.687 187.139  52.107  1.00  0.00     0.111 A 
ATOM      6  C   UNL     1    -108.847 187.359  52.908  1.00  0.00     0.134 A 
ATOM      7  C   UNL     1    -108.821 187.024  54.267  1.00  0.00     0.093 A 
ATOM      8  C   UNL     1    -107.656 186.542  54.868  1.00  0.00     0.123 A 
ATOM      9  C   UNL     1    -106.501 186.381  54.107  1.00  0.00     0.094 A 
ATOM     10  C   UNL     1    -106.506 186.670  52.740  1.00  0.00     0.146 A 
ATOM     11  O   UNL     1    -105.386 186.493  52.050  1.00  0.00    -0.452 OA
ENDROOT
BRANCH   1  12
ATOM     12  C   UNL     1    -103.973 186.505  50.098  1.00  0.00     0.025 A 
ATOM     13  C   UNL     1    -103.614 185.219  49.664  1.00  0.00     0.016 A 
ATOM     14  C   UNL     1    -102.370 184.993  49.070  1.00  0.00     0.051 A 
ATOM     15  C   UNL     1    -101.461 186.043  48.914  1.00  0.00     0.157 A 
ATOM     16  C   UNL     1    -103.048 187.555  49.959  1.00  0.00     0.062 A 
ATOM     17  C   UNL     1    -101.798 187.330  49.364  1.00  0.00     0.158 A 
BRANCH  15  18
ATOM     18  O   UNL     1    -100.227 185.788  48.315  1.00  0.00    -0.504 OA
ATOM     19  H   UNL     1    -100.130 185.147  47.536  1.00  0.00     0.293 HD
ENDBRANCH  15  18
BRANCH  17  20
ATOM     20  O   UNL     1    -100.889 188.379  49.224  1.00  0.00    -0.504 OA
ATOM     21  H   UNL     1    -100.737 188.833  48.332  1.00  0.00     0.293 HD
ENDBRANCH  17  20
ENDBRANCH   1  12
BRANCH   2  22
ATOM     22  O   UNL     1    -106.354 187.263  48.631  1.00  0.00    -0.502 OA
ATOM     23  H   UNL     1    -107.128 187.036  48.019  1.00  0.00     0.293 HD
ENDBRANCH   2  22
BRANCH   6  24
ATOM     24  O   UNL     1    -110.032 187.923  52.426  1.00  0.00    -0.507 OA
ATOM     25  H   UNL     1    -110.226 188.912  52.393  1.00  0.00     0.293 HD
ENDBRANCH   6  24
BRANCH   8  26
ATOM     26  O   UNL     1    -107.635 186.226  56.225  1.00  0.00    -0.508 OA
ATOM     27  H   UNL     1    -108.110 186.801  56.911  1.00  0.00     0.293 HD
ENDBRANCH   8  26
TORSDOF 6
ENDMDL
MODEL 9
REMARK VINA RESULT:    -4.636      2.328      6.977
REMARK INTER + INTRA:          -5.918
REMARK INTER:                  -5.616
REMARK INTRA:                  -0.302
REMARK UNBOUND:                -0.333
REMARK SMILES O=c1c(O)c(-c2ccc(O)c(O)c2)oc2cc(O)cc(O)c12
REMARK SMILES IDX 5 1 3 2 2 3 1 4 22 5 20 6 19 7 17 8 16 9 15 10 14 11 6 12
REMARK SMILES IDX 7 13 8 14 9 15 13 16 11 17 10 18 12 20 4 22 21 24 18 26
REMARK H PARENT 10 19 12 21 4 23 21 25 18 27
REMARK Flexibility Score: inf
ROOT
ATOM      1  C   UNL     1    -105.466 187.813  50.028  1.00  0.00     0.180 A 
ATOM      2  C   UNL     1    -105.489 188.839  50.989  1.00  0.00     0.208 A 
ATOM      3  C   UNL     1    -106.388 189.905  50.826  1.00  0.00     0.238 A 
ATOM      4  O   UNL     1    -106.366 190.848  51.661  1.00  0.00    -0.285 OA
ATOM      5  C   UNL     1    -107.264 189.924  49.714  1.00  0.00     0.111 A 
ATOM      6  C   UNL     1    -108.244 190.933  49.471  1.00  0.00     0.134 A 
ATOM      7  C   UNL     1    -108.967 190.920  48.272  1.00  0.00     0.093 A 
ATOM      8  C   UNL     1    -108.791 189.897  47.337  1.00  0.00     0.123 A 
ATOM      9  C   UNL     1    -107.880 188.875  47.592  1.00  0.00     0.094 A 
ATOM     10  C   UNL     1    -107.118 188.880  48.763  1.00  0.00     0.146 A 
ATOM     11  O   UNL     1    -106.254 187.893  48.962  1.00  0.00    -0.452 OA
ENDROOT
BRANCH   1  12
ATOM     12  C   UNL     1    -104.563 186.646  50.144  1.00  0.00     0.025 A 
ATOM     13  C   UNL     1    -104.916 185.580  50.987  1.00  0.00     0.016 A 
ATOM     14  C   UNL     1    -104.069 184.478  51.127  1.00  0.00     0.051 A 
ATOM     15  C   UNL     1    -102.851 184.430  50.441  1.00  0.00     0.157 A 
ATOM     16  C   UNL     1    -103.329 186.605  49.471  1.00  0.00     0.062 A 
ATOM     17  C   UNL     1    -102.476 185.500  49.612  1.00  0.00     0.158 A 
BRANCH  15  18
ATOM     18  O   UNL     1    -102.028 183.316  50.599  1.00  0.00    -0.504 OA
ATOM     19  H   UNL     1    -101.333 183.058  49.907  1.00  0.00     0.293 HD
ENDBRANCH  15  18
BRANCH  17  20
ATOM     20  O   UNL     1    -101.257 185.466  48.936  1.00  0.00    -0.504 OA
ATOM     21  H   UNL     1    -100.831 184.590  48.655  1.00  0.00     0.293 HD
ENDBRANCH  17  20
ENDBRANCH   1  12
BRANCH   2  22
ATOM     22  O   UNL     1    -104.600 188.812  52.067  1.00  0.00    -0.502 OA
ATOM     23  H   UNL     1    -104.913 188.835  53.031  1.00  0.00     0.293 HD
ENDBRANCH   2  22
BRANCH   6  24
ATOM     24  O   UNL     1    -108.562 191.946  50.381  1.00  0.00    -0.507 OA
ATOM     25  H   UNL     1    -107.950 192.708  50.630  1.00  0.00     0.293 HD
ENDBRANCH   6  24
BRANCH   8  26
ATOM     26  O   UNL     1    -109.525 189.883  46.152  1.00  0.00    -0.508 OA
ATOM     27  H   UNL     1    -110.321 190.494  46.015  1.00  0.00     0.293 HD
ENDBRANCH   8  26
TORSDOF 6
ENDMDL
