MODEL 1
REMARK VINA RESULT:    -2.527      0.000      0.000
REMARK INTER + INTRA:          -5.316
REMARK INTER:                  -4.004
REMARK INTRA:                  -1.312
REMARK UNBOUND:                -1.312
REMARK SMILES CCCCCCCCCCCC(=O)[O-]
REMARK SMILES IDX 7 1 8 2 9 3 10 4 11 5 12 6 13 7 14 8 6 9 5 10 4 11 3 12 2 13
REMARK SMILES IDX 1 14
REMARK H PARENT
REMARK Flexibility Score: inf
ROOT
ATOM      1  C   UNL     1      19.170  22.504  39.634  1.00  0.00     0.000 C 
ENDROOT
BRANCH   1   2
ATOM      2  C   UNL     1      17.741  22.673  39.088  1.00  0.00     0.000 C 
BRANCH   2   3
ATOM      3  C   UNL     1      17.400  24.138  38.771  1.00  0.00     0.000 C 
BRANCH   3   4
ATOM      4  C   UNL     1      15.884  24.405  38.759  1.00  0.00     0.006 C 
BRANCH   4   5
ATOM      5  C   UNL     1      15.552  25.873  39.058  1.00  0.00     0.053 C 
BRANCH   5   6
ATOM      6  C   UNL     1      14.117  26.054  39.446  1.00  0.00     0.041 C 
ATOM      7  O   UNL     1      13.280  26.469  38.602  1.00  0.00    -0.550 OA
ATOM      8  O   UNL     1      13.698  25.734  40.732  1.00  0.00    -0.550 OA
ENDBRANCH   5   6
ENDBRANCH   4   5
ENDBRANCH   3   4
ENDBRANCH   2   3
ENDBRANCH   1   2
BRANCH   1   9
ATOM      9  C   UNL     1      19.192  21.934  41.061  1.00  0.00     0.000 C 
BRANCH   9  10
ATOM     10  C   UNL     1      20.062  22.767  42.020  1.00  0.00    -0.000 C 
BRANCH  10  11
ATOM     11  C   UNL     1      19.234  23.760  42.852  1.00  0.00    -0.000 C 
BRANCH  11  12
ATOM     12  C   UNL     1      17.719  23.540  42.697  1.00  0.00    -0.000 C 
BRANCH  12  13
ATOM     13  C   UNL     1      16.966  24.837  42.366  1.00  0.00    -0.003 C 
ATOM     14  C   UNL     1      17.900  25.970  41.942  1.00  0.00     0.004 C 
ENDBRANCH  12  13
ENDBRANCH  11  12
ENDBRANCH  10  11
ENDBRANCH   9  10
ENDBRANCH   1   9
TORSDOF 10
ENDMDL
MODEL 2
REMARK VINA RESULT:    -2.526     12.220     14.558
REMARK INTER + INTRA:          -5.315
REMARK INTER:                  -3.631
REMARK INTRA:                  -1.684
REMARK UNBOUND:                -1.312
REMARK SMILES CCCCCCCCCCCC(=O)[O-]
REMARK SMILES IDX 7 1 8 2 9 3 10 4 11 5 12 6 13 7 14 8 6 9 5 10 4 11 3 12 2 13
REMARK SMILES IDX 1 14
REMARK H PARENT
REMARK Flexibility Score: inf
ROOT
ATOM      1  C   UNL     1      11.295  20.191  27.455  1.00  0.00     0.000 C 
ENDROOT
BRANCH   1   2
ATOM      2  C   UNL     1      10.849  18.756  27.792  1.00  0.00     0.000 C 
BRANCH   2   3
ATOM      3  C   UNL     1      11.201  18.352  29.233  1.00  0.00     0.000 C 
BRANCH   3   4
ATOM      4  C   UNL     1      11.644  19.549  30.093  1.00  0.00     0.006 C 
BRANCH   4   5
ATOM      5  C   UNL     1      10.846  19.649  31.400  1.00  0.00     0.053 C 
BRANCH   5   6
ATOM      6  C   UNL     1      11.248  18.591  32.382  1.00  0.00     0.041 C 
ATOM      7  O   UNL     1      12.328  18.699  33.022  1.00  0.00    -0.550 OA
ATOM      8  O   UNL     1      10.416  17.503  32.613  1.00  0.00    -0.550 OA
ENDBRANCH   5   6
ENDBRANCH   4   5
ENDBRANCH   3   4
ENDBRANCH   2   3
ENDBRANCH   1   2
BRANCH   1   9
ATOM      9  C   UNL     1      10.118  21.091  27.043  1.00  0.00     0.000 C 
BRANCH   9  10
ATOM     10  C   UNL     1       8.778  20.630  27.644  1.00  0.00    -0.000 C 
BRANCH  10  11
ATOM     11  C   UNL     1       8.447  21.348  28.962  1.00  0.00    -0.000 C 
BRANCH  11  12
ATOM     12  C   UNL     1       7.509  20.526  29.863  1.00  0.00    -0.000 C 
BRANCH  12  13
ATOM     13  C   UNL     1       7.259  19.112  29.317  1.00  0.00    -0.003 C 
ATOM     14  C   UNL     1       7.732  18.018  30.274  1.00  0.00     0.004 C 
ENDBRANCH  12  13
ENDBRANCH  11  12
ENDBRANCH  10  11
ENDBRANCH   9  10
ENDBRANCH   1   9
TORSDOF 10
ENDMDL
MODEL 3
REMARK VINA RESULT:    -2.494     11.555     13.317
REMARK INTER + INTRA:          -5.264
REMARK INTER:                  -3.573
REMARK INTRA:                  -1.691
REMARK UNBOUND:                -1.312
REMARK SMILES CCCCCCCCCCCC(=O)[O-]
REMARK SMILES IDX 7 1 8 2 9 3 10 4 11 5 12 6 13 7 14 8 6 9 5 10 4 11 3 12 2 13
REMARK SMILES IDX 1 14
REMARK H PARENT
REMARK Flexibility Score: inf
ROOT
ATOM      1  C   UNL     1      10.943  16.826  29.572  1.00  0.00     0.000 C 
ENDROOT
BRANCH   1   2
ATOM      2  C   UNL     1       9.866  17.907  29.372  1.00  0.00     0.000 C 
BRANCH   2   3
ATOM      3  C   UNL     1      10.409  19.156  28.659  1.00  0.00     0.000 C 
BRANCH   3   4
ATOM      4  C   UNL     1      10.143  20.451  29.447  1.00  0.00     0.006 C 
BRANCH   4   5
ATOM      5  C   UNL     1       8.845  20.377  30.261  1.00  0.00     0.053 C 
BRANCH   5   6
ATOM      6  C   UNL     1       7.669  20.887  29.486  1.00  0.00     0.041 C 
ATOM      7  O   UNL     1       6.504  20.510  29.782  1.00  0.00    -0.550 OA
ATOM      8  O   UNL     1       7.856  21.802  28.458  1.00  0.00    -0.550 OA
ENDBRANCH   5   6
ENDBRANCH   4   5
ENDBRANCH   3   4
ENDBRANCH   2   3
ENDBRANCH   1   2
BRANCH   1   9
ATOM      9  C   UNL     1      11.297  16.614  31.052  1.00  0.00     0.000 C 
BRANCH   9  10
ATOM     10  C   UNL     1      10.412  17.443  32.000  1.00  0.00    -0.000 C 
BRANCH  10  11
ATOM     11  C   UNL     1      11.214  18.495  32.782  1.00  0.00    -0.000 C 
BRANCH  11  12
ATOM     12  C   UNL     1      12.697  18.530  32.374  1.00  0.00    -0.000 C 
BRANCH  12  13
ATOM     13  C   UNL     1      13.071  19.817  31.624  1.00  0.00    -0.003 C 
ATOM     14  C   UNL     1      13.824  19.545  30.322  1.00  0.00     0.004 C 
ENDBRANCH  12  13
ENDBRANCH  11  12
ENDBRANCH  10  11
ENDBRANCH   9  10
ENDBRANCH   1   9
TORSDOF 10
ENDMDL
MODEL 4
REMARK VINA RESULT:    -2.414     12.111     14.532
REMARK INTER + INTRA:          -5.137
REMARK INTER:                  -3.616
REMARK INTRA:                  -1.521
REMARK UNBOUND:                -1.312
REMARK SMILES CCCCCCCCCCCC(=O)[O-]
REMARK SMILES IDX 7 1 8 2 9 3 10 4 11 5 12 6 13 7 14 8 6 9 5 10 4 11 3 12 2 13
REMARK SMILES IDX 1 14
REMARK H PARENT
REMARK Flexibility Score: inf
ROOT
ATOM      1  C   UNL     1       8.864  20.696  27.791  1.00  0.00     0.000 C 
ENDROOT
BRANCH   1   2
ATOM      2  C   UNL     1      10.307  20.167  27.714  1.00  0.00     0.000 C 
BRANCH   2   3
ATOM      3  C   UNL     1      11.143  20.550  28.947  1.00  0.00     0.000 C 
BRANCH   3   4
ATOM      4  C   UNL     1      11.484  19.339  29.832  1.00  0.00     0.006 C 
BRANCH   4   5
ATOM      5  C   UNL     1      11.021  19.533  31.282  1.00  0.00     0.053 C 
BRANCH   5   6
ATOM      6  C   UNL     1      12.145  19.356  32.257  1.00  0.00     0.041 C 
ATOM      7  O   UNL     1      12.044  18.522  33.194  1.00  0.00    -0.550 OA
ATOM      8  O   UNL     1      13.315  20.091  32.111  1.00  0.00    -0.550 OA
ENDBRANCH   5   6
ENDBRANCH   4   5
ENDBRANCH   3   4
ENDBRANCH   2   3
ENDBRANCH   1   2
BRANCH   1   9
ATOM      9  C   UNL     1       8.553  21.363  29.142  1.00  0.00     0.000 C 
BRANCH   9  10
ATOM     10  C   UNL     1       7.465  20.617  29.935  1.00  0.00    -0.000 C 
BRANCH  10  11
ATOM     11  C   UNL     1       6.985  19.344  29.220  1.00  0.00    -0.000 C 
BRANCH  11  12
ATOM     12  C   UNL     1       7.343  18.062  29.993  1.00  0.00    -0.000 C 
BRANCH  12  13
ATOM     13  C   UNL     1       8.476  17.269  29.324  1.00  0.00    -0.003 C 
ATOM     14  C   UNL     1       9.243  16.389  30.312  1.00  0.00     0.004 C 
ENDBRANCH  12  13
ENDBRANCH  11  12
ENDBRANCH  10  11
ENDBRANCH   9  10
ENDBRANCH   1   9
TORSDOF 10
ENDMDL
MODEL 5
REMARK VINA RESULT:    -2.381      8.794     11.109
REMARK INTER + INTRA:          -5.084
REMARK INTER:                  -3.830
REMARK INTRA:                  -1.254
REMARK UNBOUND:                -1.312
REMARK SMILES CCCCCCCCCCCC(=O)[O-]
REMARK SMILES IDX 7 1 8 2 9 3 10 4 11 5 12 6 13 7 14 8 6 9 5 10 4 11 3 12 2 13
REMARK SMILES IDX 1 14
REMARK H PARENT
REMARK Flexibility Score: inf
ROOT
ATOM      1  C   UNL     1      12.965  18.130  32.980  1.00  0.00     0.000 C 
ENDROOT
BRANCH   1   2
ATOM      2  C   UNL     1      14.050  18.046  31.892  1.00  0.00     0.000 C 
BRANCH   2   3
ATOM      3  C   UNL     1      14.998  19.257  31.909  1.00  0.00     0.000 C 
BRANCH   3   4
ATOM      4  C   UNL     1      14.926  20.048  33.227  1.00  0.00     0.006 C 
BRANCH   4   5
ATOM      5  C   UNL     1      14.980  21.563  32.996  1.00  0.00     0.053 C 
BRANCH   5   6
ATOM      6  C   UNL     1      15.377  22.304  34.236  1.00  0.00     0.041 C 
ATOM      7  O   UNL     1      16.333  21.888  34.942  1.00  0.00    -0.550 OA
ATOM      8  O   UNL     1      14.712  23.470  34.594  1.00  0.00    -0.550 OA
ENDBRANCH   5   6
ENDBRANCH   4   5
ENDBRANCH   3   4
ENDBRANCH   2   3
ENDBRANCH   1   2
BRANCH   1   9
ATOM      9  C   UNL     1      11.551  18.266  32.392  1.00  0.00     0.000 C 
BRANCH   9  10
ATOM     10  C   UNL     1      11.261  19.683  31.865  1.00  0.00    -0.000 C 
BRANCH  10  11
ATOM     11  C   UNL     1      10.421  19.670  30.577  1.00  0.00    -0.000 C 
BRANCH  11  12
ATOM     12  C   UNL     1      11.060  20.497  29.448  1.00  0.00    -0.000 C 
BRANCH  12  13
ATOM     13  C   UNL     1      12.538  20.146  29.224  1.00  0.00    -0.003 C 
ATOM     14  C   UNL     1      13.457  21.363  29.324  1.00  0.00     0.004 C 
ENDBRANCH  12  13
ENDBRANCH  11  12
ENDBRANCH  10  11
ENDBRANCH   9  10
ENDBRANCH   1   9
TORSDOF 10
ENDMDL
MODEL 6
REMARK VINA RESULT:    -2.377      8.278      9.944
REMARK INTER + INTRA:          -5.078
REMARK INTER:                  -3.503
REMARK INTRA:                  -1.575
REMARK UNBOUND:                -1.312
REMARK SMILES CCCCCCCCCCCC(=O)[O-]
REMARK SMILES IDX 7 1 8 2 9 3 10 4 11 5 12 6 13 7 14 8 6 9 5 10 4 11 3 12 2 13
REMARK SMILES IDX 1 14
REMARK H PARENT
REMARK Flexibility Score: inf
ROOT
ATOM      1  C   UNL     1      16.162  21.224  32.770  1.00  0.00     0.000 C 
ENDROOT
BRANCH   1   2
ATOM      2  C   UNL     1      14.664  21.021  32.481  1.00  0.00     0.000 C 
BRANCH   2   3
ATOM      3  C   UNL     1      14.414  20.224  31.190  1.00  0.00     0.000 C 
BRANCH   3   4
ATOM      4  C   UNL     1      13.649  18.913  31.441  1.00  0.00     0.006 C 
BRANCH   4   5
ATOM      5  C   UNL     1      12.703  19.016  32.644  1.00  0.00     0.053 C 
BRANCH   5   6
ATOM      6  C   UNL     1      11.268  18.871  32.241  1.00  0.00     0.041 C 
ATOM      7  O   UNL     1      10.734  19.724  31.485  1.00  0.00    -0.550 OA
ATOM      8  O   UNL     1      10.530  17.777  32.676  1.00  0.00    -0.550 OA
ENDBRANCH   5   6
ENDBRANCH   4   5
ENDBRANCH   3   4
ENDBRANCH   2   3
ENDBRANCH   1   2
BRANCH   1   9
ATOM      9  C   UNL     1      16.570  20.698  34.156  1.00  0.00     0.000 C 
BRANCH   9  10
ATOM     10  C   UNL     1      15.420  19.974  34.879  1.00  0.00    -0.000 C 
BRANCH  10  11
ATOM     11  C   UNL     1      15.827  18.578  35.378  1.00  0.00    -0.000 C 
BRANCH  11  12
ATOM     12  C   UNL     1      15.666  17.495  34.298  1.00  0.00    -0.000 C 
BRANCH  12  13
ATOM     13  C   UNL     1      16.983  17.186  33.572  1.00  0.00    -0.003 C 
ATOM     14  C   UNL     1      16.868  17.326  32.054  1.00  0.00     0.004 C 
ENDBRANCH  12  13
ENDBRANCH  11  12
ENDBRANCH  10  11
ENDBRANCH   9  10
ENDBRANCH   1   9
TORSDOF 10
ENDMDL
MODEL 7
REMARK VINA RESULT:    -2.369     11.333     13.627
REMARK INTER + INTRA:          -5.065
REMARK INTER:                  -3.351
REMARK INTRA:                  -1.715
REMARK UNBOUND:                -1.312
REMARK SMILES CCCCCCCCCCCC(=O)[O-]
REMARK SMILES IDX 7 1 8 2 9 3 10 4 11 5 12 6 13 7 14 8 6 9 5 10 4 11 3 12 2 13
REMARK SMILES IDX 1 14
REMARK H PARENT
REMARK Flexibility Score: inf
ROOT
ATOM      1  C   UNL     1       7.094  31.392  31.482  1.00  0.00     0.000 C 
ENDROOT
BRANCH   1   2
ATOM      2  C   UNL     1       7.974  32.453  32.168  1.00  0.00     0.000 C 
BRANCH   2   3
ATOM      3  C   UNL     1       9.449  32.028  32.255  1.00  0.00     0.000 C 
BRANCH   3   4
ATOM      4  C   UNL     1       9.726  30.694  31.539  1.00  0.00     0.006 C 
BRANCH   4   5
ATOM      5  C   UNL     1      10.840  29.890  32.222  1.00  0.00     0.053 C 
BRANCH   5   6
ATOM      6  C   UNL     1      12.194  30.470  31.951  1.00  0.00     0.041 C 
ATOM      7  O   UNL     1      12.989  30.694  32.902  1.00  0.00    -0.550 OA
ATOM      8  O   UNL     1      12.590  30.733  30.646  1.00  0.00    -0.550 OA
ENDBRANCH   5   6
ENDBRANCH   4   5
ENDBRANCH   3   4
ENDBRANCH   2   3
ENDBRANCH   1   2
BRANCH   1   9
ATOM      9  C   UNL     1       5.769  31.157  32.225  1.00  0.00     0.000 C 
BRANCH   9  10
ATOM     10  C   UNL     1       5.958  30.400  33.552  1.00  0.00    -0.000 C 
BRANCH  10  11
ATOM     11  C   UNL     1       6.773  29.109  33.380  1.00  0.00    -0.000 C 
BRANCH  11  12
ATOM     12  C   UNL     1       7.893  28.974  34.426  1.00  0.00    -0.000 C 
BRANCH  12  13
ATOM     13  C   UNL     1       8.070  30.248  35.267  1.00  0.00    -0.003 C 
ATOM     14  C   UNL     1       9.525  30.497  35.662  1.00  0.00     0.004 C 
ENDBRANCH  12  13
ENDBRANCH  11  12
ENDBRANCH  10  11
ENDBRANCH   9  10
ENDBRANCH   1   9
TORSDOF 10
ENDMDL
MODEL 8
REMARK VINA RESULT:    -2.367      8.988     10.528
REMARK INTER + INTRA:          -5.062
REMARK INTER:                  -3.608
REMARK INTRA:                  -1.454
REMARK UNBOUND:                -1.312
REMARK SMILES CCCCCCCCCCCC(=O)[O-]
REMARK SMILES IDX 7 1 8 2 9 3 10 4 11 5 12 6 13 7 14 8 6 9 5 10 4 11 3 12 2 13
REMARK SMILES IDX 1 14
REMARK H PARENT
REMARK Flexibility Score: inf
ROOT
ATOM      1  C   UNL     1      14.841  17.165  32.044  1.00  0.00     0.000 C 
ENDROOT
BRANCH   1   2
ATOM      2  C   UNL     1      13.509  17.702  31.492  1.00  0.00     0.000 C 
BRANCH   2   3
ATOM      3  C   UNL     1      12.536  18.125  32.606  1.00  0.00     0.000 C 
BRANCH   3   4
ATOM      4  C   UNL     1      11.628  19.295  32.188  1.00  0.00     0.006 C 
BRANCH   4   5
ATOM      5  C   UNL     1      11.883  19.737  30.742  1.00  0.00     0.053 C 
BRANCH   5   6
ATOM      6  C   UNL     1      10.612  20.096  30.035  1.00  0.00     0.041 C 
ATOM      7  O   UNL     1       9.514  20.063  30.651  1.00  0.00    -0.550 OA
ATOM      8  O   UNL     1      10.644  20.498  28.706  1.00  0.00    -0.550 OA
ENDBRANCH   5   6
ENDBRANCH   4   5
ENDBRANCH   3   4
ENDBRANCH   2   3
ENDBRANCH   1   2
BRANCH   1   9
ATOM      9  C   UNL     1      14.840  17.050  33.577  1.00  0.00     0.000 C 
BRANCH   9  10
ATOM     10  C   UNL     1      16.083  17.692  34.221  1.00  0.00    -0.000 C 
BRANCH  10  11
ATOM     11  C   UNL     1      15.719  18.779  35.244  1.00  0.00    -0.000 C 
BRANCH  11  12
ATOM     12  C   UNL     1      15.035  19.995  34.595  1.00  0.00    -0.000 C 
BRANCH  12  13
ATOM     13  C   UNL     1      15.865  20.596  33.451  1.00  0.00    -0.003 C 
ATOM     14  C   UNL     1      14.998  21.138  32.315  1.00  0.00     0.004 C 
ENDBRANCH  12  13
ENDBRANCH  11  12
ENDBRANCH  10  11
ENDBRANCH   9  10
ENDBRANCH   1   9
TORSDOF 10
ENDMDL
MODEL 9
REMARK VINA RESULT:    -2.359      1.488      3.248
REMARK INTER + INTRA:          -5.050
REMARK INTER:                  -3.621
REMARK INTRA:                  -1.429
REMARK UNBOUND:                -1.312
REMARK SMILES CCCCCCCCCCCC(=O)[O-]
REMARK SMILES IDX 7 1 8 2 9 3 10 4 11 5 12 6 13 7 14 8 6 9 5 10 4 11 3 12 2 13
REMARK SMILES IDX 1 14
REMARK H PARENT
REMARK Flexibility Score: inf
ROOT
ATOM      1  C   UNL     1      18.143  23.140  42.345  1.00  0.00     0.000 C 
ENDROOT
BRANCH   1   2
ATOM      2  C   UNL     1      18.754  24.318  43.125  1.00  0.00     0.000 C 
BRANCH   2   3
ATOM      3  C   UNL     1      17.953  25.619  42.951  1.00  0.00     0.000 C 
BRANCH   3   4
ATOM      4  C   UNL     1      16.545  25.377  42.379  1.00  0.00     0.006 C 
BRANCH   4   5
ATOM      5  C   UNL     1      15.712  26.664  42.327  1.00  0.00     0.053 C 
BRANCH   5   6
ATOM      6  C   UNL     1      14.302  26.401  41.895  1.00  0.00     0.041 C 
ATOM      7  O   UNL     1      13.920  26.740  40.744  1.00  0.00    -0.550 OA
ATOM      8  O   UNL     1      13.421  25.755  42.752  1.00  0.00    -0.550 OA
ENDBRANCH   5   6
ENDBRANCH   4   5
ENDBRANCH   3   4
ENDBRANCH   2   3
ENDBRANCH   1   2
BRANCH   1   9
ATOM      9  C   UNL     1      19.201  22.328  41.581  1.00  0.00     0.000 C 
BRANCH   9  10
ATOM     10  C   UNL     1      18.774  22.005  40.137  1.00  0.00    -0.000 C 
BRANCH  10  11
ATOM     11  C   UNL     1      17.630  22.907  39.648  1.00  0.00    -0.000 C 
BRANCH  11  12
ATOM     12  C   UNL     1      18.086  23.909  38.574  1.00  0.00    -0.000 C 
BRANCH  12  13
ATOM     13  C   UNL     1      18.152  25.350  39.104  1.00  0.00    -0.003 C 
ATOM     14  C   UNL     1      19.550  25.741  39.582  1.00  0.00     0.004 C 
ENDBRANCH  12  13
ENDBRANCH  11  12
ENDBRANCH  10  11
ENDBRANCH   9  10
ENDBRANCH   1   9
TORSDOF 10
ENDMDL
