MODEL 1
REMARK VINA RESULT:    -9.434      0.000      0.000
REMARK INTER + INTRA:         -11.683
REMARK INTER:                 -11.365
REMARK INTRA:                  -0.318
REMARK UNBOUND:                -0.318
REMARK SMILES O=c1c(O)c(-c2ccc(O)c(O)c2)oc2cc(O)cc(O)c12
REMARK SMILES IDX 5 1 3 2 2 3 1 4 22 5 20 6 19 7 17 8 16 9 15 10 14 11 6 12
REMARK SMILES IDX 7 13 8 14 9 15 13 16 11 17 10 18 12 20 4 22 21 24 18 26
REMARK H PARENT 10 19 12 21 4 23 21 25 18 27
REMARK Flexibility Score: inf
ROOT
ATOM      1  C   UNL     1       3.620 -71.426 208.847  1.00  0.00     0.180 A 
ATOM      2  C   UNL     1       3.852 -72.506 207.978  1.00  0.00     0.208 A 
ATOM      3  C   UNL     1       4.576 -72.285 206.796  1.00  0.00     0.238 A 
ATOM      4  O   UNL     1       4.828 -73.266 206.049  1.00  0.00    -0.285 OA
ATOM      5  C   UNL     1       5.047 -70.985 206.491  1.00  0.00     0.111 A 
ATOM      6  C   UNL     1       5.758 -70.638 205.302  1.00  0.00     0.134 A 
ATOM      7  C   UNL     1       6.289 -69.350 205.166  1.00  0.00     0.093 A 
ATOM      8  C   UNL     1       6.080 -68.378 206.143  1.00  0.00     0.123 A 
ATOM      9  C   UNL     1       5.336 -68.689 207.282  1.00  0.00     0.094 A 
ATOM     10  C   UNL     1       4.824 -69.976 207.463  1.00  0.00     0.146 A 
ATOM     11  O   UNL     1       4.130 -70.233 208.566  1.00  0.00    -0.452 OA
ENDROOT
BRANCH   1  12
ATOM     12  C   UNL     1       2.843 -71.576 210.100  1.00  0.00     0.025 A 
ATOM     13  C   UNL     1       3.476 -71.855 211.324  1.00  0.00     0.016 A 
ATOM     14  C   UNL     1       2.721 -72.017 212.488  1.00  0.00     0.051 A 
ATOM     15  C   UNL     1       1.327 -71.916 212.448  1.00  0.00     0.157 A 
ATOM     16  C   UNL     1       1.441 -71.497 210.058  1.00  0.00     0.062 A 
ATOM     17  C   UNL     1       0.682 -71.658 211.226  1.00  0.00     0.158 A 
BRANCH  15  18
ATOM     18  O   UNL     1       0.600 -72.080 213.626  1.00  0.00    -0.504 OA
ATOM     19  H   UNL     1       0.366 -72.996 213.991  1.00  0.00     0.293 HD
ENDBRANCH  15  18
BRANCH  17  20
ATOM     20  O   UNL     1      -0.707 -71.563 211.177  1.00  0.00    -0.504 OA
ATOM     21  H   UNL     1      -1.179 -71.060 210.433  1.00  0.00     0.293 HD
ENDBRANCH  17  20
ENDBRANCH   1  12
BRANCH   2  22
ATOM     22  O   UNL     1       3.397 -73.785 208.309  1.00  0.00    -0.502 OA
ATOM     23  H   UNL     1       3.267 -74.513 207.615  1.00  0.00     0.293 HD
ENDBRANCH   2  22
BRANCH   6  24
ATOM     24  O   UNL     1       5.944 -71.508 204.223  1.00  0.00    -0.507 OA
ATOM     25  H   UNL     1       6.375 -72.418 204.285  1.00  0.00     0.293 HD
ENDBRANCH   6  24
BRANCH   8  26
ATOM     26  O   UNL     1       6.610 -67.101 205.968  1.00  0.00    -0.508 OA
ATOM     27  H   UNL     1       7.466 -66.950 205.448  1.00  0.00     0.293 HD
ENDBRANCH   8  26
TORSDOF 6
ENDMDL
MODEL 2
REMARK VINA RESULT:    -8.653      1.218      2.887
REMARK INTER + INTRA:         -10.742
REMARK INTER:                 -10.407
REMARK INTRA:                  -0.334
REMARK UNBOUND:                -0.318
REMARK SMILES O=c1c(O)c(-c2ccc(O)c(O)c2)oc2cc(O)cc(O)c12
REMARK SMILES IDX 5 1 3 2 2 3 1 4 22 5 20 6 19 7 17 8 16 9 15 10 14 11 6 12
REMARK SMILES IDX 7 13 8 14 9 15 13 16 11 17 10 18 12 20 4 22 21 24 18 26
REMARK H PARENT 10 19 12 21 4 23 21 25 18 27
REMARK Flexibility Score: inf
ROOT
ATOM      1  C   UNL     1       3.631 -70.881 209.008  1.00  0.00     0.180 A 
ATOM      2  C   UNL     1       4.115 -69.594 208.718  1.00  0.00     0.208 A 
ATOM      3  C   UNL     1       4.830 -69.389 207.527  1.00  0.00     0.238 A 
ATOM      4  O   UNL     1       5.213 -68.224 207.245  1.00  0.00    -0.285 OA
ATOM      5  C   UNL     1       5.064 -70.475 206.649  1.00  0.00     0.111 A 
ATOM      6  C   UNL     1       5.809 -70.390 205.434  1.00  0.00     0.134 A 
ATOM      7  C   UNL     1       5.867 -71.498 204.580  1.00  0.00     0.093 A 
ATOM      8  C   UNL     1       5.262 -72.706 204.926  1.00  0.00     0.123 A 
ATOM      9  C   UNL     1       4.581 -72.817 206.139  1.00  0.00     0.094 A 
ATOM     10  C   UNL     1       4.476 -71.719 206.995  1.00  0.00     0.146 A 
ATOM     11  O   UNL     1       3.810 -71.865 208.135  1.00  0.00    -0.452 OA
ENDROOT
BRANCH   1  12
ATOM     12  C   UNL     1       2.891 -71.181 210.256  1.00  0.00     0.025 A 
ATOM     13  C   UNL     1       3.562 -71.559 211.432  1.00  0.00     0.016 A 
ATOM     14  C   UNL     1       2.842 -71.862 212.591  1.00  0.00     0.051 A 
ATOM     15  C   UNL     1       1.446 -71.805 212.590  1.00  0.00     0.157 A 
ATOM     16  C   UNL     1       1.487 -71.146 210.253  1.00  0.00     0.062 A 
ATOM     17  C   UNL     1       0.762 -71.449 211.415  1.00  0.00     0.158 A 
BRANCH  15  18
ATOM     18  O   UNL     1       0.754 -72.111 213.762  1.00  0.00    -0.504 OA
ATOM     19  H   UNL     1      -0.228 -71.889 213.881  1.00  0.00     0.293 HD
ENDBRANCH  15  18
BRANCH  17  20
ATOM     20  O   UNL     1      -0.630 -71.397 211.406  1.00  0.00    -0.504 OA
ATOM     21  H   UNL     1      -1.180 -71.763 212.175  1.00  0.00     0.293 HD
ENDBRANCH  17  20
ENDBRANCH   1  12
BRANCH   2  22
ATOM     22  O   UNL     1       3.854 -68.532 209.587  1.00  0.00    -0.502 OA
ATOM     23  H   UNL     1       4.346 -68.414 210.465  1.00  0.00     0.293 HD
ENDBRANCH   2  22
BRANCH   6  24
ATOM     24  O   UNL     1       6.529 -69.258 205.038  1.00  0.00    -0.507 OA
ATOM     25  H   UNL     1       7.077 -69.192 204.194  1.00  0.00     0.293 HD
ENDBRANCH   6  24
BRANCH   8  26
ATOM     26  O   UNL     1       5.352 -73.793 204.059  1.00  0.00    -0.508 OA
ATOM     27  H   UNL     1       5.249 -73.682 203.058  1.00  0.00     0.293 HD
ENDBRANCH   8  26
TORSDOF 6
ENDMDL
