MODEL 1
REMARK VINA RESULT:    -4.931      0.000      0.000
REMARK INTER + INTRA:         -18.113
REMARK INTER:                 -12.426
REMARK INTRA:                  -5.687
REMARK UNBOUND:                -5.687
REMARK SMILES CCCCCCCCCCCCCCCCCCCCCCCCCCCC(=O)[O-]
REMARK SMILES IDX 15 1 16 2 17 3 18 4 19 5 20 6 21 7 22 8 23 9 24 10 25 11
REMARK SMILES IDX 26 12 27 13 28 14 29 15 30 16 14 17 13 18 12 19 11 20 10 21
REMARK SMILES IDX 9 22 8 23 7 24 6 25 5 26 4 27 3 28 2 29 1 30
REMARK H PARENT
REMARK Flexibility Score: inf
ROOT
ATOM      1  C   UNL     1      17.998 -36.585  21.965  1.00  0.00     0.000 C 
ENDROOT
BRANCH   1   2
ATOM      2  C   UNL     1      19.417 -36.910  22.464  1.00  0.00     0.000 C 
BRANCH   2   3
ATOM      3  C   UNL     1      20.368 -35.707  22.381  1.00  0.00     0.000 C 
BRANCH   3   4
ATOM      4  C   UNL     1      19.788 -34.500  23.134  1.00  0.00     0.000 C 
BRANCH   4   5
ATOM      5  C   UNL     1      20.489 -33.178  22.774  1.00  0.00     0.000 C 
BRANCH   5   6
ATOM      6  C   UNL     1      19.566 -31.944  22.722  1.00  0.00     0.000 C 
BRANCH   6   7
ATOM      7  C   UNL     1      20.257 -30.618  22.341  1.00  0.00     0.000 C 
BRANCH   7   8
ATOM      8  C   UNL     1      19.503 -29.768  21.300  1.00  0.00     0.000 C 
BRANCH   8   9
ATOM      9  C   UNL     1      18.055 -30.217  21.027  1.00  0.00     0.000 C 
BRANCH   9  10
ATOM     10  C   UNL     1      16.991 -29.324  21.702  1.00  0.00     0.000 C 
BRANCH  10  11
ATOM     11  C   UNL     1      16.505 -29.904  23.041  1.00  0.00     0.000 C 
BRANCH  11  12
ATOM     12  C   UNL     1      15.000 -30.222  23.036  1.00  0.00     0.006 C 
BRANCH  12  13
ATOM     13  C   UNL     1      14.375 -30.098  21.641  1.00  0.00     0.053 C 
BRANCH  13  14
ATOM     14  C   UNL     1      13.192 -31.005  21.515  1.00  0.00     0.041 C 
ATOM     15  O   UNL     1      12.290 -30.995  22.394  1.00  0.00    -0.550 OA
ATOM     16  O   UNL     1      13.107 -31.894  20.451  1.00  0.00    -0.550 OA
ENDBRANCH  13  14
ENDBRANCH  12  13
ENDBRANCH  11  12
ENDBRANCH  10  11
ENDBRANCH   9  10
ENDBRANCH   8   9
ENDBRANCH   7   8
ENDBRANCH   6   7
ENDBRANCH   5   6
ENDBRANCH   4   5
ENDBRANCH   3   4
ENDBRANCH   2   3
ENDBRANCH   1   2
BRANCH   1  17
ATOM     17  C   UNL     1      17.621 -37.220  20.611  1.00  0.00     0.000 C 
BRANCH  17  18
ATOM     18  C   UNL     1      17.332 -36.224  19.467  1.00  0.00     0.000 C 
BRANCH  18  19
ATOM     19  C   UNL     1      18.430 -35.169  19.226  1.00  0.00     0.000 C 
BRANCH  19  20
ATOM     20  C   UNL     1      18.053 -33.745  19.691  1.00  0.00     0.000 C 
BRANCH  20  21
ATOM     21  C   UNL     1      16.590 -33.601  20.157  1.00  0.00     0.000 C 
BRANCH  21  22
ATOM     22  C   UNL     1      16.436 -33.289  21.658  1.00  0.00    -0.000 C 
BRANCH  22  23
ATOM     23  C   UNL     1      15.227 -34.004  22.285  1.00  0.00    -0.000 C 
BRANCH  23  24
ATOM     24  C   UNL     1      15.188 -33.885  23.819  1.00  0.00    -0.000 C 
BRANCH  24  25
ATOM     25  C   UNL     1      16.529 -33.515  24.479  1.00  0.00    -0.000 C 
BRANCH  25  26
ATOM     26  C   UNL     1      16.802 -34.312  25.765  1.00  0.00    -0.000 C 
BRANCH  26  27
ATOM     27  C   UNL     1      16.902 -35.825  25.511  1.00  0.00    -0.000 C 
BRANCH  27  28
ATOM     28  C   UNL     1      18.250 -36.414  25.953  1.00  0.00    -0.000 C 
BRANCH  28  29
ATOM     29  C   UNL     1      18.074 -37.836  26.497  1.00  0.00    -0.003 C 
ATOM     30  C   UNL     1      16.655 -38.059  27.014  1.00  0.00     0.004 C 
ENDBRANCH  28  29
ENDBRANCH  27  28
ENDBRANCH  26  27
ENDBRANCH  25  26
ENDBRANCH  24  25
ENDBRANCH  23  24
ENDBRANCH  22  23
ENDBRANCH  21  22
ENDBRANCH  20  21
ENDBRANCH  19  20
ENDBRANCH  18  19
ENDBRANCH  17  18
ENDBRANCH   1  17
TORSDOF 26
ENDMDL
MODEL 2
REMARK VINA RESULT:    -4.684      2.723      7.883
REMARK INTER + INTRA:         -17.491
REMARK INTER:                 -13.337
REMARK INTRA:                  -4.154
REMARK UNBOUND:                -5.687
REMARK SMILES CCCCCCCCCCCCCCCCCCCCCCCCCCCC(=O)[O-]
REMARK SMILES IDX 15 1 16 2 17 3 18 4 19 5 20 6 21 7 22 8 23 9 24 10 25 11
REMARK SMILES IDX 26 12 27 13 28 14 29 15 30 16 14 17 13 18 12 19 11 20 10 21
REMARK SMILES IDX 9 22 8 23 7 24 6 25 5 26 4 27 3 28 2 29 1 30
REMARK H PARENT
REMARK Flexibility Score: inf
ROOT
ATOM      1  C   UNL     1      12.810 -29.528  22.636  1.00  0.00     0.000 C 
ENDROOT
BRANCH   1   2
ATOM      2  C   UNL     1      12.833 -31.054  22.438  1.00  0.00     0.000 C 
BRANCH   2   3
ATOM      3  C   UNL     1      13.354 -31.467  21.055  1.00  0.00     0.000 C 
BRANCH   3   4
ATOM      4  C   UNL     1      14.383 -32.602  21.175  1.00  0.00     0.000 C 
BRANCH   4   5
ATOM      5  C   UNL     1      14.292 -33.617  20.021  1.00  0.00     0.000 C 
BRANCH   5   6
ATOM      6  C   UNL     1      15.456 -34.625  19.947  1.00  0.00     0.000 C 
BRANCH   6   7
ATOM      7  C   UNL     1      16.635 -34.206  19.046  1.00  0.00     0.000 C 
BRANCH   7   8
ATOM      8  C   UNL     1      17.938 -34.998  19.272  1.00  0.00     0.000 C 
BRANCH   8   9
ATOM      9  C   UNL     1      17.738 -36.489  19.602  1.00  0.00     0.000 C 
BRANCH   9  10
ATOM     10  C   UNL     1      17.837 -36.810  21.109  1.00  0.00     0.000 C 
BRANCH  10  11
ATOM     11  C   UNL     1      19.041 -36.122  21.776  1.00  0.00     0.000 C 
BRANCH  11  12
ATOM     12  C   UNL     1      18.622 -34.974  22.710  1.00  0.00     0.006 C 
BRANCH  12  13
ATOM     13  C   UNL     1      17.170 -35.101  23.188  1.00  0.00     0.053 C 
BRANCH  13  14
ATOM     14  C   UNL     1      17.123 -35.304  24.670  1.00  0.00     0.041 C 
ATOM     15  O   UNL     1      17.587 -36.359  25.179  1.00  0.00    -0.550 OA
ATOM     16  O   UNL     1      16.528 -34.349  25.484  1.00  0.00    -0.550 OA
ENDBRANCH  13  14
ENDBRANCH  12  13
ENDBRANCH  11  12
ENDBRANCH  10  11
ENDBRANCH   9  10
ENDBRANCH   8   9
ENDBRANCH   7   8
ENDBRANCH   6   7
ENDBRANCH   5   6
ENDBRANCH   4   5
ENDBRANCH   3   4
ENDBRANCH   2   3
ENDBRANCH   1   2
BRANCH   1  17
ATOM     17  C   UNL     1      14.151 -28.907  23.079  1.00  0.00     0.000 C 
BRANCH  17  18
ATOM     18  C   UNL     1      15.098 -28.484  21.936  1.00  0.00     0.000 C 
BRANCH  18  19
ATOM     19  C   UNL     1      16.467 -29.194  21.925  1.00  0.00     0.000 C 
BRANCH  19  20
ATOM     20  C   UNL     1      16.650 -30.233  23.052  1.00  0.00     0.000 C 
BRANCH  20  21
ATOM     21  C   UNL     1      17.508 -31.452  22.654  1.00  0.00     0.000 C 
BRANCH  21  22
ATOM     22  C   UNL     1      17.901 -31.483  21.164  1.00  0.00    -0.000 C 
BRANCH  22  23
ATOM     23  C   UNL     1      19.420 -31.608  20.961  1.00  0.00    -0.000 C 
BRANCH  23  24
ATOM     24  C   UNL     1      20.221 -30.578  21.779  1.00  0.00    -0.000 C 
BRANCH  24  25
ATOM     25  C   UNL     1      20.813 -29.415  20.960  1.00  0.00    -0.000 C 
BRANCH  25  26
ATOM     26  C   UNL     1      19.817 -28.262  20.754  1.00  0.00    -0.000 C 
BRANCH  26  27
ATOM     27  C   UNL     1      20.490 -26.881  20.823  1.00  0.00    -0.000 C 
BRANCH  27  28
ATOM     28  C   UNL     1      21.608 -26.818  21.874  1.00  0.00    -0.000 C 
BRANCH  28  29
ATOM     29  C   UNL     1      22.869 -26.168  21.293  1.00  0.00    -0.003 C 
ATOM     30  C   UNL     1      22.780 -26.049  19.774  1.00  0.00     0.004 C 
ENDBRANCH  28  29
ENDBRANCH  27  28
ENDBRANCH  26  27
ENDBRANCH  25  26
ENDBRANCH  24  25
ENDBRANCH  23  24
ENDBRANCH  22  23
ENDBRANCH  21  22
ENDBRANCH  20  21
ENDBRANCH  19  20
ENDBRANCH  18  19
ENDBRANCH  17  18
ENDBRANCH   1  17
TORSDOF 26
ENDMDL
MODEL 3
REMARK VINA RESULT:    -4.683      4.289      6.689
REMARK INTER + INTRA:         -17.489
REMARK INTER:                 -13.858
REMARK INTRA:                  -3.631
REMARK UNBOUND:                -5.687
REMARK SMILES CCCCCCCCCCCCCCCCCCCCCCCCCCCC(=O)[O-]
REMARK SMILES IDX 15 1 16 2 17 3 18 4 19 5 20 6 21 7 22 8 23 9 24 10 25 11
REMARK SMILES IDX 26 12 27 13 28 14 29 15 30 16 14 17 13 18 12 19 11 20 10 21
REMARK SMILES IDX 9 22 8 23 7 24 6 25 5 26 4 27 3 28 2 29 1 30
REMARK H PARENT
REMARK Flexibility Score: inf
ROOT
ATOM      1  C   UNL     1      15.022 -29.605  23.071  1.00  0.00     0.000 C 
ENDROOT
BRANCH   1   2
ATOM      2  C   UNL     1      16.529 -29.912  23.130  1.00  0.00     0.000 C 
BRANCH   2   3
ATOM      3  C   UNL     1      17.188 -29.931  21.743  1.00  0.00     0.000 C 
BRANCH   3   4
ATOM      4  C   UNL     1      17.290 -31.367  21.206  1.00  0.00     0.000 C 
BRANCH   4   5
ATOM      5  C   UNL     1      18.742 -31.872  21.121  1.00  0.00     0.000 C 
BRANCH   5   6
ATOM      6  C   UNL     1      19.630 -31.508  22.327  1.00  0.00     0.000 C 
BRANCH   6   7
ATOM      7  C   UNL     1      20.907 -30.711  21.988  1.00  0.00     0.000 C 
BRANCH   7   8
ATOM      8  C   UNL     1      20.744 -29.668  20.866  1.00  0.00     0.000 C 
BRANCH   8   9
ATOM      9  C   UNL     1      21.023 -28.214  21.289  1.00  0.00     0.000 C 
BRANCH   9  10
ATOM     10  C   UNL     1      20.094 -27.182  20.615  1.00  0.00     0.000 C 
BRANCH  10  11
ATOM     11  C   UNL     1      20.843 -25.903  20.201  1.00  0.00     0.000 C 
BRANCH  11  12
ATOM     12  C   UNL     1      22.370 -26.084  20.209  1.00  0.00     0.006 C 
BRANCH  12  13
ATOM     13  C   UNL     1      23.103 -24.965  19.459  1.00  0.00     0.053 C 
BRANCH  13  14
ATOM     14  C   UNL     1      23.651 -23.961  20.423  1.00  0.00     0.041 C 
ATOM     15  O   UNL     1      24.577 -23.184  20.071  1.00  0.00    -0.550 OA
ATOM     16  O   UNL     1      23.169 -23.912  21.725  1.00  0.00    -0.550 OA
ENDBRANCH  13  14
ENDBRANCH  12  13
ENDBRANCH  11  12
ENDBRANCH  10  11
ENDBRANCH   9  10
ENDBRANCH   8   9
ENDBRANCH   7   8
ENDBRANCH   6   7
ENDBRANCH   5   6
ENDBRANCH   4   5
ENDBRANCH   3   4
ENDBRANCH   2   3
ENDBRANCH   1   2
BRANCH   1  17
ATOM     17  C   UNL     1      14.114 -30.663  23.731  1.00  0.00     0.000 C 
BRANCH  17  18
ATOM     18  C   UNL     1      13.123 -31.374  22.785  1.00  0.00     0.000 C 
BRANCH  18  19
ATOM     19  C   UNL     1      13.296 -31.042  21.289  1.00  0.00     0.000 C 
BRANCH  19  20
ATOM     20  C   UNL     1      13.509 -32.278  20.388  1.00  0.00     0.000 C 
BRANCH  20  21
ATOM     21  C   UNL     1      14.546 -33.284  20.931  1.00  0.00     0.000 C 
BRANCH  21  22
ATOM     22  C   UNL     1      14.797 -34.489  20.003  1.00  0.00    -0.000 C 
BRANCH  22  23
ATOM     23  C   UNL     1      16.282 -34.643  19.632  1.00  0.00    -0.000 C 
BRANCH  23  24
ATOM     24  C   UNL     1      16.703 -36.111  19.438  1.00  0.00    -0.000 C 
BRANCH  24  25
ATOM     25  C   UNL     1      17.776 -36.617  20.420  1.00  0.00    -0.000 C 
BRANCH  25  26
ATOM     26  C   UNL     1      18.247 -35.530  21.401  1.00  0.00    -0.000 C 
BRANCH  26  27
ATOM     27  C   UNL     1      18.025 -35.926  22.870  1.00  0.00    -0.000 C 
BRANCH  27  28
ATOM     28  C   UNL     1      17.101 -34.951  23.615  1.00  0.00    -0.000 C 
BRANCH  28  29
ATOM     29  C   UNL     1      17.824 -34.316  24.809  1.00  0.00    -0.003 C 
ATOM     30  C   UNL     1      17.474 -32.837  24.945  1.00  0.00     0.004 C 
ENDBRANCH  28  29
ENDBRANCH  27  28
ENDBRANCH  26  27
ENDBRANCH  25  26
ENDBRANCH  24  25
ENDBRANCH  23  24
ENDBRANCH  22  23
ENDBRANCH  21  22
ENDBRANCH  20  21
ENDBRANCH  19  20
ENDBRANCH  18  19
ENDBRANCH  17  18
ENDBRANCH   1  17
TORSDOF 26
ENDMDL
MODEL 4
REMARK VINA RESULT:    -4.643      1.127      3.611
REMARK INTER + INTRA:         -17.387
REMARK INTER:                 -12.473
REMARK INTRA:                  -4.914
REMARK UNBOUND:                -5.687
REMARK SMILES CCCCCCCCCCCCCCCCCCCCCCCCCCCC(=O)[O-]
REMARK SMILES IDX 15 1 16 2 17 3 18 4 19 5 20 6 21 7 22 8 23 9 24 10 25 11
REMARK SMILES IDX 26 12 27 13 28 14 29 15 30 16 14 17 13 18 12 19 11 20 10 21
REMARK SMILES IDX 9 22 8 23 7 24 6 25 5 26 4 27 3 28 2 29 1 30
REMARK H PARENT
REMARK Flexibility Score: inf
ROOT
ATOM      1  C   UNL     1      17.642 -31.593  20.639  1.00  0.00     0.000 C 
ENDROOT
BRANCH   1   2
ATOM      2  C   UNL     1      18.474 -30.564  21.425  1.00  0.00     0.000 C 
BRANCH   2   3
ATOM      3  C   UNL     1      19.984 -30.829  21.342  1.00  0.00     0.000 C 
BRANCH   3   4
ATOM      4  C   UNL     1      20.579 -31.045  22.742  1.00  0.00     0.000 C 
BRANCH   4   5
ATOM      5  C   UNL     1      20.154 -32.382  23.373  1.00  0.00     0.000 C 
BRANCH   5   6
ATOM      6  C   UNL     1      19.432 -32.262  24.730  1.00  0.00     0.000 C 
BRANCH   6   7
ATOM      7  C   UNL     1      17.891 -32.254  24.659  1.00  0.00     0.000 C 
BRANCH   7   8
ATOM      8  C   UNL     1      17.251 -33.604  24.282  1.00  0.00     0.000 C 
BRANCH   8   9
ATOM      9  C   UNL     1      16.082 -33.508  23.284  1.00  0.00     0.000 C 
BRANCH   9  10
ATOM     10  C   UNL     1      14.691 -33.520  23.955  1.00  0.00     0.000 C 
BRANCH  10  11
ATOM     11  C   UNL     1      14.032 -32.129  23.958  1.00  0.00     0.000 C 
BRANCH  11  12
ATOM     12  C   UNL     1      14.719 -31.147  22.996  1.00  0.00     0.006 C 
BRANCH  12  13
ATOM     13  C   UNL     1      13.768 -30.060  22.481  1.00  0.00     0.053 C 
BRANCH  13  14
ATOM     14  C   UNL     1      12.643 -30.672  21.707  1.00  0.00     0.041 C 
ATOM     15  O   UNL     1      12.885 -31.477  20.769  1.00  0.00    -0.550 OA
ATOM     16  O   UNL     1      11.330 -30.320  21.992  1.00  0.00    -0.550 OA
ENDBRANCH  13  14
ENDBRANCH  12  13
ENDBRANCH  11  12
ENDBRANCH  10  11
ENDBRANCH   9  10
ENDBRANCH   8   9
ENDBRANCH   7   8
ENDBRANCH   6   7
ENDBRANCH   5   6
ENDBRANCH   4   5
ENDBRANCH   3   4
ENDBRANCH   2   3
ENDBRANCH   1   2
BRANCH   1  17
ATOM     17  C   UNL     1      18.373 -32.913  20.316  1.00  0.00     0.000 C 
BRANCH  17  18
ATOM     18  C   UNL     1      17.672 -33.826  19.288  1.00  0.00     0.000 C 
BRANCH  18  19
ATOM     19  C   UNL     1      16.205 -34.172  19.613  1.00  0.00     0.000 C 
BRANCH  19  20
ATOM     20  C   UNL     1      16.006 -35.578  20.221  1.00  0.00     0.000 C 
BRANCH  20  21
ATOM     21  C   UNL     1      16.958 -36.651  19.655  1.00  0.00     0.000 C 
BRANCH  21  22
ATOM     22  C   UNL     1      17.826 -37.345  20.723  1.00  0.00    -0.000 C 
BRANCH  22  23
ATOM     23  C   UNL     1      17.987 -36.492  21.993  1.00  0.00    -0.000 C 
BRANCH  23  24
ATOM     24  C   UNL     1      19.393 -35.881  22.131  1.00  0.00    -0.000 C 
BRANCH  24  25
ATOM     25  C   UNL     1      20.403 -36.740  22.915  1.00  0.00    -0.000 C 
BRANCH  25  26
ATOM     26  C   UNL     1      19.796 -37.370  24.180  1.00  0.00    -0.000 C 
BRANCH  26  27
ATOM     27  C   UNL     1      19.666 -36.364  25.335  1.00  0.00    -0.000 C 
BRANCH  27  28
ATOM     28  C   UNL     1      18.317 -36.468  26.064  1.00  0.00    -0.000 C 
BRANCH  28  29
ATOM     29  C   UNL     1      17.861 -37.928  26.164  1.00  0.00    -0.003 C 
ATOM     30  C   UNL     1      16.887 -38.125  27.322  1.00  0.00     0.004 C 
ENDBRANCH  28  29
ENDBRANCH  27  28
ENDBRANCH  26  27
ENDBRANCH  25  26
ENDBRANCH  24  25
ENDBRANCH  23  24
ENDBRANCH  22  23
ENDBRANCH  21  22
ENDBRANCH  20  21
ENDBRANCH  19  20
ENDBRANCH  18  19
ENDBRANCH  17  18
ENDBRANCH   1  17
TORSDOF 26
ENDMDL
MODEL 5
REMARK VINA RESULT:    -4.548      3.421      6.080
REMARK INTER + INTRA:         -17.147
REMARK INTER:                 -13.023
REMARK INTRA:                  -4.124
REMARK UNBOUND:                -5.687
REMARK SMILES CCCCCCCCCCCCCCCCCCCCCCCCCCCC(=O)[O-]
REMARK SMILES IDX 15 1 16 2 17 3 18 4 19 5 20 6 21 7 22 8 23 9 24 10 25 11
REMARK SMILES IDX 26 12 27 13 28 14 29 15 30 16 14 17 13 18 12 19 11 20 10 21
REMARK SMILES IDX 9 22 8 23 7 24 6 25 5 26 4 27 3 28 2 29 1 30
REMARK H PARENT
REMARK Flexibility Score: inf
ROOT
ATOM      1  C   UNL     1      12.554 -30.429  22.079  1.00  0.00     0.000 C 
ENDROOT
BRANCH   1   2
ATOM      2  C   UNL     1      13.014 -29.214  22.904  1.00  0.00     0.000 C 
BRANCH   2   3
ATOM      3  C   UNL     1      14.539 -29.145  23.065  1.00  0.00     0.000 C 
BRANCH   3   4
ATOM      4  C   UNL     1      15.200 -28.606  21.787  1.00  0.00     0.000 C 
BRANCH   4   5
ATOM      5  C   UNL     1      16.685 -28.992  21.673  1.00  0.00     0.000 C 
BRANCH   5   6
ATOM      6  C   UNL     1      17.043 -30.380  22.240  1.00  0.00     0.000 C 
BRANCH   6   7
ATOM      7  C   UNL     1      17.519 -31.415  21.200  1.00  0.00     0.000 C 
BRANCH   7   8
ATOM      8  C   UNL     1      19.047 -31.593  21.114  1.00  0.00     0.000 C 
BRANCH   8   9
ATOM      9  C   UNL     1      19.867 -30.479  21.791  1.00  0.00     0.000 C 
BRANCH   9  10
ATOM     10  C   UNL     1      20.859 -29.773  20.842  1.00  0.00     0.000 C 
BRANCH  10  11
ATOM     11  C   UNL     1      21.134 -28.318  21.259  1.00  0.00     0.000 C 
BRANCH  11  12
ATOM     12  C   UNL     1      19.994 -27.364  20.863  1.00  0.00     0.006 C 
BRANCH  12  13
ATOM     13  C   UNL     1      20.504 -26.075  20.207  1.00  0.00     0.053 C 
BRANCH  13  14
ATOM     14  C   UNL     1      21.129 -25.179  21.230  1.00  0.00     0.041 C 
ATOM     15  O   UNL     1      22.106 -24.448  20.919  1.00  0.00    -0.550 OA
ATOM     16  O   UNL     1      20.660 -25.184  22.537  1.00  0.00    -0.550 OA
ENDBRANCH  13  14
ENDBRANCH  12  13
ENDBRANCH  11  12
ENDBRANCH  10  11
ENDBRANCH   9  10
ENDBRANCH   8   9
ENDBRANCH   7   8
ENDBRANCH   6   7
ENDBRANCH   5   6
ENDBRANCH   4   5
ENDBRANCH   3   4
ENDBRANCH   2   3
ENDBRANCH   1   2
BRANCH   1  17
ATOM     17  C   UNL     1      13.449 -31.679  22.203  1.00  0.00     0.000 C 
BRANCH  17  18
ATOM     18  C   UNL     1      13.889 -32.318  20.869  1.00  0.00     0.000 C 
BRANCH  18  19
ATOM     19  C   UNL     1      14.745 -33.593  21.005  1.00  0.00     0.000 C 
BRANCH  19  20
ATOM     20  C   UNL     1      15.059 -34.290  19.663  1.00  0.00     0.000 C 
BRANCH  20  21
ATOM     21  C   UNL     1      16.564 -34.507  19.401  1.00  0.00     0.000 C 
BRANCH  21  22
ATOM     22  C   UNL     1      16.999 -35.986  19.433  1.00  0.00    -0.000 C 
BRANCH  22  23
ATOM     23  C   UNL     1      17.739 -36.350  20.731  1.00  0.00    -0.000 C 
BRANCH  23  24
ATOM     24  C   UNL     1      18.126 -35.117  21.569  1.00  0.00    -0.000 C 
BRANCH  24  25
ATOM     25  C   UNL     1      18.039 -35.312  23.094  1.00  0.00    -0.000 C 
BRANCH  25  26
ATOM     26  C   UNL     1      16.685 -34.871  23.676  1.00  0.00    -0.000 C 
BRANCH  26  27
ATOM     27  C   UNL     1      16.725 -33.443  24.244  1.00  0.00    -0.000 C 
BRANCH  27  28
ATOM     28  C   UNL     1      17.741 -33.287  25.386  1.00  0.00    -0.000 C 
BRANCH  28  29
ATOM     29  C   UNL     1      18.605 -32.036  25.183  1.00  0.00    -0.003 C 
ATOM     30  C   UNL     1      19.374 -31.683  26.453  1.00  0.00     0.004 C 
ENDBRANCH  28  29
ENDBRANCH  27  28
ENDBRANCH  26  27
ENDBRANCH  25  26
ENDBRANCH  24  25
ENDBRANCH  23  24
ENDBRANCH  22  23
ENDBRANCH  21  22
ENDBRANCH  20  21
ENDBRANCH  19  20
ENDBRANCH  18  19
ENDBRANCH  17  18
ENDBRANCH   1  17
TORSDOF 26
ENDMDL
MODEL 6
REMARK VINA RESULT:    -4.542      2.825      6.875
REMARK INTER + INTRA:         -17.134
REMARK INTER:                 -12.050
REMARK INTRA:                  -5.084
REMARK UNBOUND:                -5.687
REMARK SMILES CCCCCCCCCCCCCCCCCCCCCCCCCCCC(=O)[O-]
REMARK SMILES IDX 15 1 16 2 17 3 18 4 19 5 20 6 21 7 22 8 23 9 24 10 25 11
REMARK SMILES IDX 26 12 27 13 28 14 29 15 30 16 14 17 13 18 12 19 11 20 10 21
REMARK SMILES IDX 9 22 8 23 7 24 6 25 5 26 4 27 3 28 2 29 1 30
REMARK H PARENT
REMARK Flexibility Score: inf
ROOT
ATOM      1  C   UNL     1      17.320 -32.541  24.292  1.00  0.00     0.000 C 
ENDROOT
BRANCH   1   2
ATOM      2  C   UNL     1      16.163 -33.415  24.806  1.00  0.00     0.000 C 
BRANCH   2   3
ATOM      3  C   UNL     1      15.377 -34.090  23.672  1.00  0.00     0.000 C 
BRANCH   3   4
ATOM      4  C   UNL     1      15.985 -33.745  22.304  1.00  0.00     0.000 C 
BRANCH   4   5
ATOM      5  C   UNL     1      14.932 -33.666  21.185  1.00  0.00     0.000 C 
BRANCH   5   6
ATOM      6  C   UNL     1      15.315 -34.387  19.877  1.00  0.00     0.000 C 
BRANCH   6   7
ATOM      7  C   UNL     1      16.725 -35.014  19.859  1.00  0.00     0.000 C 
BRANCH   7   8
ATOM      8  C   UNL     1      16.751 -36.548  19.719  1.00  0.00     0.000 C 
BRANCH   8   9
ATOM      9  C   UNL     1      17.755 -37.263  20.642  1.00  0.00     0.000 C 
BRANCH   9  10
ATOM     10  C   UNL     1      18.273 -36.381  21.799  1.00  0.00     0.000 C 
BRANCH  10  11
ATOM     11  C   UNL     1      19.156 -37.166  22.784  1.00  0.00     0.000 C 
BRANCH  11  12
ATOM     12  C   UNL     1      19.263 -36.481  24.157  1.00  0.00     0.006 C 
BRANCH  12  13
ATOM     13  C   UNL     1      17.934 -36.481  24.923  1.00  0.00     0.053 C 
BRANCH  13  14
ATOM     14  C   UNL     1      18.055 -37.286  26.179  1.00  0.00     0.041 C 
ATOM     15  O   UNL     1      19.145 -37.316  26.809  1.00  0.00    -0.550 OA
ATOM     16  O   UNL     1      16.978 -38.039  26.628  1.00  0.00    -0.550 OA
ENDBRANCH  13  14
ENDBRANCH  12  13
ENDBRANCH  11  12
ENDBRANCH  10  11
ENDBRANCH   9  10
ENDBRANCH   8   9
ENDBRANCH   7   8
ENDBRANCH   6   7
ENDBRANCH   5   6
ENDBRANCH   4   5
ENDBRANCH   3   4
ENDBRANCH   2   3
ENDBRANCH   1   2
BRANCH   1  17
ATOM     17  C   UNL     1      18.475 -32.331  25.293  1.00  0.00     0.000 C 
BRANCH  17  18
ATOM     18  C   UNL     1      19.848 -32.878  24.850  1.00  0.00     0.000 C 
BRANCH  18  19
ATOM     19  C   UNL     1      20.090 -32.882  23.327  1.00  0.00     0.000 C 
BRANCH  19  20
ATOM     20  C   UNL     1      20.741 -31.590  22.787  1.00  0.00     0.000 C 
BRANCH  20  21
ATOM     21  C   UNL     1      20.035 -30.997  21.550  1.00  0.00     0.000 C 
BRANCH  21  22
ATOM     22  C   UNL     1      18.955 -31.914  20.943  1.00  0.00    -0.000 C 
BRANCH  22  23
ATOM     23  C   UNL     1      17.644 -31.164  20.654  1.00  0.00    -0.000 C 
BRANCH  23  24
ATOM     24  C   UNL     1      17.435 -29.945  21.571  1.00  0.00    -0.000 C 
BRANCH  24  25
ATOM     25  C   UNL     1      15.964 -29.579  21.845  1.00  0.00    -0.000 C 
BRANCH  25  26
ATOM     26  C   UNL     1      15.534 -29.878  23.291  1.00  0.00    -0.000 C 
BRANCH  26  27
ATOM     27  C   UNL     1      14.177 -30.597  23.366  1.00  0.00    -0.000 C 
BRANCH  27  28
ATOM     28  C   UNL     1      12.990 -29.623  23.400  1.00  0.00    -0.000 C 
BRANCH  28  29
ATOM     29  C   UNL     1      11.913 -30.037  22.390  1.00  0.00    -0.003 C 
ATOM     30  C   UNL     1      12.488 -30.955  21.315  1.00  0.00     0.004 C 
ENDBRANCH  28  29
ENDBRANCH  27  28
ENDBRANCH  26  27
ENDBRANCH  25  26
ENDBRANCH  24  25
ENDBRANCH  23  24
ENDBRANCH  22  23
ENDBRANCH  21  22
ENDBRANCH  20  21
ENDBRANCH  19  20
ENDBRANCH  18  19
ENDBRANCH  17  18
ENDBRANCH   1  17
TORSDOF 26
ENDMDL
MODEL 7
REMARK VINA RESULT:    -4.540      2.915      5.805
REMARK INTER + INTRA:         -17.127
REMARK INTER:                 -12.682
REMARK INTRA:                  -4.445
REMARK UNBOUND:                -5.687
REMARK SMILES CCCCCCCCCCCCCCCCCCCCCCCCCCCC(=O)[O-]
REMARK SMILES IDX 15 1 16 2 17 3 18 4 19 5 20 6 21 7 22 8 23 9 24 10 25 11
REMARK SMILES IDX 26 12 27 13 28 14 29 15 30 16 14 17 13 18 12 19 11 20 10 21
REMARK SMILES IDX 9 22 8 23 7 24 6 25 5 26 4 27 3 28 2 29 1 30
REMARK H PARENT
REMARK Flexibility Score: inf
ROOT
ATOM      1  C   UNL     1      17.002 -29.690  21.998  1.00  0.00     0.000 C 
ENDROOT
BRANCH   1   2
ATOM      2  C   UNL     1      15.514 -29.637  21.610  1.00  0.00     0.000 C 
BRANCH   2   3
ATOM      3  C   UNL     1      14.733 -28.568  22.388  1.00  0.00     0.000 C 
BRANCH   3   4
ATOM      4  C   UNL     1      13.806 -29.216  23.428  1.00  0.00     0.000 C 
BRANCH   4   5
ATOM      5  C   UNL     1      13.177 -30.530  22.932  1.00  0.00     0.000 C 
BRANCH   5   6
ATOM      6  C   UNL     1      13.482 -31.767  23.801  1.00  0.00     0.000 C 
BRANCH   6   7
ATOM      7  C   UNL     1      14.937 -32.275  23.737  1.00  0.00     0.000 C 
BRANCH   7   8
ATOM      8  C   UNL     1      15.113 -33.659  23.081  1.00  0.00     0.000 C 
BRANCH   8   9
ATOM      9  C   UNL     1      16.377 -34.423  23.516  1.00  0.00     0.000 C 
BRANCH   9  10
ATOM     10  C   UNL     1      17.040 -33.855  24.789  1.00  0.00     0.000 C 
BRANCH  10  11
ATOM     11  C   UNL     1      18.453 -33.310  24.521  1.00  0.00     0.000 C 
BRANCH  11  12
ATOM     12  C   UNL     1      18.534 -31.781  24.660  1.00  0.00     0.006 C 
BRANCH  12  13
ATOM     13  C   UNL     1      18.721 -31.328  26.113  1.00  0.00     0.053 C 
BRANCH  13  14
ATOM     14  C   UNL     1      20.173 -31.312  26.474  1.00  0.00     0.041 C 
ATOM     15  O   UNL     1      20.525 -31.263  27.682  1.00  0.00    -0.550 OA
ATOM     16  O   UNL     1      21.137 -31.307  25.474  1.00  0.00    -0.550 OA
ENDBRANCH  13  14
ENDBRANCH  12  13
ENDBRANCH  11  12
ENDBRANCH  10  11
ENDBRANCH   9  10
ENDBRANCH   8   9
ENDBRANCH   7   8
ENDBRANCH   6   7
ENDBRANCH   5   6
ENDBRANCH   4   5
ENDBRANCH   3   4
ENDBRANCH   2   3
ENDBRANCH   1   2
BRANCH   1  17
ATOM     17  C   UNL     1      17.882 -30.574  21.091  1.00  0.00     0.000 C 
BRANCH  17  18
ATOM     18  C   UNL     1      17.325 -31.982  20.791  1.00  0.00     0.000 C 
BRANCH  18  19
ATOM     19  C   UNL     1      18.389 -33.059  20.501  1.00  0.00     0.000 C 
BRANCH  19  20
ATOM     20  C   UNL     1      18.034 -33.999  19.328  1.00  0.00     0.000 C 
BRANCH  20  21
ATOM     21  C   UNL     1      16.578 -34.507  19.345  1.00  0.00     0.000 C 
BRANCH  21  22
ATOM     22  C   UNL     1      16.393 -35.859  20.062  1.00  0.00    -0.000 C 
BRANCH  22  23
ATOM     23  C   UNL     1      17.625 -36.769  19.924  1.00  0.00    -0.000 C 
BRANCH  23  24
ATOM     24  C   UNL     1      18.149 -37.281  21.278  1.00  0.00    -0.000 C 
BRANCH  24  25
ATOM     25  C   UNL     1      19.151 -36.349  21.984  1.00  0.00    -0.000 C 
BRANCH  25  26
ATOM     26  C   UNL     1      19.999 -37.075  23.042  1.00  0.00    -0.000 C 
BRANCH  26  27
ATOM     27  C   UNL     1      19.143 -37.892  24.024  1.00  0.00    -0.000 C 
BRANCH  27  28
ATOM     28  C   UNL     1      18.498 -37.022  25.114  1.00  0.00    -0.000 C 
BRANCH  28  29
ATOM     29  C   UNL     1      18.279 -37.829  26.400  1.00  0.00    -0.003 C 
ATOM     30  C   UNL     1      16.811 -37.819  26.815  1.00  0.00     0.004 C 
ENDBRANCH  28  29
ENDBRANCH  27  28
ENDBRANCH  26  27
ENDBRANCH  25  26
ENDBRANCH  24  25
ENDBRANCH  23  24
ENDBRANCH  22  23
ENDBRANCH  21  22
ENDBRANCH  20  21
ENDBRANCH  19  20
ENDBRANCH  18  19
ENDBRANCH  17  18
ENDBRANCH   1  17
TORSDOF 26
ENDMDL
MODEL 8
REMARK VINA RESULT:    -4.515      1.791      4.857
REMARK INTER + INTRA:         -17.065
REMARK INTER:                 -11.628
REMARK INTRA:                  -5.436
REMARK UNBOUND:                -5.687
REMARK SMILES CCCCCCCCCCCCCCCCCCCCCCCCCCCC(=O)[O-]
REMARK SMILES IDX 15 1 16 2 17 3 18 4 19 5 20 6 21 7 22 8 23 9 24 10 25 11
REMARK SMILES IDX 26 12 27 13 28 14 29 15 30 16 14 17 13 18 12 19 11 20 10 21
REMARK SMILES IDX 9 22 8 23 7 24 6 25 5 26 4 27 3 28 2 29 1 30
REMARK H PARENT
REMARK Flexibility Score: inf
ROOT
ATOM      1  C   UNL     1      19.063 -29.762  21.301  1.00  0.00     0.000 C 
ENDROOT
BRANCH   1   2
ATOM      2  C   UNL     1      18.020 -30.754  20.756  1.00  0.00     0.000 C 
BRANCH   2   3
ATOM      3  C   UNL     1      17.703 -31.886  21.743  1.00  0.00     0.000 C 
BRANCH   3   4
ATOM      4  C   UNL     1      18.322 -33.211  21.272  1.00  0.00     0.000 C 
BRANCH   4   5
ATOM      5  C   UNL     1      18.362 -33.342  19.739  1.00  0.00     0.000 C 
BRANCH   5   6
ATOM      6  C   UNL     1      17.364 -34.355  19.145  1.00  0.00     0.000 C 
BRANCH   6   7
ATOM      7  C   UNL     1      16.713 -35.314  20.162  1.00  0.00     0.000 C 
BRANCH   7   8
ATOM      8  C   UNL     1      15.201 -35.106  20.375  1.00  0.00     0.000 C 
BRANCH   8   9
ATOM      9  C   UNL     1      14.699 -33.678  20.089  1.00  0.00     0.000 C 
BRANCH   9  10
ATOM     10  C   UNL     1      14.321 -32.887  21.360  1.00  0.00     0.000 C 
BRANCH  10  11
ATOM     11  C   UNL     1      13.525 -31.610  21.039  1.00  0.00     0.000 C 
BRANCH  11  12
ATOM     12  C   UNL     1      14.328 -30.328  21.318  1.00  0.00     0.006 C 
BRANCH  12  13
ATOM     13  C   UNL     1      14.637 -30.135  22.808  1.00  0.00     0.053 C 
BRANCH  13  14
ATOM     14  C   UNL     1      13.710 -29.125  23.408  1.00  0.00     0.041 C 
ATOM     15  O   UNL     1      14.080 -27.929  23.545  1.00  0.00    -0.550 OA
ATOM     16  O   UNL     1      12.455 -29.514  23.856  1.00  0.00    -0.550 OA
ENDBRANCH  13  14
ENDBRANCH  12  13
ENDBRANCH  11  12
ENDBRANCH  10  11
ENDBRANCH   9  10
ENDBRANCH   8   9
ENDBRANCH   7   8
ENDBRANCH   6   7
ENDBRANCH   5   6
ENDBRANCH   4   5
ENDBRANCH   3   4
ENDBRANCH   2   3
ENDBRANCH   1   2
BRANCH   1  17
ATOM     17  C   UNL     1      20.527 -30.244  21.222  1.00  0.00     0.000 C 
BRANCH  17  18
ATOM     18  C   UNL     1      21.210 -30.521  22.578  1.00  0.00     0.000 C 
BRANCH  18  19
ATOM     19  C   UNL     1      21.404 -32.012  22.921  1.00  0.00     0.000 C 
BRANCH  19  20
ATOM     20  C   UNL     1      20.508 -32.517  24.073  1.00  0.00     0.000 C 
BRANCH  20  21
ATOM     21  C   UNL     1      19.712 -31.406  24.788  1.00  0.00     0.000 C 
BRANCH  21  22
ATOM     22  C   UNL     1      18.354 -31.870  25.352  1.00  0.00    -0.000 C 
BRANCH  22  23
ATOM     23  C   UNL     1      18.280 -33.398  25.515  1.00  0.00    -0.000 C 
BRANCH  23  24
ATOM     24  C   UNL     1      16.983 -34.001  24.944  1.00  0.00    -0.000 C 
BRANCH  24  25
ATOM     25  C   UNL     1      17.187 -35.117  23.903  1.00  0.00    -0.000 C 
BRANCH  25  26
ATOM     26  C   UNL     1      18.338 -36.070  24.266  1.00  0.00    -0.000 C 
BRANCH  26  27
ATOM     27  C   UNL     1      18.796 -36.923  23.072  1.00  0.00    -0.000 C 
BRANCH  27  28
ATOM     28  C   UNL     1      19.805 -36.194  22.173  1.00  0.00    -0.000 C 
BRANCH  28  29
ATOM     29  C   UNL     1      21.121 -35.942  22.919  1.00  0.00    -0.003 C 
ATOM     30  C   UNL     1      21.810 -37.254  23.283  1.00  0.00     0.004 C 
ENDBRANCH  28  29
ENDBRANCH  27  28
ENDBRANCH  26  27
ENDBRANCH  25  26
ENDBRANCH  24  25
ENDBRANCH  23  24
ENDBRANCH  22  23
ENDBRANCH  21  22
ENDBRANCH  20  21
ENDBRANCH  19  20
ENDBRANCH  18  19
ENDBRANCH  17  18
ENDBRANCH   1  17
TORSDOF 26
ENDMDL
MODEL 9
REMARK VINA RESULT:    -4.459      3.419      6.031
REMARK INTER + INTRA:         -16.923
REMARK INTER:                 -13.272
REMARK INTRA:                  -3.651
REMARK UNBOUND:                -5.687
REMARK SMILES CCCCCCCCCCCCCCCCCCCCCCCCCCCC(=O)[O-]
REMARK SMILES IDX 15 1 16 2 17 3 18 4 19 5 20 6 21 7 22 8 23 9 24 10 25 11
REMARK SMILES IDX 26 12 27 13 28 14 29 15 30 16 14 17 13 18 12 19 11 20 10 21
REMARK SMILES IDX 9 22 8 23 7 24 6 25 5 26 4 27 3 28 2 29 1 30
REMARK H PARENT
REMARK Flexibility Score: inf
ROOT
ATOM      1  C   UNL     1      17.998 -37.349  21.167  1.00  0.00     0.000 C 
ENDROOT
BRANCH   1   2
ATOM      2  C   UNL     1      17.621 -36.753  19.799  1.00  0.00     0.000 C 
BRANCH   2   3
ATOM      3  C   UNL     1      16.473 -35.738  19.888  1.00  0.00     0.000 C 
BRANCH   3   4
ATOM      4  C   UNL     1      16.820 -34.452  19.123  1.00  0.00     0.000 C 
BRANCH   4   5
ATOM      5  C   UNL     1      18.278 -34.007  19.332  1.00  0.00     0.000 C 
BRANCH   5   6
ATOM      6  C   UNL     1      18.542 -33.229  20.637  1.00  0.00     0.000 C 
BRANCH   6   7
ATOM      7  C   UNL     1      18.350 -31.702  20.545  1.00  0.00     0.000 C 
BRANCH   7   8
ATOM      8  C   UNL     1      18.716 -30.923  21.823  1.00  0.00     0.000 C 
BRANCH   8   9
ATOM      9  C   UNL     1      20.207 -30.560  21.954  1.00  0.00     0.000 C 
BRANCH   9  10
ATOM     10  C   UNL     1      20.717 -29.623  20.838  1.00  0.00     0.000 C 
BRANCH  10  11
ATOM     11  C   UNL     1      20.895 -28.174  21.327  1.00  0.00     0.000 C 
BRANCH  11  12
ATOM     12  C   UNL     1      20.071 -27.168  20.506  1.00  0.00     0.006 C 
BRANCH  12  13
ATOM     13  C   UNL     1      20.414 -25.711  20.841  1.00  0.00     0.053 C 
BRANCH  13  14
ATOM     14  C   UNL     1      21.863 -25.441  20.579  1.00  0.00     0.041 C 
ATOM     15  O   UNL     1      22.311 -25.473  19.403  1.00  0.00    -0.550 OA
ATOM     16  O   UNL     1      22.727 -25.198  21.639  1.00  0.00    -0.550 OA
ENDBRANCH  13  14
ENDBRANCH  12  13
ENDBRANCH  11  12
ENDBRANCH  10  11
ENDBRANCH   9  10
ENDBRANCH   8   9
ENDBRANCH   7   8
ENDBRANCH   6   7
ENDBRANCH   5   6
ENDBRANCH   4   5
ENDBRANCH   3   4
ENDBRANCH   2   3
ENDBRANCH   1   2
BRANCH   1  17
ATOM     17  C   UNL     1      19.072 -36.563  21.948  1.00  0.00     0.000 C 
BRANCH  17  18
ATOM     18  C   UNL     1      19.755 -37.333  23.098  1.00  0.00     0.000 C 
BRANCH  18  19
ATOM     19  C   UNL     1      18.872 -37.571  24.341  1.00  0.00     0.000 C 
BRANCH  19  20
ATOM     20  C   UNL     1      18.722 -36.336  25.255  1.00  0.00     0.000 C 
BRANCH  20  21
ATOM     21  C   UNL     1      17.265 -36.010  25.642  1.00  0.00     0.000 C 
BRANCH  21  22
ATOM     22  C   UNL     1      16.938 -34.504  25.644  1.00  0.00    -0.000 C 
BRANCH  22  23
ATOM     23  C   UNL     1      17.305 -33.824  24.314  1.00  0.00    -0.000 C 
BRANCH  23  24
ATOM     24  C   UNL     1      16.405 -34.264  23.146  1.00  0.00    -0.000 C 
BRANCH  24  25
ATOM     25  C   UNL     1      14.995 -33.643  23.138  1.00  0.00    -0.000 C 
BRANCH  25  26
ATOM     26  C   UNL     1      14.608 -33.057  21.770  1.00  0.00    -0.000 C 
BRANCH  26  27
ATOM     27  C   UNL     1      15.007 -31.579  21.627  1.00  0.00    -0.000 C 
BRANCH  27  28
ATOM     28  C   UNL     1      13.798 -30.657  21.408  1.00  0.00    -0.000 C 
BRANCH  28  29
ATOM     29  C   UNL     1      12.813 -30.757  22.579  1.00  0.00    -0.003 C 
ATOM     30  C   UNL     1      13.457 -30.294  23.883  1.00  0.00     0.004 C 
ENDBRANCH  28  29
ENDBRANCH  27  28
ENDBRANCH  26  27
ENDBRANCH  25  26
ENDBRANCH  24  25
ENDBRANCH  23  24
ENDBRANCH  22  23
ENDBRANCH  21  22
ENDBRANCH  20  21
ENDBRANCH  19  20
ENDBRANCH  18  19
ENDBRANCH  17  18
ENDBRANCH   1  17
TORSDOF 26
ENDMDL
