MODEL 1
REMARK VINA RESULT:    42.479      0.000      0.000
REMARK INTER + INTRA:          46.476
REMARK INTER:                  46.204
REMARK INTRA:                   0.271
REMARK UNBOUND:                 0.271
REMARK SMILES C[C@@H]1[C@H]2C3=CC[C@@H]4[C@@]5(C)CC[C@H](O)C(C)(C)[C@@H]5CC[C@]4(C)[C@]3(C)CC[C@@]2(C(=O)[O-])CC[C@@H]1C
REMARK SMILES IDX 26 1 30 2 25 3 3 4 31 5 24 6 4 7 2 8 32 9 22 10 5 11 1 12
REMARK SMILES IDX 33 13 23 14 20 15 6 16 7 17 19 18 21 19 8 20 18 21 17 22
REMARK SMILES IDX 10 23 9 24 14 25 11 26 12 27 15 28 16 29 27 30 28 31 29 32
REMARK SMILES IDX 13 33
REMARK H PARENT 13 34
REMARK Flexibility Score: inf
ROOT
ATOM      1  C   UNL     1       5.526 174.821  45.498  1.00  0.00     0.017 C 
ATOM      2  C   UNL     1       4.171 174.369  44.845  1.00  0.00     0.014 C 
ATOM      3  C   UNL     1       5.280 175.375  46.926  1.00  0.00     0.014 C 
ATOM      4  C   UNL     1       6.243 175.940  44.673  1.00  0.00     0.030 C 
ATOM      5  C   UNL     1       3.635 175.299  43.753  1.00  0.00     0.004 C 
ATOM      6  C   UNL     1       6.587 175.689  47.667  1.00  0.00     0.013 C 
ATOM      7  C   UNL     1       7.511 176.438  45.396  1.00  0.00    -0.063 C 
ATOM      8  C   UNL     1       5.318 177.141  44.216  1.00  0.00    -0.003 C 
ATOM      9  C   UNL     1       3.803 176.758  44.167  1.00  0.00    -0.011 C 
ATOM     10  C   UNL     1       7.582 176.650  46.919  1.00  0.00    -0.006 C 
ATOM     11  C   UNL     1       8.559 176.782  44.634  1.00  0.00    -0.027 C 
ATOM     12  C   UNL     1       5.823 177.726  42.876  1.00  0.00     0.008 C 
ATOM     13  C   UNL     1       2.929 177.676  43.296  1.00  0.00     0.008 C 
ATOM     14  C   UNL     1       7.100 178.109  47.184  1.00  0.00     0.017 C 
ATOM     15  C   UNL     1       9.096 176.417  47.448  1.00  0.00    -0.020 C 
ATOM     16  C   UNL     1       9.858 177.325  45.143  1.00  0.00     0.032 C 
ATOM     17  C   UNL     1      10.106 177.378  46.697  1.00  0.00     0.006 C 
ATOM     18  C   UNL     1       9.556 174.920  47.191  1.00  0.00     0.008 C 
ATOM     19  C   UNL     1       9.109 176.725  48.992  1.00  0.00     0.012 C 
ATOM     20  C   UNL     1      11.670 177.182  47.091  1.00  0.00    -0.025 C 
ATOM     21  C   UNL     1      11.048 174.706  46.800  1.00  0.00     0.005 C 
ATOM     22  C   UNL     1      11.941 175.701  47.555  1.00  0.00     0.003 C 
ATOM     23  C   UNL     1      12.094 178.125  48.273  1.00  0.00     0.010 C 
ATOM     24  C   UNL     1      12.574 177.596  45.883  1.00  0.00     0.012 C 
ATOM     25  C   UNL     1      13.447 175.320  47.845  1.00  0.00    -0.006 C 
ATOM     26  C   UNL     1      13.172 177.540  49.231  1.00  0.00     0.033 C 
ATOM     27  C   UNL     1      14.164 176.520  48.601  1.00  0.00     0.120 C 
ATOM     28  C   UNL     1      14.213 174.889  46.566  1.00  0.00     0.014 C 
ATOM     29  C   UNL     1      13.484 174.085  48.797  1.00  0.00     0.014 C 
ENDROOT
BRANCH   1  30
ATOM     30  C   UNL     1       6.400 173.568  45.581  1.00  0.00     0.048 C 
ATOM     31  O   UNL     1       5.926 172.493  46.038  1.00  0.00    -0.550 OA
ATOM     32  O   UNL     1       7.685 173.556  45.050  1.00  0.00    -0.550 OA
ENDBRANCH   1  30
BRANCH  27  33
ATOM     33  O   UNL     1      15.093 177.186  47.782  1.00  0.00    -0.393 OA
ATOM     34  H   UNL     1      14.692 177.262  46.877  1.00  0.00     0.210 HD
ENDBRANCH  27  33
TORSDOF 2
ENDMDL
MODEL 2
REMARK VINA RESULT:    42.947      2.145      7.815
REMARK INTER + INTRA:          46.984
REMARK INTER:                  46.651
REMARK INTRA:                   0.333
REMARK UNBOUND:                 0.271
REMARK SMILES C[C@@H]1[C@H]2C3=CC[C@@H]4[C@@]5(C)CC[C@H](O)C(C)(C)[C@@H]5CC[C@]4(C)[C@]3(C)CC[C@@]2(C(=O)[O-])CC[C@@H]1C
REMARK SMILES IDX 26 1 30 2 25 3 3 4 31 5 24 6 4 7 2 8 32 9 22 10 5 11 1 12
REMARK SMILES IDX 33 13 23 14 20 15 6 16 7 17 19 18 21 19 8 20 18 21 17 22
REMARK SMILES IDX 10 23 9 24 14 25 11 26 12 27 15 28 16 29 27 30 28 31 29 32
REMARK SMILES IDX 13 33
REMARK H PARENT 13 34
REMARK Flexibility Score: inf
ROOT
ATOM      1  C   UNL     1      11.280 176.726  48.674  1.00  0.00     0.017 C 
ATOM      2  C   UNL     1      12.561 177.103  49.500  1.00  0.00     0.014 C 
ATOM      3  C   UNL     1      11.115 175.185  48.605  1.00  0.00     0.014 C 
ATOM      4  C   UNL     1      11.338 177.262  47.205  1.00  0.00     0.030 C 
ATOM      5  C   UNL     1      13.746 177.605  48.669  1.00  0.00     0.004 C 
ATOM      6  C   UNL     1       9.797 174.765  47.940  1.00  0.00     0.013 C 
ATOM      7  C   UNL     1      10.119 176.782  46.391  1.00  0.00    -0.063 C 
ATOM      8  C   UNL     1      12.698 176.994  46.440  1.00  0.00    -0.003 C 
ATOM      9  C   UNL     1      13.905 176.763  47.407  1.00  0.00    -0.011 C 
ATOM     10  C   UNL     1       9.534 175.364  46.509  1.00  0.00    -0.006 C 
ATOM     11  C   UNL     1       9.619 177.626  45.478  1.00  0.00    -0.027 C 
ATOM     12  C   UNL     1      12.969 178.122  45.417  1.00  0.00     0.008 C 
ATOM     13  C   UNL     1      15.291 176.980  46.777  1.00  0.00     0.008 C 
ATOM     14  C   UNL     1      10.312 174.478  45.489  1.00  0.00     0.017 C 
ATOM     15  C   UNL     1       7.945 175.384  46.191  1.00  0.00    -0.020 C 
ATOM     16  C   UNL     1       8.471 177.331  44.563  1.00  0.00     0.032 C 
ATOM     17  C   UNL     1       7.670 175.988  44.753  1.00  0.00     0.006 C 
ATOM     18  C   UNL     1       7.170 176.269  47.255  1.00  0.00     0.008 C 
ATOM     19  C   UNL     1       7.432 173.896  46.255  1.00  0.00     0.012 C 
ATOM     20  C   UNL     1       6.102 176.129  44.351  1.00  0.00    -0.025 C 
ATOM     21  C   UNL     1       5.964 177.099  46.726  1.00  0.00     0.005 C 
ATOM     22  C   UNL     1       5.215 176.313  45.640  1.00  0.00     0.003 C 
ATOM     23  C   UNL     1       5.577 174.852  43.603  1.00  0.00     0.010 C 
ATOM     24  C   UNL     1       5.922 177.309  43.339  1.00  0.00     0.012 C 
ATOM     25  C   UNL     1       3.680 176.597  45.402  1.00  0.00    -0.006 C 
ATOM     26  C   UNL     1       4.086 174.495  43.872  1.00  0.00     0.033 C 
ATOM     27  C   UNL     1       3.148 175.690  44.210  1.00  0.00     0.120 C 
ATOM     28  C   UNL     1       3.377 178.102  45.175  1.00  0.00     0.014 C 
ATOM     29  C   UNL     1       2.884 176.193  46.682  1.00  0.00     0.014 C 
ENDROOT
BRANCH   1  30
ATOM     30  C   UNL     1      10.094 177.333  49.424  1.00  0.00     0.048 C 
ATOM     31  O   UNL     1      10.004 177.212  50.676  1.00  0.00    -0.550 OA
ATOM     32  O   UNL     1       9.159 178.125  48.764  1.00  0.00    -0.550 OA
ENDBRANCH   1  30
BRANCH  27  33
ATOM     33  O   UNL     1       2.875 176.438  43.052  1.00  0.00    -0.393 OA
ATOM     34  H   UNL     1       3.395 177.282  43.112  1.00  0.00     0.210 HD
ENDBRANCH  27  33
TORSDOF 2
ENDMDL
