MODEL 1
REMARK VINA RESULT:    -4.438      0.000      0.000
REMARK INTER + INTRA:          -9.230
REMARK INTER:                  -8.070
REMARK INTRA:                  -1.160
REMARK UNBOUND:                -1.160
REMARK SMILES CCCCCCCCCCCCCCCC(=O)[O-]
REMARK SMILES IDX 9 1 10 2 11 3 12 4 13 5 14 6 15 7 16 8 17 9 18 10 8 11 7 12
REMARK SMILES IDX 6 13 5 14 4 15 3 16 2 17 1 18
REMARK H PARENT
REMARK Flexibility Score: inf
ROOT
ATOM      1  C   UNL     1      11.069   1.540 -18.001  1.00  0.00     0.000 C 
ENDROOT
BRANCH   1   2
ATOM      2  C   UNL     1      11.300   1.184 -16.527  1.00  0.00     0.000 C 
BRANCH   2   3
ATOM      3  C   UNL     1      12.638   0.454 -16.339  1.00  0.00     0.000 C 
BRANCH   3   4
ATOM      4  C   UNL     1      12.601  -0.988 -16.889  1.00  0.00     0.000 C 
BRANCH   4   5
ATOM      5  C   UNL     1      12.696  -2.071 -15.797  1.00  0.00     0.000 C 
BRANCH   5   6
ATOM      6  C   UNL     1      11.699  -3.236 -15.949  1.00  0.00     0.006 C 
BRANCH   6   7
ATOM      7  C   UNL     1      12.182  -4.565 -15.348  1.00  0.00     0.053 C 
BRANCH   7   8
ATOM      8  C   UNL     1      12.223  -4.523 -13.852  1.00  0.00     0.041 C 
ATOM      9  O   UNL     1      11.209  -4.156 -13.201  1.00  0.00    -0.550 OA
ATOM     10  O   UNL     1      13.368  -4.921 -13.174  1.00  0.00    -0.550 OA
ENDBRANCH   7   8
ENDBRANCH   6   7
ENDBRANCH   5   6
ENDBRANCH   4   5
ENDBRANCH   3   4
ENDBRANCH   2   3
ENDBRANCH   1   2
BRANCH   1  11
ATOM     11  C   UNL     1      12.231   2.380 -18.553  1.00  0.00     0.000 C 
BRANCH  11  12
ATOM     12  C   UNL     1      12.596   2.009 -19.998  1.00  0.00    -0.000 C 
BRANCH  12  13
ATOM     13  C   UNL     1      13.447   0.733 -20.086  1.00  0.00    -0.000 C 
BRANCH  13  14
ATOM     14  C   UNL     1      12.874  -0.237 -21.130  1.00  0.00    -0.000 C 
BRANCH  14  15
ATOM     15  C   UNL     1      11.423   0.095 -21.522  1.00  0.00    -0.000 C 
BRANCH  15  16
ATOM     16  C   UNL     1      10.803  -0.838 -22.581  1.00  0.00    -0.000 C 
BRANCH  16  17
ATOM     17  C   UNL     1       9.634  -1.705 -22.078  1.00  0.00    -0.003 C 
ATOM     18  C   UNL     1       9.467  -2.999 -22.872  1.00  0.00     0.004 C 
ENDBRANCH  16  17
ENDBRANCH  15  16
ENDBRANCH  14  15
ENDBRANCH  13  14
ENDBRANCH  12  13
ENDBRANCH  11  12
ENDBRANCH   1  11
TORSDOF 14
ENDMDL
MODEL 2
REMARK VINA RESULT:    -3.996      3.507      6.830
REMARK INTER + INTRA:          -8.426
REMARK INTER:                  -7.735
REMARK INTRA:                  -0.690
REMARK UNBOUND:                -1.160
REMARK SMILES CCCCCCCCCCCCCCCC(=O)[O-]
REMARK SMILES IDX 9 1 10 2 11 3 12 4 13 5 14 6 15 7 16 8 17 9 18 10 8 11 7 12
REMARK SMILES IDX 6 13 5 14 4 15 3 16 2 17 1 18
REMARK H PARENT
REMARK Flexibility Score: inf
ROOT
ATOM      1  C   UNL     1      12.783   2.678 -16.987  1.00  0.00     0.000 C 
ENDROOT
BRANCH   1   2
ATOM      2  C   UNL     1      11.913   2.358 -18.208  1.00  0.00     0.000 C 
BRANCH   2   3
ATOM      3  C   UNL     1      12.355   3.178 -19.430  1.00  0.00     0.000 C 
BRANCH   3   4
ATOM      4  C   UNL     1      12.990   2.298 -20.527  1.00  0.00     0.000 C 
BRANCH   4   5
ATOM      5  C   UNL     1      13.037   0.799 -20.172  1.00  0.00     0.000 C 
BRANCH   5   6
ATOM      6  C   UNL     1      11.663   0.105 -20.107  1.00  0.00     0.006 C 
BRANCH   6   7
ATOM      7  C   UNL     1      10.780   0.332 -21.344  1.00  0.00     0.053 C 
BRANCH   7   8
ATOM      8  C   UNL     1      10.937  -0.763 -22.353  1.00  0.00     0.041 C 
ATOM      9  O   UNL     1      11.998  -0.859 -23.024  1.00  0.00    -0.550 OA
ATOM     10  O   UNL     1       9.925  -1.698 -22.529  1.00  0.00    -0.550 OA
ENDBRANCH   7   8
ENDBRANCH   6   7
ENDBRANCH   5   6
ENDBRANCH   4   5
ENDBRANCH   3   4
ENDBRANCH   2   3
ENDBRANCH   1   2
BRANCH   1  11
ATOM     11  C   UNL     1      12.872   1.468 -16.043  1.00  0.00     0.000 C 
BRANCH  11  12
ATOM     12  C   UNL     1      11.914   0.335 -16.440  1.00  0.00    -0.000 C 
BRANCH  12  13
ATOM     13  C   UNL     1      12.650  -0.951 -16.843  1.00  0.00    -0.000 C 
BRANCH  13  14
ATOM     14  C   UNL     1      12.631  -1.975 -15.698  1.00  0.00    -0.000 C 
BRANCH  14  15
ATOM     15  C   UNL     1      11.758  -3.204 -16.009  1.00  0.00    -0.000 C 
BRANCH  15  16
ATOM     16  C   UNL     1      12.274  -4.536 -15.428  1.00  0.00    -0.000 C 
BRANCH  16  17
ATOM     17  C   UNL     1      12.676  -4.483 -13.943  1.00  0.00    -0.003 C 
ATOM     18  C   UNL     1      11.476  -4.385 -13.004  1.00  0.00     0.004 C 
ENDBRANCH  16  17
ENDBRANCH  15  16
ENDBRANCH  14  15
ENDBRANCH  13  14
ENDBRANCH  12  13
ENDBRANCH  11  12
ENDBRANCH   1  11
TORSDOF 14
ENDMDL
MODEL 3
REMARK VINA RESULT:    -3.898      3.206      6.728
REMARK INTER + INTRA:          -8.248
REMARK INTER:                  -7.341
REMARK INTRA:                  -0.907
REMARK UNBOUND:                -1.160
REMARK SMILES CCCCCCCCCCCCCCCC(=O)[O-]
REMARK SMILES IDX 9 1 10 2 11 3 12 4 13 5 14 6 15 7 16 8 17 9 18 10 8 11 7 12
REMARK SMILES IDX 6 13 5 14 4 15 3 16 2 17 1 18
REMARK H PARENT
REMARK Flexibility Score: inf
ROOT
ATOM      1  C   UNL     1      12.844   1.589 -16.128  1.00  0.00     0.000 C 
ENDROOT
BRANCH   1   2
ATOM      2  C   UNL     1      12.977   2.915 -16.886  1.00  0.00     0.000 C 
BRANCH   2   3
ATOM      3  C   UNL     1      12.031   2.956 -18.095  1.00  0.00     0.000 C 
BRANCH   3   4
ATOM      4  C   UNL     1      12.702   3.564 -19.345  1.00  0.00     0.000 C 
BRANCH   4   5
ATOM      5  C   UNL     1      12.706   2.623 -20.566  1.00  0.00     0.000 C 
BRANCH   5   6
ATOM      6  C   UNL     1      12.999   1.145 -20.246  1.00  0.00     0.006 C 
BRANCH   6   7
ATOM      7  C   UNL     1      12.619   0.167 -21.369  1.00  0.00     0.053 C 
BRANCH   7   8
ATOM      8  C   UNL     1      11.152  -0.129 -21.381  1.00  0.00     0.041 C 
ATOM      9  O   UNL     1      10.437   0.164 -20.387  1.00  0.00    -0.550 OA
ATOM     10  O   UNL     1      10.566  -0.698 -22.505  1.00  0.00    -0.550 OA
ENDBRANCH   7   8
ENDBRANCH   6   7
ENDBRANCH   5   6
ENDBRANCH   4   5
ENDBRANCH   3   4
ENDBRANCH   2   3
ENDBRANCH   1   2
BRANCH   1  11
ATOM     11  C   UNL     1      11.549   0.860 -16.518  1.00  0.00     0.000 C 
BRANCH  11  12
ATOM     12  C   UNL     1      11.797  -0.318 -17.473  1.00  0.00    -0.000 C 
BRANCH  12  13
ATOM     13  C   UNL     1      12.919  -1.249 -16.987  1.00  0.00    -0.000 C 
BRANCH  13  14
ATOM     14  C   UNL     1      12.524  -1.945 -15.677  1.00  0.00    -0.000 C 
BRANCH  14  15
ATOM     15  C   UNL     1      11.673  -3.207 -15.903  1.00  0.00    -0.000 C 
BRANCH  15  16
ATOM     16  C   UNL     1      12.322  -4.526 -15.437  1.00  0.00    -0.000 C 
BRANCH  16  17
ATOM     17  C   UNL     1      12.684  -4.578 -13.941  1.00  0.00    -0.003 C 
ATOM     18  C   UNL     1      11.492  -4.296 -13.029  1.00  0.00     0.004 C 
ENDBRANCH  16  17
ENDBRANCH  15  16
ENDBRANCH  14  15
ENDBRANCH  13  14
ENDBRANCH  12  13
ENDBRANCH  11  12
ENDBRANCH   1  11
TORSDOF 14
ENDMDL
MODEL 4
REMARK VINA RESULT:    -3.690      3.142      6.492
REMARK INTER + INTRA:          -7.870
REMARK INTER:                  -6.716
REMARK INTRA:                  -1.153
REMARK UNBOUND:                -1.160
REMARK SMILES CCCCCCCCCCCCCCCC(=O)[O-]
REMARK SMILES IDX 9 1 10 2 11 3 12 4 13 5 14 6 15 7 16 8 17 9 18 10 8 11 7 12
REMARK SMILES IDX 6 13 5 14 4 15 3 16 2 17 1 18
REMARK H PARENT
REMARK Flexibility Score: inf
ROOT
ATOM      1  C   UNL     1      12.436   2.138 -17.822  1.00  0.00     0.000 C 
ENDROOT
BRANCH   1   2
ATOM      2  C   UNL     1      12.488   3.144 -18.978  1.00  0.00     0.000 C 
BRANCH   2   3
ATOM      3  C   UNL     1      12.548   2.425 -20.334  1.00  0.00     0.000 C 
BRANCH   3   4
ATOM      4  C   UNL     1      13.346   1.105 -20.263  1.00  0.00     0.000 C 
BRANCH   4   5
ATOM      5  C   UNL     1      12.773  -0.015 -21.153  1.00  0.00     0.000 C 
BRANCH   5   6
ATOM      6  C   UNL     1      11.269   0.108 -21.464  1.00  0.00     0.006 C 
BRANCH   6   7
ATOM      7  C   UNL     1      10.792  -0.762 -22.637  1.00  0.00     0.053 C 
BRANCH   7   8
ATOM      8  C   UNL     1       9.792  -1.788 -22.204  1.00  0.00     0.041 C 
ATOM      9  O   UNL     1       9.579  -2.806 -22.914  1.00  0.00    -0.550 OA
ATOM     10  O   UNL     1       9.119  -1.639 -20.998  1.00  0.00    -0.550 OA
ENDBRANCH   7   8
ENDBRANCH   6   7
ENDBRANCH   5   6
ENDBRANCH   4   5
ENDBRANCH   3   4
ENDBRANCH   2   3
ENDBRANCH   1   2
BRANCH   1  11
ATOM     11  C   UNL     1      11.047   1.487 -17.722  1.00  0.00     0.000 C 
BRANCH  11  12
ATOM     12  C   UNL     1      11.105  -0.047 -17.781  1.00  0.00    -0.000 C 
BRANCH  12  13
ATOM     13  C   UNL     1      12.496  -0.601 -17.437  1.00  0.00    -0.000 C 
BRANCH  13  14
ATOM     14  C   UNL     1      12.715  -0.626 -15.917  1.00  0.00    -0.000 C 
BRANCH  14  15
ATOM     15  C   UNL     1      12.278  -1.953 -15.271  1.00  0.00    -0.000 C 
BRANCH  15  16
ATOM     16  C   UNL     1      12.463  -3.202 -16.156  1.00  0.00    -0.000 C 
BRANCH  16  17
ATOM     17  C   UNL     1      12.117  -4.538 -15.473  1.00  0.00    -0.003 C 
ATOM     18  C   UNL     1      12.345  -4.513 -13.963  1.00  0.00     0.004 C 
ENDBRANCH  16  17
ENDBRANCH  15  16
ENDBRANCH  14  15
ENDBRANCH  13  14
ENDBRANCH  12  13
ENDBRANCH  11  12
ENDBRANCH   1  11
TORSDOF 14
ENDMDL
MODEL 5
REMARK VINA RESULT:    -3.640      1.023      1.936
REMARK INTER + INTRA:          -7.778
REMARK INTER:                  -6.425
REMARK INTRA:                  -1.354
REMARK UNBOUND:                -1.160
REMARK SMILES CCCCCCCCCCCCCCCC(=O)[O-]
REMARK SMILES IDX 9 1 10 2 11 3 12 4 13 5 14 6 15 7 16 8 17 9 18 10 8 11 7 12
REMARK SMILES IDX 6 13 5 14 4 15 3 16 2 17 1 18
REMARK H PARENT
REMARK Flexibility Score: inf
ROOT
ATOM      1  C   UNL     1      12.660   1.370 -16.225  1.00  0.00     0.000 C 
ENDROOT
BRANCH   1   2
ATOM      2  C   UNL     1      11.891   0.381 -17.108  1.00  0.00     0.000 C 
BRANCH   2   3
ATOM      3  C   UNL     1      12.500  -1.026 -17.021  1.00  0.00     0.000 C 
BRANCH   3   4
ATOM      4  C   UNL     1      12.521  -1.567 -15.575  1.00  0.00     0.000 C 
BRANCH   4   5
ATOM      5  C   UNL     1      13.299  -2.888 -15.418  1.00  0.00     0.000 C 
BRANCH   5   6
ATOM      6  C   UNL     1      12.457  -4.164 -15.606  1.00  0.00     0.006 C 
BRANCH   6   7
ATOM      7  C   UNL     1      11.302  -4.313 -14.603  1.00  0.00     0.053 C 
BRANCH   7   8
ATOM      8  C   UNL     1      11.792  -4.403 -13.192  1.00  0.00     0.041 C 
ATOM      9  O   UNL     1      11.122  -3.895 -12.255  1.00  0.00    -0.550 OA
ATOM     10  O   UNL     1      12.972  -5.079 -12.906  1.00  0.00    -0.550 OA
ENDBRANCH   7   8
ENDBRANCH   6   7
ENDBRANCH   5   6
ENDBRANCH   4   5
ENDBRANCH   3   4
ENDBRANCH   2   3
ENDBRANCH   1   2
BRANCH   1  11
ATOM     11  C   UNL     1      12.721   2.759 -16.879  1.00  0.00     0.000 C 
BRANCH  11  12
ATOM     12  C   UNL     1      11.903   2.840 -18.177  1.00  0.00    -0.000 C 
BRANCH  12  13
ATOM     13  C   UNL     1      12.708   3.416 -19.351  1.00  0.00    -0.000 C 
BRANCH  13  14
ATOM     14  C   UNL     1      12.635   2.489 -20.573  1.00  0.00    -0.000 C 
BRANCH  14  15
ATOM     15  C   UNL     1      13.348   1.144 -20.347  1.00  0.00    -0.000 C 
BRANCH  15  16
ATOM     16  C   UNL     1      12.541  -0.102 -20.766  1.00  0.00    -0.000 C 
BRANCH  16  17
ATOM     17  C   UNL     1      11.144   0.194 -21.342  1.00  0.00    -0.003 C 
ATOM     18  C   UNL     1      10.700  -0.831 -22.384  1.00  0.00     0.004 C 
ENDBRANCH  16  17
ENDBRANCH  15  16
ENDBRANCH  14  15
ENDBRANCH  13  14
ENDBRANCH  12  13
ENDBRANCH  11  12
ENDBRANCH   1  11
TORSDOF 14
ENDMDL
MODEL 6
REMARK VINA RESULT:    -3.303      3.235      6.916
REMARK INTER + INTRA:          -7.167
REMARK INTER:                  -6.225
REMARK INTRA:                  -0.942
REMARK UNBOUND:                -1.160
REMARK SMILES CCCCCCCCCCCCCCCC(=O)[O-]
REMARK SMILES IDX 9 1 10 2 11 3 12 4 13 5 14 6 15 7 16 8 17 9 18 10 8 11 7 12
REMARK SMILES IDX 6 13 5 14 4 15 3 16 2 17 1 18
REMARK H PARENT
REMARK Flexibility Score: inf
ROOT
ATOM      1  C   UNL     1      12.845   1.576 -16.591  1.00  0.00     0.000 C 
ENDROOT
BRANCH   1   2
ATOM      2  C   UNL     1      11.811   2.153 -17.565  1.00  0.00     0.000 C 
BRANCH   2   3
ATOM      3  C   UNL     1      10.448   1.466 -17.393  1.00  0.00     0.000 C 
BRANCH   3   4
ATOM      4  C   UNL     1       9.842   1.020 -18.740  1.00  0.00     0.000 C 
BRANCH   4   5
ATOM      5  C   UNL     1      10.616  -0.126 -19.420  1.00  0.00     0.000 C 
BRANCH   5   6
ATOM      6  C   UNL     1      10.591  -0.102 -20.960  1.00  0.00     0.006 C 
BRANCH   6   7
ATOM      7  C   UNL     1      11.960   0.147 -21.612  1.00  0.00     0.053 C 
BRANCH   7   8
ATOM      8  C   UNL     1      12.914   0.819 -20.675  1.00  0.00     0.041 C 
ATOM      9  O   UNL     1      13.758   0.139 -20.034  1.00  0.00    -0.550 OA
ATOM     10  O   UNL     1      12.895   2.201 -20.534  1.00  0.00    -0.550 OA
ENDBRANCH   7   8
ENDBRANCH   6   7
ENDBRANCH   5   6
ENDBRANCH   4   5
ENDBRANCH   3   4
ENDBRANCH   2   3
ENDBRANCH   1   2
BRANCH   1  11
ATOM     11  C   UNL     1      12.293   0.333 -15.875  1.00  0.00     0.000 C 
BRANCH  11  12
ATOM     12  C   UNL     1      12.702  -0.978 -16.564  1.00  0.00    -0.000 C 
BRANCH  12  13
ATOM     13  C   UNL     1      12.751  -2.168 -15.594  1.00  0.00    -0.000 C 
BRANCH  13  14
ATOM     14  C   UNL     1      11.803  -3.286 -16.050  1.00  0.00    -0.000 C 
BRANCH  14  15
ATOM     15  C   UNL     1      12.151  -4.654 -15.436  1.00  0.00    -0.000 C 
BRANCH  15  16
ATOM     16  C   UNL     1      12.622  -4.610 -13.968  1.00  0.00    -0.000 C 
BRANCH  16  17
ATOM     17  C   UNL     1      11.493  -4.646 -12.923  1.00  0.00    -0.003 C 
ATOM     18  C   UNL     1      11.225  -3.283 -12.287  1.00  0.00     0.004 C 
ENDBRANCH  16  17
ENDBRANCH  15  16
ENDBRANCH  14  15
ENDBRANCH  13  14
ENDBRANCH  12  13
ENDBRANCH  11  12
ENDBRANCH   1  11
TORSDOF 14
ENDMDL
MODEL 7
REMARK VINA RESULT:    -3.016      1.250      2.663
REMARK INTER + INTRA:          -6.645
REMARK INTER:                  -5.515
REMARK INTRA:                  -1.130
REMARK UNBOUND:                -1.160
REMARK SMILES CCCCCCCCCCCCCCCC(=O)[O-]
REMARK SMILES IDX 9 1 10 2 11 3 12 4 13 5 14 6 15 7 16 8 17 9 18 10 8 11 7 12
REMARK SMILES IDX 6 13 5 14 4 15 3 16 2 17 1 18
REMARK H PARENT
REMARK Flexibility Score: inf
ROOT
ATOM      1  C   UNL     1      11.415   1.539 -17.954  1.00  0.00     0.000 C 
ENDROOT
BRANCH   1   2
ATOM      2  C   UNL     1      11.716   1.476 -16.452  1.00  0.00     0.000 C 
BRANCH   2   3
ATOM      3  C   UNL     1      12.894   0.532 -16.164  1.00  0.00     0.000 C 
BRANCH   3   4
ATOM      4  C   UNL     1      12.632  -0.902 -16.670  1.00  0.00     0.000 C 
BRANCH   4   5
ATOM      5  C   UNL     1      12.599  -1.959 -15.549  1.00  0.00     0.000 C 
BRANCH   5   6
ATOM      6  C   UNL     1      11.817  -3.242 -15.889  1.00  0.00     0.006 C 
BRANCH   6   7
ATOM      7  C   UNL     1      12.422  -4.527 -15.302  1.00  0.00     0.053 C 
BRANCH   7   8
ATOM      8  C   UNL     1      12.266  -4.591 -13.814  1.00  0.00     0.041 C 
ATOM      9  O   UNL     1      11.167  -4.290 -13.278  1.00  0.00    -0.550 OA
ATOM     10  O   UNL     1      13.324  -5.017 -13.021  1.00  0.00    -0.550 OA
ENDBRANCH   7   8
ENDBRANCH   6   7
ENDBRANCH   5   6
ENDBRANCH   4   5
ENDBRANCH   3   4
ENDBRANCH   2   3
ENDBRANCH   1   2
BRANCH   1  11
ATOM     11  C   UNL     1       9.981   1.072 -18.248  1.00  0.00     0.000 C 
BRANCH  11  12
ATOM     12  C   UNL     1       9.938  -0.258 -19.017  1.00  0.00    -0.000 C 
BRANCH  12  13
ATOM     13  C   UNL     1       9.761  -0.062 -20.530  1.00  0.00    -0.000 C 
BRANCH  13  14
ATOM     14  C   UNL     1      11.120  -0.074 -21.247  1.00  0.00    -0.000 C 
BRANCH  14  15
ATOM     15  C   UNL     1      11.875   1.261 -21.121  1.00  0.00    -0.000 C 
BRANCH  15  16
ATOM     16  C   UNL     1      13.334   1.143 -20.636  1.00  0.00    -0.000 C 
BRANCH  16  17
ATOM     17  C   UNL     1      13.744  -0.258 -20.148  1.00  0.00    -0.003 C 
ATOM     18  C   UNL     1      15.129  -0.282 -19.503  1.00  0.00     0.004 C 
ENDBRANCH  16  17
ENDBRANCH  15  16
ENDBRANCH  14  15
ENDBRANCH  13  14
ENDBRANCH  12  13
ENDBRANCH  11  12
ENDBRANCH   1  11
TORSDOF 14
ENDMDL
MODEL 8
REMARK VINA RESULT:    -2.970      1.380      3.350
REMARK INTER + INTRA:          -6.561
REMARK INTER:                  -5.827
REMARK INTRA:                  -0.734
REMARK UNBOUND:                -1.160
REMARK SMILES CCCCCCCCCCCCCCCC(=O)[O-]
REMARK SMILES IDX 9 1 10 2 11 3 12 4 13 5 14 6 15 7 16 8 17 9 18 10 8 11 7 12
REMARK SMILES IDX 6 13 5 14 4 15 3 16 2 17 1 18
REMARK H PARENT
REMARK Flexibility Score: inf
ROOT
ATOM      1  C   UNL     1      10.307   1.128 -18.019  1.00  0.00     0.000 C 
ENDROOT
BRANCH   1   2
ATOM      2  C   UNL     1      11.152   1.164 -16.740  1.00  0.00     0.000 C 
BRANCH   2   3
ATOM      3  C   UNL     1      12.603   0.749 -17.025  1.00  0.00     0.000 C 
BRANCH   3   4
ATOM      4  C   UNL     1      12.750  -0.776 -17.214  1.00  0.00     0.000 C 
BRANCH   4   5
ATOM      5  C   UNL     1      12.419  -1.593 -15.949  1.00  0.00     0.000 C 
BRANCH   5   6
ATOM      6  C   UNL     1      12.437  -3.121 -16.140  1.00  0.00     0.006 C 
BRANCH   6   7
ATOM      7  C   UNL     1      11.455  -3.884 -15.237  1.00  0.00     0.053 C 
BRANCH   7   8
ATOM      8  C   UNL     1      12.083  -4.287 -13.940  1.00  0.00     0.041 C 
ATOM      9  O   UNL     1      13.311  -4.563 -13.889  1.00  0.00    -0.550 OA
ATOM     10  O   UNL     1      11.321  -4.326 -12.779  1.00  0.00    -0.550 OA
ENDBRANCH   7   8
ENDBRANCH   6   7
ENDBRANCH   5   6
ENDBRANCH   4   5
ENDBRANCH   3   4
ENDBRANCH   2   3
ENDBRANCH   1   2
BRANCH   1  11
ATOM     11  C   UNL     1      10.634  -0.117 -18.858  1.00  0.00     0.000 C 
BRANCH  11  12
ATOM     12  C   UNL     1      10.061  -0.038 -20.282  1.00  0.00    -0.000 C 
BRANCH  12  13
ATOM     13  C   UNL     1      11.100   0.421 -21.315  1.00  0.00    -0.000 C 
BRANCH  13  14
ATOM     14  C   UNL     1      12.527   0.152 -20.814  1.00  0.00    -0.000 C 
BRANCH  14  15
ATOM     15  C   UNL     1      13.257   1.433 -20.371  1.00  0.00    -0.000 C 
BRANCH  15  16
ATOM     16  C   UNL     1      12.413   2.721 -20.435  1.00  0.00    -0.000 C 
BRANCH  16  17
ATOM     17  C   UNL     1      12.687   3.733 -19.307  1.00  0.00    -0.003 C 
ATOM     18  C   UNL     1      13.385   4.999 -19.799  1.00  0.00     0.004 C 
ENDBRANCH  16  17
ENDBRANCH  15  16
ENDBRANCH  14  15
ENDBRANCH  13  14
ENDBRANCH  12  13
ENDBRANCH  11  12
ENDBRANCH   1  11
TORSDOF 14
ENDMDL
MODEL 9
REMARK VINA RESULT:    -2.857      3.091      7.214
REMARK INTER + INTRA:          -6.354
REMARK INTER:                  -5.346
REMARK INTRA:                  -1.009
REMARK UNBOUND:                -1.160
REMARK SMILES CCCCCCCCCCCCCCCC(=O)[O-]
REMARK SMILES IDX 9 1 10 2 11 3 12 4 13 5 14 6 15 7 16 8 17 9 18 10 8 11 7 12
REMARK SMILES IDX 6 13 5 14 4 15 3 16 2 17 1 18
REMARK H PARENT
REMARK Flexibility Score: inf
ROOT
ATOM      1  C   UNL     1      12.398  -0.215 -17.386  1.00  0.00     0.000 C 
ENDROOT
BRANCH   1   2
ATOM      2  C   UNL     1      11.482   0.927 -17.842  1.00  0.00     0.000 C 
BRANCH   2   3
ATOM      3  C   UNL     1      12.302   2.123 -18.349  1.00  0.00     0.000 C 
BRANCH   3   4
ATOM      4  C   UNL     1      12.639   2.009 -19.851  1.00  0.00     0.000 C 
BRANCH   4   5
ATOM      5  C   UNL     1      13.422   0.733 -20.216  1.00  0.00     0.000 C 
BRANCH   5   6
ATOM      6  C   UNL     1      12.726  -0.186 -21.237  1.00  0.00     0.006 C 
BRANCH   6   7
ATOM      7  C   UNL     1      11.366   0.331 -21.730  1.00  0.00     0.053 C 
BRANCH   7   8
ATOM      8  C   UNL     1      10.265  -0.650 -21.471  1.00  0.00     0.041 C 
ATOM      9  O   UNL     1       9.950  -1.496 -22.349  1.00  0.00    -0.550 OA
ATOM     10  O   UNL     1       9.609  -0.653 -20.247  1.00  0.00    -0.550 OA
ENDBRANCH   7   8
ENDBRANCH   6   7
ENDBRANCH   5   6
ENDBRANCH   4   5
ENDBRANCH   3   4
ENDBRANCH   2   3
ENDBRANCH   1   2
BRANCH   1  11
ATOM     11  C   UNL     1      12.379  -0.358 -15.856  1.00  0.00     0.000 C 
BRANCH  11  12
ATOM     12  C   UNL     1      12.663  -1.794 -15.392  1.00  0.00    -0.000 C 
BRANCH  12  13
ATOM     13  C   UNL     1      11.840  -2.839 -16.160  1.00  0.00    -0.000 C 
BRANCH  13  14
ATOM     14  C   UNL     1      12.158  -4.258 -15.666  1.00  0.00    -0.000 C 
BRANCH  14  15
ATOM     15  C   UNL     1      13.174  -4.276 -14.510  1.00  0.00    -0.000 C 
BRANCH  15  16
ATOM     16  C   UNL     1      12.662  -4.907 -13.200  1.00  0.00    -0.000 C 
BRANCH  16  17
ATOM     17  C   UNL     1      11.271  -4.427 -12.748  1.00  0.00    -0.003 C 
ATOM     18  C   UNL     1      11.284  -3.009 -12.181  1.00  0.00     0.004 C 
ENDBRANCH  16  17
ENDBRANCH  15  16
ENDBRANCH  14  15
ENDBRANCH  13  14
ENDBRANCH  12  13
ENDBRANCH  11  12
ENDBRANCH   1  11
TORSDOF 14
ENDMDL
