MODEL 1
REMARK VINA RESULT:     3.022      0.000      0.000
REMARK INTER + INTRA:           3.285
REMARK INTER:                   3.287
REMARK INTRA:                  -0.002
REMARK UNBOUND:                -0.002
REMARK SMILES COc1cc2ccc(=O)oc2cc1O
REMARK SMILES IDX 3 1 13 2 12 3 11 4 5 5 4 6 6 7 7 8 8 9 9 10 10 11 2 12 1 13
REMARK SMILES IDX 14 14
REMARK H PARENT 14 15
REMARK Flexibility Score: inf
ROOT
ATOM      1  C   UNL     1       7.876   7.957  13.145  1.00  0.00     0.161 A 
ATOM      2  C   UNL     1       8.069   6.744  12.453  1.00  0.00     0.161 A 
ATOM      3  C   UNL     1       6.986   5.892  12.209  1.00  0.00     0.098 A 
ATOM      4  C   UNL     1       5.705   6.233  12.649  1.00  0.00     0.142 A 
ATOM      5  C   UNL     1       5.502   7.443  13.341  1.00  0.00     0.022 A 
ATOM      6  C   UNL     1       6.582   8.300  13.588  1.00  0.00     0.062 A 
ATOM      7  C   UNL     1       4.206   7.757  13.768  1.00  0.00     0.019 A 
ATOM      8  C   UNL     1       3.163   6.871  13.500  1.00  0.00     0.094 A 
ATOM      9  C   UNL     1       3.441   5.688  12.807  1.00  0.00     0.336 A 
ATOM     10  O   UNL     1       2.513   4.875  12.554  1.00  0.00    -0.246 OA
ATOM     11  O   UNL     1       4.682   5.414  12.412  1.00  0.00    -0.423 OA
ENDROOT
BRANCH   1  12
ATOM     12  O   UNL     1       8.984   8.789  13.372  1.00  0.00    -0.493 OA
ATOM     13  C   UNL     1       9.935   8.600  14.415  1.00  0.00     0.278 C 
ENDBRANCH   1  12
BRANCH   2  14
ATOM     14  O   UNL     1       9.333   6.370  11.998  1.00  0.00    -0.504 OA
ATOM     15  H   UNL     1       9.990   7.039  11.616  1.00  0.00     0.293 HD
ENDBRANCH   2  14
TORSDOF 2
ENDMDL
MODEL 2
REMARK VINA RESULT:     3.192      1.398      5.382
REMARK INTER + INTRA:           3.471
REMARK INTER:                   3.355
REMARK INTRA:                   0.115
REMARK UNBOUND:                -0.002
REMARK SMILES COc1cc2ccc(=O)oc2cc1O
REMARK SMILES IDX 3 1 13 2 12 3 11 4 5 5 4 6 6 7 7 8 8 9 9 10 10 11 2 12 1 13
REMARK SMILES IDX 14 14
REMARK H PARENT 14 15
REMARK Flexibility Score: inf
ROOT
ATOM      1  C   UNL     1       4.779   6.535  12.414  1.00  0.00     0.161 A 
ATOM      2  C   UNL     1       4.566   7.326  13.560  1.00  0.00     0.161 A 
ATOM      3  C   UNL     1       5.647   7.946  14.199  1.00  0.00     0.098 A 
ATOM      4  C   UNL     1       6.944   7.787  13.709  1.00  0.00     0.142 A 
ATOM      5  C   UNL     1       7.167   6.998  12.563  1.00  0.00     0.022 A 
ATOM      6  C   UNL     1       6.090   6.375  11.919  1.00  0.00     0.062 A 
ATOM      7  C   UNL     1       8.479   6.858  12.095  1.00  0.00     0.019 A 
ATOM      8  C   UNL     1       9.519   7.496  12.770  1.00  0.00     0.094 A 
ATOM      9  C   UNL     1       9.221   8.264  13.901  1.00  0.00     0.336 A 
ATOM     10  O   UNL     1      10.145   8.849  14.525  1.00  0.00    -0.246 OA
ATOM     11  O   UNL     1       7.964   8.381  14.324  1.00  0.00    -0.423 OA
ENDROOT
BRANCH   1  12
ATOM     12  O   UNL     1       3.673   5.928  11.798  1.00  0.00    -0.493 OA
ATOM     13  C   UNL     1       2.905   4.875  12.372  1.00  0.00     0.278 C 
ENDBRANCH   1  12
BRANCH   2  14
ATOM     14  O   UNL     1       3.285   7.509  14.080  1.00  0.00    -0.504 OA
ATOM     15  H   UNL     1       2.640   8.191  13.700  1.00  0.00     0.293 HD
ENDBRANCH   2  14
TORSDOF 2
ENDMDL
MODEL 3
REMARK VINA RESULT:     4.389      1.212      4.920
REMARK INTER + INTRA:           4.772
REMARK INTER:                   4.816
REMARK INTRA:                  -0.044
REMARK UNBOUND:                -0.002
REMARK SMILES COc1cc2ccc(=O)oc2cc1O
REMARK SMILES IDX 3 1 13 2 12 3 11 4 5 5 4 6 6 7 7 8 8 9 9 10 10 11 2 12 1 13
REMARK SMILES IDX 14 14
REMARK H PARENT 14 15
REMARK Flexibility Score: inf
ROOT
ATOM      1  C   UNL     1       4.747   6.956  13.318  1.00  0.00     0.161 A 
ATOM      2  C   UNL     1       5.402   5.929  12.610  1.00  0.00     0.161 A 
ATOM      3  C   UNL     1       6.794   5.951  12.463  1.00  0.00     0.098 A 
ATOM      4  C   UNL     1       7.547   6.989  13.016  1.00  0.00     0.142 A 
ATOM      5  C   UNL     1       6.901   8.021  13.726  1.00  0.00     0.022 A 
ATOM      6  C   UNL     1       5.508   8.004  13.876  1.00  0.00     0.062 A 
ATOM      7  C   UNL     1       7.683   9.047  14.268  1.00  0.00     0.019 A 
ATOM      8  C   UNL     1       9.066   9.021  14.092  1.00  0.00     0.094 A 
ATOM      9  C   UNL     1       9.637   7.964  13.375  1.00  0.00     0.336 A 
ATOM     10  O   UNL     1      10.884   7.921  13.204  1.00  0.00    -0.246 OA
ATOM     11  O   UNL     1       8.870   7.000  12.870  1.00  0.00    -0.423 OA
ENDROOT
BRANCH   1  12
ATOM     12  O   UNL     1       3.350   6.904  13.447  1.00  0.00    -0.493 OA
ATOM     13  C   UNL     1       2.535   7.995  13.864  1.00  0.00     0.278 C 
ENDBRANCH   1  12
BRANCH   2  14
ATOM     14  O   UNL     1       4.684   4.875  12.044  1.00  0.00    -0.504 OA
ATOM     15  H   UNL     1       3.797   4.563  12.420  1.00  0.00     0.293 HD
ENDBRANCH   2  14
TORSDOF 2
ENDMDL
MODEL 4
REMARK VINA RESULT:     4.905      1.311      2.410
REMARK INTER + INTRA:           5.334
REMARK INTER:                   5.203
REMARK INTRA:                   0.131
REMARK UNBOUND:                -0.002
REMARK SMILES COc1cc2ccc(=O)oc2cc1O
REMARK SMILES IDX 3 1 13 2 12 3 11 4 5 5 4 6 6 7 7 8 8 9 9 10 10 11 2 12 1 13
REMARK SMILES IDX 14 14
REMARK H PARENT 14 15
REMARK Flexibility Score: inf
ROOT
ATOM      1  C   UNL     1       8.703   7.868  13.489  1.00  0.00     0.161 A 
ATOM      2  C   UNL     1       7.756   8.583  14.249  1.00  0.00     0.161 A 
ATOM      3  C   UNL     1       6.416   8.180  14.265  1.00  0.00     0.098 A 
ATOM      4  C   UNL     1       6.003   7.067  13.530  1.00  0.00     0.142 A 
ATOM      5  C   UNL     1       6.943   6.344  12.767  1.00  0.00     0.022 A 
ATOM      6  C   UNL     1       8.286   6.743  12.747  1.00  0.00     0.062 A 
ATOM      7  C   UNL     1       6.499   5.233  12.042  1.00  0.00     0.019 A 
ATOM      8  C   UNL     1       5.152   4.875  12.093  1.00  0.00     0.094 A 
ATOM      9  C   UNL     1       4.277   5.640  12.871  1.00  0.00     0.336 A 
ATOM     10  O   UNL     1       3.057   5.334  12.931  1.00  0.00    -0.246 OA
ATOM     11  O   UNL     1       4.726   6.692  13.552  1.00  0.00    -0.423 OA
ENDROOT
BRANCH   1  12
ATOM     12  O   UNL     1      10.039   8.299  13.495  1.00  0.00    -0.493 OA
ATOM     13  C   UNL     1      10.895   8.259  14.632  1.00  0.00     0.278 C 
ENDBRANCH   1  12
BRANCH   2  14
ATOM     14  O   UNL     1       8.130   9.700  14.996  1.00  0.00    -0.504 OA
ATOM     15  H   UNL     1       8.633  10.479  14.588  1.00  0.00     0.293 HD
ENDBRANCH   2  14
TORSDOF 2
ENDMDL
MODEL 5
REMARK VINA RESULT:     5.453      1.232      1.391
REMARK INTER + INTRA:           5.929
REMARK INTER:                   5.637
REMARK INTRA:                   0.292
REMARK UNBOUND:                -0.002
REMARK SMILES COc1cc2ccc(=O)oc2cc1O
REMARK SMILES IDX 3 1 13 2 12 3 11 4 5 5 4 6 6 7 7 8 8 9 9 10 10 11 2 12 1 13
REMARK SMILES IDX 14 14
REMARK H PARENT 14 15
REMARK Flexibility Score: inf
ROOT
ATOM      1  C   UNL     1       8.650   8.496  14.098  1.00  0.00     0.161 A 
ATOM      2  C   UNL     1       9.020   7.804  12.928  1.00  0.00     0.161 A 
ATOM      3  C   UNL     1       8.070   7.063  12.216  1.00  0.00     0.098 A 
ATOM      4  C   UNL     1       6.746   7.000  12.659  1.00  0.00     0.142 A 
ATOM      5  C   UNL     1       6.366   7.689  13.828  1.00  0.00     0.022 A 
ATOM      6  C   UNL     1       7.313   8.432  14.544  1.00  0.00     0.062 A 
ATOM      7  C   UNL     1       5.033   7.607  14.245  1.00  0.00     0.019 A 
ATOM      8  C   UNL     1       4.126   6.853  13.500  1.00  0.00     0.094 A 
ATOM      9  C   UNL     1       4.577   6.197  12.349  1.00  0.00     0.336 A 
ATOM     10  O   UNL     1       3.774   5.512  11.662  1.00  0.00    -0.246 OA
ATOM     11  O   UNL     1       5.851   6.292  11.975  1.00  0.00    -0.423 OA
ENDROOT
BRANCH   1  12
ATOM     12  O   UNL     1       9.628   9.230  14.787  1.00  0.00    -0.493 OA
ATOM     13  C   UNL     1      10.862   8.694  15.253  1.00  0.00     0.278 C 
ENDBRANCH   1  12
BRANCH   2  14
ATOM     14  O   UNL     1      10.332   7.843  12.454  1.00  0.00    -0.504 OA
ATOM     15  H   UNL     1      10.555   8.107  11.503  1.00  0.00     0.293 HD
ENDBRANCH   2  14
TORSDOF 2
ENDMDL
