MODEL 1
REMARK VINA RESULT:    -5.027      0.000      0.000
REMARK INTER + INTRA:          -5.663
REMARK INTER:                  -6.055
REMARK INTRA:                   0.393
REMARK UNBOUND:                 0.393
REMARK SMILES O=c1c(O)c(-c2ccc(O)c(O)c2)oc2cc(O)cc(O)c12
REMARK SMILES IDX 5 1 3 2 2 3 1 4 22 5 20 6 19 7 17 8 16 9 15 10 14 11 6 12
REMARK SMILES IDX 7 13 8 14 9 15 13 16 11 17 10 18 12 20 4 22 21 24 18 26
REMARK H PARENT 10 19 12 21 4 23 21 25 18 27
REMARK Flexibility Score: inf
ROOT
ATOM      1  C   UNL     1       1.017  32.543   6.661  1.00  0.00     0.180 A 
ATOM      2  C   UNL     1       1.473  31.242   6.930  1.00  0.00     0.208 A 
ATOM      3  C   UNL     1       2.021  30.960   8.191  1.00  0.00     0.238 A 
ATOM      4  O   UNL     1       2.378  29.779   8.445  1.00  0.00    -0.285 OA
ATOM      5  C   UNL     1       2.123  31.986   9.161  1.00  0.00     0.111 A 
ATOM      6  C   UNL     1       2.698  31.822  10.457  1.00  0.00     0.134 A 
ATOM      7  C   UNL     1       2.627  32.872  11.381  1.00  0.00     0.093 A 
ATOM      8  C   UNL     1       2.060  34.099  11.037  1.00  0.00     0.123 A 
ATOM      9  C   UNL     1       1.548  34.289   9.753  1.00  0.00     0.094 A 
ATOM     10  C   UNL     1       1.572  33.249   8.821  1.00  0.00     0.146 A 
ATOM     11  O   UNL     1       1.065  33.468   7.613  1.00  0.00    -0.452 OA
ENDROOT
BRANCH   1  12
ATOM     12  C   UNL     1       0.449  32.924   5.347  1.00  0.00     0.025 A 
ATOM     13  C   UNL     1      -0.247  34.136   5.219  1.00  0.00     0.016 A 
ATOM     14  C   UNL     1      -0.773  34.524   3.984  1.00  0.00     0.051 A 
ATOM     15  C   UNL     1      -0.597  33.712   2.855  1.00  0.00     0.157 A 
ATOM     16  C   UNL     1       0.642  32.122   4.207  1.00  0.00     0.062 A 
ATOM     17  C   UNL     1       0.118  32.508   2.967  1.00  0.00     0.158 A 
BRANCH  15  18
ATOM     18  O   UNL     1      -1.125  34.101   1.625  1.00  0.00    -0.504 OA
ATOM     19  H   UNL     1      -1.384  33.421   0.919  1.00  0.00     0.293 HD
ENDBRANCH  15  18
BRANCH  17  20
ATOM     20  O   UNL     1       0.322  31.687   1.860  1.00  0.00    -0.504 OA
ATOM     21  H   UNL     1       1.204  31.664   1.362  1.00  0.00     0.293 HD
ENDBRANCH  17  20
ENDBRANCH   1  12
BRANCH   2  22
ATOM     22  O   UNL     1       1.344  30.238   5.966  1.00  0.00    -0.502 OA
ATOM     23  H   UNL     1       1.848  30.258   5.088  1.00  0.00     0.293 HD
ENDBRANCH   2  22
BRANCH   6  24
ATOM     24  O   UNL     1       3.370  30.669  10.873  1.00  0.00    -0.507 OA
ATOM     25  H   UNL     1       2.989  29.977  11.500  1.00  0.00     0.293 HD
ENDBRANCH   6  24
BRANCH   8  26
ATOM     26  O   UNL     1       2.020  35.125  11.977  1.00  0.00    -0.508 OA
ATOM     27  H   UNL     1       1.155  35.393  12.433  1.00  0.00     0.293 HD
ENDBRANCH   8  26
TORSDOF 6
ENDMDL
MODEL 2
REMARK VINA RESULT:    -3.181      1.500      2.941
REMARK INTER + INTRA:          -3.439
REMARK INTER:                  -3.668
REMARK INTRA:                   0.229
REMARK UNBOUND:                 0.393
REMARK SMILES O=c1c(O)c(-c2ccc(O)c(O)c2)oc2cc(O)cc(O)c12
REMARK SMILES IDX 5 1 3 2 2 3 1 4 22 5 20 6 19 7 17 8 16 9 15 10 14 11 6 12
REMARK SMILES IDX 7 13 8 14 9 15 13 16 11 17 10 18 12 20 4 22 21 24 18 26
REMARK H PARENT 10 19 12 21 4 23 21 25 18 27
REMARK Flexibility Score: inf
ROOT
ATOM      1  C   UNL     1       1.147  33.124   6.263  1.00  0.00     0.180 A 
ATOM      2  C   UNL     1       0.752  33.762   7.451  1.00  0.00     0.208 A 
ATOM      3  C   UNL     1       1.357  33.384   8.660  1.00  0.00     0.238 A 
ATOM      4  O   UNL     1       1.038  33.997   9.713  1.00  0.00    -0.285 OA
ATOM      5  C   UNL     1       2.336  32.363   8.669  1.00  0.00     0.111 A 
ATOM      6  C   UNL     1       2.987  31.872   9.841  1.00  0.00     0.134 A 
ATOM      7  C   UNL     1       4.033  30.951   9.716  1.00  0.00     0.093 A 
ATOM      8  C   UNL     1       4.412  30.454   8.469  1.00  0.00     0.123 A 
ATOM      9  C   UNL     1       3.743  30.882   7.321  1.00  0.00     0.094 A 
ATOM     10  C   UNL     1       2.719  31.828   7.411  1.00  0.00     0.146 A 
ATOM     11  O   UNL     1       2.115  32.216   6.294  1.00  0.00    -0.452 OA
ENDROOT
BRANCH   1  12
ATOM     12  C   UNL     1       0.538  33.451   4.953  1.00  0.00     0.025 A 
ATOM     13  C   UNL     1       0.207  34.782   4.656  1.00  0.00     0.016 A 
ATOM     14  C   UNL     1      -0.349  35.115   3.418  1.00  0.00     0.051 A 
ATOM     15  C   UNL     1      -0.568  34.123   2.453  1.00  0.00     0.157 A 
ATOM     16  C   UNL     1       0.335  32.461   3.973  1.00  0.00     0.062 A 
ATOM     17  C   UNL     1      -0.220  32.791   2.731  1.00  0.00     0.158 A 
BRANCH  15  18
ATOM     18  O   UNL     1      -1.125  34.458   1.220  1.00  0.00    -0.504 OA
ATOM     19  H   UNL     1      -2.112  34.668   1.122  1.00  0.00     0.293 HD
ENDBRANCH  15  18
BRANCH  17  20
ATOM     20  O   UNL     1      -0.412  31.784   1.786  1.00  0.00    -0.504 OA
ATOM     21  H   UNL     1       0.235  31.011   1.685  1.00  0.00     0.293 HD
ENDBRANCH  17  20
ENDBRANCH   1  12
BRANCH   2  22
ATOM     22  O   UNL     1      -0.202  34.783   7.418  1.00  0.00    -0.502 OA
ATOM     23  H   UNL     1      -1.151  34.632   7.097  1.00  0.00     0.293 HD
ENDBRANCH   2  22
BRANCH   6  24
ATOM     24  O   UNL     1       2.626  32.234  11.143  1.00  0.00    -0.507 OA
ATOM     25  H   UNL     1       2.140  31.633  11.791  1.00  0.00     0.293 HD
ENDBRANCH   6  24
BRANCH   8  26
ATOM     26  O   UNL     1       5.447  29.527   8.385  1.00  0.00    -0.508 OA
ATOM     27  H   UNL     1       5.423  28.765   7.716  1.00  0.00     0.293 HD
ENDBRANCH   8  26
TORSDOF 6
ENDMDL
MODEL 3
REMARK VINA RESULT:    -3.071      1.327      6.692
REMARK INTER + INTRA:          -3.306
REMARK INTER:                  -3.012
REMARK INTRA:                  -0.294
REMARK UNBOUND:                 0.393
REMARK SMILES O=c1c(O)c(-c2ccc(O)c(O)c2)oc2cc(O)cc(O)c12
REMARK SMILES IDX 5 1 3 2 2 3 1 4 22 5 20 6 19 7 17 8 16 9 15 10 14 11 6 12
REMARK SMILES IDX 7 13 8 14 9 15 13 16 11 17 10 18 12 20 4 22 21 24 18 26
REMARK H PARENT 10 19 12 21 4 23 21 25 18 27
REMARK Flexibility Score: inf
ROOT
ATOM      1  C   UNL     1       1.511  33.158   7.702  1.00  0.00     0.180 A 
ATOM      2  C   UNL     1       1.847  31.851   7.311  1.00  0.00     0.208 A 
ATOM      3  C   UNL     1       1.470  31.405   6.034  1.00  0.00     0.238 A 
ATOM      4  O   UNL     1       1.821  30.252   5.670  1.00  0.00    -0.285 OA
ATOM      5  C   UNL     1       0.749  32.264   5.172  1.00  0.00     0.111 A 
ATOM      6  C   UNL     1       0.281  31.903   3.873  1.00  0.00     0.134 A 
ATOM      7  C   UNL     1      -0.308  32.875   3.056  1.00  0.00     0.093 A 
ATOM      8  C   UNL     1      -0.505  34.178   3.513  1.00  0.00     0.123 A 
ATOM      9  C   UNL     1      -0.105  34.527   4.804  1.00  0.00     0.094 A 
ATOM     10  C   UNL     1       0.518  33.588   5.629  1.00  0.00     0.146 A 
ATOM     11  O   UNL     1       0.893  33.963   6.847  1.00  0.00    -0.452 OA
ENDROOT
BRANCH   1  12
ATOM     12  C   UNL     1       1.853  33.693   9.041  1.00  0.00     0.025 A 
ATOM     13  C   UNL     1       0.889  33.670  10.061  1.00  0.00     0.016 A 
ATOM     14  C   UNL     1       1.197  34.149  11.337  1.00  0.00     0.051 A 
ATOM     15  C   UNL     1       2.478  34.645  11.615  1.00  0.00     0.157 A 
ATOM     16  C   UNL     1       3.144  34.172   9.330  1.00  0.00     0.062 A 
ATOM     17  C   UNL     1       3.457  34.652  10.607  1.00  0.00     0.158 A 
BRANCH  15  18
ATOM     18  O   UNL     1       2.781  35.125  12.888  1.00  0.00    -0.504 OA
ATOM     19  H   UNL     1       3.071  36.084  13.039  1.00  0.00     0.293 HD
ENDBRANCH  15  18
BRANCH  17  20
ATOM     20  O   UNL     1       4.744  35.125  10.856  1.00  0.00    -0.504 OA
ATOM     21  H   UNL     1       5.511  34.959  10.217  1.00  0.00     0.293 HD
ENDBRANCH  17  20
ENDBRANCH   1  12
BRANCH   2  22
ATOM     22  O   UNL     1       2.579  31.026   8.169  1.00  0.00    -0.502 OA
ATOM     23  H   UNL     1       3.366  31.365   8.710  1.00  0.00     0.293 HD
ENDBRANCH   2  22
BRANCH   6  24
ATOM     24  O   UNL     1       0.345  30.607   3.352  1.00  0.00    -0.507 OA
ATOM     25  H   UNL     1       0.049  30.346   2.424  1.00  0.00     0.293 HD
ENDBRANCH   6  24
BRANCH   8  26
ATOM     26  O   UNL     1      -1.109  35.115   2.678  1.00  0.00    -0.508 OA
ATOM     27  H   UNL     1      -2.102  35.310   2.731  1.00  0.00     0.293 HD
ENDBRANCH   8  26
TORSDOF 6
ENDMDL
MODEL 4
REMARK VINA RESULT:    -2.994      2.259      2.640
REMARK INTER + INTRA:          -3.214
REMARK INTER:                  -2.897
REMARK INTRA:                  -0.316
REMARK UNBOUND:                 0.393
REMARK SMILES O=c1c(O)c(-c2ccc(O)c(O)c2)oc2cc(O)cc(O)c12
REMARK SMILES IDX 5 1 3 2 2 3 1 4 22 5 20 6 19 7 17 8 16 9 15 10 14 11 6 12
REMARK SMILES IDX 7 13 8 14 9 15 13 16 11 17 10 18 12 20 4 22 21 24 18 26
REMARK H PARENT 10 19 12 21 4 23 21 25 18 27
REMARK Flexibility Score: inf
ROOT
ATOM      1  C   UNL     1       1.061  32.248   6.148  1.00  0.00     0.180 A 
ATOM      2  C   UNL     1       0.269  31.629   7.130  1.00  0.00     0.208 A 
ATOM      3  C   UNL     1       0.899  30.971   8.198  1.00  0.00     0.238 A 
ATOM      4  O   UNL     1       0.184  30.465   9.102  1.00  0.00    -0.285 OA
ATOM      5  C   UNL     1       2.312  30.924   8.262  1.00  0.00     0.111 A 
ATOM      6  C   UNL     1       3.056  30.251   9.277  1.00  0.00     0.134 A 
ATOM      7  C   UNL     1       4.449  30.381   9.313  1.00  0.00     0.093 A 
ATOM      8  C   UNL     1       5.132  31.106   8.337  1.00  0.00     0.123 A 
ATOM      9  C   UNL     1       4.418  31.720   7.306  1.00  0.00     0.094 A 
ATOM     10  C   UNL     1       3.025  31.638   7.263  1.00  0.00     0.146 A 
ATOM     11  O   UNL     1       2.383  32.245   6.271  1.00  0.00    -0.452 OA
ENDROOT
BRANCH   1  12
ATOM     12  C   UNL     1       0.471  32.941   4.980  1.00  0.00     0.025 A 
ATOM     13  C   UNL     1       0.389  34.343   4.976  1.00  0.00     0.016 A 
ATOM     14  C   UNL     1      -0.145  35.018   3.875  1.00  0.00     0.051 A 
ATOM     15  C   UNL     1      -0.591  34.302   2.756  1.00  0.00     0.157 A 
ATOM     16  C   UNL     1       0.042  32.228   3.846  1.00  0.00     0.062 A 
ATOM     17  C   UNL     1      -0.493  32.900   2.741  1.00  0.00     0.158 A 
BRANCH  15  18
ATOM     18  O   UNL     1      -1.125  34.978   1.660  1.00  0.00    -0.504 OA
ATOM     19  H   UNL     1      -0.634  35.747   1.220  1.00  0.00     0.293 HD
ENDBRANCH  15  18
BRANCH  17  20
ATOM     20  O   UNL     1      -0.914  32.161   1.637  1.00  0.00    -0.504 OA
ATOM     21  H   UNL     1      -0.963  32.561   0.708  1.00  0.00     0.293 HD
ENDBRANCH  17  20
ENDBRANCH   1  12
BRANCH   2  22
ATOM     22  O   UNL     1      -1.125  31.706   7.059  1.00  0.00    -0.502 OA
ATOM     23  H   UNL     1      -1.711  31.730   7.885  1.00  0.00     0.293 HD
ENDBRANCH   2  22
BRANCH   6  24
ATOM     24  O   UNL     1       2.481  29.425  10.248  1.00  0.00    -0.507 OA
ATOM     25  H   UNL     1       2.037  28.539  10.058  1.00  0.00     0.293 HD
ENDBRANCH   6  24
BRANCH   8  26
ATOM     26  O   UNL     1       6.520  31.202   8.396  1.00  0.00    -0.508 OA
ATOM     27  H   UNL     1       7.111  30.383   8.306  1.00  0.00     0.293 HD
ENDBRANCH   8  26
TORSDOF 6
ENDMDL
