MODEL 1
REMARK VINA RESULT:     6.187      0.000      0.000
REMARK INTER + INTRA:           7.453
REMARK INTER:                   7.453
REMARK INTRA:                   0.000
REMARK UNBOUND:                 0.000
REMARK SMILES O=c1c(O)c(-c2ccc(O)c(O)c2)oc2cc(O)cc(O)c12
REMARK SMILES IDX 5 1 3 2 2 3 1 4 22 5 20 6 19 7 17 8 16 9 15 10 14 11 6 12
REMARK SMILES IDX 7 13 8 14 9 15 13 16 11 17 10 18 12 20 4 22 21 24 18 26
REMARK H PARENT 10 19 12 21 4 23 21 25 18 27
REMARK Flexibility Score: inf
ROOT
ATOM      1  C   UNL     1     -31.031  -0.343 -24.323  1.00  0.00     0.180 A 
ATOM      2  C   UNL     1     -31.267   0.919 -24.904  1.00  0.00     0.208 A 
ATOM      3  C   UNL     1     -31.550   0.991 -26.277  1.00  0.00     0.238 A 
ATOM      4  O   UNL     1     -31.752   2.115 -26.811  1.00  0.00    -0.285 OA
ATOM      5  C   UNL     1     -31.613  -0.194 -27.039  1.00  0.00     0.111 A 
ATOM      6  C   UNL     1     -31.895  -0.210 -28.426  1.00  0.00     0.134 A 
ATOM      7  C   UNL     1     -31.949  -1.432 -29.112  1.00  0.00     0.093 A 
ATOM      8  C   UNL     1     -31.726  -2.638 -28.438  1.00  0.00     0.123 A 
ATOM      9  C   UNL     1     -31.446  -2.628 -27.070  1.00  0.00     0.094 A 
ATOM     10  C   UNL     1     -31.386  -1.420 -26.369  1.00  0.00     0.146 A 
ATOM     11  O   UNL     1     -31.113  -1.440 -25.069  1.00  0.00    -0.452 OA
ENDROOT
BRANCH   1  12
ATOM     12  C   UNL     1     -30.707  -0.498 -22.886  1.00  0.00     0.025 A 
ATOM     13  C   UNL     1     -31.560   0.064 -21.923  1.00  0.00     0.016 A 
ATOM     14  C   UNL     1     -31.286  -0.088 -20.561  1.00  0.00     0.051 A 
ATOM     15  C   UNL     1     -30.166  -0.817 -20.144  1.00  0.00     0.157 A 
ATOM     16  C   UNL     1     -29.595  -1.246 -22.462  1.00  0.00     0.062 A 
ATOM     17  C   UNL     1     -29.320  -1.400 -21.095  1.00  0.00     0.158 A 
BRANCH  15  18
ATOM     18  O   UNL     1     -29.887  -0.969 -18.786  1.00  0.00    -0.504 OA
ATOM     19  H   UNL     1     -29.817  -0.170 -18.167  1.00  0.00     0.293 HD
ENDBRANCH  15  18
BRANCH  17  20
ATOM     20  O   UNL     1     -28.213  -2.136 -20.677  1.00  0.00    -0.504 OA
ATOM     21  H   UNL     1     -28.288  -2.839 -19.951  1.00  0.00     0.293 HD
ENDBRANCH  17  20
ENDBRANCH   1  12
BRANCH   2  22
ATOM     22  O   UNL     1     -31.248   2.073 -24.118  1.00  0.00    -0.502 OA
ATOM     23  H   UNL     1     -31.797   2.893 -24.344  1.00  0.00     0.293 HD
ENDBRANCH   2  22
BRANCH   6  24
ATOM     24  O   UNL     1     -32.123   0.977 -29.125  1.00  0.00    -0.507 OA
ATOM     25  H   UNL     1     -32.929   1.093 -29.729  1.00  0.00     0.293 HD
ENDBRANCH   6  24
BRANCH   8  26
ATOM     26  O   UNL     1     -31.780  -3.852 -29.119  1.00  0.00    -0.508 OA
ATOM     27  H   UNL     1     -30.941  -4.304 -29.462  1.00  0.00     0.293 HD
ENDBRANCH   8  26
TORSDOF 6
ENDMDL
