MODEL 1
REMARK VINA RESULT:    -3.985      0.000      0.000
REMARK INTER + INTRA:          -8.599
REMARK INTER:                  -6.781
REMARK INTRA:                  -1.818
REMARK UNBOUND:                -1.818
REMARK SMILES CCCCCCCCCCCCCC(=O)[O-]
REMARK SMILES IDX 8 1 9 2 10 3 11 4 12 5 13 6 14 7 15 8 16 9 7 10 6 11 5 12
REMARK SMILES IDX 4 13 3 14 2 15 1 16
REMARK H PARENT
REMARK Flexibility Score: inf
ROOT
ATOM      1  C   UNL     1      -6.614  37.769  19.720  1.00  0.00     0.000 C 
ENDROOT
BRANCH   1   2
ATOM      2  C   UNL     1      -5.308  37.619  18.922  1.00  0.00     0.000 C 
BRANCH   2   3
ATOM      3  C   UNL     1      -4.490  38.920  18.880  1.00  0.00     0.000 C 
BRANCH   3   4
ATOM      4  C   UNL     1      -3.041  38.726  19.355  1.00  0.00     0.000 C 
BRANCH   4   5
ATOM      5  C   UNL     1      -2.629  37.249  19.271  1.00  0.00     0.006 C 
BRANCH   5   6
ATOM      6  C   UNL     1      -1.698  36.972  18.083  1.00  0.00     0.053 C 
BRANCH   6   7
ATOM      7  C   UNL     1      -2.248  35.912  17.179  1.00  0.00     0.041 C 
ATOM      8  O   UNL     1      -3.101  36.208  16.301  1.00  0.00    -0.550 OA
ATOM      9  O   UNL     1      -1.847  34.591  17.330  1.00  0.00    -0.550 OA
ENDBRANCH   6   7
ENDBRANCH   5   6
ENDBRANCH   4   5
ENDBRANCH   3   4
ENDBRANCH   2   3
ENDBRANCH   1   2
BRANCH   1  10
ATOM     10  C   UNL     1      -6.976  39.239  20.003  1.00  0.00     0.000 C 
BRANCH  10  11
ATOM     11  C   UNL     1      -7.499  39.522  21.426  1.00  0.00    -0.000 C 
BRANCH  11  12
ATOM     12  C   UNL     1      -7.101  38.477  22.488  1.00  0.00    -0.000 C 
BRANCH  12  13
ATOM     13  C   UNL     1      -5.900  38.871  23.372  1.00  0.00    -0.000 C 
BRANCH  13  14
ATOM     14  C   UNL     1      -4.548  38.932  22.640  1.00  0.00    -0.000 C 
BRANCH  14  15
ATOM     15  C   UNL     1      -3.654  37.719  22.934  1.00  0.00    -0.003 C 
ATOM     16  C   UNL     1      -4.240  36.445  22.333  1.00  0.00     0.004 C 
ENDBRANCH  14  15
ENDBRANCH  13  14
ENDBRANCH  12  13
ENDBRANCH  11  12
ENDBRANCH  10  11
ENDBRANCH   1  10
TORSDOF 12
ENDMDL
MODEL 2
REMARK VINA RESULT:    -3.963      1.199      1.839
REMARK INTER + INTRA:          -8.561
REMARK INTER:                  -7.126
REMARK INTRA:                  -1.435
REMARK UNBOUND:                -1.818
REMARK SMILES CCCCCCCCCCCCCC(=O)[O-]
REMARK SMILES IDX 8 1 9 2 10 3 11 4 12 5 13 6 14 7 15 8 16 9 7 10 6 11 5 12
REMARK SMILES IDX 4 13 3 14 2 15 1 16
REMARK H PARENT
REMARK Flexibility Score: inf
ROOT
ATOM      1  C   UNL     1      -5.798  37.773  18.776  1.00  0.00     0.000 C 
ENDROOT
BRANCH   1   2
ATOM      2  C   UNL     1      -4.587  38.698  18.984  1.00  0.00     0.000 C 
BRANCH   2   3
ATOM      3  C   UNL     1      -3.446  38.408  17.994  1.00  0.00     0.000 C 
BRANCH   3   4
ATOM      4  C   UNL     1      -3.937  37.738  16.702  1.00  0.00     0.000 C 
BRANCH   4   5
ATOM      5  C   UNL     1      -3.067  36.523  16.349  1.00  0.00     0.006 C 
BRANCH   5   6
ATOM      6  C   UNL     1      -2.205  36.062  17.532  1.00  0.00     0.053 C 
BRANCH   6   7
ATOM      7  C   UNL     1      -1.225  35.003  17.129  1.00  0.00     0.041 C 
ATOM      8  O   UNL     1      -0.228  35.301  16.418  1.00  0.00    -0.550 OA
ATOM      9  O   UNL     1      -1.431  33.683  17.507  1.00  0.00    -0.550 OA
ENDBRANCH   6   7
ENDBRANCH   5   6
ENDBRANCH   4   5
ENDBRANCH   3   4
ENDBRANCH   2   3
ENDBRANCH   1   2
BRANCH   1  10
ATOM     10  C   UNL     1      -7.119  38.402  19.254  1.00  0.00     0.000 C 
BRANCH  10  11
ATOM     11  C   UNL     1      -6.975  39.466  20.361  1.00  0.00    -0.000 C 
BRANCH  11  12
ATOM     12  C   UNL     1      -7.587  39.078  21.723  1.00  0.00    -0.000 C 
BRANCH  12  13
ATOM     13  C   UNL     1      -6.598  38.449  22.725  1.00  0.00    -0.000 C 
BRANCH  13  14
ATOM     14  C   UNL     1      -6.338  36.946  22.526  1.00  0.00    -0.000 C 
BRANCH  14  15
ATOM     15  C   UNL     1      -4.889  36.639  22.120  1.00  0.00    -0.003 C 
ATOM     16  C   UNL     1      -3.941  37.735  22.596  1.00  0.00     0.004 C 
ENDBRANCH  14  15
ENDBRANCH  13  14
ENDBRANCH  12  13
ENDBRANCH  11  12
ENDBRANCH  10  11
ENDBRANCH   1  10
TORSDOF 12
ENDMDL
MODEL 3
REMARK VINA RESULT:    -3.902      2.407      5.376
REMARK INTER + INTRA:          -8.457
REMARK INTER:                  -6.645
REMARK INTRA:                  -1.812
REMARK UNBOUND:                -1.818
REMARK SMILES CCCCCCCCCCCCCC(=O)[O-]
REMARK SMILES IDX 8 1 9 2 10 3 11 4 12 5 13 6 14 7 15 8 16 9 7 10 6 11 5 12
REMARK SMILES IDX 4 13 3 14 2 15 1 16
REMARK H PARENT
REMARK Flexibility Score: inf
ROOT
ATOM      1  C   UNL     1      -5.205  37.767  19.176  1.00  0.00     0.000 C 
ENDROOT
BRANCH   1   2
ATOM      2  C   UNL     1      -6.648  37.753  19.708  1.00  0.00     0.000 C 
BRANCH   2   3
ATOM      3  C   UNL     1      -7.068  39.104  20.310  1.00  0.00     0.000 C 
BRANCH   3   4
ATOM      4  C   UNL     1      -7.530  38.986  21.770  1.00  0.00     0.000 C 
BRANCH   4   5
ATOM      5  C   UNL     1      -6.608  38.048  22.563  1.00  0.00     0.006 C 
BRANCH   5   6
ATOM      6  C   UNL     1      -5.311  38.742  23.001  1.00  0.00     0.053 C 
BRANCH   6   7
ATOM      7  C   UNL     1      -4.122  37.840  22.862  1.00  0.00     0.041 C 
ATOM      8  O   UNL     1      -2.974  38.255  23.172  1.00  0.00    -0.550 OA
ATOM      9  O   UNL     1      -4.277  36.556  22.356  1.00  0.00    -0.550 OA
ENDBRANCH   6   7
ENDBRANCH   5   6
ENDBRANCH   4   5
ENDBRANCH   3   4
ENDBRANCH   2   3
ENDBRANCH   1   2
BRANCH   1  10
ATOM     10  C   UNL     1      -4.564  39.166  19.223  1.00  0.00     0.000 C 
BRANCH  10  11
ATOM     11  C   UNL     1      -3.073  39.190  19.614  1.00  0.00    -0.000 C 
BRANCH  11  12
ATOM     12  C   UNL     1      -2.353  37.829  19.528  1.00  0.00    -0.000 C 
BRANCH  12  13
ATOM     13  C   UNL     1      -1.151  37.787  18.563  1.00  0.00    -0.000 C 
BRANCH  13  14
ATOM     14  C   UNL     1      -1.498  37.423  17.109  1.00  0.00    -0.000 C 
BRANCH  14  15
ATOM     15  C   UNL     1      -2.470  36.238  17.005  1.00  0.00    -0.003 C 
ATOM     16  C   UNL     1      -3.589  36.530  16.011  1.00  0.00     0.004 C 
ENDBRANCH  14  15
ENDBRANCH  13  14
ENDBRANCH  12  13
ENDBRANCH  11  12
ENDBRANCH  10  11
ENDBRANCH   1  10
TORSDOF 12
ENDMDL
MODEL 4
REMARK VINA RESULT:    -3.864      2.376      2.763
REMARK INTER + INTRA:          -8.392
REMARK INTER:                  -6.710
REMARK INTRA:                  -1.682
REMARK UNBOUND:                -1.818
REMARK SMILES CCCCCCCCCCCCCC(=O)[O-]
REMARK SMILES IDX 8 1 9 2 10 3 11 4 12 5 13 6 14 7 15 8 16 9 7 10 6 11 5 12
REMARK SMILES IDX 4 13 3 14 2 15 1 16
REMARK H PARENT
REMARK Flexibility Score: inf
ROOT
ATOM      1  C   UNL     1      -6.367  37.754  18.770  1.00  0.00     0.000 C 
ENDROOT
BRANCH   1   2
ATOM      2  C   UNL     1      -5.002  38.458  18.853  1.00  0.00     0.000 C 
BRANCH   2   3
ATOM      3  C   UNL     1      -4.141  38.223  17.600  1.00  0.00     0.000 C 
BRANCH   3   4
ATOM      4  C   UNL     1      -3.046  37.168  17.822  1.00  0.00     0.000 C 
BRANCH   4   5
ATOM      5  C   UNL     1      -2.448  37.286  19.231  1.00  0.00     0.006 C 
BRANCH   5   6
ATOM      6  C   UNL     1      -1.279  38.279  19.284  1.00  0.00     0.053 C 
BRANCH   6   7
ATOM      7  C   UNL     1      -1.534  39.388  20.258  1.00  0.00     0.041 C 
ATOM      8  O   UNL     1      -2.186  40.405  19.903  1.00  0.00    -0.550 OA
ATOM      9  O   UNL     1      -1.022  39.315  21.547  1.00  0.00    -0.550 OA
ENDBRANCH   6   7
ENDBRANCH   5   6
ENDBRANCH   4   5
ENDBRANCH   3   4
ENDBRANCH   2   3
ENDBRANCH   1   2
BRANCH   1  10
ATOM     10  C   UNL     1      -7.465  38.484  19.565  1.00  0.00     0.000 C 
BRANCH  10  11
ATOM     11  C   UNL     1      -6.954  39.471  20.635  1.00  0.00    -0.000 C 
BRANCH  11  12
ATOM     12  C   UNL     1      -7.485  39.220  22.060  1.00  0.00    -0.000 C 
BRANCH  12  13
ATOM     13  C   UNL     1      -6.544  38.407  22.973  1.00  0.00    -0.000 C 
BRANCH  13  14
ATOM     14  C   UNL     1      -6.308  36.952  22.531  1.00  0.00    -0.000 C 
BRANCH  14  15
ATOM     15  C   UNL     1      -4.858  36.688  22.097  1.00  0.00    -0.003 C 
ATOM     16  C   UNL     1      -3.911  37.733  22.678  1.00  0.00     0.004 C 
ENDBRANCH  14  15
ENDBRANCH  13  14
ENDBRANCH  12  13
ENDBRANCH  11  12
ENDBRANCH  10  11
ENDBRANCH   1  10
TORSDOF 12
ENDMDL
MODEL 5
REMARK VINA RESULT:    -3.851      1.312      3.004
REMARK INTER + INTRA:          -8.370
REMARK INTER:                  -6.977
REMARK INTRA:                  -1.393
REMARK UNBOUND:                -1.818
REMARK SMILES CCCCCCCCCCCCCC(=O)[O-]
REMARK SMILES IDX 8 1 9 2 10 3 11 4 12 5 13 6 14 7 15 8 16 9 7 10 6 11 5 12
REMARK SMILES IDX 4 13 3 14 2 15 1 16
REMARK H PARENT
REMARK Flexibility Score: inf
ROOT
ATOM      1  C   UNL     1      -3.817  36.660  20.848  1.00  0.00     0.000 C 
ENDROOT
BRANCH   1   2
ATOM      2  C   UNL     1      -3.055  37.985  20.676  1.00  0.00     0.000 C 
BRANCH   2   3
ATOM      3  C   UNL     1      -2.222  38.024  19.385  1.00  0.00     0.000 C 
BRANCH   3   4
ATOM      4  C   UNL     1      -2.661  36.964  18.363  1.00  0.00     0.000 C 
BRANCH   4   5
ATOM      5  C   UNL     1      -2.006  37.215  16.997  1.00  0.00     0.006 C 
BRANCH   5   6
ATOM      6  C   UNL     1      -1.883  35.930  16.167  1.00  0.00     0.053 C 
BRANCH   6   7
ATOM      7  C   UNL     1      -1.005  34.916  16.835  1.00  0.00     0.041 C 
ATOM      8  O   UNL     1       0.234  35.121  16.937  1.00  0.00    -0.550 OA
ATOM      9  O   UNL     1      -1.548  33.730  17.312  1.00  0.00    -0.550 OA
ENDBRANCH   6   7
ENDBRANCH   5   6
ENDBRANCH   4   5
ENDBRANCH   3   4
ENDBRANCH   2   3
ENDBRANCH   1   2
BRANCH   1  10
ATOM     10  C   UNL     1      -4.635  36.606  22.151  1.00  0.00     0.000 C 
BRANCH  10  11
ATOM     11  C   UNL     1      -5.234  37.953  22.606  1.00  0.00    -0.000 C 
BRANCH  11  12
ATOM     12  C   UNL     1      -6.773  37.988  22.688  1.00  0.00    -0.000 C 
BRANCH  12  13
ATOM     13  C   UNL     1      -7.451  39.030  21.775  1.00  0.00    -0.000 C 
BRANCH  13  14
ATOM     14  C   UNL     1      -6.772  39.237  20.410  1.00  0.00    -0.000 C 
BRANCH  14  15
ATOM     15  C   UNL     1      -7.262  38.247  19.343  1.00  0.00    -0.003 C 
ATOM     16  C   UNL     1      -6.137  37.870  18.384  1.00  0.00     0.004 C 
ENDBRANCH  14  15
ENDBRANCH  13  14
ENDBRANCH  12  13
ENDBRANCH  11  12
ENDBRANCH  10  11
ENDBRANCH   1  10
TORSDOF 12
ENDMDL
MODEL 6
REMARK VINA RESULT:    -3.807      1.969      2.726
REMARK INTER + INTRA:          -8.296
REMARK INTER:                  -6.437
REMARK INTRA:                  -1.859
REMARK UNBOUND:                -1.818
REMARK SMILES CCCCCCCCCCCCCC(=O)[O-]
REMARK SMILES IDX 8 1 9 2 10 3 11 4 12 5 13 6 14 7 15 8 16 9 7 10 6 11 5 12
REMARK SMILES IDX 4 13 3 14 2 15 1 16
REMARK H PARENT
REMARK Flexibility Score: inf
ROOT
ATOM      1  C   UNL     1      -6.763  39.475  20.386  1.00  0.00     0.000 C 
ENDROOT
BRANCH   1   2
ATOM      2  C   UNL     1      -7.137  38.498  19.259  1.00  0.00     0.000 C 
BRANCH   2   3
ATOM      3  C   UNL     1      -6.001  37.515  18.930  1.00  0.00     0.000 C 
BRANCH   3   4
ATOM      4  C   UNL     1      -5.461  37.688  17.503  1.00  0.00     0.000 C 
BRANCH   4   5
ATOM      5  C   UNL     1      -3.926  37.698  17.494  1.00  0.00     0.006 C 
BRANCH   5   6
ATOM      6  C   UNL     1      -3.356  38.836  16.637  1.00  0.00     0.053 C 
BRANCH   6   7
ATOM      7  C   UNL     1      -2.037  39.320  17.157  1.00  0.00     0.041 C 
ATOM      8  O   UNL     1      -1.672  40.507  16.949  1.00  0.00    -0.550 OA
ATOM      9  O   UNL     1      -1.196  38.451  17.840  1.00  0.00    -0.550 OA
ENDBRANCH   6   7
ENDBRANCH   5   6
ENDBRANCH   4   5
ENDBRANCH   3   4
ENDBRANCH   2   3
ENDBRANCH   1   2
BRANCH   1  10
ATOM     10  C   UNL     1      -7.526  39.200  21.694  1.00  0.00     0.000 C 
BRANCH  10  11
ATOM     11  C   UNL     1      -6.703  38.507  22.799  1.00  0.00    -0.000 C 
BRANCH  11  12
ATOM     12  C   UNL     1      -6.397  37.017  22.548  1.00  0.00    -0.000 C 
BRANCH  12  13
ATOM     13  C   UNL     1      -4.908  36.686  22.320  1.00  0.00    -0.000 C 
BRANCH  13  14
ATOM     14  C   UNL     1      -3.955  37.892  22.399  1.00  0.00    -0.000 C 
BRANCH  14  15
ATOM     15  C   UNL     1      -3.166  38.114  21.101  1.00  0.00    -0.003 C 
ATOM     16  C   UNL     1      -3.152  39.589  20.711  1.00  0.00     0.004 C 
ENDBRANCH  14  15
ENDBRANCH  13  14
ENDBRANCH  12  13
ENDBRANCH  11  12
ENDBRANCH  10  11
ENDBRANCH   1  10
TORSDOF 12
ENDMDL
MODEL 7
REMARK VINA RESULT:    -3.798      1.292      3.208
REMARK INTER + INTRA:          -8.279
REMARK INTER:                  -6.102
REMARK INTRA:                  -2.177
REMARK UNBOUND:                -1.818
REMARK SMILES CCCCCCCCCCCCCC(=O)[O-]
REMARK SMILES IDX 8 1 9 2 10 3 11 4 12 5 13 6 14 7 15 8 16 9 7 10 6 11 5 12
REMARK SMILES IDX 4 13 3 14 2 15 1 16
REMARK H PARENT
REMARK Flexibility Score: inf
ROOT
ATOM      1  C   UNL     1      -3.220  39.807  22.176  1.00  0.00     0.000 C 
ENDROOT
BRANCH   1   2
ATOM      2  C   UNL     1      -4.170  40.692  21.352  1.00  0.00     0.000 C 
BRANCH   2   3
ATOM      3  C   UNL     1      -3.813  40.709  19.857  1.00  0.00     0.000 C 
BRANCH   3   4
ATOM      4  C   UNL     1      -2.810  39.610  19.473  1.00  0.00     0.000 C 
BRANCH   4   5
ATOM      5  C   UNL     1      -3.507  38.472  18.712  1.00  0.00     0.006 C 
BRANCH   5   6
ATOM      6  C   UNL     1      -2.684  37.177  18.722  1.00  0.00     0.053 C 
BRANCH   6   7
ATOM      7  C   UNL     1      -1.831  37.049  17.497  1.00  0.00     0.041 C 
ATOM      8  O   UNL     1      -2.128  37.682  16.450  1.00  0.00    -0.550 OA
ATOM      9  O   UNL     1      -0.730  36.203  17.501  1.00  0.00    -0.550 OA
ENDBRANCH   6   7
ENDBRANCH   5   6
ENDBRANCH   4   5
ENDBRANCH   3   4
ENDBRANCH   2   3
ENDBRANCH   1   2
BRANCH   1  10
ATOM     10  C   UNL     1      -3.966  38.839  23.113  1.00  0.00     0.000 C 
BRANCH  10  11
ATOM     11  C   UNL     1      -3.675  37.343  22.877  1.00  0.00    -0.000 C 
BRANCH  11  12
ATOM     12  C   UNL     1      -4.597  36.653  21.851  1.00  0.00    -0.000 C 
BRANCH  12  13
ATOM     13  C   UNL     1      -6.033  37.210  21.786  1.00  0.00    -0.000 C 
BRANCH  13  14
ATOM     14  C   UNL     1      -6.528  37.570  20.374  1.00  0.00    -0.000 C 
BRANCH  14  15
ATOM     15  C   UNL     1      -7.242  38.928  20.320  1.00  0.00    -0.003 C 
ATOM     16  C   UNL     1      -7.620  39.408  21.718  1.00  0.00     0.004 C 
ENDBRANCH  14  15
ENDBRANCH  13  14
ENDBRANCH  12  13
ENDBRANCH  11  12
ENDBRANCH  10  11
ENDBRANCH   1  10
TORSDOF 12
ENDMDL
MODEL 8
REMARK VINA RESULT:    -3.775      1.778      2.443
REMARK INTER + INTRA:          -8.241
REMARK INTER:                  -6.629
REMARK INTRA:                  -1.613
REMARK UNBOUND:                -1.818
REMARK SMILES CCCCCCCCCCCCCC(=O)[O-]
REMARK SMILES IDX 8 1 9 2 10 3 11 4 12 5 13 6 14 7 15 8 16 9 7 10 6 11 5 12
REMARK SMILES IDX 4 13 3 14 2 15 1 16
REMARK H PARENT
REMARK Flexibility Score: inf
ROOT
ATOM      1  C   UNL     1      -5.470  37.932  18.783  1.00  0.00     0.000 C 
ENDROOT
BRANCH   1   2
ATOM      2  C   UNL     1      -4.333  38.906  19.134  1.00  0.00     0.000 C 
BRANCH   2   3
ATOM      3  C   UNL     1      -3.013  38.183  19.447  1.00  0.00     0.000 C 
BRANCH   3   4
ATOM      4  C   UNL     1      -2.771  36.968  18.539  1.00  0.00     0.000 C 
BRANCH   4   5
ATOM      5  C   UNL     1      -1.531  37.180  17.658  1.00  0.00     0.006 C 
BRANCH   5   6
ATOM      6  C   UNL     1      -1.900  37.588  16.225  1.00  0.00     0.053 C 
BRANCH   6   7
ATOM      7  C   UNL     1      -1.807  39.070  16.026  1.00  0.00     0.041 C 
ATOM      8  O   UNL     1      -0.684  39.620  15.879  1.00  0.00    -0.550 OA
ATOM      9  O   UNL     1      -2.958  39.847  16.038  1.00  0.00    -0.550 OA
ENDBRANCH   6   7
ENDBRANCH   5   6
ENDBRANCH   4   5
ENDBRANCH   3   4
ENDBRANCH   2   3
ENDBRANCH   1   2
BRANCH   1  10
ATOM     10  C   UNL     1      -6.850  38.432  19.246  1.00  0.00     0.000 C 
BRANCH  10  11
ATOM     11  C   UNL     1      -6.826  39.418  20.432  1.00  0.00    -0.000 C 
BRANCH  11  12
ATOM     12  C   UNL     1      -7.496  38.904  21.722  1.00  0.00    -0.000 C 
BRANCH  12  13
ATOM     13  C   UNL     1      -6.544  38.220  22.724  1.00  0.00    -0.000 C 
BRANCH  13  14
ATOM     14  C   UNL     1      -5.999  36.854  22.272  1.00  0.00    -0.000 C 
BRANCH  14  15
ATOM     15  C   UNL     1      -4.472  36.747  22.404  1.00  0.00    -0.003 C 
ATOM     16  C   UNL     1      -3.873  38.052  22.920  1.00  0.00     0.004 C 
ENDBRANCH  14  15
ENDBRANCH  13  14
ENDBRANCH  12  13
ENDBRANCH  11  12
ENDBRANCH  10  11
ENDBRANCH   1  10
TORSDOF 12
ENDMDL
MODEL 9
REMARK VINA RESULT:    -3.770      1.465      2.943
REMARK INTER + INTRA:          -8.233
REMARK INTER:                  -6.333
REMARK INTRA:                  -1.900
REMARK UNBOUND:                -1.818
REMARK SMILES CCCCCCCCCCCCCC(=O)[O-]
REMARK SMILES IDX 8 1 9 2 10 3 11 4 12 5 13 6 14 7 15 8 16 9 7 10 6 11 5 12
REMARK SMILES IDX 4 13 3 14 2 15 1 16
REMARK H PARENT
REMARK Flexibility Score: inf
ROOT
ATOM      1  C   UNL     1      -4.090  36.304  21.365  1.00  0.00     0.000 C 
ENDROOT
BRANCH   1   2
ATOM      2  C   UNL     1      -3.589  37.293  20.299  1.00  0.00     0.000 C 
BRANCH   2   3
ATOM      3  C   UNL     1      -2.799  38.464  20.906  1.00  0.00     0.000 C 
BRANCH   3   4
ATOM      4  C   UNL     1      -2.618  39.631  19.923  1.00  0.00     0.000 C 
BRANCH   4   5
ATOM      5  C   UNL     1      -3.420  39.393  18.635  1.00  0.00     0.006 C 
BRANCH   5   6
ATOM      6  C   UNL     1      -2.530  39.410  17.385  1.00  0.00     0.053 C 
BRANCH   6   7
ATOM      7  C   UNL     1      -2.278  38.029  16.861  1.00  0.00     0.041 C 
ATOM      8  O   UNL     1      -1.277  37.375  17.257  1.00  0.00    -0.550 OA
ATOM      9  O   UNL     1      -3.127  37.479  15.910  1.00  0.00    -0.550 OA
ENDBRANCH   6   7
ENDBRANCH   5   6
ENDBRANCH   4   5
ENDBRANCH   3   4
ENDBRANCH   2   3
ENDBRANCH   1   2
BRANCH   1  10
ATOM     10  C   UNL     1      -4.732  37.005  22.576  1.00  0.00     0.000 C 
BRANCH  10  11
ATOM     11  C   UNL     1      -6.273  36.955  22.621  1.00  0.00    -0.000 C 
BRANCH  11  12
ATOM     12  C   UNL     1      -6.965  38.322  22.795  1.00  0.00    -0.000 C 
BRANCH  12  13
ATOM     13  C   UNL     1      -6.142  39.535  22.317  1.00  0.00    -0.000 C 
BRANCH  13  14
ATOM     14  C   UNL     1      -6.311  39.889  20.829  1.00  0.00    -0.000 C 
BRANCH  14  15
ATOM     15  C   UNL     1      -7.408  39.065  20.140  1.00  0.00    -0.003 C 
ATOM     16  C   UNL     1      -6.817  38.138  19.083  1.00  0.00     0.004 C 
ENDBRANCH  14  15
ENDBRANCH  13  14
ENDBRANCH  12  13
ENDBRANCH  11  12
ENDBRANCH  10  11
ENDBRANCH   1  10
TORSDOF 12
ENDMDL
