MODEL 1
REMARK VINA RESULT:    -5.465      0.000      0.000
REMARK INTER + INTRA:          -6.457
REMARK INTER:                  -6.583
REMARK INTRA:                   0.126
REMARK UNBOUND:                 0.126
REMARK SMILES O=c1c(O)c(-c2ccc(O)c(O)c2)oc2cc(O)cc(O)c12
REMARK SMILES IDX 5 1 3 2 2 3 1 4 22 5 20 6 19 7 17 8 16 9 15 10 14 11 6 12
REMARK SMILES IDX 7 13 8 14 9 15 13 16 11 17 10 18 12 20 4 22 21 24 18 26
REMARK H PARENT 10 19 12 21 4 23 21 25 18 27
REMARK Flexibility Score: inf
ROOT
ATOM      1  C   UNL     1     -14.010  -6.215   2.793  1.00  0.00     0.180 A 
ATOM      2  C   UNL     1     -15.352  -6.549   2.537  1.00  0.00     0.208 A 
ATOM      3  C   UNL     1     -15.775  -7.872   2.741  1.00  0.00     0.238 A 
ATOM      4  O   UNL     1     -16.957  -8.180   2.439  1.00  0.00    -0.285 OA
ATOM      5  C   UNL     1     -14.868  -8.832   3.252  1.00  0.00     0.111 A 
ATOM      6  C   UNL     1     -15.201 -10.190   3.540  1.00  0.00     0.134 A 
ATOM      7  C   UNL     1     -14.194 -11.077   3.943  1.00  0.00     0.093 A 
ATOM      8  C   UNL     1     -12.880 -10.639   4.129  1.00  0.00     0.123 A 
ATOM      9  C   UNL     1     -12.558  -9.303   3.904  1.00  0.00     0.094 A 
ATOM     10  C   UNL     1     -13.532  -8.404   3.465  1.00  0.00     0.146 A 
ATOM     11  O   UNL     1     -13.175  -7.144   3.241  1.00  0.00    -0.452 OA
ENDROOT
BRANCH   1  12
ATOM     12  C   UNL     1     -13.486  -4.846   2.588  1.00  0.00     0.025 A 
ATOM     13  C   UNL     1     -12.535  -4.331   3.482  1.00  0.00     0.016 A 
ATOM     14  C   UNL     1     -12.010  -3.049   3.296  1.00  0.00     0.051 A 
ATOM     15  C   UNL     1     -12.415  -2.270   2.208  1.00  0.00     0.157 A 
ATOM     16  C   UNL     1     -13.877  -4.069   1.483  1.00  0.00     0.062 A 
ATOM     17  C   UNL     1     -13.350  -2.783   1.294  1.00  0.00     0.158 A 
BRANCH  15  18
ATOM     18  O   UNL     1     -11.876  -0.994   2.050  1.00  0.00    -0.504 OA
ATOM     19  H   UNL     1     -11.529  -0.663   1.158  1.00  0.00     0.293 HD
ENDBRANCH  15  18
BRANCH  17  20
ATOM     20  O   UNL     1     -13.747  -2.018   0.198  1.00  0.00    -0.504 OA
ATOM     21  H   UNL     1     -14.495  -2.317  -0.415  1.00  0.00     0.293 HD
ENDBRANCH  17  20
ENDBRANCH   1  12
BRANCH   2  22
ATOM     22  O   UNL     1     -16.251  -5.569   2.106  1.00  0.00    -0.502 OA
ATOM     23  H   UNL     1     -16.524  -4.787   2.688  1.00  0.00     0.293 HD
ENDBRANCH   2  22
BRANCH   6  24
ATOM     24  O   UNL     1     -16.496 -10.711   3.473  1.00  0.00    -0.507 OA
ATOM     25  H   UNL     1     -16.999 -11.111   4.251  1.00  0.00     0.293 HD
ENDBRANCH   6  24
BRANCH   8  26
ATOM     26  O   UNL     1     -11.889 -11.524   4.546  1.00  0.00    -0.508 OA
ATOM     27  H   UNL     1     -10.905 -11.300   4.456  1.00  0.00     0.293 HD
ENDBRANCH   8  26
TORSDOF 6
ENDMDL
MODEL 2
REMARK VINA RESULT:    -5.337      2.993      8.698
REMARK INTER + INTRA:          -6.303
REMARK INTER:                  -6.530
REMARK INTRA:                   0.227
REMARK UNBOUND:                 0.126
REMARK SMILES O=c1c(O)c(-c2ccc(O)c(O)c2)oc2cc(O)cc(O)c12
REMARK SMILES IDX 5 1 3 2 2 3 1 4 22 5 20 6 19 7 17 8 16 9 15 10 14 11 6 12
REMARK SMILES IDX 7 13 8 14 9 15 13 16 11 17 10 18 12 20 4 22 21 24 18 26
REMARK H PARENT 10 19 12 21 4 23 21 25 18 27
REMARK Flexibility Score: inf
ROOT
ATOM      1  C   UNL     1     -13.562  -1.901   2.628  1.00  0.00     0.180 A 
ATOM      2  C   UNL     1     -13.126  -1.005   3.619  1.00  0.00     0.208 A 
ATOM      3  C   UNL     1     -13.238   0.375   3.387  1.00  0.00     0.238 A 
ATOM      4  O   UNL     1     -12.777   1.170   4.247  1.00  0.00    -0.285 OA
ATOM      5  C   UNL     1     -13.835   0.843   2.191  1.00  0.00     0.111 A 
ATOM      6  C   UNL     1     -14.041   2.219   1.871  1.00  0.00     0.134 A 
ATOM      7  C   UNL     1     -14.545   2.567   0.611  1.00  0.00     0.093 A 
ATOM      8  C   UNL     1     -14.911   1.586  -0.315  1.00  0.00     0.123 A 
ATOM      9  C   UNL     1     -14.766   0.240   0.011  1.00  0.00     0.094 A 
ATOM     10  C   UNL     1     -14.230  -0.137   1.244  1.00  0.00     0.146 A 
ATOM     11  O   UNL     1     -14.088  -1.432   1.503  1.00  0.00    -0.452 OA
ENDROOT
BRANCH   1  12
ATOM     12  C   UNL     1     -13.464  -3.369   2.793  1.00  0.00     0.025 A 
ATOM     13  C   UNL     1     -12.360  -3.913   3.469  1.00  0.00     0.016 A 
ATOM     14  C   UNL     1     -12.256  -5.294   3.655  1.00  0.00     0.051 A 
ATOM     15  C   UNL     1     -13.258  -6.149   3.186  1.00  0.00     0.157 A 
ATOM     16  C   UNL     1     -14.481  -4.228   2.341  1.00  0.00     0.062 A 
ATOM     17  C   UNL     1     -14.379  -5.614   2.529  1.00  0.00     0.158 A 
BRANCH  15  18
ATOM     18  O   UNL     1     -13.126  -7.523   3.385  1.00  0.00    -0.504 OA
ATOM     19  H   UNL     1     -13.889  -8.167   3.217  1.00  0.00     0.293 HD
ENDBRANCH  15  18
BRANCH  17  20
ATOM     20  O   UNL     1     -15.389  -6.459   2.071  1.00  0.00    -0.504 OA
ATOM     21  H   UNL     1     -15.966  -6.992   2.711  1.00  0.00     0.293 HD
ENDBRANCH  17  20
ENDBRANCH   1  12
BRANCH   2  22
ATOM     22  O   UNL     1     -12.609  -1.487   4.825  1.00  0.00    -0.502 OA
ATOM     23  H   UNL     1     -13.175  -1.992   5.497  1.00  0.00     0.293 HD
ENDBRANCH   2  22
BRANCH   6  24
ATOM     24  O   UNL     1     -13.793   3.275   2.753  1.00  0.00    -0.507 OA
ATOM     25  H   UNL     1     -13.467   4.190   2.482  1.00  0.00     0.293 HD
ENDBRANCH   6  24
BRANCH   8  26
ATOM     26  O   UNL     1     -15.428   1.941  -1.558  1.00  0.00    -0.508 OA
ATOM     27  H   UNL     1     -15.129   1.479  -2.409  1.00  0.00     0.293 HD
ENDBRANCH   8  26
TORSDOF 6
ENDMDL
MODEL 3
REMARK VINA RESULT:    -5.319      2.373      7.749
REMARK INTER + INTRA:          -6.282
REMARK INTER:                  -6.280
REMARK INTRA:                  -0.002
REMARK UNBOUND:                 0.126
REMARK SMILES O=c1c(O)c(-c2ccc(O)c(O)c2)oc2cc(O)cc(O)c12
REMARK SMILES IDX 5 1 3 2 2 3 1 4 22 5 20 6 19 7 17 8 16 9 15 10 14 11 6 12
REMARK SMILES IDX 7 13 8 14 9 15 13 16 11 17 10 18 12 20 4 22 21 24 18 26
REMARK H PARENT 10 19 12 21 4 23 21 25 18 27
REMARK Flexibility Score: inf
ROOT
ATOM      1  C   UNL     1     -13.642  -3.376   2.452  1.00  0.00     0.180 A 
ATOM      2  C   UNL     1     -13.963  -2.985   1.140  1.00  0.00     0.208 A 
ATOM      3  C   UNL     1     -14.099  -1.618   0.851  1.00  0.00     0.238 A 
ATOM      4  O   UNL     1     -14.459  -1.280  -0.307  1.00  0.00    -0.285 OA
ATOM      5  C   UNL     1     -13.858  -0.656   1.861  1.00  0.00     0.111 A 
ATOM      6  C   UNL     1     -13.923   0.757   1.669  1.00  0.00     0.134 A 
ATOM      7  C   UNL     1     -13.770   1.612   2.768  1.00  0.00     0.093 A 
ATOM      8  C   UNL     1     -13.491   1.106   4.041  1.00  0.00     0.123 A 
ATOM      9  C   UNL     1     -13.371  -0.269   4.227  1.00  0.00     0.094 A 
ATOM     10  C   UNL     1     -13.556  -1.148   3.157  1.00  0.00     0.146 A 
ATOM     11  O   UNL     1     -13.455  -2.452   3.386  1.00  0.00    -0.452 OA
ENDROOT
BRANCH   1  12
ATOM     12  C   UNL     1     -13.496  -4.798   2.837  1.00  0.00     0.025 A 
ATOM     13  C   UNL     1     -12.391  -5.193   3.607  1.00  0.00     0.016 A 
ATOM     14  C   UNL     1     -12.243  -6.526   4.000  1.00  0.00     0.051 A 
ATOM     15  C   UNL     1     -13.203  -7.479   3.644  1.00  0.00     0.157 A 
ATOM     16  C   UNL     1     -14.470  -5.753   2.498  1.00  0.00     0.062 A 
ATOM     17  C   UNL     1     -14.325  -7.091   2.893  1.00  0.00     0.158 A 
BRANCH  15  18
ATOM     18  O   UNL     1     -13.027  -8.802   4.049  1.00  0.00    -0.504 OA
ATOM     19  H   UNL     1     -12.426  -9.444   3.546  1.00  0.00     0.293 HD
ENDBRANCH  15  18
BRANCH  17  20
ATOM     20  O   UNL     1     -15.293  -8.033   2.548  1.00  0.00    -0.504 OA
ATOM     21  H   UNL     1     -16.266  -7.776   2.432  1.00  0.00     0.293 HD
ENDBRANCH  17  20
ENDBRANCH   1  12
BRANCH   2  22
ATOM     22  O   UNL     1     -14.121  -3.947   0.138  1.00  0.00    -0.502 OA
ATOM     23  H   UNL     1     -14.850  -4.650   0.169  1.00  0.00     0.293 HD
ENDBRANCH   2  22
BRANCH   6  24
ATOM     24  O   UNL     1     -14.109   1.372   0.427  1.00  0.00    -0.507 OA
ATOM     25  H   UNL     1     -14.532   0.933  -0.377  1.00  0.00     0.293 HD
ENDBRANCH   6  24
BRANCH   8  26
ATOM     26  O   UNL     1     -13.323   1.964   5.125  1.00  0.00    -0.508 OA
ATOM     27  H   UNL     1     -13.796   1.804   6.006  1.00  0.00     0.293 HD
ENDBRANCH   8  26
TORSDOF 6
ENDMDL
MODEL 4
REMARK VINA RESULT:    -5.045      9.197     11.126
REMARK INTER + INTRA:          -5.951
REMARK INTER:                  -5.721
REMARK INTRA:                  -0.230
REMARK UNBOUND:                 0.126
REMARK SMILES O=c1c(O)c(-c2ccc(O)c(O)c2)oc2cc(O)cc(O)c12
REMARK SMILES IDX 5 1 3 2 2 3 1 4 22 5 20 6 19 7 17 8 16 9 15 10 14 11 6 12
REMARK SMILES IDX 7 13 8 14 9 15 13 16 11 17 10 18 12 20 4 22 21 24 18 26
REMARK H PARENT 10 19 12 21 4 23 21 25 18 27
REMARK Flexibility Score: inf
ROOT
ATOM      1  C   UNL     1     -13.956   3.190  -0.264  1.00  0.00     0.180 A 
ATOM      2  C   UNL     1     -14.804   2.153   0.164  1.00  0.00     0.208 A 
ATOM      3  C   UNL     1     -14.919   1.891   1.538  1.00  0.00     0.238 A 
ATOM      4  O   UNL     1     -15.621   0.914   1.908  1.00  0.00    -0.285 OA
ATOM      5  C   UNL     1     -14.231   2.703   2.472  1.00  0.00     0.111 A 
ATOM      6  C   UNL     1     -14.311   2.555   3.890  1.00  0.00     0.134 A 
ATOM      7  C   UNL     1     -13.501   3.349   4.713  1.00  0.00     0.093 A 
ATOM      8  C   UNL     1     -12.663   4.328   4.172  1.00  0.00     0.123 A 
ATOM      9  C   UNL     1     -12.621   4.516   2.793  1.00  0.00     0.094 A 
ATOM     10  C   UNL     1     -13.387   3.714   1.944  1.00  0.00     0.146 A 
ATOM     11  O   UNL     1     -13.298   3.913   0.634  1.00  0.00    -0.452 OA
ENDROOT
BRANCH   1  12
ATOM     12  C   UNL     1     -13.771   3.518  -1.695  1.00  0.00     0.025 A 
ATOM     13  C   UNL     1     -14.229   4.750  -2.185  1.00  0.00     0.016 A 
ATOM     14  C   UNL     1     -14.047   5.090  -3.528  1.00  0.00     0.051 A 
ATOM     15  C   UNL     1     -13.391   4.212  -4.397  1.00  0.00     0.157 A 
ATOM     16  C   UNL     1     -13.093   2.645  -2.565  1.00  0.00     0.062 A 
ATOM     17  C   UNL     1     -12.907   2.985  -3.914  1.00  0.00     0.158 A 
BRANCH  15  18
ATOM     18  O   UNL     1     -13.226   4.577  -5.733  1.00  0.00    -0.504 OA
ATOM     19  H   UNL     1     -13.885   5.179  -6.212  1.00  0.00     0.293 HD
ENDBRANCH  15  18
BRANCH  17  20
ATOM     20  O   UNL     1     -12.239   2.111  -4.770  1.00  0.00    -0.504 OA
ATOM     21  H   UNL     1     -11.973   2.388  -5.708  1.00  0.00     0.293 HD
ENDBRANCH  17  20
ENDBRANCH   1  12
BRANCH   2  22
ATOM     22  O   UNL     1     -15.534   1.413  -0.770  1.00  0.00    -0.502 OA
ATOM     23  H   UNL     1     -15.468   1.577  -1.767  1.00  0.00     0.293 HD
ENDBRANCH   2  22
BRANCH   6  24
ATOM     24  O   UNL     1     -15.177   1.672   4.538  1.00  0.00    -0.507 OA
ATOM     25  H   UNL     1     -14.887   0.896   5.114  1.00  0.00     0.293 HD
ENDBRANCH   6  24
BRANCH   8  26
ATOM     26  O   UNL     1     -11.875   5.124   4.999  1.00  0.00    -0.508 OA
ATOM     27  H   UNL     1     -11.667   6.088   4.766  1.00  0.00     0.293 HD
ENDBRANCH   8  26
TORSDOF 6
ENDMDL
MODEL 5
REMARK VINA RESULT:    -4.948      6.330      9.971
REMARK INTER + INTRA:          -5.834
REMARK INTER:                  -5.651
REMARK INTRA:                  -0.184
REMARK UNBOUND:                 0.126
REMARK SMILES O=c1c(O)c(-c2ccc(O)c(O)c2)oc2cc(O)cc(O)c12
REMARK SMILES IDX 5 1 3 2 2 3 1 4 22 5 20 6 19 7 17 8 16 9 15 10 14 11 6 12
REMARK SMILES IDX 7 13 8 14 9 15 13 16 11 17 10 18 12 20 4 22 21 24 18 26
REMARK H PARENT 10 19 12 21 4 23 21 25 18 27
REMARK Flexibility Score: inf
ROOT
ATOM      1  C   UNL     1     -13.381   2.739   0.276  1.00  0.00     0.180 A 
ATOM      2  C   UNL     1     -12.809   3.457   1.340  1.00  0.00     0.208 A 
ATOM      3  C   UNL     1     -12.696   2.839   2.596  1.00  0.00     0.238 A 
ATOM      4  O   UNL     1     -12.252   3.514   3.561  1.00  0.00    -0.285 OA
ATOM      5  C   UNL     1     -13.104   1.493   2.759  1.00  0.00     0.111 A 
ATOM      6  C   UNL     1     -12.994   0.753   3.975  1.00  0.00     0.134 A 
ATOM      7  C   UNL     1     -13.529  -0.539   4.047  1.00  0.00     0.093 A 
ATOM      8  C   UNL     1     -14.113  -1.141   2.929  1.00  0.00     0.123 A 
ATOM      9  C   UNL     1     -14.175  -0.447   1.724  1.00  0.00     0.094 A 
ATOM     10  C   UNL     1     -13.684   0.857   1.631  1.00  0.00     0.146 A 
ATOM     11  O   UNL     1     -13.785   1.489   0.468  1.00  0.00    -0.452 OA
ENDROOT
BRANCH   1  12
ATOM     12  C   UNL     1     -13.547   3.327  -1.073  1.00  0.00     0.025 A 
ATOM     13  C   UNL     1     -14.441   4.395  -1.253  1.00  0.00     0.016 A 
ATOM     14  C   UNL     1     -14.599   4.980  -2.512  1.00  0.00     0.051 A 
ATOM     15  C   UNL     1     -13.857   4.519  -3.604  1.00  0.00     0.157 A 
ATOM     16  C   UNL     1     -12.787   2.879  -2.167  1.00  0.00     0.062 A 
ATOM     17  C   UNL     1     -12.943   3.467  -3.432  1.00  0.00     0.158 A 
BRANCH  15  18
ATOM     18  O   UNL     1     -14.038   5.121  -4.849  1.00  0.00    -0.504 OA
ATOM     19  H   UNL     1     -14.578   4.683  -5.586  1.00  0.00     0.293 HD
ENDBRANCH  15  18
BRANCH  17  20
ATOM     20  O   UNL     1     -12.189   3.012  -4.512  1.00  0.00    -0.504 OA
ATOM     21  H   UNL     1     -11.199   2.816  -4.424  1.00  0.00     0.293 HD
ENDBRANCH  17  20
ENDBRANCH   1  12
BRANCH   2  22
ATOM     22  O   UNL     1     -12.342   4.759   1.140  1.00  0.00    -0.502 OA
ATOM     23  H   UNL     1     -12.433   5.240   0.252  1.00  0.00     0.293 HD
ENDBRANCH   2  22
BRANCH   6  24
ATOM     24  O   UNL     1     -12.353   1.225   5.124  1.00  0.00    -0.507 OA
ATOM     25  H   UNL     1     -11.874   0.646   5.797  1.00  0.00     0.293 HD
ENDBRANCH   6  24
BRANCH   8  26
ATOM     26  O   UNL     1     -14.626  -2.434   3.006  1.00  0.00    -0.508 OA
ATOM     27  H   UNL     1     -14.617  -2.957   3.873  1.00  0.00     0.293 HD
ENDBRANCH   8  26
TORSDOF 6
ENDMDL
MODEL 6
REMARK VINA RESULT:    -4.909      1.413      7.257
REMARK INTER + INTRA:          -5.788
REMARK INTER:                  -5.712
REMARK INTRA:                  -0.075
REMARK UNBOUND:                 0.126
REMARK SMILES O=c1c(O)c(-c2ccc(O)c(O)c2)oc2cc(O)cc(O)c12
REMARK SMILES IDX 5 1 3 2 2 3 1 4 22 5 20 6 19 7 17 8 16 9 15 10 14 11 6 12
REMARK SMILES IDX 7 13 8 14 9 15 13 16 11 17 10 18 12 20 4 22 21 24 18 26
REMARK H PARENT 10 19 12 21 4 23 21 25 18 27
REMARK Flexibility Score: inf
ROOT
ATOM      1  C   UNL     1     -13.814  -6.447   2.999  1.00  0.00     0.180 A 
ATOM      2  C   UNL     1     -13.024  -5.858   4.002  1.00  0.00     0.208 A 
ATOM      3  C   UNL     1     -12.646  -4.512   3.868  1.00  0.00     0.238 A 
ATOM      4  O   UNL     1     -11.878  -4.014   4.732  1.00  0.00    -0.285 OA
ATOM      5  C   UNL     1     -13.107  -3.756   2.764  1.00  0.00     0.111 A 
ATOM      6  C   UNL     1     -12.823  -2.373   2.552  1.00  0.00     0.134 A 
ATOM      7  C   UNL     1     -13.245  -1.755   1.368  1.00  0.00     0.093 A 
ATOM      8  C   UNL     1     -13.996  -2.454   0.418  1.00  0.00     0.123 A 
ATOM      9  C   UNL     1     -14.325  -3.788   0.643  1.00  0.00     0.094 A 
ATOM     10  C   UNL     1     -13.886  -4.442   1.796  1.00  0.00     0.146 A 
ATOM     11  O   UNL     1     -14.204  -5.721   1.958  1.00  0.00    -0.452 OA
ENDROOT
BRANCH   1  12
ATOM     12  C   UNL     1     -14.240  -7.863   3.061  1.00  0.00     0.025 A 
ATOM     13  C   UNL     1     -15.599  -8.181   2.911  1.00  0.00     0.016 A 
ATOM     14  C   UNL     1     -16.022  -9.512   2.946  1.00  0.00     0.051 A 
ATOM     15  C   UNL     1     -15.095 -10.544   3.114  1.00  0.00     0.157 A 
ATOM     16  C   UNL     1     -13.307  -8.903   3.209  1.00  0.00     0.062 A 
ATOM     17  C   UNL     1     -13.730 -10.241   3.242  1.00  0.00     0.158 A 
BRANCH  15  18
ATOM     18  O   UNL     1     -15.547 -11.863   3.147  1.00  0.00    -0.504 OA
ATOM     19  H   UNL     1     -14.913 -12.651   3.092  1.00  0.00     0.293 HD
ENDBRANCH  15  18
BRANCH  17  20
ATOM     20  O   UNL     1     -12.798 -11.266   3.396  1.00  0.00    -0.504 OA
ATOM     21  H   UNL     1     -11.960 -11.311   2.828  1.00  0.00     0.293 HD
ENDBRANCH  17  20
ENDBRANCH   1  12
BRANCH   2  22
ATOM     22  O   UNL     1     -12.642  -6.600   5.123  1.00  0.00    -0.502 OA
ATOM     23  H   UNL     1     -12.268  -6.169   5.960  1.00  0.00     0.293 HD
ENDBRANCH   2  22
BRANCH   6  24
ATOM     24  O   UNL     1     -12.158  -1.559   3.473  1.00  0.00    -0.507 OA
ATOM     25  H   UNL     1     -11.469  -0.862   3.236  1.00  0.00     0.293 HD
ENDBRANCH   6  24
BRANCH   8  26
ATOM     26  O   UNL     1     -14.426  -1.826  -0.748  1.00  0.00    -0.508 OA
ATOM     27  H   UNL     1     -14.838  -2.350  -1.511  1.00  0.00     0.293 HD
ENDBRANCH   8  26
TORSDOF 6
ENDMDL
MODEL 7
REMARK VINA RESULT:    -4.846      1.704      3.317
REMARK INTER + INTRA:          -5.712
REMARK INTER:                  -5.650
REMARK INTRA:                  -0.062
REMARK UNBOUND:                 0.126
REMARK SMILES O=c1c(O)c(-c2ccc(O)c(O)c2)oc2cc(O)cc(O)c12
REMARK SMILES IDX 5 1 3 2 2 3 1 4 22 5 20 6 19 7 17 8 16 9 15 10 14 11 6 12
REMARK SMILES IDX 7 13 8 14 9 15 13 16 11 17 10 18 12 20 4 22 21 24 18 26
REMARK H PARENT 10 19 12 21 4 23 21 25 18 27
REMARK Flexibility Score: inf
ROOT
ATOM      1  C   UNL     1     -13.813  -4.916   2.729  1.00  0.00     0.180 A 
ATOM      2  C   UNL     1     -12.805  -5.200   3.667  1.00  0.00     0.208 A 
ATOM      3  C   UNL     1     -12.733  -6.488   4.222  1.00  0.00     0.238 A 
ATOM      4  O   UNL     1     -11.875  -6.712   5.115  1.00  0.00    -0.285 OA
ATOM      5  C   UNL     1     -13.633  -7.492   3.791  1.00  0.00     0.111 A 
ATOM      6  C   UNL     1     -13.622  -8.844   4.252  1.00  0.00     0.134 A 
ATOM      7  C   UNL     1     -14.629  -9.723   3.834  1.00  0.00     0.093 A 
ATOM      8  C   UNL     1     -15.609  -9.318   2.923  1.00  0.00     0.123 A 
ATOM      9  C   UNL     1     -15.594  -8.017   2.426  1.00  0.00     0.094 A 
ATOM     10  C   UNL     1     -14.625  -7.106   2.853  1.00  0.00     0.146 A 
ATOM     11  O   UNL     1     -14.663  -5.870   2.370  1.00  0.00    -0.452 OA
ENDROOT
BRANCH   1  12
ATOM     12  C   UNL     1     -13.962  -3.579   2.113  1.00  0.00     0.025 A 
ATOM     13  C   UNL     1     -14.054  -3.470   0.716  1.00  0.00     0.016 A 
ATOM     14  C   UNL     1     -14.215  -2.221   0.113  1.00  0.00     0.051 A 
ATOM     15  C   UNL     1     -14.304  -1.065   0.894  1.00  0.00     0.157 A 
ATOM     16  C   UNL     1     -14.072  -2.418   2.897  1.00  0.00     0.062 A 
ATOM     17  C   UNL     1     -14.236  -1.162   2.293  1.00  0.00     0.158 A 
BRANCH  15  18
ATOM     18  O   UNL     1     -14.463   0.169   0.263  1.00  0.00    -0.504 OA
ATOM     19  H   UNL     1     -15.227   0.795   0.490  1.00  0.00     0.293 HD
ENDBRANCH  15  18
BRANCH  17  20
ATOM     20  O   UNL     1     -14.339  -0.015   3.079  1.00  0.00    -0.504 OA
ATOM     21  H   UNL     1     -14.544  -0.067   4.070  1.00  0.00     0.293 HD
ENDBRANCH  17  20
ENDBRANCH   1  12
BRANCH   2  22
ATOM     22  O   UNL     1     -11.878  -4.216   4.023  1.00  0.00    -0.502 OA
ATOM     23  H   UNL     1     -12.016  -3.235   3.810  1.00  0.00     0.293 HD
ENDBRANCH   2  22
BRANCH   6  24
ATOM     24  O   UNL     1     -12.642  -9.377   5.092  1.00  0.00    -0.507 OA
ATOM     25  H   UNL     1     -12.503  -9.116   6.057  1.00  0.00     0.293 HD
ENDBRANCH   6  24
BRANCH   8  26
ATOM     26  O   UNL     1     -16.595 -10.205   2.500  1.00  0.00    -0.508 OA
ATOM     27  H   UNL     1     -17.102 -10.061   1.635  1.00  0.00     0.293 HD
ENDBRANCH   8  26
TORSDOF 6
ENDMDL
MODEL 8
REMARK VINA RESULT:    -4.653      4.326      9.924
REMARK INTER + INTRA:          -5.480
REMARK INTER:                  -5.477
REMARK INTRA:                  -0.003
REMARK UNBOUND:                 0.126
REMARK SMILES O=c1c(O)c(-c2ccc(O)c(O)c2)oc2cc(O)cc(O)c12
REMARK SMILES IDX 5 1 3 2 2 3 1 4 22 5 20 6 19 7 17 8 16 9 15 10 14 11 6 12
REMARK SMILES IDX 7 13 8 14 9 15 13 16 11 17 10 18 12 20 4 22 21 24 18 26
REMARK H PARENT 10 19 12 21 4 23 21 25 18 27
REMARK Flexibility Score: inf
ROOT
ATOM      1  C   UNL     1     -13.347   0.073   2.802  1.00  0.00     0.180 A 
ATOM      2  C   UNL     1     -13.745   0.748   3.969  1.00  0.00     0.208 A 
ATOM      3  C   UNL     1     -13.842   2.148   3.947  1.00  0.00     0.238 A 
ATOM      4  O   UNL     1     -14.126   2.749   5.016  1.00  0.00    -0.285 OA
ATOM      5  C   UNL     1     -13.594   2.854   2.744  1.00  0.00     0.111 A 
ATOM      6  C   UNL     1     -13.707   4.269   2.596  1.00  0.00     0.134 A 
ATOM      7  C   UNL     1     -13.333   4.868   1.386  1.00  0.00     0.093 A 
ATOM      8  C   UNL     1     -12.913   4.096   0.299  1.00  0.00     0.123 A 
ATOM      9  C   UNL     1     -12.854   2.710   0.417  1.00  0.00     0.094 A 
ATOM     10  C   UNL     1     -13.183   2.087   1.624  1.00  0.00     0.146 A 
ATOM     11  O   UNL     1     -13.090   0.765   1.698  1.00  0.00    -0.452 OA
ENDROOT
BRANCH   1  12
ATOM     12  C   UNL     1     -13.208  -1.400   2.751  1.00  0.00     0.025 A 
ATOM     13  C   UNL     1     -12.431  -2.052   3.721  1.00  0.00     0.016 A 
ATOM     14  C   UNL     1     -12.302  -3.443   3.705  1.00  0.00     0.051 A 
ATOM     15  C   UNL     1     -12.959  -4.204   2.733  1.00  0.00     0.157 A 
ATOM     16  C   UNL     1     -13.885  -2.167   1.787  1.00  0.00     0.062 A 
ATOM     17  C   UNL     1     -13.758  -3.565   1.771  1.00  0.00     0.158 A 
BRANCH  15  18
ATOM     18  O   UNL     1     -12.810  -5.591   2.742  1.00  0.00    -0.504 OA
ATOM     19  H   UNL     1     -13.201  -6.178   2.016  1.00  0.00     0.293 HD
ENDBRANCH  15  18
BRANCH  17  20
ATOM     20  O   UNL     1     -14.428  -4.318   0.808  1.00  0.00    -0.504 OA
ATOM     21  H   UNL     1     -15.343  -4.050   0.467  1.00  0.00     0.293 HD
ENDBRANCH  17  20
ENDBRANCH   1  12
BRANCH   2  22
ATOM     22  O   UNL     1     -14.059   0.027   5.125  1.00  0.00    -0.502 OA
ATOM     23  H   UNL     1     -14.313   0.479   5.996  1.00  0.00     0.293 HD
ENDBRANCH   2  22
BRANCH   6  24
ATOM     24  O   UNL     1     -14.198   5.125   3.586  1.00  0.00    -0.507 OA
ATOM     25  H   UNL     1     -15.173   5.325   3.745  1.00  0.00     0.293 HD
ENDBRANCH   6  24
BRANCH   8  26
ATOM     26  O   UNL     1     -12.561   4.699  -0.906  1.00  0.00    -0.508 OA
ATOM     27  H   UNL     1     -12.774   4.267  -1.798  1.00  0.00     0.293 HD
ENDBRANCH   8  26
TORSDOF 6
ENDMDL
MODEL 9
REMARK VINA RESULT:    -2.861      1.612      2.380
REMARK INTER + INTRA:          -3.320
REMARK INTER:                  -3.254
REMARK INTRA:                  -0.066
REMARK UNBOUND:                 0.126
REMARK SMILES O=c1c(O)c(-c2ccc(O)c(O)c2)oc2cc(O)cc(O)c12
REMARK SMILES IDX 5 1 3 2 2 3 1 4 22 5 20 6 19 7 17 8 16 9 15 10 14 11 6 12
REMARK SMILES IDX 7 13 8 14 9 15 13 16 11 17 10 18 12 20 4 22 21 24 18 26
REMARK H PARENT 10 19 12 21 4 23 21 25 18 27
REMARK Flexibility Score: inf
ROOT
ATOM      1  C   UNL     1     -14.315  -8.301   3.658  1.00  0.00     0.180 A 
ATOM      2  C   UNL     1     -15.632  -8.600   4.052  1.00  0.00     0.208 A 
ATOM      3  C   UNL     1     -15.970  -9.932   4.340  1.00  0.00     0.238 A 
ATOM      4  O   UNL     1     -17.167 -10.202   4.619  1.00  0.00    -0.285 OA
ATOM      5  C   UNL     1     -14.977 -10.940   4.286  1.00  0.00     0.111 A 
ATOM      6  C   UNL     1     -15.198 -12.315   4.601  1.00  0.00     0.134 A 
ATOM      7  C   UNL     1     -14.165 -13.241   4.409  1.00  0.00     0.093 A 
ATOM      8  C   UNL     1     -12.901 -12.832   3.974  1.00  0.00     0.123 A 
ATOM      9  C   UNL     1     -12.661 -11.485   3.718  1.00  0.00     0.094 A 
ATOM     10  C   UNL     1     -13.682 -10.543   3.863  1.00  0.00     0.146 A 
ATOM     11  O   UNL     1     -13.414  -9.272   3.585  1.00  0.00    -0.452 OA
ENDROOT
BRANCH   1  12
ATOM     12  C   UNL     1     -13.887  -6.924   3.324  1.00  0.00     0.025 A 
ATOM     13  C   UNL     1     -12.745  -6.389   3.941  1.00  0.00     0.016 A 
ATOM     14  C   UNL     1     -12.310  -5.099   3.627  1.00  0.00     0.051 A 
ATOM     15  C   UNL     1     -12.996  -4.332   2.681  1.00  0.00     0.157 A 
ATOM     16  C   UNL     1     -14.564  -6.159   2.358  1.00  0.00     0.062 A 
ATOM     17  C   UNL     1     -14.126  -4.865   2.039  1.00  0.00     0.158 A 
BRANCH  15  18
ATOM     18  O   UNL     1     -12.539  -3.047   2.388  1.00  0.00    -0.504 OA
ATOM     19  H   UNL     1     -13.038  -2.428   1.760  1.00  0.00     0.293 HD
ENDBRANCH  15  18
BRANCH  17  20
ATOM     20  O   UNL     1     -14.807  -4.111   1.084  1.00  0.00    -0.504 OA
ATOM     21  H   UNL     1     -15.330  -4.550   0.335  1.00  0.00     0.293 HD
ENDBRANCH  17  20
ENDBRANCH   1  12
BRANCH   2  22
ATOM     22  O   UNL     1     -16.579  -7.579   4.173  1.00  0.00    -0.502 OA
ATOM     23  H   UNL     1     -17.046  -7.371   5.048  1.00  0.00     0.293 HD
ENDBRANCH   2  22
BRANCH   6  24
ATOM     24  O   UNL     1     -16.392 -12.817   5.125  1.00  0.00    -0.507 OA
ATOM     25  H   UNL     1     -17.312 -12.613   4.765  1.00  0.00     0.293 HD
ENDBRANCH   6  24
BRANCH   8  26
ATOM     26  O   UNL     1     -11.875 -13.758   3.803  1.00  0.00    -0.508 OA
ATOM     27  H   UNL     1     -11.632 -14.421   4.530  1.00  0.00     0.293 HD
ENDBRANCH   8  26
TORSDOF 6
ENDMDL
