MODEL 1
REMARK VINA RESULT:    -4.153      0.000      0.000
REMARK INTER + INTRA:         -10.084
REMARK INTER:                  -7.795
REMARK INTRA:                  -2.289
REMARK UNBOUND:                -2.289
REMARK SMILES CCCCCCCCC=CCCCCCCCC(=O)[O-]
REMARK SMILES IDX 10 1 9 2 11 3 12 4 13 5 14 6 15 7 16 8 17 9 18 10 19 11
REMARK SMILES IDX 20 12 8 13 7 14 6 15 5 16 4 17 3 18 2 19 1 20
REMARK H PARENT
REMARK Flexibility Score: inf
ROOT
ATOM      1  C   UNL     1       2.661  22.693 113.870  1.00  0.00    -0.031 C 
ATOM      2  C   UNL     1       4.006  22.748 113.897  1.00  0.00    -0.031 C 
ENDROOT
BRANCH   1   3
ATOM      3  C   UNL     1       1.722  23.768 114.363  1.00  0.00     0.027 C 
BRANCH   3   4
ATOM      4  C   UNL     1       0.943  24.417 113.207  1.00  0.00     0.004 C 
BRANCH   4   5
ATOM      5  C   UNL     1       1.014  25.954 113.202  1.00  0.00     0.000 C 
BRANCH   5   6
ATOM      6  C   UNL     1       2.331  26.480 113.791  1.00  0.00     0.000 C 
BRANCH   6   7
ATOM      7  C   UNL     1       3.267  26.987 112.684  1.00  0.00     0.000 C 
BRANCH   7   8
ATOM      8  C   UNL     1       2.829  26.546 111.275  1.00  0.00     0.006 C 
BRANCH   8   9
ATOM      9  C   UNL     1       3.135  27.579 110.175  1.00  0.00     0.053 C 
BRANCH   9  10
ATOM     10  C   UNL     1       2.310  28.824 110.311  1.00  0.00     0.041 C 
ATOM     11  O   UNL     1       2.870  29.948 110.398  1.00  0.00    -0.550 OA
ATOM     12  O   UNL     1       0.924  28.740 110.377  1.00  0.00    -0.550 OA
ENDBRANCH   9  10
ENDBRANCH   8   9
ENDBRANCH   7   8
ENDBRANCH   6   7
ENDBRANCH   5   6
ENDBRANCH   4   5
ENDBRANCH   3   4
ENDBRANCH   1   3
BRANCH   2  13
ATOM     13  C   UNL     1       4.830  23.881 114.461  1.00  0.00     0.027 C 
BRANCH  13  14
ATOM     14  C   UNL     1       5.840  24.418 113.437  1.00  0.00     0.004 C 
BRANCH  14  15
ATOM     15  C   UNL     1       5.474  24.030 111.995  1.00  0.00     0.000 C 
BRANCH  15  16
ATOM     16  C   UNL     1       6.570  24.404 110.985  1.00  0.00     0.000 C 
BRANCH  16  17
ATOM     17  C   UNL     1       6.495  25.880 110.555  1.00  0.00    -0.000 C 
BRANCH  17  18
ATOM     18  C   UNL     1       7.352  26.184 109.312  1.00  0.00    -0.000 C 
BRANCH  18  19
ATOM     19  C   UNL     1       6.555  26.489 108.032  1.00  0.00    -0.003 C 
ATOM     20  C   UNL     1       7.299  26.100 106.755  1.00  0.00     0.004 C 
ENDBRANCH  18  19
ENDBRANCH  17  18
ENDBRANCH  16  17
ENDBRANCH  15  16
ENDBRANCH  14  15
ENDBRANCH  13  14
ENDBRANCH   2  13
TORSDOF 15
ENDMDL
MODEL 2
REMARK VINA RESULT:    -4.133      2.299      4.819
REMARK INTER + INTRA:         -10.047
REMARK INTER:                  -7.304
REMARK INTRA:                  -2.744
REMARK UNBOUND:                -2.289
REMARK SMILES CCCCCCCCC=CCCCCCCCC(=O)[O-]
REMARK SMILES IDX 10 1 9 2 11 3 12 4 13 5 14 6 15 7 16 8 17 9 18 10 19 11
REMARK SMILES IDX 20 12 8 13 7 14 6 15 5 16 4 17 3 18 2 19 1 20
REMARK H PARENT
REMARK Flexibility Score: inf
ROOT
ATOM      1  C   UNL     1       3.071  22.718 115.189  1.00  0.00    -0.031 C 
ATOM      2  C   UNL     1       1.746  22.903 115.341  1.00  0.00    -0.031 C 
ENDROOT
BRANCH   1   3
ATOM      3  C   UNL     1       3.765  22.300 113.913  1.00  0.00     0.027 C 
BRANCH   3   4
ATOM      4  C   UNL     1       4.315  23.510 113.143  1.00  0.00     0.004 C 
BRANCH   4   5
ATOM      5  C   UNL     1       4.796  24.653 114.054  1.00  0.00     0.000 C 
BRANCH   5   6
ATOM      6  C   UNL     1       5.999  25.404 113.464  1.00  0.00     0.000 C 
BRANCH   6   7
ATOM      7  C   UNL     1       7.065  24.424 112.955  1.00  0.00     0.000 C 
BRANCH   7   8
ATOM      8  C   UNL     1       8.071  25.075 111.988  1.00  0.00     0.006 C 
BRANCH   8   9
ATOM      9  C   UNL     1       7.569  25.171 110.536  1.00  0.00     0.053 C 
BRANCH   9  10
ATOM     10  C   UNL     1       7.259  26.581 110.128  1.00  0.00     0.041 C 
ATOM     11  O   UNL     1       6.788  26.820 108.985  1.00  0.00    -0.550 OA
ATOM     12  O   UNL     1       7.526  27.634 110.995  1.00  0.00    -0.550 OA
ENDBRANCH   9  10
ENDBRANCH   8   9
ENDBRANCH   7   8
ENDBRANCH   6   7
ENDBRANCH   5   6
ENDBRANCH   4   5
ENDBRANCH   3   4
ENDBRANCH   1   3
BRANCH   2  13
ATOM     13  C   UNL     1       0.698  22.691 114.274  1.00  0.00     0.027 C 
BRANCH  13  14
ATOM     14  C   UNL     1       0.497  23.946 113.414  1.00  0.00     0.004 C 
BRANCH  14  15
ATOM     15  C   UNL     1       0.195  25.193 114.260  1.00  0.00     0.000 C 
BRANCH  15  16
ATOM     16  C   UNL     1       1.218  26.319 114.041  1.00  0.00     0.000 C 
BRANCH  16  17
ATOM     17  C   UNL     1       1.848  26.276 112.638  1.00  0.00    -0.000 C 
BRANCH  17  18
ATOM     18  C   UNL     1       2.845  27.425 112.395  1.00  0.00    -0.000 C 
BRANCH  18  19
ATOM     19  C   UNL     1       3.634  27.333 111.078  1.00  0.00    -0.003 C 
ATOM     20  C   UNL     1       3.638  25.928 110.477  1.00  0.00     0.004 C 
ENDBRANCH  18  19
ENDBRANCH  17  18
ENDBRANCH  16  17
ENDBRANCH  15  16
ENDBRANCH  14  15
ENDBRANCH  13  14
ENDBRANCH   2  13
TORSDOF 15
ENDMDL
MODEL 3
REMARK VINA RESULT:    -4.116      3.245      4.157
REMARK INTER + INTRA:         -10.014
REMARK INTER:                  -7.842
REMARK INTRA:                  -2.172
REMARK UNBOUND:                -2.289
REMARK SMILES CCCCCCCCC=CCCCCCCCC(=O)[O-]
REMARK SMILES IDX 10 1 9 2 11 3 12 4 13 5 14 6 15 7 16 8 17 9 18 10 19 11
REMARK SMILES IDX 20 12 8 13 7 14 6 15 5 16 4 17 3 18 2 19 1 20
REMARK H PARENT
REMARK Flexibility Score: inf
ROOT
ATOM      1  C   UNL     1       3.057  25.471 112.073  1.00  0.00    -0.031 C 
ATOM      2  C   UNL     1       3.724  24.657 112.913  1.00  0.00    -0.031 C 
ENDROOT
BRANCH   1   3
ATOM      3  C   UNL     1       3.484  25.835 110.670  1.00  0.00     0.027 C 
BRANCH   3   4
ATOM      4  C   UNL     1       3.537  27.358 110.470  1.00  0.00     0.004 C 
BRANCH   4   5
ATOM      5  C   UNL     1       3.035  28.157 111.685  1.00  0.00     0.000 C 
BRANCH   5   6
ATOM      6  C   UNL     1       4.114  29.087 112.259  1.00  0.00     0.000 C 
BRANCH   6   7
ATOM      7  C   UNL     1       4.211  28.944 113.785  1.00  0.00     0.000 C 
BRANCH   7   8
ATOM      8  C   UNL     1       5.549  29.448 114.355  1.00  0.00     0.006 C 
BRANCH   8   9
ATOM      9  C   UNL     1       5.660  30.982 114.422  1.00  0.00     0.053 C 
BRANCH   9  10
ATOM     10  C   UNL     1       6.857  31.438 115.203  1.00  0.00     0.041 C 
ATOM     11  O   UNL     1       8.018  31.205 114.775  1.00  0.00    -0.550 OA
ATOM     12  O   UNL     1       6.691  32.087 116.421  1.00  0.00    -0.550 OA
ENDBRANCH   9  10
ENDBRANCH   8   9
ENDBRANCH   7   8
ENDBRANCH   6   7
ENDBRANCH   5   6
ENDBRANCH   4   5
ENDBRANCH   3   4
ENDBRANCH   1   3
BRANCH   2  13
ATOM     13  C   UNL     1       5.045  23.983 112.624  1.00  0.00     0.027 C 
BRANCH  13  14
ATOM     14  C   UNL     1       6.207  24.665 113.359  1.00  0.00     0.004 C 
BRANCH  14  15
ATOM     15  C   UNL     1       6.526  26.055 112.786  1.00  0.00     0.000 C 
BRANCH  15  16
ATOM     16  C   UNL     1       7.662  26.023 111.751  1.00  0.00     0.000 C 
BRANCH  16  17
ATOM     17  C   UNL     1       7.300  26.773 110.457  1.00  0.00    -0.000 C 
BRANCH  17  18
ATOM     18  C   UNL     1       7.314  25.863 109.215  1.00  0.00    -0.000 C 
BRANCH  18  19
ATOM     19  C   UNL     1       6.675  26.472 107.956  1.00  0.00    -0.003 C 
ATOM     20  C   UNL     1       7.351  26.022 106.662  1.00  0.00     0.004 C 
ENDBRANCH  18  19
ENDBRANCH  17  18
ENDBRANCH  16  17
ENDBRANCH  15  16
ENDBRANCH  14  15
ENDBRANCH  13  14
ENDBRANCH   2  13
TORSDOF 15
ENDMDL
MODEL 4
REMARK VINA RESULT:    -4.088      2.431      5.278
REMARK INTER + INTRA:          -9.962
REMARK INTER:                  -7.091
REMARK INTRA:                  -2.871
REMARK UNBOUND:                -2.289
REMARK SMILES CCCCCCCCC=CCCCCCCCC(=O)[O-]
REMARK SMILES IDX 10 1 9 2 11 3 12 4 13 5 14 6 15 7 16 8 17 9 18 10 19 11
REMARK SMILES IDX 20 12 8 13 7 14 6 15 5 16 4 17 3 18 2 19 1 20
REMARK H PARENT
REMARK Flexibility Score: inf
ROOT
ATOM      1  C   UNL     1       2.626  24.616 113.909  1.00  0.00    -0.031 C 
ATOM      2  C   UNL     1       1.793  25.122 112.980  1.00  0.00    -0.031 C 
ENDROOT
BRANCH   1   3
ATOM      3  C   UNL     1       3.959  25.202 114.314  1.00  0.00     0.027 C 
BRANCH   3   4
ATOM      4  C   UNL     1       5.115  24.231 114.027  1.00  0.00     0.004 C 
BRANCH   4   5
ATOM      5  C   UNL     1       5.425  24.067 112.529  1.00  0.00     0.000 C 
BRANCH   5   6
ATOM      6  C   UNL     1       6.744  24.745 112.127  1.00  0.00     0.000 C 
BRANCH   6   7
ATOM      7  C   UNL     1       7.056  24.506 110.643  1.00  0.00     0.000 C 
BRANCH   7   8
ATOM      8  C   UNL     1       7.487  25.786 109.903  1.00  0.00     0.006 C 
BRANCH   8   9
ATOM      9  C   UNL     1       7.912  25.549 108.443  1.00  0.00     0.053 C 
BRANCH   9  10
ATOM     10  C   UNL     1       7.069  26.316 107.467  1.00  0.00     0.041 C 
ATOM     11  O   UNL     1       7.488  26.533 106.300  1.00  0.00    -0.550 OA
ATOM     12  O   UNL     1       5.835  26.823 107.858  1.00  0.00    -0.550 OA
ENDBRANCH   9  10
ENDBRANCH   8   9
ENDBRANCH   7   8
ENDBRANCH   6   7
ENDBRANCH   5   6
ENDBRANCH   4   5
ENDBRANCH   3   4
ENDBRANCH   1   3
BRANCH   2  13
ATOM     13  C   UNL     1       2.051  26.351 112.140  1.00  0.00     0.027 C 
BRANCH  13  14
ATOM     14  C   UNL     1       2.865  26.022 110.882  1.00  0.00     0.004 C 
BRANCH  14  15
ATOM     15  C   UNL     1       4.062  26.969 110.695  1.00  0.00     0.000 C 
BRANCH  15  16
ATOM     16  C   UNL     1       4.046  28.145 111.685  1.00  0.00     0.000 C 
BRANCH  16  17
ATOM     17  C   UNL     1       5.246  28.119 112.648  1.00  0.00    -0.000 C 
BRANCH  17  18
ATOM     18  C   UNL     1       4.925  28.745 114.018  1.00  0.00    -0.000 C 
BRANCH  18  19
ATOM     19  C   UNL     1       3.502  29.312 114.157  1.00  0.00    -0.003 C 
ATOM     20  C   UNL     1       2.630  28.516 115.126  1.00  0.00     0.004 C 
ENDBRANCH  18  19
ENDBRANCH  17  18
ENDBRANCH  16  17
ENDBRANCH  15  16
ENDBRANCH  14  15
ENDBRANCH  13  14
ENDBRANCH   2  13
TORSDOF 15
ENDMDL
MODEL 5
REMARK VINA RESULT:    -4.064      2.247      3.442
REMARK INTER + INTRA:          -9.917
REMARK INTER:                  -7.825
REMARK INTRA:                  -2.093
REMARK UNBOUND:                -2.289
REMARK SMILES CCCCCCCCC=CCCCCCCCC(=O)[O-]
REMARK SMILES IDX 10 1 9 2 11 3 12 4 13 5 14 6 15 7 16 8 17 9 18 10 19 11
REMARK SMILES IDX 20 12 8 13 7 14 6 15 5 16 4 17 3 18 2 19 1 20
REMARK H PARENT
REMARK Flexibility Score: inf
ROOT
ATOM      1  C   UNL     1       2.706  25.749 111.690  1.00  0.00    -0.031 C 
ATOM      2  C   UNL     1       3.314  25.339 112.819  1.00  0.00    -0.031 C 
ENDROOT
BRANCH   1   3
ATOM      3  C   UNL     1       3.389  26.047 110.376  1.00  0.00     0.027 C 
BRANCH   3   4
ATOM      4  C   UNL     1       3.527  27.560 110.138  1.00  0.00     0.004 C 
BRANCH   4   5
ATOM      5  C   UNL     1       2.206  28.332 110.298  1.00  0.00     0.000 C 
BRANCH   5   6
ATOM      6  C   UNL     1       2.431  29.824 110.581  1.00  0.00     0.000 C 
BRANCH   6   7
ATOM      7  C   UNL     1       3.262  30.024 111.856  1.00  0.00     0.000 C 
BRANCH   7   8
ATOM      8  C   UNL     1       2.652  29.333 113.089  1.00  0.00     0.006 C 
BRANCH   8   9
ATOM      9  C   UNL     1       3.695  28.850 114.113  1.00  0.00     0.053 C 
BRANCH   9  10
ATOM     10  C   UNL     1       5.037  29.489 113.912  1.00  0.00     0.041 C 
ATOM     11  O   UNL     1       5.284  30.615 114.417  1.00  0.00    -0.550 OA
ATOM     12  O   UNL     1       6.002  28.858 113.135  1.00  0.00    -0.550 OA
ENDBRANCH   9  10
ENDBRANCH   8   9
ENDBRANCH   7   8
ENDBRANCH   6   7
ENDBRANCH   5   6
ENDBRANCH   4   5
ENDBRANCH   3   4
ENDBRANCH   1   3
BRANCH   2  13
ATOM     13  C   UNL     1       4.800  25.137 112.995  1.00  0.00     0.027 C 
BRANCH  13  14
ATOM     14  C   UNL     1       5.338  24.026 112.082  1.00  0.00     0.004 C 
BRANCH  14  15
ATOM     15  C   UNL     1       6.701  24.382 111.468  1.00  0.00     0.000 C 
BRANCH  15  16
ATOM     16  C   UNL     1       7.159  25.805 111.827  1.00  0.00     0.000 C 
BRANCH  16  17
ATOM     17  C   UNL     1       7.401  26.676 110.582  1.00  0.00    -0.000 C 
BRANCH  17  18
ATOM     18  C   UNL     1       7.551  25.847 109.293  1.00  0.00    -0.000 C 
BRANCH  18  19
ATOM     19  C   UNL     1       6.742  26.363 108.090  1.00  0.00    -0.003 C 
ATOM     20  C   UNL     1       7.356  25.980 106.745  1.00  0.00     0.004 C 
ENDBRANCH  18  19
ENDBRANCH  17  18
ENDBRANCH  16  17
ENDBRANCH  15  16
ENDBRANCH  14  15
ENDBRANCH  13  14
ENDBRANCH   2  13
TORSDOF 15
ENDMDL
MODEL 6
REMARK VINA RESULT:    -4.035      2.436      4.189
REMARK INTER + INTRA:          -9.862
REMARK INTER:                  -7.708
REMARK INTRA:                  -2.154
REMARK UNBOUND:                -2.289
REMARK SMILES CCCCCCCCC=CCCCCCCCC(=O)[O-]
REMARK SMILES IDX 10 1 9 2 11 3 12 4 13 5 14 6 15 7 16 8 17 9 18 10 19 11
REMARK SMILES IDX 20 12 8 13 7 14 6 15 5 16 4 17 3 18 2 19 1 20
REMARK H PARENT
REMARK Flexibility Score: inf
ROOT
ATOM      1  C   UNL     1       0.574  25.211 113.901  1.00  0.00    -0.031 C 
ATOM      2  C   UNL     1       1.445  25.993 113.235  1.00  0.00    -0.031 C 
ENDROOT
BRANCH   1   3
ATOM      3  C   UNL     1       0.309  23.750 113.626  1.00  0.00     0.027 C 
BRANCH   3   4
ATOM      4  C   UNL     1       1.068  22.841 114.607  1.00  0.00     0.004 C 
BRANCH   4   5
ATOM      5  C   UNL     1       1.811  21.681 113.924  1.00  0.00     0.000 C 
BRANCH   5   6
ATOM      6  C   UNL     1       3.247  22.057 113.528  1.00  0.00     0.000 C 
BRANCH   6   7
ATOM      7  C   UNL     1       3.860  23.032 114.542  1.00  0.00     0.000 C 
BRANCH   7   8
ATOM      8  C   UNL     1       4.930  23.952 113.925  1.00  0.00     0.006 C 
BRANCH   8   9
ATOM      9  C   UNL     1       5.295  25.161 114.804  1.00  0.00     0.053 C 
BRANCH   9  10
ATOM     10  C   UNL     1       6.590  25.798 114.395  1.00  0.00     0.041 C 
ATOM     11  O   UNL     1       6.649  27.039 114.188  1.00  0.00    -0.550 OA
ATOM     12  O   UNL     1       7.725  25.017 114.207  1.00  0.00    -0.550 OA
ENDBRANCH   9  10
ENDBRANCH   8   9
ENDBRANCH   7   8
ENDBRANCH   6   7
ENDBRANCH   5   6
ENDBRANCH   4   5
ENDBRANCH   3   4
ENDBRANCH   1   3
BRANCH   2  13
ATOM     13  C   UNL     1       2.294  25.565 112.062  1.00  0.00     0.027 C 
BRANCH  13  14
ATOM     14  C   UNL     1       2.812  26.769 111.262  1.00  0.00     0.004 C 
BRANCH  14  15
ATOM     15  C   UNL     1       4.328  26.967 111.419  1.00  0.00     0.000 C 
BRANCH  15  16
ATOM     16  C   UNL     1       5.143  26.085 110.458  1.00  0.00     0.000 C 
BRANCH  16  17
ATOM     17  C   UNL     1       6.658  26.193 110.704  1.00  0.00    -0.000 C 
BRANCH  17  18
ATOM     18  C   UNL     1       7.467  26.322 109.399  1.00  0.00    -0.000 C 
BRANCH  18  19
ATOM     19  C   UNL     1       6.622  26.464 108.122  1.00  0.00    -0.003 C 
ATOM     20  C   UNL     1       7.258  25.795 106.904  1.00  0.00     0.004 C 
ENDBRANCH  18  19
ENDBRANCH  17  18
ENDBRANCH  16  17
ENDBRANCH  15  16
ENDBRANCH  14  15
ENDBRANCH  13  14
ENDBRANCH   2  13
TORSDOF 15
ENDMDL
MODEL 7
REMARK VINA RESULT:    -3.902      3.023      4.459
REMARK INTER + INTRA:          -9.613
REMARK INTER:                  -6.884
REMARK INTRA:                  -2.729
REMARK UNBOUND:                -2.289
REMARK SMILES CCCCCCCCC=CCCCCCCCC(=O)[O-]
REMARK SMILES IDX 10 1 9 2 11 3 12 4 13 5 14 6 15 7 16 8 17 9 18 10 19 11
REMARK SMILES IDX 20 12 8 13 7 14 6 15 5 16 4 17 3 18 2 19 1 20
REMARK H PARENT
REMARK Flexibility Score: inf
ROOT
ATOM      1  C   UNL     1       2.624  26.384 110.817  1.00  0.00    -0.031 C 
ATOM      2  C   UNL     1       3.832  25.847 110.560  1.00  0.00    -0.031 C 
ENDROOT
BRANCH   1   3
ATOM      3  C   UNL     1       2.273  27.851 110.736  1.00  0.00     0.027 C 
BRANCH   3   4
ATOM      4  C   UNL     1       2.092  28.469 112.131  1.00  0.00     0.004 C 
BRANCH   4   5
ATOM      5  C   UNL     1       3.274  29.350 112.573  1.00  0.00     0.000 C 
BRANCH   5   6
ATOM      6  C   UNL     1       4.081  28.716 113.716  1.00  0.00     0.000 C 
BRANCH   6   7
ATOM      7  C   UNL     1       3.326  27.530 114.331  1.00  0.00     0.000 C 
BRANCH   7   8
ATOM      8  C   UNL     1       4.228  26.309 114.592  1.00  0.00     0.006 C 
BRANCH   8   9
ATOM      9  C   UNL     1       3.655  24.984 114.058  1.00  0.00     0.053 C 
BRANCH   9  10
ATOM     10  C   UNL     1       4.349  23.785 114.633  1.00  0.00     0.041 C 
ATOM     11  O   UNL     1       3.690  22.908 115.251  1.00  0.00    -0.550 OA
ATOM     12  O   UNL     1       5.728  23.654 114.518  1.00  0.00    -0.550 OA
ENDBRANCH   9  10
ENDBRANCH   8   9
ENDBRANCH   7   8
ENDBRANCH   6   7
ENDBRANCH   5   6
ENDBRANCH   4   5
ENDBRANCH   3   4
ENDBRANCH   1   3
BRANCH   2  13
ATOM     13  C   UNL     1       5.074  26.616 110.178  1.00  0.00     0.027 C 
BRANCH  13  14
ATOM     14  C   UNL     1       5.990  26.859 111.386  1.00  0.00     0.004 C 
BRANCH  14  15
ATOM     15  C   UNL     1       6.852  25.632 111.722  1.00  0.00     0.000 C 
BRANCH  15  16
ATOM     16  C   UNL     1       7.551  25.043 110.486  1.00  0.00     0.000 C 
BRANCH  16  17
ATOM     17  C   UNL     1       8.724  25.914 110.003  1.00  0.00    -0.000 C 
BRANCH  17  18
ATOM     18  C   UNL     1       8.905  25.877 108.474  1.00  0.00    -0.000 C 
BRANCH  18  19
ATOM     19  C   UNL     1       7.678  25.386 107.686  1.00  0.00    -0.003 C 
ATOM     20  C   UNL     1       6.955  26.507 106.941  1.00  0.00     0.004 C 
ENDBRANCH  18  19
ENDBRANCH  17  18
ENDBRANCH  16  17
ENDBRANCH  15  16
ENDBRANCH  14  15
ENDBRANCH  13  14
ENDBRANCH   2  13
TORSDOF 15
ENDMDL
MODEL 8
REMARK VINA RESULT:    -3.856      1.591      2.659
REMARK INTER + INTRA:          -9.526
REMARK INTER:                  -7.651
REMARK INTRA:                  -1.875
REMARK UNBOUND:                -2.289
REMARK SMILES CCCCCCCCC=CCCCCCCCC(=O)[O-]
REMARK SMILES IDX 10 1 9 2 11 3 12 4 13 5 14 6 15 7 16 8 17 9 18 10 19 11
REMARK SMILES IDX 20 12 8 13 7 14 6 15 5 16 4 17 3 18 2 19 1 20
REMARK H PARENT
REMARK Flexibility Score: inf
ROOT
ATOM      1  C   UNL     1       4.064  23.080 114.354  1.00  0.00    -0.031 C 
ATOM      2  C   UNL     1       4.791  24.001 113.694  1.00  0.00    -0.031 C 
ENDROOT
BRANCH   1   3
ATOM      3  C   UNL     1       3.408  21.865 113.741  1.00  0.00     0.027 C 
BRANCH   3   4
ATOM      4  C   UNL     1       1.900  21.826 114.034  1.00  0.00     0.004 C 
BRANCH   4   5
ATOM      5  C   UNL     1       1.116  22.978 113.383  1.00  0.00     0.000 C 
BRANCH   5   6
ATOM      6  C   UNL     1       0.086  23.598 114.338  1.00  0.00     0.000 C 
BRANCH   6   7
ATOM      7  C   UNL     1       0.162  25.131 114.312  1.00  0.00     0.000 C 
BRANCH   7   8
ATOM      8  C   UNL     1       1.228  25.666 113.339  1.00  0.00     0.006 C 
BRANCH   8   9
ATOM      9  C   UNL     1       1.159  27.187 113.112  1.00  0.00     0.053 C 
BRANCH   9  10
ATOM     10  C   UNL     1       2.504  27.844 113.207  1.00  0.00     0.041 C 
ATOM     11  O   UNL     1       3.367  27.407 114.013  1.00  0.00    -0.550 OA
ATOM     12  O   UNL     1       2.792  28.961 112.432  1.00  0.00    -0.550 OA
ENDBRANCH   9  10
ENDBRANCH   8   9
ENDBRANCH   7   8
ENDBRANCH   6   7
ENDBRANCH   5   6
ENDBRANCH   4   5
ENDBRANCH   3   4
ENDBRANCH   1   3
BRANCH   2  13
ATOM     13  C   UNL     1       5.056  24.013 112.207  1.00  0.00     0.027 C 
BRANCH  13  14
ATOM     14  C   UNL     1       4.222  25.081 111.487  1.00  0.00     0.004 C 
BRANCH  14  15
ATOM     15  C   UNL     1       5.069  26.285 111.044  1.00  0.00     0.000 C 
BRANCH  15  16
ATOM     16  C   UNL     1       6.486  26.263 111.639  1.00  0.00     0.000 C 
BRANCH  16  17
ATOM     17  C   UNL     1       7.578  26.257 110.555  1.00  0.00    -0.000 C 
BRANCH  17  18
ATOM     18  C   UNL     1       7.003  26.272 109.126  1.00  0.00    -0.000 C 
BRANCH  18  19
ATOM     19  C   UNL     1       7.895  25.615 108.059  1.00  0.00    -0.003 C 
ATOM     20  C   UNL     1       7.447  25.922 106.631  1.00  0.00     0.004 C 
ENDBRANCH  18  19
ENDBRANCH  17  18
ENDBRANCH  16  17
ENDBRANCH  15  16
ENDBRANCH  14  15
ENDBRANCH  13  14
ENDBRANCH   2  13
TORSDOF 15
ENDMDL
MODEL 9
REMARK VINA RESULT:    -3.852      3.087      5.411
REMARK INTER + INTRA:          -9.519
REMARK INTER:                  -6.853
REMARK INTRA:                  -2.666
REMARK UNBOUND:                -2.289
REMARK SMILES CCCCCCCCC=CCCCCCCCC(=O)[O-]
REMARK SMILES IDX 10 1 9 2 11 3 12 4 13 5 14 6 15 7 16 8 17 9 18 10 19 11
REMARK SMILES IDX 20 12 8 13 7 14 6 15 5 16 4 17 3 18 2 19 1 20
REMARK H PARENT
REMARK Flexibility Score: inf
ROOT
ATOM      1  C   UNL     1       2.636  21.943 114.342  1.00  0.00    -0.031 C 
ATOM      2  C   UNL     1       1.336  22.279 114.236  1.00  0.00    -0.031 C 
ENDROOT
BRANCH   1   3
ATOM      3  C   UNL     1       3.784  22.610 113.622  1.00  0.00     0.027 C 
BRANCH   3   4
ATOM      4  C   UNL     1       4.276  23.858 114.371  1.00  0.00     0.004 C 
BRANCH   4   5
ATOM      5  C   UNL     1       4.601  25.044 113.447  1.00  0.00     0.000 C 
BRANCH   5   6
ATOM      6  C   UNL     1       4.184  24.783 111.992  1.00  0.00     0.000 C 
BRANCH   6   7
ATOM      7  C   UNL     1       4.453  26.012 111.112  1.00  0.00     0.000 C 
BRANCH   7   8
ATOM      8  C   UNL     1       5.944  26.389 111.040  1.00  0.00     0.006 C 
BRANCH   8   9
ATOM      9  C   UNL     1       6.851  25.250 110.540  1.00  0.00     0.053 C 
BRANCH   9  10
ATOM     10  C   UNL     1       7.900  24.869 111.543  1.00  0.00     0.041 C 
ATOM     11  O   UNL     1       7.652  23.997 112.417  1.00  0.00    -0.550 OA
ATOM     12  O   UNL     1       9.137  25.503 111.536  1.00  0.00    -0.550 OA
ENDBRANCH   9  10
ENDBRANCH   8   9
ENDBRANCH   7   8
ENDBRANCH   6   7
ENDBRANCH   5   6
ENDBRANCH   4   5
ENDBRANCH   3   4
ENDBRANCH   1   3
BRANCH   2  13
ATOM     13  C   UNL     1       0.777  23.364 113.347  1.00  0.00     0.027 C 
BRANCH  13  14
ATOM     14  C   UNL     1       0.135  24.496 114.161  1.00  0.00     0.004 C 
BRANCH  14  15
ATOM     15  C   UNL     1       1.054  25.721 114.287  1.00  0.00     0.000 C 
BRANCH  15  16
ATOM     16  C   UNL     1       1.180  26.505 112.970  1.00  0.00     0.000 C 
BRANCH  16  17
ATOM     17  C   UNL     1       1.296  28.022 113.199  1.00  0.00    -0.000 C 
BRANCH  17  18
ATOM     18  C   UNL     1       2.365  28.389 114.244  1.00  0.00    -0.000 C 
BRANCH  18  19
ATOM     19  C   UNL     1       3.781  28.597 113.681  1.00  0.00    -0.003 C 
ATOM     20  C   UNL     1       3.837  29.639 112.565  1.00  0.00     0.004 C 
ENDBRANCH  18  19
ENDBRANCH  17  18
ENDBRANCH  16  17
ENDBRANCH  15  16
ENDBRANCH  14  15
ENDBRANCH  13  14
ENDBRANCH   2  13
TORSDOF 15
ENDMDL
