MODEL 1
REMARK VINA RESULT:    -7.381      0.000      0.000
REMARK INTER + INTRA:          -8.970
REMARK INTER:                  -8.676
REMARK INTRA:                  -0.295
REMARK UNBOUND:                -0.295
REMARK SMILES O=c1cc(-c2ccc(O)c(O)c2)oc2cc(O)cc(O)c12
REMARK SMILES IDX 4 1 3 2 2 3 1 4 21 5 19 6 18 7 16 8 15 9 14 10 13 11 5 12
REMARK SMILES IDX 6 13 7 14 8 15 12 16 10 17 9 18 11 20 20 22 17 24
REMARK H PARENT 9 19 11 21 20 23 17 25
REMARK Flexibility Score: inf
ROOT
ATOM      1  C   UNL     1       7.833  16.597  23.753  1.00  0.00     0.138 A 
ATOM      2  C   UNL     1       8.571  15.961  22.744  1.00  0.00     0.100 A 
ATOM      3  C   UNL     1       9.897  15.600  22.983  1.00  0.00     0.197 A 
ATOM      4  O   UNL     1      10.514  14.976  22.081  1.00  0.00    -0.289 OA
ATOM      5  C   UNL     1      10.497  15.906  24.227  1.00  0.00     0.107 A 
ATOM      6  C   UNL     1      11.853  15.623  24.568  1.00  0.00     0.134 A 
ATOM      7  C   UNL     1      12.304  15.867  25.871  1.00  0.00     0.093 A 
ATOM      8  C   UNL     1      11.462  16.441  26.829  1.00  0.00     0.123 A 
ATOM      9  C   UNL     1      10.153  16.770  26.491  1.00  0.00     0.094 A 
ATOM     10  C   UNL     1       9.663  16.508  25.209  1.00  0.00     0.146 A 
ATOM     11  O   UNL     1       8.402  16.824  24.932  1.00  0.00    -0.456 OA
ENDROOT
BRANCH   1  12
ATOM     12  C   UNL     1       6.419  17.003  23.553  1.00  0.00     0.021 A 
ATOM     13  C   UNL     1       5.684  17.647  24.566  1.00  0.00     0.016 A 
ATOM     14  C   UNL     1       4.351  18.009  24.353  1.00  0.00     0.051 A 
ATOM     15  C   UNL     1       3.728  17.730  23.131  1.00  0.00     0.157 A 
ATOM     16  C   UNL     1       5.781  16.714  22.333  1.00  0.00     0.062 A 
ATOM     17  C   UNL     1       4.447  17.078  22.117  1.00  0.00     0.158 A 
BRANCH  15  18
ATOM     18  O   UNL     1       2.398  18.094  22.923  1.00  0.00    -0.504 OA
ATOM     19  H   UNL     1       2.152  18.975  22.485  1.00  0.00     0.293 HD
ENDBRANCH  15  18
BRANCH  17  20
ATOM     20  O   UNL     1       3.854  16.781  20.890  1.00  0.00    -0.504 OA
ATOM     21  H   UNL     1       2.894  17.030  20.682  1.00  0.00     0.293 HD
ENDBRANCH  17  20
ENDBRANCH   1  12
BRANCH   6  22
ATOM     22  O   UNL     1      12.799  15.129  23.663  1.00  0.00    -0.507 OA
ATOM     23  H   UNL     1      13.104  15.608  22.830  1.00  0.00     0.293 HD
ENDBRANCH   6  22
BRANCH   8  24
ATOM     24  O   UNL     1      11.924  16.694  28.119  1.00  0.00    -0.508 OA
ATOM     25  H   UNL     1      11.531  17.437  28.686  1.00  0.00     0.293 HD
ENDBRANCH   8  24
TORSDOF 5
ENDMDL
MODEL 2
REMARK VINA RESULT:    -7.204      8.548     12.355
REMARK INTER + INTRA:          -8.763
REMARK INTER:                  -8.454
REMARK INTRA:                  -0.308
REMARK UNBOUND:                -0.295
REMARK SMILES O=c1cc(-c2ccc(O)c(O)c2)oc2cc(O)cc(O)c12
REMARK SMILES IDX 4 1 3 2 2 3 1 4 21 5 19 6 18 7 16 8 15 9 14 10 13 11 5 12
REMARK SMILES IDX 6 13 7 14 8 15 12 16 10 17 9 18 11 20 20 22 17 24
REMARK H PARENT 9 19 11 21 20 23 17 25
REMARK Flexibility Score: inf
ROOT
ATOM      1  C   UNL     1      14.409  17.675  33.312  1.00  0.00     0.138 A 
ATOM      2  C   UNL     1      14.827  18.808  34.025  1.00  0.00     0.100 A 
ATOM      3  C   UNL     1      14.544  20.080  33.526  1.00  0.00     0.197 A 
ATOM      4  O   UNL     1      14.879  21.076  34.219  1.00  0.00    -0.289 OA
ATOM      5  C   UNL     1      13.867  20.218  32.292  1.00  0.00     0.107 A 
ATOM      6  C   UNL     1      13.562  21.464  31.667  1.00  0.00     0.134 A 
ATOM      7  C   UNL     1      12.784  21.480  30.502  1.00  0.00     0.093 A 
ATOM      8  C   UNL     1      12.353  20.291  29.907  1.00  0.00     0.123 A 
ATOM      9  C   UNL     1      12.692  19.068  30.479  1.00  0.00     0.094 A 
ATOM     10  C   UNL     1      13.437  19.020  31.660  1.00  0.00     0.146 A 
ATOM     11  O   UNL     1      13.725  17.832  32.182  1.00  0.00    -0.456 OA
ENDROOT
BRANCH   1  12
ATOM     12  C   UNL     1      14.683  16.299  33.795  1.00  0.00     0.021 A 
ATOM     13  C   UNL     1      15.806  16.004  34.591  1.00  0.00     0.016 A 
ATOM     14  C   UNL     1      16.045  14.697  35.023  1.00  0.00     0.051 A 
ATOM     15  C   UNL     1      15.174  13.662  34.663  1.00  0.00     0.157 A 
ATOM     16  C   UNL     1      13.820  15.250  33.426  1.00  0.00     0.062 A 
ATOM     17  C   UNL     1      14.057  13.941  33.859  1.00  0.00     0.158 A 
BRANCH  15  18
ATOM     18  O   UNL     1      15.415  12.359  35.097  1.00  0.00    -0.504 OA
ATOM     19  H   UNL     1      15.256  11.560  34.493  1.00  0.00     0.293 HD
ENDBRANCH  15  18
BRANCH  17  20
ATOM     20  O   UNL     1      13.173  12.932  33.480  1.00  0.00    -0.504 OA
ATOM     21  H   UNL     1      12.985  12.130  34.070  1.00  0.00     0.293 HD
ENDBRANCH  17  20
ENDBRANCH   1  12
BRANCH   6  22
ATOM     22  O   UNL     1      14.015  22.702  32.132  1.00  0.00    -0.507 OA
ATOM     23  H   UNL     1      13.896  23.578  31.647  1.00  0.00     0.293 HD
ENDBRANCH   6  22
BRANCH   8  24
ATOM     24  O   UNL     1      11.593  20.317  28.740  1.00  0.00    -0.508 OA
ATOM     25  H   UNL     1      12.027  20.379  27.826  1.00  0.00     0.293 HD
ENDBRANCH   8  24
TORSDOF 5
ENDMDL
MODEL 3
REMARK VINA RESULT:    -7.142      8.667     10.362
REMARK INTER + INTRA:          -8.689
REMARK INTER:                  -8.425
REMARK INTRA:                  -0.264
REMARK UNBOUND:                -0.295
REMARK SMILES O=c1cc(-c2ccc(O)c(O)c2)oc2cc(O)cc(O)c12
REMARK SMILES IDX 4 1 3 2 2 3 1 4 21 5 19 6 18 7 16 8 15 9 14 10 13 11 5 12
REMARK SMILES IDX 6 13 7 14 8 15 12 16 10 17 9 18 11 20 20 22 17 24
REMARK H PARENT 9 19 11 21 20 23 17 25
REMARK Flexibility Score: inf
ROOT
ATOM      1  C   UNL     1      14.485  17.808  30.305  1.00  0.00     0.138 A 
ATOM      2  C   UNL     1      13.569  17.684  31.359  1.00  0.00     0.100 A 
ATOM      3  C   UNL     1      13.585  16.538  32.156  1.00  0.00     0.197 A 
ATOM      4  O   UNL     1      12.792  16.484  33.132  1.00  0.00    -0.289 OA
ATOM      5  C   UNL     1      14.501  15.498  31.874  1.00  0.00     0.107 A 
ATOM      6  C   UNL     1      14.580  14.268  32.592  1.00  0.00     0.134 A 
ATOM      7  C   UNL     1      15.605  13.360  32.297  1.00  0.00     0.093 A 
ATOM      8  C   UNL     1      16.517  13.613  31.268  1.00  0.00     0.123 A 
ATOM      9  C   UNL     1      16.416  14.786  30.526  1.00  0.00     0.094 A 
ATOM     10  C   UNL     1      15.425  15.727  30.819  1.00  0.00     0.146 A 
ATOM     11  O   UNL     1      15.373  16.841  30.095  1.00  0.00    -0.456 OA
ENDROOT
BRANCH   1  12
ATOM     12  C   UNL     1      14.512  19.005  29.427  1.00  0.00     0.021 A 
ATOM     13  C   UNL     1      14.004  18.970  28.114  1.00  0.00     0.016 A 
ATOM     14  C   UNL     1      14.053  20.110  27.305  1.00  0.00     0.051 A 
ATOM     15  C   UNL     1      14.614  21.297  27.789  1.00  0.00     0.157 A 
ATOM     16  C   UNL     1      15.086  20.199  29.900  1.00  0.00     0.062 A 
ATOM     17  C   UNL     1      15.134  21.341  29.092  1.00  0.00     0.158 A 
BRANCH  15  18
ATOM     18  O   UNL     1      14.659  22.432  26.980  1.00  0.00    -0.504 OA
ATOM     19  H   UNL     1      13.883  23.083  26.936  1.00  0.00     0.293 HD
ENDBRANCH  15  18
BRANCH  17  20
ATOM     20  O   UNL     1      15.703  22.507  29.602  1.00  0.00    -0.504 OA
ATOM     21  H   UNL     1      15.781  22.678  30.598  1.00  0.00     0.293 HD
ENDBRANCH  17  20
ENDBRANCH   1  12
BRANCH   6  22
ATOM     22  O   UNL     1      13.668  13.880  33.579  1.00  0.00    -0.507 OA
ATOM     23  H   UNL     1      13.385  14.453  34.358  1.00  0.00     0.293 HD
ENDBRANCH   6  22
BRANCH   8  24
ATOM     24  O   UNL     1      17.524  12.697  30.972  1.00  0.00    -0.508 OA
ATOM     25  H   UNL     1      17.784  11.965  31.623  1.00  0.00     0.293 HD
ENDBRANCH   8  24
TORSDOF 5
ENDMDL
MODEL 4
REMARK VINA RESULT:    -7.103      8.488     10.664
REMARK INTER + INTRA:          -8.644
REMARK INTER:                  -8.338
REMARK INTRA:                  -0.307
REMARK UNBOUND:                -0.295
REMARK SMILES O=c1cc(-c2ccc(O)c(O)c2)oc2cc(O)cc(O)c12
REMARK SMILES IDX 4 1 3 2 2 3 1 4 21 5 19 6 18 7 16 8 15 9 14 10 13 11 5 12
REMARK SMILES IDX 6 13 7 14 8 15 12 16 10 17 9 18 11 20 20 22 17 24
REMARK H PARENT 9 19 11 21 20 23 17 25
REMARK Flexibility Score: inf
ROOT
ATOM      1  C   UNL     1      14.331  18.448  32.104  1.00  0.00     0.138 A 
ATOM      2  C   UNL     1      14.602  18.265  33.467  1.00  0.00     0.100 A 
ATOM      3  C   UNL     1      15.372  17.175  33.877  1.00  0.00     0.197 A 
ATOM      4  O   UNL     1      15.649  17.072  35.100  1.00  0.00    -0.289 OA
ATOM      5  C   UNL     1      15.845  16.248  32.919  1.00  0.00     0.107 A 
ATOM      6  C   UNL     1      16.603  15.079  33.225  1.00  0.00     0.134 A 
ATOM      7  C   UNL     1      17.117  14.296  32.183  1.00  0.00     0.093 A 
ATOM      8  C   UNL     1      16.847  14.608  30.848  1.00  0.00     0.123 A 
ATOM      9  C   UNL     1      16.064  15.716  30.540  1.00  0.00     0.094 A 
ATOM     10  C   UNL     1      15.565  16.537  31.556  1.00  0.00     0.146 A 
ATOM     11  O   UNL     1      14.834  17.594  31.218  1.00  0.00    -0.456 OA
ENDROOT
BRANCH   1  12
ATOM     12  C   UNL     1      13.518  19.589  31.612  1.00  0.00     0.021 A 
ATOM     13  C   UNL     1      13.455  20.809  32.312  1.00  0.00     0.016 A 
ATOM     14  C   UNL     1      12.672  21.862  31.831  1.00  0.00     0.051 A 
ATOM     15  C   UNL     1      11.936  21.715  30.650  1.00  0.00     0.157 A 
ATOM     16  C   UNL     1      12.764  19.445  30.433  1.00  0.00     0.062 A 
ATOM     17  C   UNL     1      11.981  20.499  29.949  1.00  0.00     0.158 A 
BRANCH  15  18
ATOM     18  O   UNL     1      11.157  22.769  30.173  1.00  0.00    -0.504 OA
ATOM     19  H   UNL     1      10.186  22.637  29.915  1.00  0.00     0.293 HD
ENDBRANCH  15  18
BRANCH  17  20
ATOM     20  O   UNL     1      11.256  20.319  28.772  1.00  0.00    -0.504 OA
ATOM     21  H   UNL     1      11.707  20.125  27.885  1.00  0.00     0.293 HD
ENDBRANCH  17  20
ENDBRANCH   1  12
BRANCH   6  22
ATOM     22  O   UNL     1      16.857  14.631  34.525  1.00  0.00    -0.507 OA
ATOM     23  H   UNL     1      17.364  13.791  34.757  1.00  0.00     0.293 HD
ENDBRANCH   6  22
BRANCH   8  24
ATOM     24  O   UNL     1      17.350  13.815  29.818  1.00  0.00    -0.508 OA
ATOM     25  H   UNL     1      18.345  13.646  29.717  1.00  0.00     0.293 HD
ENDBRANCH   8  24
TORSDOF 5
ENDMDL
MODEL 5
REMARK VINA RESULT:    -7.071      1.476      6.892
REMARK INTER + INTRA:          -8.606
REMARK INTER:                  -8.312
REMARK INTRA:                  -0.293
REMARK UNBOUND:                -0.295
REMARK SMILES O=c1cc(-c2ccc(O)c(O)c2)oc2cc(O)cc(O)c12
REMARK SMILES IDX 4 1 3 2 2 3 1 4 21 5 19 6 18 7 16 8 15 9 14 10 13 11 5 12
REMARK SMILES IDX 6 13 7 14 8 15 12 16 10 17 9 18 11 20 20 22 17 24
REMARK H PARENT 9 19 11 21 20 23 17 25
REMARK Flexibility Score: inf
ROOT
ATOM      1  C   UNL     1       8.516  16.754  23.347  1.00  0.00     0.138 A 
ATOM      2  C   UNL     1       8.820  16.902  21.986  1.00  0.00     0.100 A 
ATOM      3  C   UNL     1       7.800  17.197  21.080  1.00  0.00     0.197 A 
ATOM      4  O   UNL     1       8.113  17.383  19.875  1.00  0.00    -0.289 OA
ATOM      5  C   UNL     1       6.466  17.313  21.535  1.00  0.00     0.107 A 
ATOM      6  C   UNL     1       5.341  17.571  20.697  1.00  0.00     0.134 A 
ATOM      7  C   UNL     1       4.082  17.781  21.275  1.00  0.00     0.093 A 
ATOM      8  C   UNL     1       3.899  17.682  22.657  1.00  0.00     0.123 A 
ATOM      9  C   UNL     1       4.980  17.379  23.479  1.00  0.00     0.094 A 
ATOM     10  C   UNL     1       6.255  17.197  22.936  1.00  0.00     0.146 A 
ATOM     11  O   UNL     1       7.263  16.923  23.757  1.00  0.00    -0.456 OA
ENDROOT
BRANCH   1  12
ATOM     12  C   UNL     1       9.561  16.440  24.354  1.00  0.00     0.021 A 
ATOM     13  C   UNL     1       9.324  16.583  25.734  1.00  0.00     0.016 A 
ATOM     14  C   UNL     1      10.330  16.290  26.660  1.00  0.00     0.051 A 
ATOM     15  C   UNL     1      11.587  15.856  26.224  1.00  0.00     0.157 A 
ATOM     16  C   UNL     1      10.831  16.016  23.925  1.00  0.00     0.062 A 
ATOM     17  C   UNL     1      11.839  15.720  24.850  1.00  0.00     0.158 A 
BRANCH  15  18
ATOM     18  O   UNL     1      12.588  15.562  27.151  1.00  0.00    -0.504 OA
ATOM     19  H   UNL     1      13.479  16.045  27.139  1.00  0.00     0.293 HD
ENDBRANCH  15  18
BRANCH  17  20
ATOM     20  O   UNL     1      13.082  15.295  24.384  1.00  0.00    -0.504 OA
ATOM     21  H   UNL     1      13.797  14.936  25.006  1.00  0.00     0.293 HD
ENDBRANCH  17  20
ENDBRANCH   1  12
BRANCH   6  22
ATOM     22  O   UNL     1       5.399  17.604  19.300  1.00  0.00    -0.507 OA
ATOM     23  H   UNL     1       6.181  17.948  18.764  1.00  0.00     0.293 HD
ENDBRANCH   6  22
BRANCH   8  24
ATOM     24  O   UNL     1       2.640  17.878  23.221  1.00  0.00    -0.508 OA
ATOM     25  H   UNL     1       2.521  18.401  24.081  1.00  0.00     0.293 HD
ENDBRANCH   8  24
TORSDOF 5
ENDMDL
MODEL 6
REMARK VINA RESULT:    -7.069      7.894     11.501
REMARK INTER + INTRA:          -8.603
REMARK INTER:                  -8.315
REMARK INTRA:                  -0.289
REMARK UNBOUND:                -0.295
REMARK SMILES O=c1cc(-c2ccc(O)c(O)c2)oc2cc(O)cc(O)c12
REMARK SMILES IDX 4 1 3 2 2 3 1 4 21 5 19 6 18 7 16 8 15 9 14 10 13 11 5 12
REMARK SMILES IDX 6 13 7 14 8 15 12 16 10 17 9 18 11 20 20 22 17 24
REMARK H PARENT 9 19 11 21 20 23 17 25
REMARK Flexibility Score: inf
ROOT
ATOM      1  C   UNL     1      15.087  17.420  30.638  1.00  0.00     0.138 A 
ATOM      2  C   UNL     1      14.276  17.238  29.509  1.00  0.00     0.100 A 
ATOM      3  C   UNL     1      13.328  18.207  29.177  1.00  0.00     0.197 A 
ATOM      4  O   UNL     1      12.658  18.045  28.124  1.00  0.00    -0.289 OA
ATOM      5  C   UNL     1      13.171  19.348  29.998  1.00  0.00     0.107 A 
ATOM      6  C   UNL     1      12.210  20.380  29.780  1.00  0.00     0.134 A 
ATOM      7  C   UNL     1      12.225  21.521  30.594  1.00  0.00     0.093 A 
ATOM      8  C   UNL     1      13.128  21.637  31.655  1.00  0.00     0.123 A 
ATOM      9  C   UNL     1      14.034  20.612  31.908  1.00  0.00     0.094 A 
ATOM     10  C   UNL     1      14.067  19.477  31.094  1.00  0.00     0.146 A 
ATOM     11  O   UNL     1      14.958  18.527  31.362  1.00  0.00    -0.456 OA
ENDROOT
BRANCH   1  12
ATOM     12  C   UNL     1      16.110  16.421  31.038  1.00  0.00     0.021 A 
ATOM     13  C   UNL     1      17.246  16.785  31.787  1.00  0.00     0.016 A 
ATOM     14  C   UNL     1      18.198  15.825  32.140  1.00  0.00     0.051 A 
ATOM     15  C   UNL     1      18.038  14.491  31.748  1.00  0.00     0.157 A 
ATOM     16  C   UNL     1      15.963  15.081  30.638  1.00  0.00     0.062 A 
ATOM     17  C   UNL     1      16.915  14.118  30.992  1.00  0.00     0.158 A 
BRANCH  15  18
ATOM     18  O   UNL     1      18.990  13.535  32.105  1.00  0.00    -0.504 OA
ATOM     19  H   UNL     1      19.660  13.179  31.433  1.00  0.00     0.293 HD
ENDBRANCH  15  18
BRANCH  17  20
ATOM     20  O   UNL     1      16.728  12.798  30.583  1.00  0.00    -0.504 OA
ATOM     21  H   UNL     1      16.114  12.554  29.815  1.00  0.00     0.293 HD
ENDBRANCH  17  20
ENDBRANCH   1  12
BRANCH   6  22
ATOM     22  O   UNL     1      11.211  20.324  28.804  1.00  0.00    -0.507 OA
ATOM     23  H   UNL     1      10.617  21.095  28.542  1.00  0.00     0.293 HD
ENDBRANCH   6  22
BRANCH   8  24
ATOM     24  O   UNL     1      13.125  22.769  32.467  1.00  0.00    -0.508 OA
ATOM     25  H   UNL     1      13.619  23.613  32.202  1.00  0.00     0.293 HD
ENDBRANCH   8  24
TORSDOF 5
ENDMDL
MODEL 7
REMARK VINA RESULT:    -6.977      8.311     11.677
REMARK INTER + INTRA:          -8.495
REMARK INTER:                  -8.179
REMARK INTRA:                  -0.316
REMARK UNBOUND:                -0.295
REMARK SMILES O=c1cc(-c2ccc(O)c(O)c2)oc2cc(O)cc(O)c12
REMARK SMILES IDX 4 1 3 2 2 3 1 4 21 5 19 6 18 7 16 8 15 9 14 10 13 11 5 12
REMARK SMILES IDX 6 13 7 14 8 15 12 16 10 17 9 18 11 20 20 22 17 24
REMARK H PARENT 9 19 11 21 20 23 17 25
REMARK Flexibility Score: inf
ROOT
ATOM      1  C   UNL     1      15.341  18.023  31.532  1.00  0.00     0.138 A 
ATOM      2  C   UNL     1      16.425  18.816  31.132  1.00  0.00     0.100 A 
ATOM      3  C   UNL     1      16.208  19.907  30.289  1.00  0.00     0.197 A 
ATOM      4  O   UNL     1      17.191  20.636  29.997  1.00  0.00    -0.289 OA
ATOM      5  C   UNL     1      14.902  20.185  29.820  1.00  0.00     0.107 A 
ATOM      6  C   UNL     1      14.569  21.245  28.925  1.00  0.00     0.134 A 
ATOM      7  C   UNL     1      13.224  21.495  28.621  1.00  0.00     0.093 A 
ATOM      8  C   UNL     1      12.207  20.684  29.132  1.00  0.00     0.123 A 
ATOM      9  C   UNL     1      12.527  19.615  29.964  1.00  0.00     0.094 A 
ATOM     10  C   UNL     1      13.856  19.360  30.313  1.00  0.00     0.146 A 
ATOM     11  O   UNL     1      14.116  18.338  31.121  1.00  0.00    -0.456 OA
ENDROOT
BRANCH   1  12
ATOM     12  C   UNL     1      15.514  16.851  32.426  1.00  0.00     0.021 A 
ATOM     13  C   UNL     1      16.733  16.596  33.083  1.00  0.00     0.016 A 
ATOM     14  C   UNL     1      16.871  15.478  33.911  1.00  0.00     0.051 A 
ATOM     15  C   UNL     1      15.801  14.595  34.092  1.00  0.00     0.157 A 
ATOM     16  C   UNL     1      14.448  15.951  32.603  1.00  0.00     0.062 A 
ATOM     17  C   UNL     1      14.584  14.832  33.433  1.00  0.00     0.158 A 
BRANCH  15  18
ATOM     18  O   UNL     1      15.942  13.482  34.921  1.00  0.00    -0.504 OA
ATOM     19  H   UNL     1      15.148  12.903  35.172  1.00  0.00     0.293 HD
ENDBRANCH  15  18
BRANCH  17  20
ATOM     20  O   UNL     1      13.500  13.969  33.589  1.00  0.00    -0.504 OA
ATOM     21  H   UNL     1      12.864  13.759  32.828  1.00  0.00     0.293 HD
ENDBRANCH  17  20
ENDBRANCH   1  12
BRANCH   6  22
ATOM     22  O   UNL     1      15.513  22.059  28.291  1.00  0.00    -0.507 OA
ATOM     23  H   UNL     1      16.481  21.815  28.149  1.00  0.00     0.293 HD
ENDBRANCH   6  22
BRANCH   8  24
ATOM     24  O   UNL     1      10.874  20.932  28.812  1.00  0.00    -0.508 OA
ATOM     25  H   UNL     1      10.230  21.322  29.491  1.00  0.00     0.293 HD
ENDBRANCH   8  24
TORSDOF 5
ENDMDL
MODEL 8
REMARK VINA RESULT:    -6.977      8.127     12.652
REMARK INTER + INTRA:          -8.495
REMARK INTER:                  -8.184
REMARK INTRA:                  -0.312
REMARK UNBOUND:                -0.295
REMARK SMILES O=c1cc(-c2ccc(O)c(O)c2)oc2cc(O)cc(O)c12
REMARK SMILES IDX 4 1 3 2 2 3 1 4 21 5 19 6 18 7 16 8 15 9 14 10 13 11 5 12
REMARK SMILES IDX 6 13 7 14 8 15 12 16 10 17 9 18 11 20 20 22 17 24
REMARK H PARENT 9 19 11 21 20 23 17 25
REMARK Flexibility Score: inf
ROOT
ATOM      1  C   UNL     1      16.167  22.188  29.887  1.00  0.00     0.138 A 
ATOM      2  C   UNL     1      15.275  22.021  30.955  1.00  0.00     0.100 A 
ATOM      3  C   UNL     1      14.220  21.114  30.839  1.00  0.00     0.197 A 
ATOM      4  O   UNL     1      13.473  20.943  31.838  1.00  0.00    -0.289 OA
ATOM      5  C   UNL     1      14.041  20.394  29.635  1.00  0.00     0.107 A 
ATOM      6  C   UNL     1      12.979  19.474  29.389  1.00  0.00     0.134 A 
ATOM      7  C   UNL     1      12.969  18.731  28.201  1.00  0.00     0.093 A 
ATOM      8  C   UNL     1      13.952  18.921  27.225  1.00  0.00     0.123 A 
ATOM      9  C   UNL     1      14.962  19.855  27.433  1.00  0.00     0.094 A 
ATOM     10  C   UNL     1      15.019  20.587  28.622  1.00  0.00     0.146 A 
ATOM     11  O   UNL     1      16.009  21.458  28.787  1.00  0.00    -0.456 OA
ENDROOT
BRANCH   1  12
ATOM     12  C   UNL     1      17.304  23.139  29.955  1.00  0.00     0.021 A 
ATOM     13  C   UNL     1      17.296  24.241  30.832  1.00  0.00     0.016 A 
ATOM     14  C   UNL     1      18.377  25.126  30.867  1.00  0.00     0.051 A 
ATOM     15  C   UNL     1      19.479  24.932  30.027  1.00  0.00     0.157 A 
ATOM     16  C   UNL     1      18.410  22.958  29.105  1.00  0.00     0.062 A 
ATOM     17  C   UNL     1      19.494  23.843  29.140  1.00  0.00     0.158 A 
BRANCH  15  18
ATOM     18  O   UNL     1      20.556  25.816  30.067  1.00  0.00    -0.504 OA
ATOM     19  H   UNL     1      21.404  25.597  30.579  1.00  0.00     0.293 HD
ENDBRANCH  15  18
BRANCH  17  20
ATOM     20  O   UNL     1      20.575  23.624  28.287  1.00  0.00    -0.504 OA
ATOM     21  H   UNL     1      21.493  23.372  28.634  1.00  0.00     0.293 HD
ENDBRANCH  17  20
ENDBRANCH   1  12
BRANCH   6  22
ATOM     22  O   UNL     1      11.903  19.272  30.260  1.00  0.00    -0.507 OA
ATOM     23  H   UNL     1      11.564  18.370  30.556  1.00  0.00     0.293 HD
ENDBRANCH   6  22
BRANCH   8  24
ATOM     24  O   UNL     1      13.926  18.189  26.041  1.00  0.00    -0.508 OA
ATOM     25  H   UNL     1      14.693  18.223  25.379  1.00  0.00     0.293 HD
ENDBRANCH   8  24
TORSDOF 5
ENDMDL
MODEL 9
REMARK VINA RESULT:    -6.962      8.165     11.420
REMARK INTER + INTRA:          -8.478
REMARK INTER:                  -8.214
REMARK INTRA:                  -0.263
REMARK UNBOUND:                -0.295
REMARK SMILES O=c1cc(-c2ccc(O)c(O)c2)oc2cc(O)cc(O)c12
REMARK SMILES IDX 4 1 3 2 2 3 1 4 21 5 19 6 18 7 16 8 15 9 14 10 13 11 5 12
REMARK SMILES IDX 6 13 7 14 8 15 12 16 10 17 9 18 11 20 20 22 17 24
REMARK H PARENT 9 19 11 21 20 23 17 25
REMARK Flexibility Score: inf
ROOT
ATOM      1  C   UNL     1      15.301  17.032  31.202  1.00  0.00     0.138 A 
ATOM      2  C   UNL     1      16.347  17.953  31.354  1.00  0.00     0.100 A 
ATOM      3  C   UNL     1      16.183  19.264  30.905  1.00  0.00     0.197 A 
ATOM      4  O   UNL     1      17.118  20.082  31.111  1.00  0.00    -0.289 OA
ATOM      5  C   UNL     1      14.977  19.646  30.273  1.00  0.00     0.107 A 
ATOM      6  C   UNL     1      14.714  20.943  29.741  1.00  0.00     0.134 A 
ATOM      7  C   UNL     1      13.439  21.239  29.241  1.00  0.00     0.093 A 
ATOM      8  C   UNL     1      12.437  20.266  29.201  1.00  0.00     0.123 A 
ATOM      9  C   UNL     1      12.700  18.982  29.670  1.00  0.00     0.094 A 
ATOM     10  C   UNL     1      13.951  18.665  30.205  1.00  0.00     0.146 A 
ATOM     11  O   UNL     1      14.156  17.431  30.655  1.00  0.00    -0.456 OA
ENDROOT
BRANCH   1  12
ATOM     12  C   UNL     1      15.421  15.625  31.660  1.00  0.00     0.021 A 
ATOM     13  C   UNL     1      15.069  15.240  32.968  1.00  0.00     0.016 A 
ATOM     14  C   UNL     1      15.202  13.910  33.375  1.00  0.00     0.051 A 
ATOM     15  C   UNL     1      15.694  12.944  32.488  1.00  0.00     0.157 A 
ATOM     16  C   UNL     1      15.926  14.651  30.780  1.00  0.00     0.062 A 
ATOM     17  C   UNL     1      16.059  13.318  31.185  1.00  0.00     0.158 A 
BRANCH  15  18
ATOM     18  O   UNL     1      15.824  11.617  32.898  1.00  0.00    -0.504 OA
ATOM     19  H   UNL     1      15.446  11.296  33.782  1.00  0.00     0.293 HD
ENDBRANCH  15  18
BRANCH  17  20
ATOM     20  O   UNL     1      16.556  12.381  30.280  1.00  0.00    -0.504 OA
ATOM     21  H   UNL     1      17.525  12.379  29.984  1.00  0.00     0.293 HD
ENDBRANCH  17  20
ENDBRANCH   1  12
BRANCH   6  22
ATOM     22  O   UNL     1      15.669  21.960  29.654  1.00  0.00    -0.507 OA
ATOM     23  H   UNL     1      15.626  22.739  29.015  1.00  0.00     0.293 HD
ENDBRANCH   6  22
BRANCH   8  24
ATOM     24  O   UNL     1      11.176  20.565  28.689  1.00  0.00    -0.508 OA
ATOM     25  H   UNL     1      11.020  21.384  28.111  1.00  0.00     0.293 HD
ENDBRANCH   8  24
TORSDOF 5
ENDMDL
