MODEL 1
REMARK VINA RESULT:    -5.556      0.000      0.000
REMARK INTER + INTRA:          -8.640
REMARK INTER:                  -7.992
REMARK INTRA:                  -0.649
REMARK UNBOUND:                -0.649
REMARK SMILES O=c1c(O[C@H]2O[C@H](CO)[C@H](O)[C@H](O)[C@@H]2O)c(-c2ccc(O)cc2)oc2cc(O)cc(O)c12
REMARK SMILES IDX 4 1 3 2 16 3 24 4 2 5 25 6 1 7 32 8 26 9 30 10 27 11 29 12
REMARK SMILES IDX 17 13 18 14 19 15 20 16 23 17 22 18 21 19 31 21 28 23 5 25
REMARK SMILES IDX 14 26 6 27 12 28 7 29 10 30 15 31 13 33 8 35 9 36 11 38
REMARK H PARENT 21 20 31 22 28 24 15 32 13 34 9 37 11 39
REMARK Flexibility Score: inf
ROOT
ATOM      1  O   UNL     1       3.644   5.263  24.969  1.00  0.00    -0.454 OA
ENDROOT
BRANCH   1   2
ATOM      2  C   UNL     1       3.858   6.338  25.841  1.00  0.00     0.214 A 
ATOM      3  C   UNL     1       3.996   6.114  27.223  1.00  0.00     0.180 A 
ATOM      4  O   UNL     1       4.285   7.126  28.035  1.00  0.00    -0.452 OA
ATOM      5  C   UNL     1       3.943   7.654  25.359  1.00  0.00     0.239 A 
ATOM      6  C   UNL     1       4.413   8.380  27.617  1.00  0.00     0.146 A 
ATOM      7  O   UNL     1       3.743   7.881  24.135  1.00  0.00    -0.285 OA
ATOM      8  C   UNL     1       4.235   8.706  26.251  1.00  0.00     0.111 A 
ATOM      9  C   UNL     1       4.722   9.378  28.545  1.00  0.00     0.094 A 
ATOM     10  C   UNL     1       4.359  10.055  25.844  1.00  0.00     0.134 A 
ATOM     11  C   UNL     1       4.852  10.706  28.136  1.00  0.00     0.123 A 
ATOM     12  C   UNL     1       4.666  11.043  26.790  1.00  0.00     0.093 A 
BRANCH   3  13
ATOM     13  C   UNL     1       3.856   4.765  27.808  1.00  0.00     0.021 A 
ATOM     14  C   UNL     1       3.005   3.810  27.226  1.00  0.00     0.016 A 
ATOM     15  C   UNL     1       2.875   2.541  27.797  1.00  0.00     0.047 A 
ATOM     16  C   UNL     1       3.581   2.218  28.964  1.00  0.00     0.115 A 
ATOM     17  C   UNL     1       4.541   4.444  28.990  1.00  0.00     0.016 A 
ATOM     18  C   UNL     1       4.410   3.175  29.560  1.00  0.00     0.047 A 
BRANCH  16  19
ATOM     19  O   UNL     1       3.463   0.955  29.540  1.00  0.00    -0.508 OA
ATOM     20  H   UNL     1       4.001   0.166  29.201  1.00  0.00     0.293 HD
ENDBRANCH  16  19
ENDBRANCH   3  13
BRANCH  10  21
ATOM     21  O   UNL     1       4.183  10.421  24.509  1.00  0.00    -0.507 OA
ATOM     22  H   UNL     1       3.277  10.702  24.148  1.00  0.00     0.293 HD
ENDBRANCH  10  21
BRANCH  11  23
ATOM     23  O   UNL     1       5.167  11.686  29.077  1.00  0.00    -0.508 OA
ATOM     24  H   UNL     1       5.363  12.641  28.801  1.00  0.00     0.293 HD
ENDBRANCH  11  23
ENDBRANCH   1   2
BRANCH   1  25
ATOM     25  C   UNL     1       4.660   4.754  24.095  1.00  0.00     0.339 C 
ATOM     26  C   UNL     1       4.344   5.111  22.627  1.00  0.00     0.214 C 
ATOM     27  O   UNL     1       4.829   3.354  24.275  1.00  0.00    -0.332 OA
ATOM     28  C   UNL     1       3.135   4.303  22.126  1.00  0.00     0.180 C 
ATOM     29  C   UNL     1       3.650   2.639  23.933  1.00  0.00     0.179 C 
ATOM     30  C   UNL     1       3.318   2.804  22.436  1.00  0.00     0.177 C 
BRANCH  26  31
ATOM     31  O   UNL     1       5.463   4.849  21.818  1.00  0.00    -0.384 OA
ATOM     32  H   UNL     1       5.138   4.340  21.030  1.00  0.00     0.211 HD
ENDBRANCH  26  31
BRANCH  28  33
ATOM     33  O   UNL     1       2.966   4.508  20.746  1.00  0.00    -0.387 OA
ATOM     34  H   UNL     1       2.985   5.490  20.598  1.00  0.00     0.211 HD
ENDBRANCH  28  33
BRANCH  29  35
ATOM     35  C   UNL     1       3.836   1.163  24.301  1.00  0.00     0.191 C 
BRANCH  35  36
ATOM     36  O   UNL     1       5.130   0.751  23.954  1.00  0.00    -0.394 OA
ATOM     37  H   UNL     1       5.419   1.346  23.214  1.00  0.00     0.210 HD
ENDBRANCH  35  36
ENDBRANCH  29  35
BRANCH  30  38
ATOM     38  O   UNL     1       4.351   2.262  21.651  1.00  0.00    -0.387 OA
ATOM     39  H   UNL     1       3.993   1.437  21.230  1.00  0.00     0.211 HD
ENDBRANCH  30  38
ENDBRANCH   1  25
TORSDOF 11
ENDMDL
MODEL 2
REMARK VINA RESULT:    -5.410     18.016     20.174
REMARK INTER + INTRA:          -8.430
REMARK INTER:                  -6.809
REMARK INTRA:                  -1.621
REMARK UNBOUND:                -0.649
REMARK SMILES O=c1c(O[C@H]2O[C@H](CO)[C@H](O)[C@H](O)[C@@H]2O)c(-c2ccc(O)cc2)oc2cc(O)cc(O)c12
REMARK SMILES IDX 4 1 3 2 16 3 24 4 2 5 25 6 1 7 32 8 26 9 30 10 27 11 29 12
REMARK SMILES IDX 17 13 18 14 19 15 20 16 23 17 22 18 21 19 31 21 28 23 5 25
REMARK SMILES IDX 14 26 6 27 12 28 7 29 10 30 15 31 13 33 8 35 9 36 11 38
REMARK H PARENT 21 20 31 22 28 24 15 32 13 34 9 37 11 39
REMARK Flexibility Score: inf
ROOT
ATOM      1  O   UNL     1      18.793   5.612  11.168  1.00  0.00    -0.454 OA
ENDROOT
BRANCH   1   2
ATOM      2  C   UNL     1      17.557   6.251  10.999  1.00  0.00     0.214 A 
ATOM      3  C   UNL     1      16.359   5.539  11.186  1.00  0.00     0.180 A 
ATOM      4  O   UNL     1      15.192   6.170  11.109  1.00  0.00    -0.452 OA
ATOM      5  C   UNL     1      17.488   7.609  10.646  1.00  0.00     0.239 A 
ATOM      6  C   UNL     1      15.081   7.461  10.816  1.00  0.00     0.146 A 
ATOM      7  O   UNL     1      18.551   8.240  10.397  1.00  0.00    -0.285 OA
ATOM      8  C   UNL     1      16.232   8.242  10.557  1.00  0.00     0.111 A 
ATOM      9  C   UNL     1      13.810   8.039  10.763  1.00  0.00     0.094 A 
ATOM     10  C   UNL     1      16.077   9.610  10.229  1.00  0.00     0.134 A 
ATOM     11  C   UNL     1      13.663   9.391  10.446  1.00  0.00     0.123 A 
ATOM     12  C   UNL     1      14.793  10.171  10.176  1.00  0.00     0.093 A 
BRANCH   3  13
ATOM     13  C   UNL     1      16.355   4.096  11.496  1.00  0.00     0.021 A 
ATOM     14  C   UNL     1      16.125   3.638  12.805  1.00  0.00     0.016 A 
ATOM     15  C   UNL     1      16.134   2.268  13.084  1.00  0.00     0.047 A 
ATOM     16  C   UNL     1      16.388   1.342  12.063  1.00  0.00     0.115 A 
ATOM     17  C   UNL     1      16.633   3.165  10.483  1.00  0.00     0.016 A 
ATOM     18  C   UNL     1      16.641   1.796  10.764  1.00  0.00     0.047 A 
BRANCH  16  19
ATOM     19  O   UNL     1      16.394  -0.025  12.328  1.00  0.00    -0.508 OA
ATOM     20  H   UNL     1      16.921  -0.673  11.754  1.00  0.00     0.293 HD
ENDBRANCH  16  19
ENDBRANCH   3  13
BRANCH  10  21
ATOM     21  O   UNL     1      17.184  10.414   9.958  1.00  0.00    -0.507 OA
ATOM     22  H   UNL     1      17.964  10.483  10.604  1.00  0.00     0.293 HD
ENDBRANCH  10  21
BRANCH  11  23
ATOM     23  O   UNL     1      12.386   9.950  10.404  1.00  0.00    -0.508 OA
ATOM     24  H   UNL     1      12.110  10.583   9.663  1.00  0.00     0.293 HD
ENDBRANCH  11  23
ENDBRANCH   1   2
BRANCH   1  25
ATOM     25  C   UNL     1      19.484   5.572  12.423  1.00  0.00     0.339 C 
ATOM     26  C   UNL     1      20.918   6.123  12.273  1.00  0.00     0.214 C 
ATOM     27  O   UNL     1      19.477   4.257  12.964  1.00  0.00    -0.332 OA
ATOM     28  C   UNL     1      21.787   5.148  11.461  1.00  0.00     0.180 C 
ATOM     29  C   UNL     1      20.171   3.344  12.125  1.00  0.00     0.179 C 
ATOM     30  C   UNL     1      21.665   3.716  12.021  1.00  0.00     0.177 C 
BRANCH  26  31
ATOM     31  O   UNL     1      21.488   6.329  13.541  1.00  0.00    -0.384 OA
ATOM     32  H   UNL     1      20.810   6.804  14.090  1.00  0.00     0.211 HD
ENDBRANCH  26  31
BRANCH  28  33
ATOM     33  O   UNL     1      23.124   5.576  11.478  1.00  0.00    -0.387 OA
ATOM     34  H   UNL     1      23.541   5.180  12.289  1.00  0.00     0.211 HD
ENDBRANCH  28  33
BRANCH  29  35
ATOM     35  C   UNL     1      19.989   1.924  12.671  1.00  0.00     0.191 C 
BRANCH  35  36
ATOM     36  O   UNL     1      20.151   1.932  14.064  1.00  0.00    -0.394 OA
ATOM     37  H   UNL     1      21.129   1.974  14.227  1.00  0.00     0.210 HD
ENDBRANCH  35  36
ENDBRANCH  29  35
BRANCH  30  38
ATOM     38  O   UNL     1      22.271   3.631  13.287  1.00  0.00    -0.387 OA
ATOM     39  H   UNL     1      22.962   4.342  13.326  1.00  0.00     0.211 HD
ENDBRANCH  30  38
ENDBRANCH   1  25
TORSDOF 11
ENDMDL
MODEL 3
REMARK VINA RESULT:    -5.124     16.851     19.405
REMARK INTER + INTRA:          -8.020
REMARK INTER:                  -6.920
REMARK INTRA:                  -1.099
REMARK UNBOUND:                -0.649
REMARK SMILES O=c1c(O[C@H]2O[C@H](CO)[C@H](O)[C@H](O)[C@@H]2O)c(-c2ccc(O)cc2)oc2cc(O)cc(O)c12
REMARK SMILES IDX 4 1 3 2 16 3 24 4 2 5 25 6 1 7 32 8 26 9 30 10 27 11 29 12
REMARK SMILES IDX 17 13 18 14 19 15 20 16 23 17 22 18 21 19 31 21 28 23 5 25
REMARK SMILES IDX 14 26 6 27 12 28 7 29 10 30 15 31 13 33 8 35 9 36 11 38
REMARK H PARENT 21 20 31 22 28 24 15 32 13 34 9 37 11 39
REMARK Flexibility Score: inf
ROOT
ATOM      1  O   UNL     1      17.695   6.399  10.845  1.00  0.00    -0.454 OA
ENDROOT
BRANCH   1   2
ATOM      2  C   UNL     1      16.666   7.249  11.271  1.00  0.00     0.214 A 
ATOM      3  C   UNL     1      15.721   6.802  12.212  1.00  0.00     0.180 A 
ATOM      4  O   UNL     1      14.799   7.639  12.676  1.00  0.00    -0.452 OA
ATOM      5  C   UNL     1      16.559   8.559  10.776  1.00  0.00     0.239 A 
ATOM      6  C   UNL     1      14.684   8.897  12.266  1.00  0.00     0.146 A 
ATOM      7  O   UNL     1      17.350   8.949   9.875  1.00  0.00    -0.285 OA
ATOM      8  C   UNL     1      15.558   9.414  11.280  1.00  0.00     0.111 A 
ATOM      9  C   UNL     1      13.685   9.704  12.816  1.00  0.00     0.094 A 
ATOM     10  C   UNL     1      15.396  10.753  10.851  1.00  0.00     0.134 A 
ATOM     11  C   UNL     1      13.535  11.026  12.395  1.00  0.00     0.123 A 
ATOM     12  C   UNL     1      14.385  11.546  11.412  1.00  0.00     0.093 A 
BRANCH   3  13
ATOM     13  C   UNL     1      15.734   5.419  12.727  1.00  0.00     0.021 A 
ATOM     14  C   UNL     1      15.227   4.356  11.960  1.00  0.00     0.016 A 
ATOM     15  C   UNL     1      15.238   3.053  12.467  1.00  0.00     0.047 A 
ATOM     16  C   UNL     1      15.741   2.800  13.751  1.00  0.00     0.115 A 
ATOM     17  C   UNL     1      16.214   5.163  14.022  1.00  0.00     0.016 A 
ATOM     18  C   UNL     1      16.224   3.859  14.526  1.00  0.00     0.047 A 
BRANCH  16  19
ATOM     19  O   UNL     1      15.762   1.506  14.264  1.00  0.00    -0.508 OA
ATOM     20  H   UNL     1      14.948   1.100  14.711  1.00  0.00     0.293 HD
ENDBRANCH  16  19
ENDBRANCH   3  13
BRANCH  10  21
ATOM     21  O   UNL     1      16.230  11.300   9.876  1.00  0.00    -0.507 OA
ATOM     22  H   UNL     1      16.227  12.293   9.668  1.00  0.00     0.293 HD
ENDBRANCH  10  21
BRANCH  11  23
ATOM     23  O   UNL     1      12.536  11.817  12.961  1.00  0.00    -0.508 OA
ATOM     24  H   UNL     1      11.560  11.688  12.723  1.00  0.00     0.293 HD
ENDBRANCH  11  23
ENDBRANCH   1   2
BRANCH   1  25
ATOM     25  C   UNL     1      18.716   5.911  11.725  1.00  0.00     0.339 C 
ATOM     26  C   UNL     1      20.043   6.665  11.491  1.00  0.00     0.214 C 
ATOM     27  O   UNL     1      18.876   4.505  11.585  1.00  0.00    -0.332 OA
ATOM     28  C   UNL     1      20.652   6.274  10.134  1.00  0.00     0.180 C 
ATOM     29  C   UNL     1      19.310   4.157  10.278  1.00  0.00     0.179 C 
ATOM     30  C   UNL     1      20.709   4.740   9.987  1.00  0.00     0.177 C 
BRANCH  26  31
ATOM     31  O   UNL     1      20.949   6.373  12.524  1.00  0.00    -0.384 OA
ATOM     32  H   UNL     1      21.861   6.522  12.161  1.00  0.00     0.211 HD
ENDBRANCH  26  31
BRANCH  28  33
ATOM     33  O   UNL     1      21.935   6.832  10.011  1.00  0.00    -0.387 OA
ATOM     34  H   UNL     1      22.120   6.915   9.039  1.00  0.00     0.211 HD
ENDBRANCH  28  33
BRANCH  29  35
ATOM     35  C   UNL     1      19.305   2.631  10.139  1.00  0.00     0.191 C 
BRANCH  35  36
ATOM     36  O   UNL     1      19.603   2.045  11.377  1.00  0.00    -0.394 OA
ATOM     37  H   UNL     1      20.589   1.940  11.402  1.00  0.00     0.210 HD
ENDBRANCH  35  36
ENDBRANCH  29  35
BRANCH  30  38
ATOM     38  O   UNL     1      21.652   4.195  10.876  1.00  0.00    -0.387 OA
ATOM     39  H   UNL     1      21.869   4.903  11.537  1.00  0.00     0.211 HD
ENDBRANCH  30  38
ENDBRANCH   1  25
TORSDOF 11
ENDMDL
MODEL 4
REMARK VINA RESULT:    -4.887     18.279     21.068
REMARK INTER + INTRA:          -7.679
REMARK INTER:                  -6.255
REMARK INTRA:                  -1.424
REMARK UNBOUND:                -0.649
REMARK SMILES O=c1c(O[C@H]2O[C@H](CO)[C@H](O)[C@H](O)[C@@H]2O)c(-c2ccc(O)cc2)oc2cc(O)cc(O)c12
REMARK SMILES IDX 4 1 3 2 16 3 24 4 2 5 25 6 1 7 32 8 26 9 30 10 27 11 29 12
REMARK SMILES IDX 17 13 18 14 19 15 20 16 23 17 22 18 21 19 31 21 28 23 5 25
REMARK SMILES IDX 14 26 6 27 12 28 7 29 10 30 15 31 13 33 8 35 9 36 11 38
REMARK H PARENT 21 20 31 22 28 24 15 32 13 34 9 37 11 39
REMARK Flexibility Score: inf
ROOT
ATOM      1  O   UNL     1      20.218  -0.354  14.755  1.00  0.00    -0.454 OA
ENDROOT
BRANCH   1   2
ATOM      2  C   UNL     1      19.244   0.358  14.041  1.00  0.00     0.214 A 
ATOM      3  C   UNL     1      19.031   0.090  12.676  1.00  0.00     0.180 A 
ATOM      4  O   UNL     1      18.049   0.707  12.024  1.00  0.00    -0.452 OA
ATOM      5  C   UNL     1      18.465   1.344  14.666  1.00  0.00     0.239 A 
ATOM      6  C   UNL     1      17.262   1.617  12.587  1.00  0.00     0.146 A 
ATOM      7  O   UNL     1      18.698   1.650  15.867  1.00  0.00    -0.285 OA
ATOM      8  C   UNL     1      17.443   1.988  13.940  1.00  0.00     0.111 A 
ATOM      9  C   UNL     1      16.253   2.208  11.822  1.00  0.00     0.094 A 
ATOM     10  C   UNL     1      16.599   2.976  14.502  1.00  0.00     0.134 A 
ATOM     11  C   UNL     1      15.418   3.176  12.383  1.00  0.00     0.123 A 
ATOM     12  C   UNL     1      15.595   3.562  13.717  1.00  0.00     0.093 A 
BRANCH   3  13
ATOM     13  C   UNL     1      19.855  -0.887  11.938  1.00  0.00     0.021 A 
ATOM     14  C   UNL     1      19.301  -2.088  11.463  1.00  0.00     0.016 A 
ATOM     15  C   UNL     1      20.098  -3.007  10.774  1.00  0.00     0.047 A 
ATOM     16  C   UNL     1      21.459  -2.744  10.567  1.00  0.00     0.115 A 
ATOM     17  C   UNL     1      21.224  -0.640  11.749  1.00  0.00     0.016 A 
ATOM     18  C   UNL     1      22.019  -1.560  11.059  1.00  0.00     0.047 A 
BRANCH  16  19
ATOM     19  O   UNL     1      22.262  -3.650   9.877  1.00  0.00    -0.508 OA
ATOM     20  H   UNL     1      23.249  -3.745  10.082  1.00  0.00     0.293 HD
ENDBRANCH  16  19
ENDBRANCH   3  13
BRANCH  10  21
ATOM     21  O   UNL     1      16.749   3.378  15.829  1.00  0.00    -0.507 OA
ATOM     22  H   UNL     1      16.492   4.310  16.136  1.00  0.00     0.293 HD
ENDBRANCH  10  21
BRANCH  11  23
ATOM     23  O   UNL     1      14.413   3.749  11.606  1.00  0.00    -0.508 OA
ATOM     24  H   UNL     1      14.439   3.710  10.594  1.00  0.00     0.293 HD
ENDBRANCH  11  23
ENDBRANCH   1   2
BRANCH   1  25
ATOM     25  C   UNL     1      19.892  -1.319  15.764  1.00  0.00     0.339 C 
ATOM     26  C   UNL     1      20.897  -1.243  16.933  1.00  0.00     0.214 C 
ATOM     27  O   UNL     1      19.823  -2.626  15.211  1.00  0.00    -0.332 OA
ATOM     28  C   UNL     1      22.273  -1.772  16.495  1.00  0.00     0.180 C 
ATOM     29  C   UNL     1      21.077  -3.039  14.688  1.00  0.00     0.179 C 
ATOM     30  C   UNL     1      22.134  -3.145  15.808  1.00  0.00     0.177 C 
BRANCH  26  31
ATOM     31  O   UNL     1      20.422  -1.993  18.023  1.00  0.00    -0.384 OA
ATOM     32  H   UNL     1      20.888  -1.656  18.832  1.00  0.00     0.211 HD
ENDBRANCH  26  31
BRANCH  28  33
ATOM     33  O   UNL     1      23.125  -1.858  17.609  1.00  0.00    -0.387 OA
ATOM     34  H   UNL     1      22.706  -2.498  18.242  1.00  0.00     0.211 HD
ENDBRANCH  28  33
BRANCH  29  35
ATOM     35  C   UNL     1      20.902  -4.378  13.963  1.00  0.00     0.191 C 
BRANCH  35  36
ATOM     36  O   UNL     1      20.028  -5.196  14.693  1.00  0.00    -0.394 OA
ATOM     37  H   UNL     1      20.586  -5.662  15.368  1.00  0.00     0.210 HD
ENDBRANCH  35  36
ENDBRANCH  29  35
BRANCH  30  38
ATOM     38  O   UNL     1      21.751  -4.125  16.740  1.00  0.00    -0.387 OA
ATOM     39  H   UNL     1      22.136  -3.858  17.615  1.00  0.00     0.211 HD
ENDBRANCH  30  38
ENDBRANCH   1  25
TORSDOF 11
ENDMDL
MODEL 5
REMARK VINA RESULT:    -4.886     17.965     20.459
REMARK INTER + INTRA:          -7.676
REMARK INTER:                  -6.431
REMARK INTRA:                  -1.245
REMARK UNBOUND:                -0.649
REMARK SMILES O=c1c(O[C@H]2O[C@H](CO)[C@H](O)[C@H](O)[C@@H]2O)c(-c2ccc(O)cc2)oc2cc(O)cc(O)c12
REMARK SMILES IDX 4 1 3 2 16 3 24 4 2 5 25 6 1 7 32 8 26 9 30 10 27 11 29 12
REMARK SMILES IDX 17 13 18 14 19 15 20 16 23 17 22 18 21 19 31 21 28 23 5 25
REMARK SMILES IDX 14 26 6 27 12 28 7 29 10 30 15 31 13 33 8 35 9 36 11 38
REMARK H PARENT 21 20 31 22 28 24 15 32 13 34 9 37 11 39
REMARK Flexibility Score: inf
ROOT
ATOM      1  O   UNL     1      19.461   0.190  12.127  1.00  0.00    -0.454 OA
ENDROOT
BRANCH   1   2
ATOM      2  C   UNL     1      18.819   1.349  12.584  1.00  0.00     0.214 A 
ATOM      3  C   UNL     1      19.165   1.908  13.827  1.00  0.00     0.180 A 
ATOM      4  O   UNL     1      18.615   3.054  14.217  1.00  0.00    -0.452 OA
ATOM      5  C   UNL     1      17.826   1.977  11.814  1.00  0.00     0.239 A 
ATOM      6  C   UNL     1      17.702   3.702  13.503  1.00  0.00     0.146 A 
ATOM      7  O   UNL     1      17.449   1.445  10.735  1.00  0.00    -0.285 OA
ATOM      8  C   UNL     1      17.253   3.183  12.266  1.00  0.00     0.111 A 
ATOM      9  C   UNL     1      17.184   4.904  13.993  1.00  0.00     0.094 A 
ATOM     10  C   UNL     1      16.264   3.889  11.540  1.00  0.00     0.134 A 
ATOM     11  C   UNL     1      16.214   5.601  13.269  1.00  0.00     0.123 A 
ATOM     12  C   UNL     1      15.753   5.091  12.050  1.00  0.00     0.093 A 
BRANCH   3  13
ATOM     13  C   UNL     1      20.154   1.268  14.717  1.00  0.00     0.021 A 
ATOM     14  C   UNL     1      21.530   1.511  14.563  1.00  0.00     0.016 A 
ATOM     15  C   UNL     1      22.454   0.890  15.409  1.00  0.00     0.047 A 
ATOM     16  C   UNL     1      22.016   0.007  16.405  1.00  0.00     0.115 A 
ATOM     17  C   UNL     1      19.723   0.364  15.702  1.00  0.00     0.016 A 
ATOM     18  C   UNL     1      20.649  -0.255  16.546  1.00  0.00     0.047 A 
BRANCH  16  19
ATOM     19  O   UNL     1      22.926  -0.614  17.256  1.00  0.00    -0.508 OA
ATOM     20  H   UNL     1      23.163  -0.218  18.158  1.00  0.00     0.293 HD
ENDBRANCH  16  19
ENDBRANCH   3  13
BRANCH  10  21
ATOM     21  O   UNL     1      15.788   3.408  10.321  1.00  0.00    -0.507 OA
ATOM     22  H   UNL     1      14.796   3.387  10.106  1.00  0.00     0.293 HD
ENDBRANCH  10  21
BRANCH  11  23
ATOM     23  O   UNL     1      15.714   6.802  13.772  1.00  0.00    -0.508 OA
ATOM     24  H   UNL     1      15.746   7.657  13.230  1.00  0.00     0.293 HD
ENDBRANCH  11  23
ENDBRANCH   1   2
BRANCH   1  25
ATOM     25  C   UNL     1      19.142  -1.119  12.616  1.00  0.00     0.339 C 
ATOM     26  C   UNL     1      20.362  -2.058  12.491  1.00  0.00     0.214 C 
ATOM     27  O   UNL     1      18.001  -1.645  11.951  1.00  0.00    -0.332 OA
ATOM     28  C   UNL     1      20.639  -2.386  11.014  1.00  0.00     0.180 C 
ATOM     29  C   UNL     1      18.238  -1.811  10.560  1.00  0.00     0.179 C 
ATOM     30  C   UNL     1      19.349  -2.852  10.310  1.00  0.00     0.177 C 
BRANCH  26  31
ATOM     31  O   UNL     1      20.130  -3.243  13.209  1.00  0.00    -0.384 OA
ATOM     32  H   UNL     1      19.720  -3.890  12.576  1.00  0.00     0.211 HD
ENDBRANCH  26  31
BRANCH  28  33
ATOM     33  O   UNL     1      21.637  -3.371  10.926  1.00  0.00    -0.387 OA
ATOM     34  H   UNL     1      22.504  -2.894  10.839  1.00  0.00     0.211 HD
ENDBRANCH  28  33
BRANCH  29  35
ATOM     35  C   UNL     1      16.930  -2.220   9.875  1.00  0.00     0.191 C 
BRANCH  35  36
ATOM     36  O   UNL     1      15.986  -1.193  10.013  1.00  0.00    -0.394 OA
ATOM     37  H   UNL     1      15.913  -1.014  10.986  1.00  0.00     0.210 HD
ENDBRANCH  35  36
ENDBRANCH  29  35
BRANCH  30  38
ATOM     38  O   UNL     1      18.950  -4.109  10.797  1.00  0.00    -0.387 OA
ATOM     39  H   UNL     1      19.012  -4.747  10.039  1.00  0.00     0.211 HD
ENDBRANCH  30  38
ENDBRANCH   1  25
TORSDOF 11
ENDMDL
MODEL 6
REMARK VINA RESULT:    -4.865     17.873     21.367
REMARK INTER + INTRA:          -7.647
REMARK INTER:                  -7.009
REMARK INTRA:                  -0.638
REMARK UNBOUND:                -0.649
REMARK SMILES O=c1c(O[C@H]2O[C@H](CO)[C@H](O)[C@H](O)[C@@H]2O)c(-c2ccc(O)cc2)oc2cc(O)cc(O)c12
REMARK SMILES IDX 4 1 3 2 16 3 24 4 2 5 25 6 1 7 32 8 26 9 30 10 27 11 29 12
REMARK SMILES IDX 17 13 18 14 19 15 20 16 23 17 22 18 21 19 31 21 28 23 5 25
REMARK SMILES IDX 14 26 6 27 12 28 7 29 10 30 15 31 13 33 8 35 9 36 11 38
REMARK H PARENT 21 20 31 22 28 24 15 32 13 34 9 37 11 39
REMARK Flexibility Score: inf
ROOT
ATOM      1  O   UNL     1      17.360   2.240  11.198  1.00  0.00    -0.454 OA
ENDROOT
BRANCH   1   2
ATOM      2  C   UNL     1      18.249   1.157  11.195  1.00  0.00     0.214 A 
ATOM      3  C   UNL     1      19.569   1.323  11.651  1.00  0.00     0.180 A 
ATOM      4  O   UNL     1      20.383   0.274  11.727  1.00  0.00    -0.452 OA
ATOM      5  C   UNL     1      17.845  -0.109  10.742  1.00  0.00     0.239 A 
ATOM      6  C   UNL     1      20.030  -0.949  11.347  1.00  0.00     0.146 A 
ATOM      7  O   UNL     1      16.690  -0.255  10.256  1.00  0.00    -0.285 OA
ATOM      8  C   UNL     1      18.739  -1.195  10.822  1.00  0.00     0.111 A 
ATOM      9  C   UNL     1      20.953  -1.991  11.468  1.00  0.00     0.094 A 
ATOM     10  C   UNL     1      18.404  -2.507  10.408  1.00  0.00     0.134 A 
ATOM     11  C   UNL     1      20.614  -3.284  11.066  1.00  0.00     0.123 A 
ATOM     12  C   UNL     1      19.345  -3.539  10.533  1.00  0.00     0.093 A 
BRANCH   3  13
ATOM     13  C   UNL     1      20.082   2.639  12.082  1.00  0.00     0.021 A 
ATOM     14  C   UNL     1      19.824   3.797  11.328  1.00  0.00     0.016 A 
ATOM     15  C   UNL     1      20.325   5.034  11.745  1.00  0.00     0.047 A 
ATOM     16  C   UNL     1      21.101   5.125  12.908  1.00  0.00     0.115 A 
ATOM     17  C   UNL     1      20.881   2.733  13.233  1.00  0.00     0.016 A 
ATOM     18  C   UNL     1      21.380   3.971  13.647  1.00  0.00     0.047 A 
BRANCH  16  19
ATOM     19  O   UNL     1      21.602   6.353  13.335  1.00  0.00    -0.508 OA
ATOM     20  H   UNL     1      21.819   6.526  14.309  1.00  0.00     0.293 HD
ENDBRANCH  16  19
ENDBRANCH   3  13
BRANCH  10  21
ATOM     21  O   UNL     1      17.146  -2.792   9.877  1.00  0.00    -0.507 OA
ATOM     22  H   UNL     1      17.032  -3.395   9.069  1.00  0.00     0.293 HD
ENDBRANCH  10  21
BRANCH  11  23
ATOM     23  O   UNL     1      21.547  -4.311  11.201  1.00  0.00    -0.508 OA
ATOM     24  H   UNL     1      22.537  -4.148  11.061  1.00  0.00     0.293 HD
ENDBRANCH  11  23
ENDBRANCH   1   2
BRANCH   1  25
ATOM     25  C   UNL     1      16.182   2.278  12.014  1.00  0.00     0.339 C 
ATOM     26  C   UNL     1      15.444   3.623  11.842  1.00  0.00     0.214 C 
ATOM     27  O   UNL     1      16.501   2.020  13.375  1.00  0.00    -0.332 OA
ATOM     28  C   UNL     1      16.249   4.765  12.485  1.00  0.00     0.180 C 
ATOM     29  C   UNL     1      17.358   3.020  13.909  1.00  0.00     0.179 C 
ATOM     30  C   UNL     1      16.660   4.396  13.925  1.00  0.00     0.177 C 
BRANCH  26  31
ATOM     31  O   UNL     1      14.169   3.548  12.428  1.00  0.00    -0.384 OA
ATOM     32  H   UNL     1      13.705   4.402  12.223  1.00  0.00     0.211 HD
ENDBRANCH  26  31
BRANCH  28  33
ATOM     33  O   UNL     1      15.489   5.946  12.473  1.00  0.00    -0.387 OA
ATOM     34  H   UNL     1      16.088   6.668  12.146  1.00  0.00     0.211 HD
ENDBRANCH  28  33
BRANCH  29  35
ATOM     35  C   UNL     1      17.797   2.604  15.317  1.00  0.00     0.191 C 
BRANCH  35  36
ATOM     36  O   UNL     1      18.070   1.229  15.337  1.00  0.00    -0.394 OA
ATOM     37  H   UNL     1      17.992   0.946  16.285  1.00  0.00     0.210 HD
ENDBRANCH  35  36
ENDBRANCH  29  35
BRANCH  30  38
ATOM     38  O   UNL     1      15.532   4.353  14.762  1.00  0.00    -0.387 OA
ATOM     39  H   UNL     1      15.863   4.413  15.697  1.00  0.00     0.211 HD
ENDBRANCH  30  38
ENDBRANCH   1  25
TORSDOF 11
ENDMDL
MODEL 7
REMARK VINA RESULT:    -4.783     18.129     21.636
REMARK INTER + INTRA:          -7.529
REMARK INTER:                  -6.329
REMARK INTRA:                  -1.200
REMARK UNBOUND:                -0.649
REMARK SMILES O=c1c(O[C@H]2O[C@H](CO)[C@H](O)[C@H](O)[C@@H]2O)c(-c2ccc(O)cc2)oc2cc(O)cc(O)c12
REMARK SMILES IDX 4 1 3 2 16 3 24 4 2 5 25 6 1 7 32 8 26 9 30 10 27 11 29 12
REMARK SMILES IDX 17 13 18 14 19 15 20 16 23 17 22 18 21 19 31 21 28 23 5 25
REMARK SMILES IDX 14 26 6 27 12 28 7 29 10 30 15 31 13 33 8 35 9 36 11 38
REMARK H PARENT 21 20 31 22 28 24 15 32 13 34 9 37 11 39
REMARK Flexibility Score: inf
ROOT
ATOM      1  O   UNL     1      17.766   2.543  12.134  1.00  0.00    -0.454 OA
ENDROOT
BRANCH   1   2
ATOM      2  C   UNL     1      18.396   1.364  11.714  1.00  0.00     0.214 A 
ATOM      3  C   UNL     1      19.782   1.199  11.890  1.00  0.00     0.180 A 
ATOM      4  O   UNL     1      20.360   0.046  11.568  1.00  0.00    -0.452 OA
ATOM      5  C   UNL     1      17.663   0.327  11.114  1.00  0.00     0.239 A 
ATOM      6  C   UNL     1      19.698  -0.976  11.035  1.00  0.00     0.146 A 
ATOM      7  O   UNL     1      16.435   0.492  10.877  1.00  0.00    -0.285 OA
ATOM      8  C   UNL     1      18.312  -0.876  10.770  1.00  0.00     0.111 A 
ATOM      9  C   UNL     1      20.391  -2.151  10.734  1.00  0.00     0.094 A 
ATOM     10  C   UNL     1      17.642  -1.976  10.183  1.00  0.00     0.134 A 
ATOM     11  C   UNL     1      19.724  -3.236  10.162  1.00  0.00     0.123 A 
ATOM     12  C   UNL     1      18.355  -3.146   9.884  1.00  0.00     0.093 A 
BRANCH   3  13
ATOM     13  C   UNL     1      20.625   2.271  12.455  1.00  0.00     0.021 A 
ATOM     14  C   UNL     1      20.886   2.334  13.835  1.00  0.00     0.016 A 
ATOM     15  C   UNL     1      21.680   3.361  14.355  1.00  0.00     0.047 A 
ATOM     16  C   UNL     1      22.206   4.344  13.506  1.00  0.00     0.115 A 
ATOM     17  C   UNL     1      21.135   3.272  11.613  1.00  0.00     0.016 A 
ATOM     18  C   UNL     1      21.928   4.297  12.136  1.00  0.00     0.047 A 
BRANCH  16  19
ATOM     19  O   UNL     1      23.002   5.369  14.012  1.00  0.00    -0.508 OA
ATOM     20  H   UNL     1      22.656   6.008  14.719  1.00  0.00     0.293 HD
ENDBRANCH  16  19
ENDBRANCH   3  13
BRANCH  10  21
ATOM     21  O   UNL     1      16.278  -1.917   9.898  1.00  0.00    -0.507 OA
ATOM     22  H   UNL     1      15.772  -1.038   9.894  1.00  0.00     0.293 HD
ENDBRANCH  10  21
BRANCH  11  23
ATOM     23  O   UNL     1      20.432  -4.402   9.875  1.00  0.00    -0.508 OA
ATOM     24  H   UNL     1      21.281  -4.384   9.322  1.00  0.00     0.293 HD
ENDBRANCH  11  23
ENDBRANCH   1   2
BRANCH   1  25
ATOM     25  C   UNL     1      17.762   3.745  11.353  1.00  0.00     0.339 C 
ATOM     26  C   UNL     1      17.678   4.987  12.265  1.00  0.00     0.214 C 
ATOM     27  O   UNL     1      16.712   3.721  10.394  1.00  0.00    -0.332 OA
ATOM     28  C   UNL     1      16.286   5.086  12.912  1.00  0.00     0.180 C 
ATOM     29  C   UNL     1      15.437   3.675  11.017  1.00  0.00     0.179 C 
ATOM     30  C   UNL     1      15.180   4.951  11.846  1.00  0.00     0.177 C 
BRANCH  26  31
ATOM     31  O   UNL     1      17.942   6.148  11.520  1.00  0.00    -0.384 OA
ATOM     32  H   UNL     1      18.438   6.769  12.116  1.00  0.00     0.211 HD
ENDBRANCH  26  31
BRANCH  28  33
ATOM     33  O   UNL     1      16.167   6.306  13.599  1.00  0.00    -0.387 OA
ATOM     34  H   UNL     1      15.257   6.324  13.996  1.00  0.00     0.211 HD
ENDBRANCH  28  33
BRANCH  29  35
ATOM     35  C   UNL     1      14.361   3.486   9.942  1.00  0.00     0.191 C 
BRANCH  35  36
ATOM     36  O   UNL     1      13.118   3.897  10.444  1.00  0.00    -0.394 OA
ATOM     37  H   UNL     1      13.043   3.503  11.352  1.00  0.00     0.210 HD
ENDBRANCH  35  36
ENDBRANCH  29  35
BRANCH  30  38
ATOM     38  O   UNL     1      15.170   6.077  11.004  1.00  0.00    -0.387 OA
ATOM     39  H   UNL     1      14.318   6.050  10.495  1.00  0.00     0.211 HD
ENDBRANCH  30  38
ENDBRANCH   1  25
TORSDOF 11
ENDMDL
MODEL 8
REMARK VINA RESULT:    -4.691     18.152     20.993
REMARK INTER + INTRA:          -7.396
REMARK INTER:                  -6.129
REMARK INTRA:                  -1.267
REMARK UNBOUND:                -0.649
REMARK SMILES O=c1c(O[C@H]2O[C@H](CO)[C@H](O)[C@H](O)[C@@H]2O)c(-c2ccc(O)cc2)oc2cc(O)cc(O)c12
REMARK SMILES IDX 4 1 3 2 16 3 24 4 2 5 25 6 1 7 32 8 26 9 30 10 27 11 29 12
REMARK SMILES IDX 17 13 18 14 19 15 20 16 23 17 22 18 21 19 31 21 28 23 5 25
REMARK SMILES IDX 14 26 6 27 12 28 7 29 10 30 15 31 13 33 8 35 9 36 11 38
REMARK H PARENT 21 20 31 22 28 24 15 32 13 34 9 37 11 39
REMARK Flexibility Score: inf
ROOT
ATOM      1  O   UNL     1      19.482  -0.081  14.464  1.00  0.00    -0.454 OA
ENDROOT
BRANCH   1   2
ATOM      2  C   UNL     1      18.629   0.661  13.636  1.00  0.00     0.214 A 
ATOM      3  C   UNL     1      18.519   0.347  12.269  1.00  0.00     0.180 A 
ATOM      4  O   UNL     1      17.646   0.997  11.506  1.00  0.00    -0.452 OA
ATOM      5  C   UNL     1      17.870   1.725  14.148  1.00  0.00     0.239 A 
ATOM      6  C   UNL     1      16.878   1.983  11.958  1.00  0.00     0.146 A 
ATOM      7  O   UNL     1      18.017   2.069  15.352  1.00  0.00    -0.285 OA
ATOM      8  C   UNL     1      16.965   2.403  13.306  1.00  0.00     0.111 A 
ATOM      9  C   UNL     1      15.986   2.606  11.081  1.00  0.00     0.094 A 
ATOM     10  C   UNL     1      16.147   3.470  13.749  1.00  0.00     0.134 A 
ATOM     11  C   UNL     1      15.176   3.652  11.525  1.00  0.00     0.123 A 
ATOM     12  C   UNL     1      15.261   4.086  12.853  1.00  0.00     0.093 A 
BRANCH   3  13
ATOM     13  C   UNL     1      19.334  -0.717  11.649  1.00  0.00     0.021 A 
ATOM     14  C   UNL     1      20.441  -0.401  10.842  1.00  0.00     0.016 A 
ATOM     15  C   UNL     1      21.197  -1.420  10.254  1.00  0.00     0.047 A 
ATOM     16  C   UNL     1      20.846  -2.762  10.452  1.00  0.00     0.115 A 
ATOM     17  C   UNL     1      18.973  -2.062  11.823  1.00  0.00     0.016 A 
ATOM     18  C   UNL     1      19.731  -3.078  11.234  1.00  0.00     0.047 A 
BRANCH  16  19
ATOM     19  O   UNL     1      21.595  -3.785   9.875  1.00  0.00    -0.508 OA
ATOM     20  H   UNL     1      21.504  -4.746  10.184  1.00  0.00     0.293 HD
ENDBRANCH  16  19
ENDBRANCH   3  13
BRANCH  10  21
ATOM     21  O   UNL     1      16.207   3.921  15.067  1.00  0.00    -0.507 OA
ATOM     22  H   UNL     1      15.586   4.645  15.412  1.00  0.00     0.293 HD
ENDBRANCH  10  21
BRANCH  11  23
ATOM     23  O   UNL     1      14.287   4.256  10.636  1.00  0.00    -0.508 OA
ATOM     24  H   UNL     1      14.573   5.025  10.042  1.00  0.00     0.293 HD
ENDBRANCH  11  23
ENDBRANCH   1   2
BRANCH   1  25
ATOM     25  C   UNL     1      20.848   0.282  14.700  1.00  0.00     0.339 C 
ATOM     26  C   UNL     1      21.798  -0.842  14.234  1.00  0.00     0.214 C 
ATOM     27  O   UNL     1      21.055   0.617  16.066  1.00  0.00    -0.332 OA
ATOM     28  C   UNL     1      21.684  -2.062  15.164  1.00  0.00     0.180 C 
ATOM     29  C   UNL     1      20.811  -0.493  16.918  1.00  0.00     0.179 C 
ATOM     30  C   UNL     1      21.811  -1.634  16.640  1.00  0.00     0.177 C 
BRANCH  26  31
ATOM     31  O   UNL     1      23.124  -0.374  14.219  1.00  0.00    -0.384 OA
ATOM     32  H   UNL     1      23.341  -0.148  13.277  1.00  0.00     0.211 HD
ENDBRANCH  26  31
BRANCH  28  33
ATOM     33  O   UNL     1      22.672  -3.005  14.833  1.00  0.00    -0.387 OA
ATOM     34  H   UNL     1      23.549  -2.550  14.939  1.00  0.00     0.211 HD
ENDBRANCH  28  33
BRANCH  29  35
ATOM     35  C   UNL     1      20.888  -0.031  18.377  1.00  0.00     0.191 C 
BRANCH  35  36
ATOM     36  O   UNL     1      21.629  -0.956  19.125  1.00  0.00    -0.394 OA
ATOM     37  H   UNL     1      21.406  -0.784  20.076  1.00  0.00     0.210 HD
ENDBRANCH  35  36
ENDBRANCH  29  35
BRANCH  30  38
ATOM     38  O   UNL     1      23.121  -1.204  16.916  1.00  0.00    -0.387 OA
ATOM     39  H   UNL     1      23.527  -0.938  16.050  1.00  0.00     0.211 HD
ENDBRANCH  30  38
ENDBRANCH   1  25
TORSDOF 11
ENDMDL
