MODEL 1
REMARK VINA RESULT:    -8.189      0.000      0.000
REMARK INTER + INTRA:          -9.892
REMARK INTER:                  -9.625
REMARK INTRA:                  -0.266
REMARK UNBOUND:                -0.266
REMARK SMILES O=c1cc(-c2ccc(O)c(O)c2)oc2cc(O)cc(O)c12
REMARK SMILES IDX 4 1 3 2 2 3 1 4 21 5 19 6 18 7 16 8 15 9 14 10 13 11 5 12
REMARK SMILES IDX 6 13 7 14 8 15 12 16 10 17 9 18 11 20 20 22 17 24
REMARK H PARENT 9 19 11 21 20 23 17 25
REMARK Flexibility Score: inf
ROOT
ATOM      1  C   UNL     1      11.276 -26.198   6.670  1.00  0.00     0.138 A 
ATOM      2  C   UNL     1      11.580 -26.770   5.427  1.00  0.00     0.100 A 
ATOM      3  C   UNL     1      12.688 -27.609   5.305  1.00  0.00     0.197 A 
ATOM      4  O   UNL     1      12.970 -28.058   4.165  1.00  0.00    -0.289 OA
ATOM      5  C   UNL     1      13.477 -27.902   6.443  1.00  0.00     0.107 A 
ATOM      6  C   UNL     1      14.605 -28.776   6.447  1.00  0.00     0.134 A 
ATOM      7  C   UNL     1      15.380 -28.898   7.607  1.00  0.00     0.093 A 
ATOM      8  C   UNL     1      15.031 -28.224   8.780  1.00  0.00     0.123 A 
ATOM      9  C   UNL     1      13.901 -27.411   8.802  1.00  0.00     0.094 A 
ATOM     10  C   UNL     1      13.127 -27.241   7.652  1.00  0.00     0.146 A 
ATOM     11  O   UNL     1      12.065 -26.445   7.710  1.00  0.00    -0.456 OA
ENDROOT
BRANCH   1  12
ATOM     12  C   UNL     1      10.109 -25.299   6.855  1.00  0.00     0.021 A 
ATOM     13  C   UNL     1       9.042 -25.710   7.670  1.00  0.00     0.016 A 
ATOM     14  C   UNL     1       7.932 -24.886   7.854  1.00  0.00     0.051 A 
ATOM     15  C   UNL     1       7.854 -23.640   7.224  1.00  0.00     0.157 A 
ATOM     16  C   UNL     1      10.025 -24.052   6.208  1.00  0.00     0.062 A 
ATOM     17  C   UNL     1       8.912 -23.220   6.385  1.00  0.00     0.158 A 
BRANCH  15  18
ATOM     18  O   UNL     1       6.718 -22.861   7.454  1.00  0.00    -0.504 OA
ATOM     19  H   UNL     1       6.419 -22.555   8.368  1.00  0.00     0.293 HD
ENDBRANCH  15  18
BRANCH  17  20
ATOM     20  O   UNL     1       8.898 -21.998   5.710  1.00  0.00    -0.504 OA
ATOM     21  H   UNL     1       9.552 -21.248   5.885  1.00  0.00     0.293 HD
ENDBRANCH  17  20
ENDBRANCH   1  12
BRANCH   6  22
ATOM     22  O   UNL     1      14.989 -29.560   5.355  1.00  0.00    -0.507 OA
ATOM     23  H   UNL     1      14.686 -30.508   5.191  1.00  0.00     0.293 HD
ENDBRANCH   6  22
BRANCH   8  24
ATOM     24  O   UNL     1      15.800 -28.362   9.934  1.00  0.00    -0.508 OA
ATOM     25  H   UNL     1      16.707 -28.812   9.916  1.00  0.00     0.293 HD
ENDBRANCH   8  24
TORSDOF 5
ENDMDL
MODEL 2
REMARK VINA RESULT:    -7.977      1.135      1.143
REMARK INTER + INTRA:          -9.642
REMARK INTER:                  -9.353
REMARK INTRA:                  -0.289
REMARK UNBOUND:                -0.266
REMARK SMILES O=c1cc(-c2ccc(O)c(O)c2)oc2cc(O)cc(O)c12
REMARK SMILES IDX 4 1 3 2 2 3 1 4 21 5 19 6 18 7 16 8 15 9 14 10 13 11 5 12
REMARK SMILES IDX 6 13 7 14 8 15 12 16 10 17 9 18 11 20 20 22 17 24
REMARK H PARENT 9 19 11 21 20 23 17 25
REMARK Flexibility Score: inf
ROOT
ATOM      1  C   UNL     1      11.179 -26.177   7.218  1.00  0.00     0.138 A 
ATOM      2  C   UNL     1      12.040 -26.224   6.113  1.00  0.00     0.100 A 
ATOM      3  C   UNL     1      13.135 -27.089   6.128  1.00  0.00     0.197 A 
ATOM      4  O   UNL     1      13.924 -27.064   5.149  1.00  0.00    -0.289 OA
ATOM      5  C   UNL     1      13.349 -27.934   7.243  1.00  0.00     0.107 A 
ATOM      6  C   UNL     1      14.408 -28.884   7.351  1.00  0.00     0.134 A 
ATOM      7  C   UNL     1      14.589 -29.582   8.552  1.00  0.00     0.093 A 
ATOM      8  C   UNL     1      13.712 -29.408   9.626  1.00  0.00     0.123 A 
ATOM      9  C   UNL     1      12.643 -28.523   9.511  1.00  0.00     0.094 A 
ATOM     10  C   UNL     1      12.457 -27.786   8.339  1.00  0.00     0.146 A 
ATOM     11  O   UNL     1      11.433 -26.940   8.275  1.00  0.00    -0.456 OA
ENDROOT
BRANCH   1  12
ATOM     12  C   UNL     1       9.999 -25.276   7.254  1.00  0.00     0.021 A 
ATOM     13  C   UNL     1       8.882 -25.629   8.029  1.00  0.00     0.016 A 
ATOM     14  C   UNL     1       7.759 -24.803   8.073  1.00  0.00     0.051 A 
ATOM     15  C   UNL     1       7.719 -23.612   7.340  1.00  0.00     0.157 A 
ATOM     16  C   UNL     1       9.952 -24.086   6.504  1.00  0.00     0.062 A 
ATOM     17  C   UNL     1       8.828 -23.253   6.541  1.00  0.00     0.158 A 
BRANCH  15  18
ATOM     18  O   UNL     1       6.567 -22.828   7.433  1.00  0.00    -0.504 OA
ATOM     19  H   UNL     1       5.716 -23.012   6.923  1.00  0.00     0.293 HD
ENDBRANCH  15  18
BRANCH  17  20
ATOM     20  O   UNL     1       8.854 -22.089   5.769  1.00  0.00    -0.504 OA
ATOM     21  H   UNL     1       9.676 -21.517   5.636  1.00  0.00     0.293 HD
ENDBRANCH  17  20
ENDBRANCH   1  12
BRANCH   6  22
ATOM     22  O   UNL     1      15.287 -29.196   6.310  1.00  0.00    -0.507 OA
ATOM     23  H   UNL     1      15.512 -30.132   6.006  1.00  0.00     0.293 HD
ENDBRANCH   6  22
BRANCH   8  24
ATOM     24  O   UNL     1      13.891 -30.118  10.812  1.00  0.00    -0.508 OA
ATOM     25  H   UNL     1      13.149 -30.198  11.497  1.00  0.00     0.293 HD
ENDBRANCH   8  24
TORSDOF 5
ENDMDL
MODEL 3
REMARK VINA RESULT:    -7.647      2.214      3.384
REMARK INTER + INTRA:          -9.254
REMARK INTER:                  -8.960
REMARK INTRA:                  -0.294
REMARK UNBOUND:                -0.266
REMARK SMILES O=c1cc(-c2ccc(O)c(O)c2)oc2cc(O)cc(O)c12
REMARK SMILES IDX 4 1 3 2 2 3 1 4 21 5 19 6 18 7 16 8 15 9 14 10 13 11 5 12
REMARK SMILES IDX 6 13 7 14 8 15 12 16 10 17 9 18 11 20 20 22 17 24
REMARK H PARENT 9 19 11 21 20 23 17 25
REMARK Flexibility Score: inf
ROOT
ATOM      1  C   UNL     1      10.612 -26.803   8.595  1.00  0.00     0.138 A 
ATOM      2  C   UNL     1       9.924 -27.722   9.397  1.00  0.00     0.100 A 
ATOM      3  C   UNL     1      10.616 -28.787   9.976  1.00  0.00     0.197 A 
ATOM      4  O   UNL     1       9.960 -29.631  10.640  1.00  0.00    -0.289 OA
ATOM      5  C   UNL     1      12.011 -28.912   9.775  1.00  0.00     0.107 A 
ATOM      6  C   UNL     1      12.827 -29.932  10.348  1.00  0.00     0.134 A 
ATOM      7  C   UNL     1      14.176 -30.024   9.983  1.00  0.00     0.093 A 
ATOM      8  C   UNL     1      14.752 -29.095   9.113  1.00  0.00     0.123 A 
ATOM      9  C   UNL     1      13.977 -28.062   8.591  1.00  0.00     0.094 A 
ATOM     10  C   UNL     1      12.620 -27.965   8.908  1.00  0.00     0.146 A 
ATOM     11  O   UNL     1      11.912 -26.973   8.376  1.00  0.00    -0.456 OA
ENDROOT
BRANCH   1  12
ATOM     12  C   UNL     1       9.925 -25.652   7.956  1.00  0.00     0.021 A 
ATOM     13  C   UNL     1      10.555 -24.969   6.903  1.00  0.00     0.016 A 
ATOM     14  C   UNL     1       9.932 -23.880   6.291  1.00  0.00     0.051 A 
ATOM     15  C   UNL     1       8.676 -23.441   6.720  1.00  0.00     0.157 A 
ATOM     16  C   UNL     1       8.668 -25.201   8.398  1.00  0.00     0.062 A 
ATOM     17  C   UNL     1       8.038 -24.108   7.792  1.00  0.00     0.158 A 
BRANCH  15  18
ATOM     18  O   UNL     1       8.105 -22.350   6.062  1.00  0.00    -0.504 OA
ATOM     19  H   UNL     1       8.430 -21.992   5.176  1.00  0.00     0.293 HD
ENDBRANCH  15  18
BRANCH  17  20
ATOM     20  O   UNL     1       6.791 -23.718   8.286  1.00  0.00    -0.504 OA
ATOM     21  H   UNL     1       6.555 -22.768   8.539  1.00  0.00     0.293 HD
ENDBRANCH  17  20
ENDBRANCH   1  12
BRANCH   6  22
ATOM     22  O   UNL     1      12.372 -30.858  11.292  1.00  0.00    -0.507 OA
ATOM     23  H   UNL     1      12.631 -30.862  12.267  1.00  0.00     0.293 HD
ENDBRANCH   6  22
BRANCH   8  24
ATOM     24  O   UNL     1      16.099 -29.184   8.767  1.00  0.00    -0.508 OA
ATOM     25  H   UNL     1      16.813 -29.363   9.463  1.00  0.00     0.293 HD
ENDBRANCH   8  24
TORSDOF 5
ENDMDL
MODEL 4
REMARK VINA RESULT:    -7.545      2.619      3.495
REMARK INTER + INTRA:          -9.134
REMARK INTER:                  -8.820
REMARK INTRA:                  -0.314
REMARK UNBOUND:                -0.266
REMARK SMILES O=c1cc(-c2ccc(O)c(O)c2)oc2cc(O)cc(O)c12
REMARK SMILES IDX 4 1 3 2 2 3 1 4 21 5 19 6 18 7 16 8 15 9 14 10 13 11 5 12
REMARK SMILES IDX 6 13 7 14 8 15 12 16 10 17 9 18 11 20 20 22 17 24
REMARK H PARENT 9 19 11 21 20 23 17 25
REMARK Flexibility Score: inf
ROOT
ATOM      1  C   UNL     1      11.187 -26.629   8.354  1.00  0.00     0.138 A 
ATOM      2  C   UNL     1      12.558 -26.742   8.085  1.00  0.00     0.100 A 
ATOM      3  C   UNL     1      13.290 -27.785   8.653  1.00  0.00     0.197 A 
ATOM      4  O   UNL     1      14.530 -27.824   8.443  1.00  0.00    -0.289 OA
ATOM      5  C   UNL     1      12.638 -28.738   9.471  1.00  0.00     0.107 A 
ATOM      6  C   UNL     1      13.274 -29.866  10.070  1.00  0.00     0.134 A 
ATOM      7  C   UNL     1      12.552 -30.676  10.955  1.00  0.00     0.093 A 
ATOM      8  C   UNL     1      11.200 -30.434  11.214  1.00  0.00     0.123 A 
ATOM      9  C   UNL     1      10.556 -29.368  10.592  1.00  0.00     0.094 A 
ATOM     10  C   UNL     1      11.258 -28.521   9.731  1.00  0.00     0.146 A 
ATOM     11  O   UNL     1      10.610 -27.505   9.169  1.00  0.00    -0.456 OA
ENDROOT
BRANCH   1  12
ATOM     12  C   UNL     1      10.361 -25.540   7.775  1.00  0.00     0.021 A 
ATOM     13  C   UNL     1      10.846 -24.816   6.673  1.00  0.00     0.016 A 
ATOM     14  C   UNL     1      10.091 -23.783   6.116  1.00  0.00     0.051 A 
ATOM     15  C   UNL     1       8.844 -23.442   6.648  1.00  0.00     0.157 A 
ATOM     16  C   UNL     1       9.113 -25.186   8.320  1.00  0.00     0.062 A 
ATOM     17  C   UNL     1       8.351 -24.149   7.768  1.00  0.00     0.158 A 
BRANCH  15  18
ATOM     18  O   UNL     1       8.137 -22.402   6.040  1.00  0.00    -0.504 OA
ATOM     19  H   UNL     1       8.048 -21.475   6.430  1.00  0.00     0.293 HD
ENDBRANCH  15  18
BRANCH  17  20
ATOM     20  O   UNL     1       7.123 -23.855   8.364  1.00  0.00    -0.504 OA
ATOM     21  H   UNL     1       6.604 -23.004   8.199  1.00  0.00     0.293 HD
ENDBRANCH  17  20
ENDBRANCH   1  12
BRANCH   6  22
ATOM     22  O   UNL     1      14.594 -30.247   9.813  1.00  0.00    -0.507 OA
ATOM     23  H   UNL     1      15.373 -30.082  10.433  1.00  0.00     0.293 HD
ENDBRANCH   6  22
BRANCH   8  24
ATOM     24  O   UNL     1      10.485 -31.255  12.085  1.00  0.00    -0.508 OA
ATOM     25  H   UNL     1      10.357 -31.008  13.059  1.00  0.00     0.293 HD
ENDBRANCH   8  24
TORSDOF 5
ENDMDL
MODEL 5
REMARK VINA RESULT:    -7.379      1.264      2.789
REMARK INTER + INTRA:          -8.939
REMARK INTER:                  -8.659
REMARK INTRA:                  -0.280
REMARK UNBOUND:                -0.266
REMARK SMILES O=c1cc(-c2ccc(O)c(O)c2)oc2cc(O)cc(O)c12
REMARK SMILES IDX 4 1 3 2 2 3 1 4 21 5 19 6 18 7 16 8 15 9 14 10 13 11 5 12
REMARK SMILES IDX 6 13 7 14 8 15 12 16 10 17 9 18 11 20 20 22 17 24
REMARK H PARENT 9 19 11 21 20 23 17 25
REMARK Flexibility Score: inf
ROOT
ATOM      1  C   UNL     1      10.985 -26.070   6.995  1.00  0.00     0.138 A 
ATOM      2  C   UNL     1      11.723 -26.467   8.118  1.00  0.00     0.100 A 
ATOM      3  C   UNL     1      12.809 -27.329   7.961  1.00  0.00     0.197 A 
ATOM      4  O   UNL     1      13.415 -27.716   8.994  1.00  0.00    -0.289 OA
ATOM      5  C   UNL     1      13.176 -27.770   6.667  1.00  0.00     0.107 A 
ATOM      6  C   UNL     1      14.289 -28.616   6.382  1.00  0.00     0.134 A 
ATOM      7  C   UNL     1      14.485 -29.082   5.076  1.00  0.00     0.093 A 
ATOM      8  C   UNL     1      13.643 -28.683   4.035  1.00  0.00     0.123 A 
ATOM      9  C   UNL     1      12.586 -27.814   4.293  1.00  0.00     0.094 A 
ATOM     10  C   UNL     1      12.344 -27.359   5.591  1.00  0.00     0.146 A 
ATOM     11  O   UNL     1      11.316 -26.542   5.798  1.00  0.00    -0.456 OA
ENDROOT
BRANCH   1  12
ATOM     12  C   UNL     1       9.821 -25.155   7.106  1.00  0.00     0.021 A 
ATOM     13  C   UNL     1       8.737 -25.510   7.925  1.00  0.00     0.016 A 
ATOM     14  C   UNL     1       7.630 -24.669   8.040  1.00  0.00     0.051 A 
ATOM     15  C   UNL     1       7.572 -23.463   7.335  1.00  0.00     0.157 A 
ATOM     16  C   UNL     1       9.757 -23.948   6.385  1.00  0.00     0.062 A 
ATOM     17  C   UNL     1       8.648 -23.100   6.492  1.00  0.00     0.158 A 
BRANCH  15  18
ATOM     18  O   UNL     1       6.437 -22.665   7.498  1.00  0.00    -0.504 OA
ATOM     19  H   UNL     1       5.632 -22.933   8.046  1.00  0.00     0.293 HD
ENDBRANCH  15  18
BRANCH  17  20
ATOM     20  O   UNL     1       8.654 -21.921   5.746  1.00  0.00    -0.504 OA
ATOM     21  H   UNL     1       8.715 -21.890   4.737  1.00  0.00     0.293 HD
ENDBRANCH  17  20
ENDBRANCH   1  12
BRANCH   6  22
ATOM     22  O   UNL     1      15.238 -29.006   7.332  1.00  0.00    -0.507 OA
ATOM     23  H   UNL     1      15.176 -28.814   8.321  1.00  0.00     0.293 HD
ENDBRANCH   6  22
BRANCH   8  24
ATOM     24  O   UNL     1      13.854 -29.140   2.735  1.00  0.00    -0.508 OA
ATOM     25  H   UNL     1      13.198 -29.763   2.280  1.00  0.00     0.293 HD
ENDBRANCH   8  24
TORSDOF 5
ENDMDL
MODEL 6
REMARK VINA RESULT:    -7.319      2.380      2.960
REMARK INTER + INTRA:          -8.869
REMARK INTER:                  -8.595
REMARK INTRA:                  -0.274
REMARK UNBOUND:                -0.266
REMARK SMILES O=c1cc(-c2ccc(O)c(O)c2)oc2cc(O)cc(O)c12
REMARK SMILES IDX 4 1 3 2 2 3 1 4 21 5 19 6 18 7 16 8 15 9 14 10 13 11 5 12
REMARK SMILES IDX 6 13 7 14 8 15 12 16 10 17 9 18 11 20 20 22 17 24
REMARK H PARENT 9 19 11 21 20 23 17 25
REMARK Flexibility Score: inf
ROOT
ATOM      1  C   UNL     1      11.551 -26.275   8.678  1.00  0.00     0.138 A 
ATOM      2  C   UNL     1      11.705 -27.668   8.695  1.00  0.00     0.100 A 
ATOM      3  C   UNL     1      12.984 -28.221   8.766  1.00  0.00     0.197 A 
ATOM      4  O   UNL     1      13.093 -29.473   8.718  1.00  0.00    -0.289 OA
ATOM      5  C   UNL     1      14.113 -27.372   8.852  1.00  0.00     0.107 A 
ATOM      6  C   UNL     1      15.462 -27.824   8.970  1.00  0.00     0.134 A 
ATOM      7  C   UNL     1      16.507 -26.893   8.928  1.00  0.00     0.093 A 
ATOM      8  C   UNL     1      16.249 -25.523   8.835  1.00  0.00     0.123 A 
ATOM      9  C   UNL     1      14.934 -25.069   8.775  1.00  0.00     0.094 A 
ATOM     10  C   UNL     1      13.870 -25.974   8.778  1.00  0.00     0.146 A 
ATOM     11  O   UNL     1      12.631 -25.501   8.704  1.00  0.00    -0.456 OA
ENDROOT
BRANCH   1  12
ATOM     12  C   UNL     1      10.214 -25.634   8.604  1.00  0.00     0.021 A 
ATOM     13  C   UNL     1       9.418 -25.824   7.463  1.00  0.00     0.016 A 
ATOM     14  C   UNL     1       8.161 -25.227   7.367  1.00  0.00     0.051 A 
ATOM     15  C   UNL     1       7.672 -24.421   8.400  1.00  0.00     0.157 A 
ATOM     16  C   UNL     1       9.729 -24.811   9.637  1.00  0.00     0.062 A 
ATOM     17  C   UNL     1       8.469 -24.206   9.548  1.00  0.00     0.158 A 
BRANCH  15  18
ATOM     18  O   UNL     1       6.404 -23.857   8.244  1.00  0.00    -0.504 OA
ATOM     19  H   UNL     1       6.211 -22.870   8.324  1.00  0.00     0.293 HD
ENDBRANCH  15  18
BRANCH  17  20
ATOM     20  O   UNL     1       8.056 -23.401  10.611  1.00  0.00    -0.504 OA
ATOM     21  H   UNL     1       7.248 -22.795  10.582  1.00  0.00     0.293 HD
ENDBRANCH  17  20
ENDBRANCH   1  12
BRANCH   6  22
ATOM     22  O   UNL     1      15.825 -29.161   9.152  1.00  0.00    -0.507 OA
ATOM     23  H   UNL     1      16.720 -29.555   8.904  1.00  0.00     0.293 HD
ENDBRANCH   6  22
BRANCH   8  24
ATOM     24  O   UNL     1      17.295 -24.603   8.810  1.00  0.00    -0.508 OA
ATOM     25  H   UNL     1      18.261 -24.896   8.893  1.00  0.00     0.293 HD
ENDBRANCH   8  24
TORSDOF 5
ENDMDL
MODEL 7
REMARK VINA RESULT:    -7.201      1.636      2.794
REMARK INTER + INTRA:          -8.730
REMARK INTER:                  -8.463
REMARK INTRA:                  -0.267
REMARK UNBOUND:                -0.266
REMARK SMILES O=c1cc(-c2ccc(O)c(O)c2)oc2cc(O)cc(O)c12
REMARK SMILES IDX 4 1 3 2 2 3 1 4 21 5 19 6 18 7 16 8 15 9 14 10 13 11 5 12
REMARK SMILES IDX 6 13 7 14 8 15 12 16 10 17 9 18 11 20 20 22 17 24
REMARK H PARENT 9 19 11 21 20 23 17 25
REMARK Flexibility Score: inf
ROOT
ATOM      1  C   UNL     1      11.562 -25.400   8.362  1.00  0.00     0.138 A 
ATOM      2  C   UNL     1      12.532 -24.747   9.133  1.00  0.00     0.100 A 
ATOM      3  C   UNL     1      13.751 -25.378   9.388  1.00  0.00     0.197 A 
ATOM      4  O   UNL     1      14.577 -24.794  10.135  1.00  0.00    -0.289 OA
ATOM      5  C   UNL     1      14.009 -26.657   8.839  1.00  0.00     0.107 A 
ATOM      6  C   UNL     1      15.230 -27.378   8.998  1.00  0.00     0.134 A 
ATOM      7  C   UNL     1      15.328 -28.686   8.508  1.00  0.00     0.093 A 
ATOM      8  C   UNL     1      14.270 -29.276   7.812  1.00  0.00     0.123 A 
ATOM      9  C   UNL     1      13.093 -28.561   7.604  1.00  0.00     0.094 A 
ATOM     10  C   UNL     1      12.952 -27.267   8.112  1.00  0.00     0.146 A 
ATOM     11  O   UNL     1      11.807 -26.623   7.905  1.00  0.00    -0.456 OA
ENDROOT
BRANCH   1  12
ATOM     12  C   UNL     1      10.249 -24.774   8.060  1.00  0.00     0.021 A 
ATOM     13  C   UNL     1       9.122 -25.132   8.817  1.00  0.00     0.016 A 
ATOM     14  C   UNL     1       7.877 -24.563   8.549  1.00  0.00     0.051 A 
ATOM     15  C   UNL     1       7.724 -23.634   7.514  1.00  0.00     0.157 A 
ATOM     16  C   UNL     1      10.093 -23.851   7.009  1.00  0.00     0.062 A 
ATOM     17  C   UNL     1       8.846 -23.278   6.731  1.00  0.00     0.158 A 
BRANCH  15  18
ATOM     18  O   UNL     1       6.452 -23.098   7.301  1.00  0.00    -0.504 OA
ATOM     19  H   UNL     1       6.256 -22.352   6.649  1.00  0.00     0.293 HD
ENDBRANCH  15  18
BRANCH  17  20
ATOM     20  O   UNL     1       8.768 -22.371   5.672  1.00  0.00    -0.504 OA
ATOM     21  H   UNL     1       9.368 -21.565   5.572  1.00  0.00     0.293 HD
ENDBRANCH  17  20
ENDBRANCH   1  12
BRANCH   6  22
ATOM     22  O   UNL     1      16.375 -26.851   9.602  1.00  0.00    -0.507 OA
ATOM     23  H   UNL     1      17.124 -27.401   9.995  1.00  0.00     0.293 HD
ENDBRANCH   6  22
BRANCH   8  24
ATOM     24  O   UNL     1      14.381 -30.573   7.315  1.00  0.00    -0.508 OA
ATOM     25  H   UNL     1      13.570 -31.171   7.209  1.00  0.00     0.293 HD
ENDBRANCH   8  24
TORSDOF 5
ENDMDL
MODEL 8
REMARK VINA RESULT:    -7.147      2.887      6.866
REMARK INTER + INTRA:          -8.667
REMARK INTER:                  -8.399
REMARK INTRA:                  -0.268
REMARK UNBOUND:                -0.266
REMARK SMILES O=c1cc(-c2ccc(O)c(O)c2)oc2cc(O)cc(O)c12
REMARK SMILES IDX 4 1 3 2 2 3 1 4 21 5 19 6 18 7 16 8 15 9 14 10 13 11 5 12
REMARK SMILES IDX 6 13 7 14 8 15 12 16 10 17 9 18 11 20 20 22 17 24
REMARK H PARENT 9 19 11 21 20 23 17 25
REMARK Flexibility Score: inf
ROOT
ATOM      1  C   UNL     1      12.541 -25.860   8.596  1.00  0.00     0.138 A 
ATOM      2  C   UNL     1      12.120 -27.152   8.937  1.00  0.00     0.100 A 
ATOM      3  C   UNL     1      10.768 -27.485   8.845  1.00  0.00     0.197 A 
ATOM      4  O   UNL     1      10.413 -28.633   9.216  1.00  0.00    -0.289 OA
ATOM      5  C   UNL     1       9.838 -26.526   8.378  1.00  0.00     0.107 A 
ATOM      6  C   UNL     1       8.442 -26.765   8.204  1.00  0.00     0.134 A 
ATOM      7  C   UNL     1       7.600 -25.705   7.847  1.00  0.00     0.093 A 
ATOM      8  C   UNL     1       8.112 -24.429   7.599  1.00  0.00     0.123 A 
ATOM      9  C   UNL     1       9.481 -24.198   7.713  1.00  0.00     0.094 A 
ATOM     10  C   UNL     1      10.343 -25.226   8.102  1.00  0.00     0.146 A 
ATOM     11  O   UNL     1      11.640 -24.961   8.214  1.00  0.00    -0.456 OA
ENDROOT
BRANCH   1  12
ATOM     12  C   UNL     1      13.967 -25.453   8.675  1.00  0.00     0.021 A 
ATOM     13  C   UNL     1      14.859 -25.863   7.671  1.00  0.00     0.016 A 
ATOM     14  C   UNL     1      16.205 -25.499   7.727  1.00  0.00     0.051 A 
ATOM     15  C   UNL     1      16.695 -24.730   8.787  1.00  0.00     0.157 A 
ATOM     16  C   UNL     1      14.462 -24.692   9.750  1.00  0.00     0.062 A 
ATOM     17  C   UNL     1      15.812 -24.326   9.815  1.00  0.00     0.158 A 
BRANCH  15  18
ATOM     18  O   UNL     1      18.051 -24.396   8.781  1.00  0.00    -0.504 OA
ATOM     19  H   UNL     1      18.694 -24.632   9.522  1.00  0.00     0.293 HD
ENDBRANCH  15  18
BRANCH  17  20
ATOM     20  O   UNL     1      16.230 -23.572  10.913  1.00  0.00    -0.504 OA
ATOM     21  H   UNL     1      17.170 -23.586  11.285  1.00  0.00     0.293 HD
ENDBRANCH  17  20
ENDBRANCH   1  12
BRANCH   6  22
ATOM     22  O   UNL     1       7.841 -28.020   8.344  1.00  0.00    -0.507 OA
ATOM     23  H   UNL     1       6.903 -28.175   8.681  1.00  0.00     0.293 HD
ENDBRANCH   6  22
BRANCH   8  24
ATOM     24  O   UNL     1       7.268 -23.383   7.230  1.00  0.00    -0.508 OA
ATOM     25  H   UNL     1       7.360 -22.461   7.637  1.00  0.00     0.293 HD
ENDBRANCH   8  24
TORSDOF 5
ENDMDL
MODEL 9
REMARK VINA RESULT:    -6.541      2.588      7.057
REMARK INTER + INTRA:          -7.954
REMARK INTER:                  -7.658
REMARK INTRA:                  -0.296
REMARK UNBOUND:                -0.266
REMARK SMILES O=c1cc(-c2ccc(O)c(O)c2)oc2cc(O)cc(O)c12
REMARK SMILES IDX 4 1 3 2 2 3 1 4 21 5 19 6 18 7 16 8 15 9 14 10 13 11 5 12
REMARK SMILES IDX 6 13 7 14 8 15 12 16 10 17 9 18 11 20 20 22 17 24
REMARK H PARENT 9 19 11 21 20 23 17 25
REMARK Flexibility Score: inf
ROOT
ATOM      1  C   UNL     1      11.350 -27.258   8.727  1.00  0.00     0.138 A 
ATOM      2  C   UNL     1      11.954 -26.910   7.511  1.00  0.00     0.100 A 
ATOM      3  C   UNL     1      11.394 -25.903   6.725  1.00  0.00     0.197 A 
ATOM      4  O   UNL     1      11.923 -25.656   5.611  1.00  0.00    -0.289 OA
ATOM      5  C   UNL     1      10.239 -25.220   7.175  1.00  0.00     0.107 A 
ATOM      6  C   UNL     1       9.605 -24.149   6.477  1.00  0.00     0.134 A 
ATOM      7  C   UNL     1       8.399 -23.627   6.962  1.00  0.00     0.093 A 
ATOM      8  C   UNL     1       7.838 -24.096   8.152  1.00  0.00     0.123 A 
ATOM      9  C   UNL     1       8.478 -25.104   8.870  1.00  0.00     0.094 A 
ATOM     10  C   UNL     1       9.663 -25.669   8.394  1.00  0.00     0.146 A 
ATOM     11  O   UNL     1      10.235 -26.639   9.100  1.00  0.00    -0.456 OA
ENDROOT
BRANCH   1  12
ATOM     12  C   UNL     1      11.905 -28.321   9.603  1.00  0.00     0.021 A 
ATOM     13  C   UNL     1      13.294 -28.414   9.781  1.00  0.00     0.016 A 
ATOM     14  C   UNL     1      13.840 -29.408  10.594  1.00  0.00     0.051 A 
ATOM     15  C   UNL     1      13.017 -30.337  11.237  1.00  0.00     0.157 A 
ATOM     16  C   UNL     1      11.077 -29.265  10.238  1.00  0.00     0.062 A 
ATOM     17  C   UNL     1      11.617 -30.268  11.052  1.00  0.00     0.158 A 
BRANCH  15  18
ATOM     18  O   UNL     1      13.626 -31.304  12.040  1.00  0.00    -0.504 OA
ATOM     19  H   UNL     1      14.379 -31.110  12.685  1.00  0.00     0.293 HD
ENDBRANCH  15  18
BRANCH  17  20
ATOM     20  O   UNL     1      10.733 -31.170  11.648  1.00  0.00    -0.504 OA
ATOM     21  H   UNL     1      10.899 -31.621  12.537  1.00  0.00     0.293 HD
ENDBRANCH  17  20
ENDBRANCH   1  12
BRANCH   6  22
ATOM     22  O   UNL     1      10.125 -23.550   5.326  1.00  0.00    -0.507 OA
ATOM     23  H   UNL     1      11.052 -23.160   5.248  1.00  0.00     0.293 HD
ENDBRANCH   6  22
BRANCH   8  24
ATOM     24  O   UNL     1       6.646 -23.561   8.636  1.00  0.00    -0.508 OA
ATOM     25  H   UNL     1       6.551 -22.572   8.834  1.00  0.00     0.293 HD
ENDBRANCH   8  24
TORSDOF 5
ENDMDL
