MODEL 1
REMARK VINA RESULT:    -3.988      0.000      0.000
REMARK INTER + INTRA:         -10.150
REMARK INTER:                  -7.718
REMARK INTRA:                  -2.433
REMARK UNBOUND:                -2.433
REMARK SMILES CCCCCCCCCCCCCCCCCC(=O)[O-]
REMARK SMILES IDX 10 1 11 2 12 3 13 4 14 5 15 6 16 7 17 8 18 9 19 10 20 11
REMARK SMILES IDX 9 12 8 13 7 14 6 15 5 16 4 17 3 18 2 19 1 20
REMARK H PARENT
REMARK Flexibility Score: inf
ROOT
ATOM      1  C   UNL     1      23.286 -12.959   1.965  1.00  0.00     0.000 C 
ENDROOT
BRANCH   1   2
ATOM      2  C   UNL     1      21.977 -13.698   1.635  1.00  0.00     0.000 C 
BRANCH   2   3
ATOM      3  C   UNL     1      22.074 -15.234   1.659  1.00  0.00     0.000 C 
BRANCH   3   4
ATOM      4  C   UNL     1      21.483 -15.852   2.939  1.00  0.00     0.000 C 
BRANCH   4   5
ATOM      5  C   UNL     1      22.544 -16.615   3.760  1.00  0.00     0.000 C 
BRANCH   5   6
ATOM      6  C   UNL     1      23.017 -15.856   5.011  1.00  0.00     0.000 C 
BRANCH   6   7
ATOM      7  C   UNL     1      21.972 -14.856   5.533  1.00  0.00     0.006 C 
BRANCH   7   8
ATOM      8  C   UNL     1      22.485 -14.057   6.739  1.00  0.00     0.053 C 
BRANCH   8   9
ATOM      9  C   UNL     1      21.745 -14.404   7.995  1.00  0.00     0.041 C 
ATOM     10  O   UNL     1      21.747 -15.588   8.424  1.00  0.00    -0.550 OA
ATOM     11  O   UNL     1      21.032 -13.426   8.676  1.00  0.00    -0.550 OA
ENDBRANCH   8   9
ENDBRANCH   7   8
ENDBRANCH   6   7
ENDBRANCH   5   6
ENDBRANCH   4   5
ENDBRANCH   3   4
ENDBRANCH   2   3
ENDBRANCH   1   2
BRANCH   1  12
ATOM     12  C   UNL     1      24.525 -13.860   1.857  1.00  0.00     0.000 C 
BRANCH  12  13
ATOM     13  C   UNL     1      25.418 -13.712   3.096  1.00  0.00    -0.000 C 
BRANCH  13  14
ATOM     14  C   UNL     1      24.791 -12.748   4.114  1.00  0.00    -0.000 C 
BRANCH  14  15
ATOM     15  C   UNL     1      25.666 -12.541   5.364  1.00  0.00    -0.000 C 
BRANCH  15  16
ATOM     16  C   UNL     1      26.184 -11.107   5.572  1.00  0.00    -0.000 C 
BRANCH  16  17
ATOM     17  C   UNL     1      25.750 -10.501   6.918  1.00  0.00    -0.000 C 
BRANCH  17  18
ATOM     18  C   UNL     1      24.813 -11.430   7.707  1.00  0.00    -0.000 C 
BRANCH  18  19
ATOM     19  C   UNL     1      23.728 -10.661   8.476  1.00  0.00    -0.003 C 
ATOM     20  C   UNL     1      23.911  -9.154   8.322  1.00  0.00     0.004 C 
ENDBRANCH  18  19
ENDBRANCH  17  18
ENDBRANCH  16  17
ENDBRANCH  15  16
ENDBRANCH  14  15
ENDBRANCH  13  14
ENDBRANCH  12  13
ENDBRANCH   1  12
TORSDOF 16
ENDMDL
MODEL 2
REMARK VINA RESULT:    -3.963      1.783      4.855
REMARK INTER + INTRA:         -10.102
REMARK INTER:                  -8.084
REMARK INTRA:                  -2.019
REMARK UNBOUND:                -2.433
REMARK SMILES CCCCCCCCCCCCCCCCCC(=O)[O-]
REMARK SMILES IDX 10 1 11 2 12 3 13 4 14 5 15 6 16 7 17 8 18 9 19 10 20 11
REMARK SMILES IDX 9 12 8 13 7 14 6 15 5 16 4 17 3 18 2 19 1 20
REMARK H PARENT
REMARK Flexibility Score: inf
ROOT
ATOM      1  C   UNL     1      23.793 -12.645   2.309  1.00  0.00     0.000 C 
ENDROOT
BRANCH   1   2
ATOM      2  C   UNL     1      25.245 -13.139   2.180  1.00  0.00     0.000 C 
BRANCH   2   3
ATOM      3  C   UNL     1      25.961 -13.407   3.516  1.00  0.00     0.000 C 
BRANCH   3   4
ATOM      4  C   UNL     1      25.130 -14.278   4.477  1.00  0.00     0.000 C 
BRANCH   4   5
ATOM      5  C   UNL     1      24.695 -13.501   5.737  1.00  0.00     0.000 C 
BRANCH   5   6
ATOM      6  C   UNL     1      25.341 -12.111   5.856  1.00  0.00     0.000 C 
BRANCH   6   7
ATOM      7  C   UNL     1      25.470 -11.634   7.312  1.00  0.00     0.006 C 
BRANCH   7   8
ATOM      8  C   UNL     1      25.335 -10.112   7.439  1.00  0.00     0.053 C 
BRANCH   8   9
ATOM      9  C   UNL     1      24.094  -9.720   8.181  1.00  0.00     0.041 C 
ATOM     10  O   UNL     1      23.364 -10.604   8.703  1.00  0.00    -0.550 OA
ATOM     11  O   UNL     1      23.728  -8.384   8.272  1.00  0.00    -0.550 OA
ENDBRANCH   8   9
ENDBRANCH   7   8
ENDBRANCH   6   7
ENDBRANCH   5   6
ENDBRANCH   4   5
ENDBRANCH   3   4
ENDBRANCH   2   3
ENDBRANCH   1   2
BRANCH   1  12
ATOM     12  C   UNL     1      22.927 -13.008   1.093  1.00  0.00     0.000 C 
BRANCH  12  13
ATOM     13  C   UNL     1      21.835 -14.013   1.479  1.00  0.00    -0.000 C 
BRANCH  13  14
ATOM     14  C   UNL     1      22.409 -15.434   1.593  1.00  0.00    -0.000 C 
BRANCH  14  15
ATOM     15  C   UNL     1      22.004 -16.143   2.897  1.00  0.00    -0.000 C 
BRANCH  15  16
ATOM     16  C   UNL     1      21.756 -15.214   4.099  1.00  0.00    -0.000 C 
BRANCH  16  17
ATOM     17  C   UNL     1      21.120 -15.939   5.298  1.00  0.00    -0.000 C 
BRANCH  17  18
ATOM     18  C   UNL     1      21.946 -15.786   6.585  1.00  0.00    -0.000 C 
BRANCH  18  19
ATOM     19  C   UNL     1      21.176 -15.057   7.698  1.00  0.00    -0.003 C 
ATOM     20  C   UNL     1      21.769 -13.676   7.960  1.00  0.00     0.004 C 
ENDBRANCH  18  19
ENDBRANCH  17  18
ENDBRANCH  16  17
ENDBRANCH  15  16
ENDBRANCH  14  15
ENDBRANCH  13  14
ENDBRANCH  12  13
ENDBRANCH   1  12
TORSDOF 16
ENDMDL
MODEL 3
REMARK VINA RESULT:    -3.949      7.610     12.192
REMARK INTER + INTRA:         -10.075
REMARK INTER:                  -8.437
REMARK INTRA:                  -1.638
REMARK UNBOUND:                -2.433
REMARK SMILES CCCCCCCCCCCCCCCCCC(=O)[O-]
REMARK SMILES IDX 10 1 11 2 12 3 13 4 14 5 15 6 16 7 17 8 18 9 19 10 20 11
REMARK SMILES IDX 9 12 8 13 7 14 6 15 5 16 4 17 3 18 2 19 1 20
REMARK H PARENT
REMARK Flexibility Score: inf
ROOT
ATOM      1  C   UNL     1      29.039  -3.013  11.725  1.00  0.00     0.000 C 
ENDROOT
BRANCH   1   2
ATOM      2  C   UNL     1      29.593  -3.669  10.447  1.00  0.00     0.000 C 
BRANCH   2   3
ATOM      3  C   UNL     1      28.673  -3.573   9.217  1.00  0.00     0.000 C 
BRANCH   3   4
ATOM      4  C   UNL     1      28.526  -4.914   8.474  1.00  0.00     0.000 C 
BRANCH   4   5
ATOM      5  C   UNL     1      27.601  -4.799   7.243  1.00  0.00     0.000 C 
BRANCH   5   6
ATOM      6  C   UNL     1      26.162  -4.384   7.592  1.00  0.00     0.000 C 
BRANCH   6   7
ATOM      7  C   UNL     1      25.125  -4.932   6.599  1.00  0.00     0.006 C 
BRANCH   7   8
ATOM      8  C   UNL     1      24.986  -6.457   6.687  1.00  0.00     0.053 C 
BRANCH   8   9
ATOM      9  C   UNL     1      23.770  -6.864   7.463  1.00  0.00     0.041 C 
ATOM     10  O   UNL     1      22.803  -6.068   7.586  1.00  0.00    -0.550 OA
ATOM     11  O   UNL     1      23.717  -8.111   8.073  1.00  0.00    -0.550 OA
ENDBRANCH   8   9
ENDBRANCH   7   8
ENDBRANCH   6   7
ENDBRANCH   5   6
ENDBRANCH   4   5
ENDBRANCH   3   4
ENDBRANCH   2   3
ENDBRANCH   1   2
BRANCH   1  12
ATOM     12  C   UNL     1      29.904  -1.844  12.221  1.00  0.00     0.000 C 
BRANCH  12  13
ATOM     13  C   UNL     1      29.036  -0.627  12.562  1.00  0.00    -0.000 C 
BRANCH  13  14
ATOM     14  C   UNL     1      28.307  -0.104  11.314  1.00  0.00    -0.000 C 
BRANCH  14  15
ATOM     15  C   UNL     1      26.792  -0.375  11.345  1.00  0.00    -0.000 C 
BRANCH  15  16
ATOM     16  C   UNL     1      26.227  -1.084  10.101  1.00  0.00    -0.000 C 
BRANCH  16  17
ATOM     17  C   UNL     1      25.205  -2.180  10.447  1.00  0.00    -0.000 C 
BRANCH  17  18
ATOM     18  C   UNL     1      23.836  -1.604  10.843  1.00  0.00    -0.000 C 
BRANCH  18  19
ATOM     19  C   UNL     1      22.692  -2.143   9.969  1.00  0.00    -0.003 C 
ATOM     20  C   UNL     1      22.663  -3.668   9.985  1.00  0.00     0.004 C 
ENDBRANCH  18  19
ENDBRANCH  17  18
ENDBRANCH  16  17
ENDBRANCH  15  16
ENDBRANCH  14  15
ENDBRANCH  13  14
ENDBRANCH  12  13
ENDBRANCH   1  12
TORSDOF 16
ENDMDL
MODEL 4
REMARK VINA RESULT:    -3.921      1.791      4.955
REMARK INTER + INTRA:         -10.020
REMARK INTER:                  -7.653
REMARK INTRA:                  -2.367
REMARK UNBOUND:                -2.433
REMARK SMILES CCCCCCCCCCCCCCCCCC(=O)[O-]
REMARK SMILES IDX 10 1 11 2 12 3 13 4 14 5 15 6 16 7 17 8 18 9 19 10 20 11
REMARK SMILES IDX 9 12 8 13 7 14 6 15 5 16 4 17 3 18 2 19 1 20
REMARK H PARENT
REMARK Flexibility Score: inf
ROOT
ATOM      1  C   UNL     1      22.505 -13.224   1.148  1.00  0.00     0.000 C 
ENDROOT
BRANCH   1   2
ATOM      2  C   UNL     1      23.619 -12.263   1.598  1.00  0.00     0.000 C 
BRANCH   2   3
ATOM      3  C   UNL     1      24.685 -12.889   2.516  1.00  0.00     0.000 C 
BRANCH   3   4
ATOM      4  C   UNL     1      24.956 -12.049   3.777  1.00  0.00     0.000 C 
BRANCH   4   5
ATOM      5  C   UNL     1      25.936 -12.749   4.743  1.00  0.00     0.000 C 
BRANCH   5   6
ATOM      6  C   UNL     1      26.437 -11.839   5.877  1.00  0.00     0.000 C 
BRANCH   6   7
ATOM      7  C   UNL     1      25.346 -11.516   6.910  1.00  0.00     0.006 C 
BRANCH   7   8
ATOM      8  C   UNL     1      25.303 -10.023   7.261  1.00  0.00     0.053 C 
BRANCH   8   9
ATOM      9  C   UNL     1      24.127  -9.685   8.126  1.00  0.00     0.041 C 
ATOM     10  O   UNL     1      23.744  -8.491   8.235  1.00  0.00    -0.550 OA
ATOM     11  O   UNL     1      23.472 -10.685   8.834  1.00  0.00    -0.550 OA
ENDBRANCH   8   9
ENDBRANCH   7   8
ENDBRANCH   6   7
ENDBRANCH   5   6
ENDBRANCH   4   5
ENDBRANCH   3   4
ENDBRANCH   2   3
ENDBRANCH   1   2
BRANCH   1  12
ATOM     12  C   UNL     1      21.886 -14.010   2.315  1.00  0.00     0.000 C 
BRANCH  12  13
ATOM     13  C   UNL     1      21.745 -15.495   1.959  1.00  0.00    -0.000 C 
BRANCH  13  14
ATOM     14  C   UNL     1      23.115 -16.191   1.948  1.00  0.00    -0.000 C 
BRANCH  14  15
ATOM     15  C   UNL     1      23.471 -16.840   3.298  1.00  0.00    -0.000 C 
BRANCH  15  16
ATOM     16  C   UNL     1      24.415 -16.016   4.192  1.00  0.00    -0.000 C 
BRANCH  16  17
ATOM     17  C   UNL     1      23.850 -15.776   5.602  1.00  0.00    -0.000 C 
BRANCH  17  18
ATOM     18  C   UNL     1      22.920 -14.553   5.664  1.00  0.00    -0.000 C 
BRANCH  18  19
ATOM     19  C   UNL     1      21.555 -14.879   6.288  1.00  0.00    -0.003 C 
ATOM     20  C   UNL     1      20.982 -16.171   5.711  1.00  0.00     0.004 C 
ENDBRANCH  18  19
ENDBRANCH  17  18
ENDBRANCH  16  17
ENDBRANCH  15  16
ENDBRANCH  14  15
ENDBRANCH  13  14
ENDBRANCH  12  13
ENDBRANCH   1  12
TORSDOF 16
ENDMDL
MODEL 5
REMARK VINA RESULT:    -3.877      2.039      4.439
REMARK INTER + INTRA:          -9.935
REMARK INTER:                  -6.975
REMARK INTRA:                  -2.960
REMARK UNBOUND:                -2.433
REMARK SMILES CCCCCCCCCCCCCCCCCC(=O)[O-]
REMARK SMILES IDX 10 1 11 2 12 3 13 4 14 5 15 6 16 7 17 8 18 9 19 10 20 11
REMARK SMILES IDX 9 12 8 13 7 14 6 15 5 16 4 17 3 18 2 19 1 20
REMARK H PARENT
REMARK Flexibility Score: inf
ROOT
ATOM      1  C   UNL     1      21.571 -15.547   2.087  1.00  0.00     0.000 C 
ENDROOT
BRANCH   1   2
ATOM      2  C   UNL     1      21.758 -14.028   2.256  1.00  0.00     0.000 C 
BRANCH   2   3
ATOM      3  C   UNL     1      22.574 -13.347   1.142  1.00  0.00     0.000 C 
BRANCH   3   4
ATOM      4  C   UNL     1      23.854 -12.670   1.666  1.00  0.00     0.000 C 
BRANCH   4   5
ATOM      5  C   UNL     1      24.110 -12.984   3.155  1.00  0.00     0.000 C 
BRANCH   5   6
ATOM      6  C   UNL     1      25.445 -13.702   3.412  1.00  0.00     0.000 C 
BRANCH   6   7
ATOM      7  C   UNL     1      26.007 -13.435   4.817  1.00  0.00     0.006 C 
BRANCH   7   8
ATOM      8  C   UNL     1      24.904 -13.104   5.830  1.00  0.00     0.053 C 
BRANCH   8   9
ATOM      9  C   UNL     1      25.240 -11.895   6.649  1.00  0.00     0.041 C 
ATOM     10  O   UNL     1      25.134 -11.932   7.904  1.00  0.00    -0.550 OA
ATOM     11  O   UNL     1      25.644 -10.721   6.027  1.00  0.00    -0.550 OA
ENDBRANCH   8   9
ENDBRANCH   7   8
ENDBRANCH   6   7
ENDBRANCH   5   6
ENDBRANCH   4   5
ENDBRANCH   3   4
ENDBRANCH   2   3
ENDBRANCH   1   2
BRANCH   1  12
ATOM     12  C   UNL     1      22.608 -16.176   1.145  1.00  0.00     0.000 C 
BRANCH  12  13
ATOM     13  C   UNL     1      23.787 -16.754   1.937  1.00  0.00    -0.000 C 
BRANCH  13  14
ATOM     14  C   UNL     1      23.317 -17.333   3.281  1.00  0.00    -0.000 C 
BRANCH  14  15
ATOM     15  C   UNL     1      24.289 -17.035   4.437  1.00  0.00    -0.000 C 
BRANCH  15  16
ATOM     16  C   UNL     1      23.631 -16.527   5.733  1.00  0.00    -0.000 C 
BRANCH  16  17
ATOM     17  C   UNL     1      22.115 -16.312   5.591  1.00  0.00    -0.000 C 
BRANCH  17  18
ATOM     18  C   UNL     1      21.694 -14.865   5.893  1.00  0.00    -0.000 C 
BRANCH  18  19
ATOM     19  C   UNL     1      21.192 -14.683   7.333  1.00  0.00    -0.003 C 
ATOM     20  C   UNL     1      21.723 -13.388   7.940  1.00  0.00     0.004 C 
ENDBRANCH  18  19
ENDBRANCH  17  18
ENDBRANCH  16  17
ENDBRANCH  15  16
ENDBRANCH  14  15
ENDBRANCH  13  14
ENDBRANCH  12  13
ENDBRANCH   1  12
TORSDOF 16
ENDMDL
MODEL 6
REMARK VINA RESULT:    -3.849      0.906      1.515
REMARK INTER + INTRA:          -9.882
REMARK INTER:                  -7.897
REMARK INTRA:                  -1.985
REMARK UNBOUND:                -2.433
REMARK SMILES CCCCCCCCCCCCCCCCCC(=O)[O-]
REMARK SMILES IDX 10 1 11 2 12 3 13 4 14 5 15 6 16 7 17 8 18 9 19 10 20 11
REMARK SMILES IDX 9 12 8 13 7 14 6 15 5 16 4 17 3 18 2 19 1 20
REMARK H PARENT
REMARK Flexibility Score: inf
ROOT
ATOM      1  C   UNL     1      22.951 -12.849   1.030  1.00  0.00     0.000 C 
ENDROOT
BRANCH   1   2
ATOM      2  C   UNL     1      21.773 -13.668   1.586  1.00  0.00     0.000 C 
BRANCH   2   3
ATOM      3  C   UNL     1      21.807 -15.168   1.245  1.00  0.00     0.000 C 
BRANCH   3   4
ATOM      4  C   UNL     1      21.569 -16.067   2.473  1.00  0.00     0.000 C 
BRANCH   4   5
ATOM      5  C   UNL     1      22.245 -15.508   3.742  1.00  0.00     0.000 C 
BRANCH   5   6
ATOM      6  C   UNL     1      21.539 -15.916   5.046  1.00  0.00     0.000 C 
BRANCH   6   7
ATOM      7  C   UNL     1      22.186 -15.296   6.295  1.00  0.00     0.006 C 
BRANCH   7   8
ATOM      8  C   UNL     1      21.338 -14.163   6.886  1.00  0.00     0.053 C 
BRANCH   8   9
ATOM      9  C   UNL     1      21.542 -14.024   8.364  1.00  0.00     0.041 C 
ATOM     10  O   UNL     1      21.587 -12.881   8.891  1.00  0.00    -0.550 OA
ATOM     11  O   UNL     1      21.712 -15.153   9.155  1.00  0.00    -0.550 OA
ENDBRANCH   8   9
ENDBRANCH   7   8
ENDBRANCH   6   7
ENDBRANCH   5   6
ENDBRANCH   4   5
ENDBRANCH   3   4
ENDBRANCH   2   3
ENDBRANCH   1   2
BRANCH   1  12
ATOM     12  C   UNL     1      24.285 -13.611   1.077  1.00  0.00     0.000 C 
BRANCH  12  13
ATOM     13  C   UNL     1      25.075 -13.252   2.341  1.00  0.00    -0.000 C 
BRANCH  13  14
ATOM     14  C   UNL     1      25.554 -14.517   3.069  1.00  0.00    -0.000 C 
BRANCH  14  15
ATOM     15  C   UNL     1      25.665 -14.328   4.593  1.00  0.00    -0.000 C 
BRANCH  15  16
ATOM     16  C   UNL     1      25.226 -12.948   5.116  1.00  0.00    -0.000 C 
BRANCH  16  17
ATOM     17  C   UNL     1      26.403 -12.093   5.616  1.00  0.00    -0.000 C 
BRANCH  17  18
ATOM     18  C   UNL     1      26.046 -11.273   6.866  1.00  0.00    -0.000 C 
BRANCH  18  19
ATOM     19  C   UNL     1      24.740 -11.740   7.527  1.00  0.00    -0.003 C 
ATOM     20  C   UNL     1      24.187 -10.670   8.464  1.00  0.00     0.004 C 
ENDBRANCH  18  19
ENDBRANCH  17  18
ENDBRANCH  16  17
ENDBRANCH  15  16
ENDBRANCH  14  15
ENDBRANCH  13  14
ENDBRANCH  12  13
ENDBRANCH   1  12
TORSDOF 16
ENDMDL
MODEL 7
REMARK VINA RESULT:    -3.816      8.120     13.084
REMARK INTER + INTRA:          -9.817
REMARK INTER:                  -7.712
REMARK INTRA:                  -2.105
REMARK UNBOUND:                -2.433
REMARK SMILES CCCCCCCCCCCCCCCCCC(=O)[O-]
REMARK SMILES IDX 10 1 11 2 12 3 13 4 14 5 15 6 16 7 17 8 18 9 19 10 20 11
REMARK SMILES IDX 9 12 8 13 7 14 6 15 5 16 4 17 3 18 2 19 1 20
REMARK H PARENT
REMARK Flexibility Score: inf
ROOT
ATOM      1  C   UNL     1      28.971  -2.886  11.666  1.00  0.00     0.000 C 
ENDROOT
BRANCH   1   2
ATOM      2  C   UNL     1      29.512  -1.713  12.502  1.00  0.00     0.000 C 
BRANCH   2   3
ATOM      3  C   UNL     1      28.898  -0.341  12.170  1.00  0.00     0.000 C 
BRANCH   3   4
ATOM      4  C   UNL     1      28.514  -0.201  10.685  1.00  0.00     0.000 C 
BRANCH   4   5
ATOM      5  C   UNL     1      27.043   0.228  10.503  1.00  0.00     0.000 C 
BRANCH   5   6
ATOM      6  C   UNL     1      26.031  -0.827  10.982  1.00  0.00     0.000 C 
BRANCH   6   7
ATOM      7  C   UNL     1      25.454  -1.667   9.831  1.00  0.00     0.006 C 
BRANCH   7   8
ATOM      8  C   UNL     1      24.507  -2.765  10.332  1.00  0.00     0.053 C 
BRANCH   8   9
ATOM      9  C   UNL     1      23.108  -2.566   9.834  1.00  0.00     0.041 C 
ATOM     10  O   UNL     1      22.333  -3.551   9.713  1.00  0.00    -0.550 OA
ATOM     11  O   UNL     1      22.668  -1.297   9.478  1.00  0.00    -0.550 OA
ENDBRANCH   8   9
ENDBRANCH   7   8
ENDBRANCH   6   7
ENDBRANCH   5   6
ENDBRANCH   4   5
ENDBRANCH   3   4
ENDBRANCH   2   3
ENDBRANCH   1   2
BRANCH   1  12
ATOM     12  C   UNL     1      30.082  -3.802  11.130  1.00  0.00     0.000 C 
BRANCH  12  13
ATOM     13  C   UNL     1      29.931  -4.018   9.619  1.00  0.00    -0.000 C 
BRANCH  13  14
ATOM     14  C   UNL     1      28.543  -3.570   9.135  1.00  0.00    -0.000 C 
BRANCH  14  15
ATOM     15  C   UNL     1      27.914  -4.549   8.126  1.00  0.00    -0.000 C 
BRANCH  15  16
ATOM     16  C   UNL     1      26.860  -3.935   7.187  1.00  0.00    -0.000 C 
BRANCH  16  17
ATOM     17  C   UNL     1      25.892  -4.980   6.607  1.00  0.00    -0.000 C 
BRANCH  17  18
ATOM     18  C   UNL     1      24.460  -4.817   7.141  1.00  0.00    -0.000 C 
BRANCH  18  19
ATOM     19  C   UNL     1      23.673  -6.137   7.137  1.00  0.00    -0.003 C 
ATOM     20  C   UNL     1      24.603  -7.329   6.937  1.00  0.00     0.004 C 
ENDBRANCH  18  19
ENDBRANCH  17  18
ENDBRANCH  16  17
ENDBRANCH  15  16
ENDBRANCH  14  15
ENDBRANCH  13  14
ENDBRANCH  12  13
ENDBRANCH   1  12
TORSDOF 16
ENDMDL
MODEL 8
REMARK VINA RESULT:    -3.814      1.182      2.410
REMARK INTER + INTRA:          -9.815
REMARK INTER:                  -7.238
REMARK INTRA:                  -2.577
REMARK UNBOUND:                -2.433
REMARK SMILES CCCCCCCCCCCCCCCCCC(=O)[O-]
REMARK SMILES IDX 10 1 11 2 12 3 13 4 14 5 15 6 16 7 17 8 18 9 19 10 20 11
REMARK SMILES IDX 9 12 8 13 7 14 6 15 5 16 4 17 3 18 2 19 1 20
REMARK H PARENT
REMARK Flexibility Score: inf
ROOT
ATOM      1  C   UNL     1      21.852 -14.415   2.445  1.00  0.00     0.000 C 
ENDROOT
BRANCH   1   2
ATOM      2  C   UNL     1      21.466 -15.888   2.224  1.00  0.00     0.000 C 
BRANCH   2   3
ATOM      3  C   UNL     1      22.633 -16.887   2.320  1.00  0.00     0.000 C 
BRANCH   3   4
ATOM      4  C   UNL     1      23.661 -16.505   3.401  1.00  0.00     0.000 C 
BRANCH   4   5
ATOM      5  C   UNL     1      23.434 -17.277   4.718  1.00  0.00     0.000 C 
BRANCH   5   6
ATOM      6  C   UNL     1      23.216 -16.365   5.936  1.00  0.00     0.000 C 
BRANCH   6   7
ATOM      7  C   UNL     1      21.755 -15.916   6.093  1.00  0.00     0.006 C 
BRANCH   7   8
ATOM      8  C   UNL     1      21.632 -14.403   6.313  1.00  0.00     0.053 C 
BRANCH   8   9
ATOM      9  C   UNL     1      21.877 -14.023   7.741  1.00  0.00     0.041 C 
ATOM     10  O   UNL     1      22.426 -12.924   8.019  1.00  0.00    -0.550 OA
ATOM     11  O   UNL     1      21.527 -14.895   8.765  1.00  0.00    -0.550 OA
ENDBRANCH   8   9
ENDBRANCH   7   8
ENDBRANCH   6   7
ENDBRANCH   5   6
ENDBRANCH   4   5
ENDBRANCH   3   4
ENDBRANCH   2   3
ENDBRANCH   1   2
BRANCH   1  12
ATOM     12  C   UNL     1      21.894 -13.606   1.139  1.00  0.00     0.000 C 
BRANCH  12  13
ATOM     13  C   UNL     1      23.115 -12.678   1.111  1.00  0.00    -0.000 C 
BRANCH  13  14
ATOM     14  C   UNL     1      24.422 -13.486   1.153  1.00  0.00    -0.000 C 
BRANCH  14  15
ATOM     15  C   UNL     1      25.433 -12.940   2.177  1.00  0.00    -0.000 C 
BRANCH  15  16
ATOM     16  C   UNL     1      24.814 -12.305   3.435  1.00  0.00    -0.000 C 
BRANCH  16  17
ATOM     17  C   UNL     1      24.787 -13.262   4.639  1.00  0.00    -0.000 C 
BRANCH  17  18
ATOM     18  C   UNL     1      25.211 -12.576   5.948  1.00  0.00    -0.000 C 
BRANCH  18  19
ATOM     19  C   UNL     1      25.679 -11.128   5.731  1.00  0.00    -0.003 C 
ATOM     20  C   UNL     1      25.595 -10.326   7.026  1.00  0.00     0.004 C 
ENDBRANCH  18  19
ENDBRANCH  17  18
ENDBRANCH  16  17
ENDBRANCH  15  16
ENDBRANCH  14  15
ENDBRANCH  13  14
ENDBRANCH  12  13
ENDBRANCH   1  12
TORSDOF 16
ENDMDL
MODEL 9
REMARK VINA RESULT:    -3.677      1.769      2.998
REMARK INTER + INTRA:          -9.549
REMARK INTER:                  -7.135
REMARK INTRA:                  -2.414
REMARK UNBOUND:                -2.433
REMARK SMILES CCCCCCCCCCCCCCCCCC(=O)[O-]
REMARK SMILES IDX 10 1 11 2 12 3 13 4 14 5 15 6 16 7 17 8 18 9 19 10 20 11
REMARK SMILES IDX 9 12 8 13 7 14 6 15 5 16 4 17 3 18 2 19 1 20
REMARK H PARENT
REMARK Flexibility Score: inf
ROOT
ATOM      1  C   UNL     1      23.007 -12.541   0.983  1.00  0.00     0.000 C 
ENDROOT
BRANCH   1   2
ATOM      2  C   UNL     1      22.690 -13.676   1.973  1.00  0.00     0.000 C 
BRANCH   2   3
ATOM      3  C   UNL     1      21.585 -14.646   1.516  1.00  0.00     0.000 C 
BRANCH   3   4
ATOM      4  C   UNL     1      21.486 -15.900   2.404  1.00  0.00     0.000 C 
BRANCH   4   5
ATOM      5  C   UNL     1      22.331 -15.772   3.689  1.00  0.00     0.000 C 
BRANCH   5   6
ATOM      6  C   UNL     1      21.517 -15.947   4.981  1.00  0.00     0.000 C 
BRANCH   6   7
ATOM      7  C   UNL     1      22.332 -15.638   6.248  1.00  0.00     0.006 C 
BRANCH   7   8
ATOM      8  C   UNL     1      22.276 -14.153   6.626  1.00  0.00     0.053 C 
BRANCH   8   9
ATOM      9  C   UNL     1      21.848 -13.953   8.048  1.00  0.00     0.041 C 
ATOM     10  O   UNL     1      21.537 -14.944   8.760  1.00  0.00    -0.550 OA
ATOM     11  O   UNL     1      21.767 -12.672   8.578  1.00  0.00    -0.550 OA
ENDBRANCH   8   9
ENDBRANCH   7   8
ENDBRANCH   6   7
ENDBRANCH   5   6
ENDBRANCH   4   5
ENDBRANCH   3   4
ENDBRANCH   2   3
ENDBRANCH   1   2
BRANCH   1  12
ATOM     12  C   UNL     1      24.442 -12.010   1.121  1.00  0.00     0.000 C 
BRANCH  12  13
ATOM     13  C   UNL     1      24.519 -10.915   2.192  1.00  0.00    -0.000 C 
BRANCH  13  14
ATOM     14  C   UNL     1      25.971 -10.682   2.638  1.00  0.00    -0.000 C 
BRANCH  14  15
ATOM     15  C   UNL     1      26.100 -10.413   4.149  1.00  0.00    -0.000 C 
BRANCH  15  16
ATOM     16  C   UNL     1      25.554 -11.526   5.061  1.00  0.00    -0.000 C 
BRANCH  16  17
ATOM     17  C   UNL     1      26.336 -12.844   4.934  1.00  0.00    -0.000 C 
BRANCH  17  18
ATOM     18  C   UNL     1      25.441 -14.023   4.522  1.00  0.00    -0.000 C 
BRANCH  18  19
ATOM     19  C   UNL     1      25.949 -14.738   3.259  1.00  0.00    -0.003 C 
ATOM     20  C   UNL     1      27.258 -14.125   2.772  1.00  0.00     0.004 C 
ENDBRANCH  18  19
ENDBRANCH  17  18
ENDBRANCH  16  17
ENDBRANCH  15  16
ENDBRANCH  14  15
ENDBRANCH  13  14
ENDBRANCH  12  13
ENDBRANCH   1  12
TORSDOF 16
ENDMDL
