MODEL 1
REMARK VINA RESULT:    -7.098      0.000      0.000
REMARK INTER + INTRA:         -15.378
REMARK INTER:                 -12.493
REMARK INTRA:                  -2.885
REMARK UNBOUND:                -2.885
REMARK SMILES COc1cc(-c2[o+]c3cc(O)cc(O[C@H]4O[C@@H](CO)[C@H](O)[C@H](O)[C@@H]4O)c3cc2O[C@H]2O[C@@H](CO)[C@H](O)[C@H](O)[C@@H]2O)ccc1O
REMARK SMILES IDX 6 1 28 2 27 3 26 4 13 5 12 6 10 7 9 8 8 9 7 10 5 11 3 12
REMARK SMILES IDX 43 13 4 14 42 15 41 16 2 17 1 18 44 19 29 21 30 22 39 23
REMARK SMILES IDX 31 24 37 25 32 26 35 27 40 28 38 30 33 32 34 33 36 35 14 37
REMARK SMILES IDX 15 38 24 39 16 40 22 41 17 42 20 43 25 44 23 46 18 48 19 49
REMARK SMILES IDX 21 51 11 53
REMARK H PARENT 44 20 40 29 38 31 34 34 36 36 25 45 23 47 19 50 21 52 11 54
REMARK Flexibility Score: inf
ROOT
ATOM      1  C   UNL     1       0.591 -17.669  26.022  1.00  0.00     0.402 A 
ATOM      2  C   UNL     1       1.148 -18.097  27.276  1.00  0.00     0.229 A 
ATOM      3  C   UNL     1       1.181 -19.463  27.553  1.00  0.00     0.079 A 
ATOM      4  C   UNL     1       0.858 -20.396  26.548  1.00  0.00     0.126 A 
ATOM      5  C   UNL     1       0.728 -21.780  26.816  1.00  0.00     0.143 A 
ATOM      6  C   UNL     1       0.614 -22.684  25.742  1.00  0.00     0.094 A 
ATOM      7  C   UNL     1       0.546 -22.190  24.424  1.00  0.00     0.128 A 
ATOM      8  C   UNL     1       0.543 -20.801  24.194  1.00  0.00     0.162 A 
ATOM      9  C   UNL     1       0.652 -19.906  25.256  1.00  0.00     0.368 A 
ATOM     10  O   UNL     1       0.477 -18.588  25.054  1.00  0.00    -0.202 OA
ENDROOT
BRANCH   1  11
ATOM     11  C   UNL     1       0.004 -16.299  25.750  1.00  0.00     0.087 A 
ATOM     12  C   UNL     1      -1.893 -14.755  26.136  1.00  0.00     0.161 A 
ATOM     13  C   UNL     1      -1.118 -13.695  25.661  1.00  0.00     0.157 A 
ATOM     14  C   UNL     1      -1.334 -16.060  26.148  1.00  0.00     0.068 A 
ATOM     15  C   UNL     1       0.183 -13.917  25.238  1.00  0.00     0.051 A 
ATOM     16  C   UNL     1       0.762 -15.192  25.304  1.00  0.00     0.022 A 
BRANCH  12  17
ATOM     17  O   UNL     1      -3.175 -14.503  26.610  1.00  0.00    -0.493 OA
ATOM     18  C   UNL     1      -3.678 -14.984  27.856  1.00  0.00     0.278 C 
ENDBRANCH  12  17
BRANCH  13  19
ATOM     19  O   UNL     1      -1.615 -12.395  25.646  1.00  0.00    -0.504 OA
ATOM     20  H   UNL     1      -1.085 -11.599  25.985  1.00  0.00     0.293 HD
ENDBRANCH  13  19
ENDBRANCH   1  11
BRANCH   2  21
ATOM     21  O   UNL     1       1.629 -17.225  28.265  1.00  0.00    -0.452 OA
BRANCH  21  22
ATOM     22  C   UNL     1       1.555 -17.432  29.687  1.00  0.00     0.339 C 
ATOM     23  C   UNL     1       1.405 -16.125  30.534  1.00  0.00     0.214 C 
ATOM     24  O   UNL     1       2.704 -18.127  30.129  1.00  0.00    -0.332 OA
ATOM     25  C   UNL     1       1.742 -16.418  32.037  1.00  0.00     0.180 C 
ATOM     26  C   UNL     1       2.487 -18.770  31.382  1.00  0.00     0.179 C 
ATOM     27  C   UNL     1       1.612 -17.906  32.373  1.00  0.00     0.177 C 
BRANCH  23  28
ATOM     28  O   UNL     1       0.109 -15.593  30.388  1.00  0.00    -0.384 OA
ATOM     29  H   UNL     1      -0.329 -15.660  31.270  1.00  0.00     0.211 HD
ENDBRANCH  23  28
BRANCH  25  30
ATOM     30  O   UNL     1       0.912 -15.686  32.905  1.00  0.00    -0.387 OA
ATOM     31  H   UNL     1       1.461 -14.943  33.266  1.00  0.00     0.211 HD
ENDBRANCH  25  30
BRANCH  26  32
ATOM     32  C   UNL     1       3.860 -19.112  32.011  1.00  0.00     0.191 C 
BRANCH  32  33
ATOM     33  O   UNL     1       4.125 -20.494  31.944  1.00  0.00    -0.394 OA
ATOM     34  H   UNL     1       4.954 -20.597  31.419  1.00  0.00     0.210 HD
ENDBRANCH  32  33
ENDBRANCH  26  32
BRANCH  27  35
ATOM     35  O   UNL     1       0.241 -18.245  32.372  1.00  0.00    -0.387 OA
ATOM     36  H   UNL     1      -0.217 -17.871  33.175  1.00  0.00     0.211 HD
ENDBRANCH  27  35
ENDBRANCH  21  22
ENDBRANCH   2  21
BRANCH   5  37
ATOM     37  O   UNL     1       0.624 -22.171  28.161  1.00  0.00    -0.461 OA
BRANCH  37  38
ATOM     38  C   UNL     1      -0.526 -22.735  28.794  1.00  0.00     0.339 C 
ATOM     39  C   UNL     1      -1.209 -21.714  29.753  1.00  0.00     0.214 C 
ATOM     40  O   UNL     1      -0.134 -23.936  29.467  1.00  0.00    -0.332 OA
ATOM     41  C   UNL     1      -1.221 -22.204  31.216  1.00  0.00     0.180 C 
ATOM     42  C   UNL     1       0.739 -23.710  30.580  1.00  0.00     0.179 C 
ATOM     43  C   UNL     1       0.226 -22.619  31.553  1.00  0.00     0.177 C 
BRANCH  39  44
ATOM     44  O   UNL     1      -2.503 -21.386  29.338  1.00  0.00    -0.384 OA
ATOM     45  H   UNL     1      -2.506 -21.362  28.345  1.00  0.00     0.211 HD
ENDBRANCH  39  44
BRANCH  41  46
ATOM     46  O   UNL     1      -2.137 -23.264  31.362  1.00  0.00    -0.387 OA
ATOM     47  H   UNL     1      -2.849 -23.153  30.688  1.00  0.00     0.211 HD
ENDBRANCH  41  46
BRANCH  42  48
ATOM     48  C   UNL     1       2.219 -23.515  30.169  1.00  0.00     0.191 C 
BRANCH  48  49
ATOM     49  O   UNL     1       2.582 -22.165  30.245  1.00  0.00    -0.394 OA
ATOM     50  H   UNL     1       2.991 -22.037  31.128  1.00  0.00     0.210 HD
ENDBRANCH  48  49
ENDBRANCH  42  48
BRANCH  43  51
ATOM     51  O   UNL     1       0.377 -23.028  32.898  1.00  0.00    -0.387 OA
ATOM     52  H   UNL     1       1.026 -23.776  32.888  1.00  0.00     0.211 HD
ENDBRANCH  43  51
ENDBRANCH  37  38
ENDBRANCH   5  37
BRANCH   7  53
ATOM     53  O   UNL     1       0.427 -23.067  23.347  1.00  0.00    -0.507 OA
ATOM     54  H   UNL     1       0.180 -24.040  23.487  1.00  0.00     0.293 HD
ENDBRANCH   7  53
TORSDOF 18
ENDMDL
MODEL 2
REMARK VINA RESULT:    -7.086      2.084      9.009
REMARK INTER + INTRA:         -15.356
REMARK INTER:                 -12.649
REMARK INTRA:                  -2.708
REMARK UNBOUND:                -2.885
REMARK SMILES COc1cc(-c2[o+]c3cc(O)cc(O[C@H]4O[C@@H](CO)[C@H](O)[C@H](O)[C@@H]4O)c3cc2O[C@H]2O[C@@H](CO)[C@H](O)[C@H](O)[C@@H]2O)ccc1O
REMARK SMILES IDX 6 1 28 2 27 3 26 4 13 5 12 6 10 7 9 8 8 9 7 10 5 11 3 12
REMARK SMILES IDX 43 13 4 14 42 15 41 16 2 17 1 18 44 19 29 21 30 22 39 23
REMARK SMILES IDX 31 24 37 25 32 26 35 27 40 28 38 30 33 32 34 33 36 35 14 37
REMARK SMILES IDX 15 38 24 39 16 40 22 41 17 42 20 43 25 44 23 46 18 48 19 49
REMARK SMILES IDX 21 51 11 53
REMARK H PARENT 44 20 40 29 38 31 34 34 36 36 25 45 23 47 19 50 21 52 11 54
REMARK Flexibility Score: inf
ROOT
ATOM      1  C   UNL     1      -0.040 -22.003  29.093  1.00  0.00     0.402 A 
ATOM      2  C   UNL     1      -0.261 -21.249  27.890  1.00  0.00     0.229 A 
ATOM      3  C   UNL     1      -0.195 -19.858  27.960  1.00  0.00     0.079 A 
ATOM      4  C   UNL     1       0.267 -19.230  29.132  1.00  0.00     0.126 A 
ATOM      5  C   UNL     1       0.210 -17.827  29.311  1.00  0.00     0.143 A 
ATOM      6  C   UNL     1       0.876 -17.242  30.405  1.00  0.00     0.094 A 
ATOM      7  C   UNL     1       1.515 -18.068  31.351  1.00  0.00     0.128 A 
ATOM      8  C   UNL     1       1.442 -19.469  31.222  1.00  0.00     0.162 A 
ATOM      9  C   UNL     1       0.782 -20.049  30.142  1.00  0.00     0.368 A 
ATOM     10  O   UNL     1       0.566 -21.375  30.109  1.00  0.00    -0.202 OA
ENDROOT
BRANCH   1  11
ATOM     11  C   UNL     1      -0.553 -23.405  29.351  1.00  0.00     0.087 A 
ATOM     12  C   UNL     1       0.037 -25.754  29.866  1.00  0.00     0.161 A 
ATOM     13  C   UNL     1      -1.295 -26.009  30.196  1.00  0.00     0.157 A 
ATOM     14  C   UNL     1       0.394 -24.456  29.414  1.00  0.00     0.068 A 
ATOM     15  C   UNL     1      -2.241 -25.001  30.110  1.00  0.00     0.051 A 
ATOM     16  C   UNL     1      -1.884 -23.701  29.723  1.00  0.00     0.022 A 
BRANCH  12  17
ATOM     17  O   UNL     1       0.982 -26.763  30.014  1.00  0.00    -0.493 OA
ATOM     18  C   UNL     1       1.860 -27.198  28.977  1.00  0.00     0.278 C 
ENDBRANCH  12  17
BRANCH  13  19
ATOM     19  O   UNL     1      -1.690 -27.261  30.660  1.00  0.00    -0.504 OA
ATOM     20  H   UNL     1      -2.649 -27.589  30.609  1.00  0.00     0.293 HD
ENDBRANCH  13  19
ENDBRANCH   1  11
BRANCH   2  21
ATOM     21  O   UNL     1      -0.579 -21.819  26.648  1.00  0.00    -0.452 OA
BRANCH  21  22
ATOM     22  C   UNL     1       0.308 -21.953  25.524  1.00  0.00     0.339 C 
ATOM     23  C   UNL     1       1.774 -22.360  25.888  1.00  0.00     0.214 C 
ATOM     24  O   UNL     1       0.345 -20.742  24.795  1.00  0.00    -0.332 OA
ATOM     25  C   UNL     1       2.726 -22.082  24.674  1.00  0.00     0.180 C 
ATOM     26  C   UNL     1       0.795 -20.938  23.458  1.00  0.00     0.179 C 
ATOM     27  C   UNL     1       1.959 -22.001  23.352  1.00  0.00     0.177 C 
BRANCH  23  28
ATOM     28  O   UNL     1       1.823 -23.711  26.286  1.00  0.00    -0.384 OA
ATOM     29  H   UNL     1       1.275 -24.219  25.641  1.00  0.00     0.211 HD
ENDBRANCH  23  28
BRANCH  25  30
ATOM     30  O   UNL     1       3.720 -23.071  24.559  1.00  0.00    -0.387 OA
ATOM     31  H   UNL     1       4.195 -22.901  23.704  1.00  0.00     0.211 HD
ENDBRANCH  25  30
BRANCH  26  32
ATOM     32  C   UNL     1       1.237 -19.574  22.875  1.00  0.00     0.191 C 
BRANCH  32  33
ATOM     33  O   UNL     1       1.808 -18.753  23.867  1.00  0.00    -0.394 OA
ATOM     34  H   UNL     1       2.744 -18.596  23.600  1.00  0.00     0.210 HD
ENDBRANCH  32  33
ENDBRANCH  26  32
BRANCH  27  35
ATOM     35  O   UNL     1       1.521 -23.299  23.011  1.00  0.00    -0.387 OA
ATOM     36  H   UNL     1       1.381 -23.379  22.026  1.00  0.00     0.211 HD
ENDBRANCH  27  35
ENDBRANCH  21  22
ENDBRANCH   2  21
BRANCH   5  37
ATOM     37  O   UNL     1      -0.599 -17.095  28.425  1.00  0.00    -0.461 OA
BRANCH  37  38
ATOM     38  C   UNL     1      -1.071 -15.760  28.614  1.00  0.00     0.339 C 
ATOM     39  C   UNL     1      -2.549 -15.606  28.143  1.00  0.00     0.214 C 
ATOM     40  O   UNL     1      -0.188 -14.862  27.935  1.00  0.00    -0.332 OA
ATOM     41  C   UNL     1      -2.694 -14.584  26.996  1.00  0.00     0.180 C 
ATOM     42  C   UNL     1      -0.223 -14.993  26.509  1.00  0.00     0.179 C 
ATOM     43  C   UNL     1      -1.657 -14.977  25.924  1.00  0.00     0.177 C 
BRANCH  39  44
ATOM     44  O   UNL     1      -3.406 -15.279  29.198  1.00  0.00    -0.384 OA
ATOM     45  H   UNL     1      -4.212 -14.846  28.812  1.00  0.00     0.211 HD
ENDBRANCH  39  44
BRANCH  41  46
ATOM     46  O   UNL     1      -2.500 -13.279  27.486  1.00  0.00    -0.387 OA
ATOM     47  H   UNL     1      -2.151 -12.720  26.752  1.00  0.00     0.211 HD
ENDBRANCH  41  46
BRANCH  42  48
ATOM     48  C   UNL     1       0.640 -16.166  25.979  1.00  0.00     0.191 C 
BRANCH  48  49
ATOM     49  O   UNL     1       0.601 -16.219  24.581  1.00  0.00    -0.394 OA
ATOM     50  H   UNL     1      -0.189 -15.704  24.305  1.00  0.00     0.210 HD
ENDBRANCH  48  49
ENDBRANCH  42  48
BRANCH  43  51
ATOM     51  O   UNL     1      -1.726 -14.158  24.773  1.00  0.00    -0.387 OA
ATOM     52  H   UNL     1      -0.917 -13.588  24.791  1.00  0.00     0.211 HD
ENDBRANCH  43  51
ENDBRANCH  37  38
ENDBRANCH   5  37
BRANCH   7  53
ATOM     53  O   UNL     1       2.174 -17.510  32.445  1.00  0.00    -0.507 OA
ATOM     54  H   UNL     1       1.707 -17.395  33.337  1.00  0.00     0.293 HD
ENDBRANCH   7  53
TORSDOF 18
ENDMDL
MODEL 3
REMARK VINA RESULT:    -6.915      2.525      8.596
REMARK INTER + INTRA:         -15.056
REMARK INTER:                 -11.489
REMARK INTRA:                  -3.567
REMARK UNBOUND:                -2.885
REMARK SMILES COc1cc(-c2[o+]c3cc(O)cc(O[C@H]4O[C@@H](CO)[C@H](O)[C@H](O)[C@@H]4O)c3cc2O[C@H]2O[C@@H](CO)[C@H](O)[C@H](O)[C@@H]2O)ccc1O
REMARK SMILES IDX 6 1 28 2 27 3 26 4 13 5 12 6 10 7 9 8 8 9 7 10 5 11 3 12
REMARK SMILES IDX 43 13 4 14 42 15 41 16 2 17 1 18 44 19 29 21 30 22 39 23
REMARK SMILES IDX 31 24 37 25 32 26 35 27 40 28 38 30 33 32 34 33 36 35 14 37
REMARK SMILES IDX 15 38 24 39 16 40 22 41 17 42 20 43 25 44 23 46 18 48 19 49
REMARK SMILES IDX 21 51 11 53
REMARK H PARENT 44 20 40 29 38 31 34 34 36 36 25 45 23 47 19 50 21 52 11 54
REMARK Flexibility Score: inf
ROOT
ATOM      1  C   UNL     1       2.800 -22.404  29.652  1.00  0.00     0.402 A 
ATOM      2  C   UNL     1       2.840 -21.557  28.492  1.00  0.00     0.229 A 
ATOM      3  C   UNL     1       2.508 -20.211  28.645  1.00  0.00     0.079 A 
ATOM      4  C   UNL     1       2.331 -19.668  29.932  1.00  0.00     0.126 A 
ATOM      5  C   UNL     1       1.847 -18.353  30.138  1.00  0.00     0.143 A 
ATOM      6  C   UNL     1       1.893 -17.795  31.429  1.00  0.00     0.094 A 
ATOM      7  C   UNL     1       2.339 -18.581  32.510  1.00  0.00     0.128 A 
ATOM      8  C   UNL     1       2.689 -19.929  32.300  1.00  0.00     0.162 A 
ATOM      9  C   UNL     1       2.642 -20.484  31.023  1.00  0.00     0.368 A 
ATOM     10  O   UNL     1       2.809 -21.806  30.851  1.00  0.00    -0.202 OA
ENDROOT
BRANCH   1  11
ATOM     11  C   UNL     1       2.617 -23.908  29.628  1.00  0.00     0.087 A 
ATOM     12  C   UNL     1       1.010 -25.791  29.690  1.00  0.00     0.161 A 
ATOM     13  C   UNL     1       2.017 -26.655  29.255  1.00  0.00     0.157 A 
ATOM     14  C   UNL     1       1.327 -24.424  29.903  1.00  0.00     0.068 A 
ATOM     15  C   UNL     1       3.293 -26.174  29.011  1.00  0.00     0.051 A 
ATOM     16  C   UNL     1       3.598 -24.813  29.161  1.00  0.00     0.022 A 
BRANCH  12  17
ATOM     17  O   UNL     1      -0.277 -26.281  29.873  1.00  0.00    -0.493 OA
ATOM     18  C   UNL     1      -1.465 -25.551  29.568  1.00  0.00     0.278 C 
ENDBRANCH  12  17
BRANCH  13  19
ATOM     19  O   UNL     1       1.751 -28.000  29.014  1.00  0.00    -0.504 OA
ATOM     20  H   UNL     1       1.210 -28.321  28.218  1.00  0.00     0.293 HD
ENDBRANCH  13  19
ENDBRANCH   1  11
BRANCH   2  21
ATOM     21  O   UNL     1       3.155 -22.002  27.199  1.00  0.00    -0.452 OA
BRANCH  21  22
ATOM     22  C   UNL     1       2.248 -22.087  26.086  1.00  0.00     0.339 C 
ATOM     23  C   UNL     1       2.100 -23.516  25.467  1.00  0.00     0.214 C 
ATOM     24  O   UNL     1       2.654 -21.194  25.067  1.00  0.00    -0.332 OA
ATOM     25  C   UNL     1       1.434 -23.421  24.051  1.00  0.00     0.180 C 
ATOM     26  C   UNL     1       1.585 -20.877  24.180  1.00  0.00     0.179 C 
ATOM     27  C   UNL     1       0.656 -22.115  23.871  1.00  0.00     0.177 C 
BRANCH  23  28
ATOM     28  O   UNL     1       1.363 -24.350  26.331  1.00  0.00    -0.384 OA
ATOM     29  H   UNL     1       1.520 -24.022  27.248  1.00  0.00     0.211 HD
ENDBRANCH  23  28
BRANCH  25  30
ATOM     30  O   UNL     1       0.562 -24.500  23.816  1.00  0.00    -0.387 OA
ATOM     31  H   UNL     1       0.103 -24.315  22.956  1.00  0.00     0.211 HD
ENDBRANCH  25  30
BRANCH  26  32
ATOM     32  C   UNL     1       2.177 -20.289  22.876  1.00  0.00     0.191 C 
BRANCH  32  33
ATOM     33  O   UNL     1       3.229 -19.393  23.149  1.00  0.00    -0.394 OA
ATOM     34  H   UNL     1       2.814 -18.566  23.492  1.00  0.00     0.210 HD
ENDBRANCH  32  33
ENDBRANCH  26  32
BRANCH  27  35
ATOM     35  O   UNL     1      -0.506 -22.174  24.671  1.00  0.00    -0.387 OA
ATOM     36  H   UNL     1      -1.229 -22.685  24.209  1.00  0.00     0.211 HD
ENDBRANCH  27  35
ENDBRANCH  21  22
ENDBRANCH   2  21
BRANCH   5  37
ATOM     37  O   UNL     1       1.252 -17.705  29.043  1.00  0.00    -0.461 OA
BRANCH  37  38
ATOM     38  C   UNL     1      -0.138 -17.421  28.878  1.00  0.00     0.339 C 
ATOM     39  C   UNL     1      -1.012 -18.690  29.114  1.00  0.00     0.214 C 
ATOM     40  O   UNL     1      -0.338 -16.857  27.578  1.00  0.00    -0.332 OA
ATOM     41  C   UNL     1      -1.818 -19.086  27.859  1.00  0.00     0.180 C 
ATOM     42  C   UNL     1      -0.092 -17.779  26.509  1.00  0.00     0.179 C 
ATOM     43  C   UNL     1      -0.815 -19.137  26.689  1.00  0.00     0.177 C 
BRANCH  39  44
ATOM     44  O   UNL     1      -1.861 -18.547  30.214  1.00  0.00    -0.384 OA
ATOM     45  H   UNL     1      -2.745 -18.930  29.968  1.00  0.00     0.211 HD
ENDBRANCH  39  44
BRANCH  41  46
ATOM     46  O   UNL     1      -2.858 -18.161  27.643  1.00  0.00    -0.387 OA
ATOM     47  H   UNL     1      -2.822 -17.481  28.358  1.00  0.00     0.211 HD
ENDBRANCH  41  46
BRANCH  42  48
ATOM     48  C   UNL     1       1.409 -17.927  26.161  1.00  0.00     0.191 C 
BRANCH  48  49
ATOM     49  O   UNL     1       1.682 -17.389  24.898  1.00  0.00    -0.394 OA
ATOM     50  H   UNL     1       1.030 -17.785  24.280  1.00  0.00     0.210 HD
ENDBRANCH  48  49
ENDBRANCH  42  48
BRANCH  43  51
ATOM     51  O   UNL     1      -1.411 -19.558  25.477  1.00  0.00    -0.387 OA
ATOM     52  H   UNL     1      -1.954 -20.355  25.700  1.00  0.00     0.211 HD
ENDBRANCH  43  51
ENDBRANCH  37  38
ENDBRANCH   5  37
BRANCH   7  53
ATOM     53  O   UNL     1       2.387 -18.050  33.798  1.00  0.00    -0.507 OA
ATOM     54  H   UNL     1       2.548 -18.642  34.605  1.00  0.00     0.293 HD
ENDBRANCH   7  53
TORSDOF 18
ENDMDL
MODEL 4
REMARK VINA RESULT:    -6.881      1.848      8.502
REMARK INTER + INTRA:         -14.995
REMARK INTER:                 -11.280
REMARK INTRA:                  -3.715
REMARK UNBOUND:                -2.885
REMARK SMILES COc1cc(-c2[o+]c3cc(O)cc(O[C@H]4O[C@@H](CO)[C@H](O)[C@H](O)[C@@H]4O)c3cc2O[C@H]2O[C@@H](CO)[C@H](O)[C@H](O)[C@@H]2O)ccc1O
REMARK SMILES IDX 6 1 28 2 27 3 26 4 13 5 12 6 10 7 9 8 8 9 7 10 5 11 3 12
REMARK SMILES IDX 43 13 4 14 42 15 41 16 2 17 1 18 44 19 29 21 30 22 39 23
REMARK SMILES IDX 31 24 37 25 32 26 35 27 40 28 38 30 33 32 34 33 36 35 14 37
REMARK SMILES IDX 15 38 24 39 16 40 22 41 17 42 20 43 25 44 23 46 18 48 19 49
REMARK SMILES IDX 21 51 11 53
REMARK H PARENT 44 20 40 29 38 31 34 34 36 36 25 45 23 47 19 50 21 52 11 54
REMARK Flexibility Score: inf
ROOT
ATOM      1  C   UNL     1       1.660 -19.330  29.528  1.00  0.00     0.402 A 
ATOM      2  C   UNL     1       1.707 -18.459  28.386  1.00  0.00     0.229 A 
ATOM      3  C   UNL     1       1.403 -17.110  28.570  1.00  0.00     0.079 A 
ATOM      4  C   UNL     1       1.248 -16.592  29.870  1.00  0.00     0.126 A 
ATOM      5  C   UNL     1       0.792 -15.272  30.108  1.00  0.00     0.143 A 
ATOM      6  C   UNL     1       0.859 -14.742  31.411  1.00  0.00     0.094 A 
ATOM      7  C   UNL     1       1.298 -15.560  32.471  1.00  0.00     0.128 A 
ATOM      8  C   UNL     1       1.620 -16.910  32.229  1.00  0.00     0.162 A 
ATOM      9  C   UNL     1       1.551 -17.436  30.942  1.00  0.00     0.368 A 
ATOM     10  O   UNL     1       1.691 -18.757  30.739  1.00  0.00    -0.202 OA
ENDROOT
BRANCH   1  11
ATOM     11  C   UNL     1       1.446 -20.829  29.474  1.00  0.00     0.087 A 
ATOM     12  C   UNL     1      -0.177 -22.670  29.155  1.00  0.00     0.161 A 
ATOM     13  C   UNL     1       0.881 -23.566  28.991  1.00  0.00     0.157 A 
ATOM     14  C   UNL     1       0.115 -21.308  29.427  1.00  0.00     0.068 A 
ATOM     15  C   UNL     1       2.191 -23.120  29.065  1.00  0.00     0.051 A 
ATOM     16  C   UNL     1       2.487 -21.765  29.273  1.00  0.00     0.022 A 
BRANCH  12  17
ATOM     17  O   UNL     1      -1.483 -23.126  29.019  1.00  0.00    -0.493 OA
ATOM     18  C   UNL     1      -2.217 -23.777  30.055  1.00  0.00     0.278 C 
ENDBRANCH  12  17
BRANCH  13  19
ATOM     19  O   UNL     1       0.646 -24.908  28.704  1.00  0.00    -0.504 OA
ATOM     20  H   UNL     1      -0.287 -25.296  28.616  1.00  0.00     0.293 HD
ENDBRANCH  13  19
ENDBRANCH   1  11
BRANCH   2  21
ATOM     21  O   UNL     1       2.003 -18.882  27.081  1.00  0.00    -0.452 OA
BRANCH  21  22
ATOM     22  C   UNL     1       1.048 -19.257  26.074  1.00  0.00     0.339 C 
ATOM     23  C   UNL     1       1.457 -20.496  25.210  1.00  0.00     0.214 C 
ATOM     24  O   UNL     1       0.809 -18.164  25.210  1.00  0.00    -0.332 OA
ATOM     25  C   UNL     1       0.574 -20.562  23.916  1.00  0.00     0.180 C 
ATOM     26  C   UNL     1      -0.430 -18.294  24.517  1.00  0.00     0.179 C 
ATOM     27  C   UNL     1      -0.732 -19.779  24.073  1.00  0.00     0.177 C 
BRANCH  23  28
ATOM     28  O   UNL     1       1.353 -21.678  25.969  1.00  0.00    -0.384 OA
ATOM     29  H   UNL     1       2.270 -21.930  26.233  1.00  0.00     0.211 HD
ENDBRANCH  23  28
BRANCH  25  30
ATOM     30  O   UNL     1       0.263 -21.890  23.570  1.00  0.00    -0.387 OA
ATOM     31  H   UNL     1       0.664 -22.469  24.269  1.00  0.00     0.211 HD
ENDBRANCH  25  30
BRANCH  26  32
ATOM     32  C   UNL     1      -0.420 -17.342  23.296  1.00  0.00     0.191 C 
BRANCH  32  33
ATOM     33  O   UNL     1       0.242 -16.135  23.592  1.00  0.00    -0.394 OA
ATOM     34  H   UNL     1      -0.342 -15.407  23.271  1.00  0.00     0.210 HD
ENDBRANCH  32  33
ENDBRANCH  26  32
BRANCH  27  35
ATOM     35  O   UNL     1      -1.571 -20.484  24.963  1.00  0.00    -0.387 OA
ATOM     36  H   UNL     1      -2.400 -20.791  24.501  1.00  0.00     0.211 HD
ENDBRANCH  27  35
ENDBRANCH  21  22
ENDBRANCH   2  21
BRANCH   5  37
ATOM     37  O   UNL     1       0.201 -14.589  29.032  1.00  0.00    -0.461 OA
BRANCH  37  38
ATOM     38  C   UNL     1      -1.172 -14.209  28.919  1.00  0.00     0.339 C 
ATOM     39  C   UNL     1      -2.086 -15.444  28.658  1.00  0.00     0.214 C 
ATOM     40  O   UNL     1      -1.289 -13.219  27.893  1.00  0.00    -0.332 OA
ATOM     41  C   UNL     1      -2.834 -15.344  27.312  1.00  0.00     0.180 C 
ATOM     42  C   UNL     1      -1.007 -13.719  26.579  1.00  0.00     0.179 C 
ATOM     43  C   UNL     1      -1.770 -15.024  26.241  1.00  0.00     0.177 C 
BRANCH  39  44
ATOM     44  O   UNL     1      -2.990 -15.660  29.703  1.00  0.00    -0.384 OA
ATOM     45  H   UNL     1      -3.077 -14.809  30.209  1.00  0.00     0.211 HD
ENDBRANCH  39  44
BRANCH  41  46
ATOM     46  O   UNL     1      -3.838 -14.361  27.390  1.00  0.00    -0.387 OA
ATOM     47  H   UNL     1      -3.753 -13.766  26.607  1.00  0.00     0.211 HD
ENDBRANCH  41  46
BRANCH  42  48
ATOM     48  C   UNL     1       0.507 -13.797  26.264  1.00  0.00     0.191 C 
BRANCH  48  49
ATOM     49  O   UNL     1       0.905 -15.124  26.068  1.00  0.00    -0.394 OA
ATOM     50  H   UNL     1       1.464 -15.131  25.260  1.00  0.00     0.210 HD
ENDBRANCH  48  49
ENDBRANCH  42  48
BRANCH  43  51
ATOM     51  O   UNL     1      -2.310 -14.972  24.935  1.00  0.00    -0.387 OA
ATOM     52  H   UNL     1      -3.202 -15.396  24.989  1.00  0.00     0.211 HD
ENDBRANCH  43  51
ENDBRANCH  37  38
ENDBRANCH   5  37
BRANCH   7  53
ATOM     53  O   UNL     1       1.366 -15.058  33.769  1.00  0.00    -0.507 OA
ATOM     54  H   UNL     1       0.885 -14.203  34.028  1.00  0.00     0.293 HD
ENDBRANCH   7  53
TORSDOF 18
ENDMDL
MODEL 5
REMARK VINA RESULT:    -6.844      3.721      9.183
REMARK INTER + INTRA:         -14.931
REMARK INTER:                 -12.129
REMARK INTRA:                  -2.802
REMARK UNBOUND:                -2.885
REMARK SMILES COc1cc(-c2[o+]c3cc(O)cc(O[C@H]4O[C@@H](CO)[C@H](O)[C@H](O)[C@@H]4O)c3cc2O[C@H]2O[C@@H](CO)[C@H](O)[C@H](O)[C@@H]2O)ccc1O
REMARK SMILES IDX 6 1 28 2 27 3 26 4 13 5 12 6 10 7 9 8 8 9 7 10 5 11 3 12
REMARK SMILES IDX 43 13 4 14 42 15 41 16 2 17 1 18 44 19 29 21 30 22 39 23
REMARK SMILES IDX 31 24 37 25 32 26 35 27 40 28 38 30 33 32 34 33 36 35 14 37
REMARK SMILES IDX 15 38 24 39 16 40 22 41 17 42 20 43 25 44 23 46 18 48 19 49
REMARK SMILES IDX 21 51 11 53
REMARK H PARENT 44 20 40 29 38 31 34 34 36 36 25 45 23 47 19 50 21 52 11 54
REMARK Flexibility Score: inf
ROOT
ATOM      1  C   UNL     1      -0.793 -15.221  25.784  1.00  0.00     0.402 A 
ATOM      2  C   UNL     1      -1.759 -14.616  26.660  1.00  0.00     0.229 A 
ATOM      3  C   UNL     1      -1.464 -13.367  27.208  1.00  0.00     0.079 A 
ATOM      4  C   UNL     1      -0.343 -12.645  26.757  1.00  0.00     0.126 A 
ATOM      5  C   UNL     1       0.086 -11.449  27.382  1.00  0.00     0.143 A 
ATOM      6  C   UNL     1       1.076 -10.663  26.762  1.00  0.00     0.094 A 
ATOM      7  C   UNL     1       1.683 -11.120  25.576  1.00  0.00     0.128 A 
ATOM      8  C   UNL     1       1.332 -12.376  25.047  1.00  0.00     0.162 A 
ATOM      9  C   UNL     1       0.355 -13.157  25.660  1.00  0.00     0.368 A 
ATOM     10  O   UNL     1       0.144 -14.421  25.257  1.00  0.00    -0.202 OA
ENDROOT
BRANCH   1  11
ATOM     11  C   UNL     1      -0.671 -16.706  25.513  1.00  0.00     0.087 A 
ATOM     12  C   UNL     1      -1.212 -18.995  26.286  1.00  0.00     0.161 A 
ATOM     13  C   UNL     1      -0.863 -19.495  25.030  1.00  0.00     0.157 A 
ATOM     14  C   UNL     1      -1.083 -17.602  26.529  1.00  0.00     0.068 A 
ATOM     15  C   UNL     1      -0.428 -18.636  24.034  1.00  0.00     0.051 A 
ATOM     16  C   UNL     1      -0.356 -17.252  24.247  1.00  0.00     0.022 A 
BRANCH  12  17
ATOM     17  O   UNL     1      -1.702 -19.864  27.254  1.00  0.00    -0.493 OA
ATOM     18  C   UNL     1      -0.905 -20.453  28.281  1.00  0.00     0.278 C 
ENDBRANCH  12  17
BRANCH  13  19
ATOM     19  O   UNL     1      -0.989 -20.850  24.739  1.00  0.00    -0.504 OA
ATOM     20  H   UNL     1      -1.760 -21.227  24.198  1.00  0.00     0.293 HD
ENDBRANCH  13  19
ENDBRANCH   1  11
BRANCH   2  21
ATOM     21  O   UNL     1      -2.970 -15.217  27.036  1.00  0.00    -0.452 OA
BRANCH  21  22
ATOM     22  C   UNL     1      -4.079 -14.562  27.676  1.00  0.00     0.339 C 
ATOM     23  C   UNL     1      -4.196 -14.820  29.214  1.00  0.00     0.214 C 
ATOM     24  O   UNL     1      -5.289 -14.958  27.059  1.00  0.00    -0.332 OA
ATOM     25  C   UNL     1      -5.625 -14.415  29.719  1.00  0.00     0.180 C 
ATOM     26  C   UNL     1      -6.339 -14.025  27.300  1.00  0.00     0.179 C 
ATOM     27  C   UNL     1      -6.313 -13.436  28.765  1.00  0.00     0.177 C 
BRANCH  23  28
ATOM     28  O   UNL     1      -3.186 -14.122  29.906  1.00  0.00    -0.384 OA
ATOM     29  H   UNL     1      -3.639 -13.482  30.506  1.00  0.00     0.211 HD
ENDBRANCH  23  28
BRANCH  25  30
ATOM     30  O   UNL     1      -5.576 -13.836  31.000  1.00  0.00    -0.387 OA
ATOM     31  H   UNL     1      -4.912 -13.100  30.956  1.00  0.00     0.211 HD
ENDBRANCH  25  30
BRANCH  26  32
ATOM     32  C   UNL     1      -7.694 -14.713  27.004  1.00  0.00     0.191 C 
BRANCH  32  33
ATOM     33  O   UNL     1      -8.670 -13.775  26.614  1.00  0.00    -0.394 OA
ATOM     34  H   UNL     1      -9.504 -14.025  27.079  1.00  0.00     0.210 HD
ENDBRANCH  32  33
ENDBRANCH  26  32
BRANCH  27  35
ATOM     35  O   UNL     1      -5.667 -12.184  28.869  1.00  0.00    -0.387 OA
ATOM     36  H   UNL     1      -6.076 -11.633  29.592  1.00  0.00     0.211 HD
ENDBRANCH  27  35
ENDBRANCH  21  22
ENDBRANCH   2  21
BRANCH   5  37
ATOM     37  O   UNL     1      -0.439 -11.159  28.652  1.00  0.00    -0.461 OA
BRANCH  37  38
ATOM     38  C   UNL     1       0.261 -11.223  29.895  1.00  0.00     0.339 C 
ATOM     39  C   UNL     1       0.187 -12.648  30.520  1.00  0.00     0.214 C 
ATOM     40  O   UNL     1      -0.265 -10.218  30.768  1.00  0.00    -0.332 OA
ATOM     41  C   UNL     1      -0.515 -12.650  31.894  1.00  0.00     0.180 C 
ATOM     42  C   UNL     1      -1.618 -10.464  31.174  1.00  0.00     0.179 C 
ATOM     43  C   UNL     1      -1.850 -11.900  31.706  1.00  0.00     0.177 C 
BRANCH  39  44
ATOM     44  O   UNL     1       1.447 -13.247  30.616  1.00  0.00    -0.384 OA
ATOM     45  H   UNL     1       2.131 -12.542  30.459  1.00  0.00     0.211 HD
ENDBRANCH  39  44
BRANCH  41  46
ATOM     46  O   UNL     1       0.314 -12.048  32.859  1.00  0.00    -0.387 OA
ATOM     47  H   UNL     1       0.028 -12.359  33.751  1.00  0.00     0.211 HD
ENDBRANCH  41  46
BRANCH  42  48
ATOM     48  C   UNL     1      -2.664 -10.026  30.119  1.00  0.00     0.191 C 
BRANCH  48  49
ATOM     49  O   UNL     1      -3.236 -11.140  29.495  1.00  0.00    -0.394 OA
ATOM     50  H   UNL     1      -3.233 -11.863  30.160  1.00  0.00     0.210 HD
ENDBRANCH  48  49
ENDBRANCH  42  48
BRANCH  43  51
ATOM     51  O   UNL     1      -2.637 -11.884  32.880  1.00  0.00    -0.387 OA
ATOM     52  H   UNL     1      -2.746 -10.932  33.126  1.00  0.00     0.211 HD
ENDBRANCH  43  51
ENDBRANCH  37  38
ENDBRANCH   5  37
BRANCH   7  53
ATOM     53  O   UNL     1       2.670 -10.360  24.949  1.00  0.00    -0.507 OA
ATOM     54  H   UNL     1       2.770 -10.357  23.940  1.00  0.00     0.293 HD
ENDBRANCH   7  53
TORSDOF 18
ENDMDL
MODEL 6
REMARK VINA RESULT:    -6.762      2.745      6.263
REMARK INTER + INTRA:         -14.787
REMARK INTER:                 -11.788
REMARK INTRA:                  -2.998
REMARK UNBOUND:                -2.885
REMARK SMILES COc1cc(-c2[o+]c3cc(O)cc(O[C@H]4O[C@@H](CO)[C@H](O)[C@H](O)[C@@H]4O)c3cc2O[C@H]2O[C@@H](CO)[C@H](O)[C@H](O)[C@@H]2O)ccc1O
REMARK SMILES IDX 6 1 28 2 27 3 26 4 13 5 12 6 10 7 9 8 8 9 7 10 5 11 3 12
REMARK SMILES IDX 43 13 4 14 42 15 41 16 2 17 1 18 44 19 29 21 30 22 39 23
REMARK SMILES IDX 31 24 37 25 32 26 35 27 40 28 38 30 33 32 34 33 36 35 14 37
REMARK SMILES IDX 15 38 24 39 16 40 22 41 17 42 20 43 25 44 23 46 18 48 19 49
REMARK SMILES IDX 21 51 11 53
REMARK H PARENT 44 20 40 29 38 31 34 34 36 36 25 45 23 47 19 50 21 52 11 54
REMARK Flexibility Score: inf
ROOT
ATOM      1  C   UNL     1      -1.307 -16.843  28.390  1.00  0.00     0.402 A 
ATOM      2  C   UNL     1      -1.375 -17.045  26.969  1.00  0.00     0.229 A 
ATOM      3  C   UNL     1      -1.298 -18.350  26.483  1.00  0.00     0.079 A 
ATOM      4  C   UNL     1      -1.348 -19.440  27.373  1.00  0.00     0.126 A 
ATOM      5  C   UNL     1      -1.121 -20.772  26.949  1.00  0.00     0.143 A 
ATOM      6  C   UNL     1      -1.392 -21.834  27.833  1.00  0.00     0.094 A 
ATOM      7  C   UNL     1      -1.804 -21.551  29.151  1.00  0.00     0.128 A 
ATOM      8  C   UNL     1      -1.893 -20.216  29.587  1.00  0.00     0.162 A 
ATOM      9  C   UNL     1      -1.622 -19.165  28.715  1.00  0.00     0.368 A 
ATOM     10  O   UNL     1      -1.541 -17.904  29.174  1.00  0.00    -0.202 OA
ENDROOT
BRANCH   1  11
ATOM     11  C   UNL     1      -0.866 -15.562  29.069  1.00  0.00     0.087 A 
ATOM     12  C   UNL     1      -1.573 -13.415  30.078  1.00  0.00     0.161 A 
ATOM     13  C   UNL     1      -0.307 -13.275  30.650  1.00  0.00     0.157 A 
ATOM     14  C   UNL     1      -1.834 -14.547  29.264  1.00  0.00     0.068 A 
ATOM     15  C   UNL     1       0.663 -14.243  30.444  1.00  0.00     0.051 A 
ATOM     16  C   UNL     1       0.392 -15.394  29.691  1.00  0.00     0.022 A 
BRANCH  12  17
ATOM     17  O   UNL     1      -2.550 -12.462  30.343  1.00  0.00    -0.493 OA
ATOM     18  C   UNL     1      -3.633 -12.158  29.465  1.00  0.00     0.278 C 
ENDBRANCH  12  17
BRANCH  13  19
ATOM     19  O   UNL     1      -0.008 -12.191  31.471  1.00  0.00    -0.504 OA
ATOM     20  H   UNL     1       0.747 -11.543  31.273  1.00  0.00     0.293 HD
ENDBRANCH  13  19
ENDBRANCH   1  11
BRANCH   2  21
ATOM     21  O   UNL     1      -1.477 -16.010  26.027  1.00  0.00    -0.452 OA
BRANCH  21  22
ATOM     22  C   UNL     1      -0.396 -15.194  25.543  1.00  0.00     0.339 C 
ATOM     23  C   UNL     1       1.034 -15.742  25.863  1.00  0.00     0.214 C 
ATOM     24  O   UNL     1      -0.507 -13.888  26.073  1.00  0.00    -0.332 OA
ATOM     25  C   UNL     1       2.100 -14.608  25.664  1.00  0.00     0.180 C 
ATOM     26  C   UNL     1       0.209 -12.934  25.293  1.00  0.00     0.179 C 
ATOM     27  C   UNL     1       1.584 -13.492  24.753  1.00  0.00     0.177 C 
BRANCH  23  28
ATOM     28  O   UNL     1       1.319 -16.866  25.062  1.00  0.00    -0.384 OA
ATOM     29  H   UNL     1       0.564 -16.969  24.435  1.00  0.00     0.211 HD
ENDBRANCH  23  28
BRANCH  25  30
ATOM     30  O   UNL     1       3.297 -15.113  25.125  1.00  0.00    -0.387 OA
ATOM     31  H   UNL     1       3.618 -15.814  25.749  1.00  0.00     0.211 HD
ENDBRANCH  25  30
BRANCH  26  32
ATOM     32  C   UNL     1       0.424 -11.657  26.142  1.00  0.00     0.191 C 
BRANCH  32  33
ATOM     33  O   UNL     1       0.549 -11.966  27.510  1.00  0.00    -0.394 OA
ATOM     34  H   UNL     1       1.423 -11.613  27.800  1.00  0.00     0.210 HD
ENDBRANCH  32  33
ENDBRANCH  26  32
BRANCH  27  35
ATOM     35  O   UNL     1       1.522 -13.987  23.432  1.00  0.00    -0.387 OA
ATOM     36  H   UNL     1       1.146 -13.301  22.813  1.00  0.00     0.211 HD
ENDBRANCH  27  35
ENDBRANCH  21  22
ENDBRANCH   2  21
BRANCH   5  37
ATOM     37  O   UNL     1      -0.539 -20.958  25.684  1.00  0.00    -0.461 OA
BRANCH  37  38
ATOM     38  C   UNL     1       0.527 -21.853  25.364  1.00  0.00     0.339 C 
ATOM     39  C   UNL     1       1.854 -21.435  26.065  1.00  0.00     0.214 C 
ATOM     40  O   UNL     1       0.660 -21.914  23.940  1.00  0.00    -0.332 OA
ATOM     41  C   UNL     1       2.970 -21.101  25.054  1.00  0.00     0.180 C 
ATOM     42  C   UNL     1       1.113 -20.688  23.354  1.00  0.00     0.179 C 
ATOM     43  C   UNL     1       2.367 -20.101  24.047  1.00  0.00     0.177 C 
BRANCH  39  44
ATOM     44  O   UNL     1       2.294 -22.399  26.977  1.00  0.00    -0.384 OA
ATOM     45  H   UNL     1       1.851 -22.218  27.848  1.00  0.00     0.211 HD
ENDBRANCH  39  44
BRANCH  41  46
ATOM     46  O   UNL     1       3.430 -22.281  24.437  1.00  0.00    -0.387 OA
ATOM     47  H   UNL     1       4.227 -22.060  23.898  1.00  0.00     0.211 HD
ENDBRANCH  41  46
BRANCH  42  48
ATOM     48  C   UNL     1      -0.018 -19.649  23.155  1.00  0.00     0.191 C 
BRANCH  48  49
ATOM     49  O   UNL     1       0.512 -18.384  22.875  1.00  0.00    -0.394 OA
ATOM     50  H   UNL     1       0.612 -17.927  23.739  1.00  0.00     0.210 HD
ENDBRANCH  48  49
ENDBRANCH  42  48
BRANCH  43  51
ATOM     51  O   UNL     1       3.310 -19.651  23.093  1.00  0.00    -0.387 OA
ATOM     52  H   UNL     1       3.314 -20.328  22.370  1.00  0.00     0.211 HD
ENDBRANCH  43  51
ENDBRANCH  37  38
ENDBRANCH   5  37
BRANCH   7  53
ATOM     53  O   UNL     1      -2.071 -22.588  30.045  1.00  0.00    -0.507 OA
ATOM     54  H   UNL     1      -2.372 -22.398  30.994  1.00  0.00     0.293 HD
ENDBRANCH   7  53
TORSDOF 18
ENDMDL
MODEL 7
REMARK VINA RESULT:    -6.671      2.314      5.692
REMARK INTER + INTRA:         -14.626
REMARK INTER:                 -11.704
REMARK INTRA:                  -2.922
REMARK UNBOUND:                -2.885
REMARK SMILES COc1cc(-c2[o+]c3cc(O)cc(O[C@H]4O[C@@H](CO)[C@H](O)[C@H](O)[C@@H]4O)c3cc2O[C@H]2O[C@@H](CO)[C@H](O)[C@H](O)[C@@H]2O)ccc1O
REMARK SMILES IDX 6 1 28 2 27 3 26 4 13 5 12 6 10 7 9 8 8 9 7 10 5 11 3 12
REMARK SMILES IDX 43 13 4 14 42 15 41 16 2 17 1 18 44 19 29 21 30 22 39 23
REMARK SMILES IDX 31 24 37 25 32 26 35 27 40 28 38 30 33 32 34 33 36 35 14 37
REMARK SMILES IDX 15 38 24 39 16 40 22 41 17 42 20 43 25 44 23 46 18 48 19 49
REMARK SMILES IDX 21 51 11 53
REMARK H PARENT 44 20 40 29 38 31 34 34 36 36 25 45 23 47 19 50 21 52 11 54
REMARK Flexibility Score: inf
ROOT
ATOM      1  C   UNL     1       0.054 -18.547  29.084  1.00  0.00     0.402 A 
ATOM      2  C   UNL     1       0.958 -19.445  28.418  1.00  0.00     0.229 A 
ATOM      3  C   UNL     1       1.069 -20.749  28.900  1.00  0.00     0.079 A 
ATOM      4  C   UNL     1       0.176 -21.218  29.882  1.00  0.00     0.126 A 
ATOM      5  C   UNL     1       0.339 -22.475  30.513  1.00  0.00     0.143 A 
ATOM      6  C   UNL     1      -0.694 -22.979  31.326  1.00  0.00     0.094 A 
ATOM      7  C   UNL     1      -1.835 -22.188  31.568  1.00  0.00     0.128 A 
ATOM      8  C   UNL     1      -1.912 -20.886  31.037  1.00  0.00     0.162 A 
ATOM      9  C   UNL     1      -0.890 -20.385  30.235  1.00  0.00     0.368 A 
ATOM     10  O   UNL     1      -0.883 -19.092  29.872  1.00  0.00    -0.202 OA
ENDROOT
BRANCH   1  11
ATOM     11  C   UNL     1       0.156 -17.036  29.069  1.00  0.00     0.087 A 
ATOM     12  C   UNL     1      -0.769 -14.915  28.190  1.00  0.00     0.161 A 
ATOM     13  C   UNL     1      -0.057 -14.209  29.161  1.00  0.00     0.157 A 
ATOM     14  C   UNL     1      -0.632 -16.326  28.132  1.00  0.00     0.068 A 
ATOM     15  C   UNL     1       0.744 -14.885  30.067  1.00  0.00     0.051 A 
ATOM     16  C   UNL     1       0.836 -16.284  30.054  1.00  0.00     0.022 A 
BRANCH  12  17
ATOM     17  O   UNL     1      -1.613 -14.225  27.327  1.00  0.00    -0.493 OA
ATOM     18  C   UNL     1      -1.971 -14.678  26.022  1.00  0.00     0.278 C 
ENDBRANCH  12  17
BRANCH  13  19
ATOM     19  O   UNL     1      -0.172 -12.826  29.270  1.00  0.00    -0.504 OA
ATOM     20  H   UNL     1       0.434 -12.268  29.862  1.00  0.00     0.293 HD
ENDBRANCH  13  19
ENDBRANCH   1  11
BRANCH   2  21
ATOM     21  O   UNL     1       1.772 -19.086  27.333  1.00  0.00    -0.452 OA
BRANCH  21  22
ATOM     22  C   UNL     1       1.596 -19.499  25.967  1.00  0.00     0.339 C 
ATOM     23  C   UNL     1       0.116 -19.473  25.458  1.00  0.00     0.214 C 
ATOM     24  O   UNL     1       2.109 -20.805  25.792  1.00  0.00    -0.332 OA
ATOM     25  C   UNL     1      -0.012 -20.308  24.137  1.00  0.00     0.180 C 
ATOM     26  C   UNL     1       2.403 -21.082  24.425  1.00  0.00     0.179 C 
ATOM     27  C   UNL     1       1.336 -20.474  23.432  1.00  0.00     0.177 C 
BRANCH  23  28
ATOM     28  O   UNL     1      -0.315 -18.144  25.274  1.00  0.00    -0.384 OA
ATOM     29  H   UNL     1      -0.314 -17.975  24.301  1.00  0.00     0.211 HD
ENDBRANCH  23  28
BRANCH  25  30
ATOM     30  O   UNL     1      -0.921 -19.719  23.239  1.00  0.00    -0.387 OA
ATOM     31  H   UNL     1      -0.519 -19.796  22.335  1.00  0.00     0.211 HD
ENDBRANCH  25  30
BRANCH  26  32
ATOM     32  C   UNL     1       2.520 -22.615  24.242  1.00  0.00     0.191 C 
BRANCH  32  33
ATOM     33  O   UNL     1       3.636 -23.130  24.928  1.00  0.00    -0.394 OA
ATOM     34  H   UNL     1       4.102 -22.358  25.329  1.00  0.00     0.210 HD
ENDBRANCH  32  33
ENDBRANCH  26  32
BRANCH  27  35
ATOM     35  O   UNL     1       1.709 -19.228  22.883  1.00  0.00    -0.387 OA
ATOM     36  H   UNL     1       2.449 -19.338  22.223  1.00  0.00     0.211 HD
ENDBRANCH  27  35
ENDBRANCH  21  22
ENDBRANCH   2  21
BRANCH   5  37
ATOM     37  O   UNL     1       1.580 -23.117  30.365  1.00  0.00    -0.461 OA
BRANCH  37  38
ATOM     38  C   UNL     1       1.957 -24.374  30.927  1.00  0.00     0.339 C 
ATOM     39  C   UNL     1       3.502 -24.483  31.097  1.00  0.00     0.214 C 
ATOM     40  O   UNL     1       1.425 -25.419  30.107  1.00  0.00    -0.332 OA
ATOM     41  C   UNL     1       4.102 -25.640  30.270  1.00  0.00     0.180 C 
ATOM     42  C   UNL     1       2.019 -25.484  28.804  1.00  0.00     0.179 C 
ATOM     43  C   UNL     1       3.567 -25.475  28.832  1.00  0.00     0.177 C 
BRANCH  39  44
ATOM     44  O   UNL     1       3.878 -24.598  32.438  1.00  0.00    -0.384 OA
ATOM     45  H   UNL     1       3.810 -23.697  32.851  1.00  0.00     0.211 HD
ENDBRANCH  39  44
BRANCH  41  46
ATOM     46  O   UNL     1       3.747 -26.876  30.842  1.00  0.00    -0.387 OA
ATOM     47  H   UNL     1       4.481 -27.516  30.680  1.00  0.00     0.211 HD
ENDBRANCH  41  46
BRANCH  42  48
ATOM     48  C   UNL     1       1.420 -24.462  27.806  1.00  0.00     0.191 C 
BRANCH  48  49
ATOM     49  O   UNL     1       2.344 -23.452  27.515  1.00  0.00    -0.394 OA
ATOM     50  H   UNL     1       2.944 -23.814  26.826  1.00  0.00     0.210 HD
ENDBRANCH  48  49
ENDBRANCH  42  48
BRANCH  43  51
ATOM     51  O   UNL     1       4.095 -26.437  27.940  1.00  0.00    -0.387 OA
ATOM     52  H   UNL     1       3.777 -26.182  27.039  1.00  0.00     0.211 HD
ENDBRANCH  43  51
ENDBRANCH  37  38
ENDBRANCH   5  37
BRANCH   7  53
ATOM     53  O   UNL     1      -2.867 -22.665  32.375  1.00  0.00    -0.507 OA
ATOM     54  H   UNL     1      -2.676 -23.256  33.177  1.00  0.00     0.293 HD
ENDBRANCH   7  53
TORSDOF 18
ENDMDL
MODEL 8
REMARK VINA RESULT:    -6.583      2.476      5.939
REMARK INTER + INTRA:         -14.472
REMARK INTER:                 -11.790
REMARK INTRA:                  -2.682
REMARK UNBOUND:                -2.885
REMARK SMILES COc1cc(-c2[o+]c3cc(O)cc(O[C@H]4O[C@@H](CO)[C@H](O)[C@H](O)[C@@H]4O)c3cc2O[C@H]2O[C@@H](CO)[C@H](O)[C@H](O)[C@@H]2O)ccc1O
REMARK SMILES IDX 6 1 28 2 27 3 26 4 13 5 12 6 10 7 9 8 8 9 7 10 5 11 3 12
REMARK SMILES IDX 43 13 4 14 42 15 41 16 2 17 1 18 44 19 29 21 30 22 39 23
REMARK SMILES IDX 31 24 37 25 32 26 35 27 40 28 38 30 33 32 34 33 36 35 14 37
REMARK SMILES IDX 15 38 24 39 16 40 22 41 17 42 20 43 25 44 23 46 18 48 19 49
REMARK SMILES IDX 21 51 11 53
REMARK H PARENT 44 20 40 29 38 31 34 34 36 36 25 45 23 47 19 50 21 52 11 54
REMARK Flexibility Score: inf
ROOT
ATOM      1  C   UNL     1      -0.329 -18.474  29.239  1.00  0.00     0.402 A 
ATOM      2  C   UNL     1       0.545 -19.334  28.490  1.00  0.00     0.229 A 
ATOM      3  C   UNL     1       0.716 -20.647  28.929  1.00  0.00     0.079 A 
ATOM      4  C   UNL     1      -0.095 -21.160  29.959  1.00  0.00     0.126 A 
ATOM      5  C   UNL     1       0.137 -22.428  30.544  1.00  0.00     0.143 A 
ATOM      6  C   UNL     1      -0.826 -22.974  31.414  1.00  0.00     0.094 A 
ATOM      7  C   UNL     1      -1.963 -22.216  31.754  1.00  0.00     0.128 A 
ATOM      8  C   UNL     1      -2.104 -20.903  31.263  1.00  0.00     0.162 A 
ATOM      9  C   UNL     1      -1.152 -20.360  30.405  1.00  0.00     0.368 A 
ATOM     10  O   UNL     1      -1.197 -19.058  30.076  1.00  0.00    -0.202 OA
ENDROOT
BRANCH   1  11
ATOM     11  C   UNL     1      -0.260 -16.961  29.256  1.00  0.00     0.087 A 
ATOM     12  C   UNL     1      -1.477 -14.836  28.889  1.00  0.00     0.161 A 
ATOM     13  C   UNL     1      -0.460 -14.147  29.552  1.00  0.00     0.157 A 
ATOM     14  C   UNL     1      -1.353 -16.240  28.719  1.00  0.00     0.068 A 
ATOM     15  C   UNL     1       0.634 -14.832  30.057  1.00  0.00     0.051 A 
ATOM     16  C   UNL     1       0.732 -16.226  29.946  1.00  0.00     0.022 A 
BRANCH  12  17
ATOM     17  O   UNL     1      -2.593 -14.140  28.440  1.00  0.00    -0.493 OA
ATOM     18  C   UNL     1      -3.869 -14.175  29.077  1.00  0.00     0.278 C 
ENDBRANCH  12  17
BRANCH  13  19
ATOM     19  O   UNL     1      -0.543 -12.773  29.759  1.00  0.00    -0.504 OA
ATOM     20  H   UNL     1      -0.160 -12.316  30.579  1.00  0.00     0.293 HD
ENDBRANCH  13  19
ENDBRANCH   1  11
BRANCH   2  21
ATOM     21  O   UNL     1       1.273 -18.931  27.360  1.00  0.00    -0.452 OA
BRANCH  21  22
ATOM     22  C   UNL     1       0.954 -19.236  25.991  1.00  0.00     0.339 C 
ATOM     23  C   UNL     1       2.143 -19.807  25.151  1.00  0.00     0.214 C 
ATOM     24  O   UNL     1       0.461 -18.078  25.346  1.00  0.00    -0.332 OA
ATOM     25  C   UNL     1       1.812 -19.716  23.621  1.00  0.00     0.180 C 
ATOM     26  C   UNL     1      -0.301 -18.400  24.185  1.00  0.00     0.179 C 
ATOM     27  C   UNL     1       0.306 -19.607  23.367  1.00  0.00     0.177 C 
BRANCH  23  28
ATOM     28  O   UNL     1       2.428 -21.131  25.541  1.00  0.00    -0.384 OA
ATOM     29  H   UNL     1       2.264 -21.184  26.513  1.00  0.00     0.211 HD
ENDBRANCH  23  28
BRANCH  25  30
ATOM     30  O   UNL     1       2.308 -20.829  22.917  1.00  0.00    -0.387 OA
ATOM     31  H   UNL     1       2.665 -20.487  22.057  1.00  0.00     0.211 HD
ENDBRANCH  25  30
BRANCH  26  32
ATOM     32  C   UNL     1      -0.420 -17.135  23.300  1.00  0.00     0.191 C 
BRANCH  32  33
ATOM     33  O   UNL     1       0.202 -16.026  23.906  1.00  0.00    -0.394 OA
ATOM     34  H   UNL     1       0.125 -16.156  24.881  1.00  0.00     0.210 HD
ENDBRANCH  32  33
ENDBRANCH  26  32
BRANCH  27  35
ATOM     35  O   UNL     1      -0.287 -20.854  23.660  1.00  0.00    -0.387 OA
ATOM     36  H   UNL     1      -0.860 -20.792  24.473  1.00  0.00     0.211 HD
ENDBRANCH  27  35
ENDBRANCH  21  22
ENDBRANCH   2  21
BRANCH   5  37
ATOM     37  O   UNL     1       1.378 -23.037  30.294  1.00  0.00    -0.461 OA
BRANCH  37  38
ATOM     38  C   UNL     1       1.835 -24.281  30.828  1.00  0.00     0.339 C 
ATOM     39  C   UNL     1       3.389 -24.315  30.944  1.00  0.00     0.214 C 
ATOM     40  O   UNL     1       1.326 -25.342  30.013  1.00  0.00    -0.332 OA
ATOM     41  C   UNL     1       4.015 -25.433  30.083  1.00  0.00     0.180 C 
ATOM     42  C   UNL     1       1.877 -25.363  28.690  1.00  0.00     0.179 C 
ATOM     43  C   UNL     1       3.424 -25.279  28.666  1.00  0.00     0.177 C 
BRANCH  39  44
ATOM     44  O   UNL     1       3.815 -24.426  32.270  1.00  0.00    -0.384 OA
ATOM     45  H   UNL     1       4.185 -25.340  32.395  1.00  0.00     0.211 HD
ENDBRANCH  39  44
BRANCH  41  46
ATOM     46  O   UNL     1       3.740 -26.691  30.652  1.00  0.00    -0.387 OA
ATOM     47  H   UNL     1       2.793 -26.909  30.483  1.00  0.00     0.211 HD
ENDBRANCH  41  46
BRANCH  42  48
ATOM     48  C   UNL     1       1.196 -24.362  27.726  1.00  0.00     0.191 C 
BRANCH  48  49
ATOM     49  O   UNL     1       2.121 -23.430  27.243  1.00  0.00    -0.394 OA
ATOM     50  H   UNL     1       1.634 -22.583  27.139  1.00  0.00     0.210 HD
ENDBRANCH  48  49
ENDBRANCH  42  48
BRANCH  43  51
ATOM     51  O   UNL     1       3.967 -26.205  27.745  1.00  0.00    -0.387 OA
ATOM     52  H   UNL     1       3.854 -27.099  28.154  1.00  0.00     0.211 HD
ENDBRANCH  43  51
ENDBRANCH  37  38
ENDBRANCH   5  37
BRANCH   7  53
ATOM     53  O   UNL     1      -2.926 -22.735  32.619  1.00  0.00    -0.507 OA
ATOM     54  H   UNL     1      -3.233 -23.699  32.545  1.00  0.00     0.293 HD
ENDBRANCH   7  53
TORSDOF 18
ENDMDL
