MODEL 1
REMARK VINA RESULT:    -4.903      0.000      0.000
REMARK INTER + INTRA:         -10.359
REMARK INTER:                  -8.917
REMARK INTRA:                  -1.442
REMARK UNBOUND:                -1.442
REMARK SMILES CCCCCCCCCCCCCCCC(=O)[O-]
REMARK SMILES IDX 9 1 10 2 11 3 12 4 13 5 14 6 15 7 16 8 17 9 18 10 8 11 7 12
REMARK SMILES IDX 6 13 5 14 4 15 3 16 2 17 1 18
REMARK H PARENT
REMARK Flexibility Score: inf
ROOT
ATOM      1  C   UNL     1      -4.274  23.375  48.722  1.00  0.00     0.000 C 
ENDROOT
BRANCH   1   2
ATOM      2  C   UNL     1      -5.265  22.468  47.962  1.00  0.00     0.000 C 
BRANCH   2   3
ATOM      3  C   UNL     1      -4.820  20.997  47.874  1.00  0.00     0.000 C 
BRANCH   3   4
ATOM      4  C   UNL     1      -3.668  20.662  48.837  1.00  0.00     0.000 C 
BRANCH   4   5
ATOM      5  C   UNL     1      -3.421  19.151  48.963  1.00  0.00     0.000 C 
BRANCH   5   6
ATOM      6  C   UNL     1      -4.208  18.337  47.920  1.00  0.00     0.006 C 
BRANCH   6   7
ATOM      7  C   UNL     1      -3.302  17.390  47.121  1.00  0.00     0.053 C 
BRANCH   7   8
ATOM      8  C   UNL     1      -3.134  17.845  45.704  1.00  0.00     0.041 C 
ATOM      9  O   UNL     1      -2.930  19.062  45.449  1.00  0.00    -0.550 OA
ATOM     10  O   UNL     1      -3.172  16.923  44.666  1.00  0.00    -0.550 OA
ENDBRANCH   7   8
ENDBRANCH   6   7
ENDBRANCH   5   6
ENDBRANCH   4   5
ENDBRANCH   3   4
ENDBRANCH   2   3
ENDBRANCH   1   2
BRANCH   1  11
ATOM     11  C   UNL     1      -4.910  24.029  49.962  1.00  0.00     0.000 C 
BRANCH  11  12
ATOM     12  C   UNL     1      -6.289  24.650  49.673  1.00  0.00    -0.000 C 
BRANCH  12  13
ATOM     13  C   UNL     1      -6.430  26.142  50.039  1.00  0.00    -0.000 C 
BRANCH  13  14
ATOM     14  C   UNL     1      -7.251  26.987  49.048  1.00  0.00    -0.000 C 
BRANCH  14  15
ATOM     15  C   UNL     1      -6.404  28.019  48.290  1.00  0.00    -0.000 C 
BRANCH  15  16
ATOM     16  C   UNL     1      -5.262  27.334  47.531  1.00  0.00    -0.000 C 
BRANCH  16  17
ATOM     17  C   UNL     1      -5.797  26.520  46.347  1.00  0.00    -0.003 C 
ATOM     18  C   UNL     1      -4.766  25.503  45.868  1.00  0.00     0.004 C 
ENDBRANCH  16  17
ENDBRANCH  15  16
ENDBRANCH  14  15
ENDBRANCH  13  14
ENDBRANCH  12  13
ENDBRANCH  11  12
ENDBRANCH   1  11
TORSDOF 14
ENDMDL
MODEL 2
REMARK VINA RESULT:    -4.888      3.880      8.576
REMARK INTER + INTRA:         -10.330
REMARK INTER:                  -9.000
REMARK INTRA:                  -1.330
REMARK UNBOUND:                -1.442
REMARK SMILES CCCCCCCCCCCCCCCC(=O)[O-]
REMARK SMILES IDX 9 1 10 2 11 3 12 4 13 5 14 6 15 7 16 8 17 9 18 10 8 11 7 12
REMARK SMILES IDX 6 13 5 14 4 15 3 16 2 17 1 18
REMARK H PARENT
REMARK Flexibility Score: inf
ROOT
ATOM      1  C   UNL     1      -2.967  20.825  47.759  1.00  0.00     0.000 C 
ENDROOT
BRANCH   1   2
ATOM      2  C   UNL     1      -4.255  21.161  48.540  1.00  0.00     0.000 C 
BRANCH   2   3
ATOM      3  C   UNL     1      -5.310  21.912  47.707  1.00  0.00     0.000 C 
BRANCH   3   4
ATOM      4  C   UNL     1      -5.459  23.386  48.118  1.00  0.00     0.000 C 
BRANCH   4   5
ATOM      5  C   UNL     1      -4.605  23.751  49.341  1.00  0.00     0.000 C 
BRANCH   5   6
ATOM      6  C   UNL     1      -5.436  24.382  50.473  1.00  0.00     0.006 C 
BRANCH   6   7
ATOM      7  C   UNL     1      -6.239  25.598  49.992  1.00  0.00     0.053 C 
BRANCH   7   8
ATOM      8  C   UNL     1      -5.383  26.822  49.879  1.00  0.00     0.041 C 
ATOM      9  O   UNL     1      -5.363  27.484  48.808  1.00  0.00    -0.550 OA
ATOM     10  O   UNL     1      -4.628  27.248  50.965  1.00  0.00    -0.550 OA
ENDBRANCH   7   8
ENDBRANCH   6   7
ENDBRANCH   5   6
ENDBRANCH   4   5
ENDBRANCH   3   4
ENDBRANCH   2   3
ENDBRANCH   1   2
BRANCH   1  11
ATOM     11  C   UNL     1      -3.098  19.528  46.940  1.00  0.00     0.000 C 
BRANCH  11  12
ATOM     12  C   UNL     1      -3.918  18.443  47.661  1.00  0.00    -0.000 C 
BRANCH  12  13
ATOM     13  C   UNL     1      -3.105  17.501  48.574  1.00  0.00    -0.000 C 
BRANCH  13  14
ATOM     14  C   UNL     1      -1.684  17.176  48.084  1.00  0.00    -0.000 C 
BRANCH  14  15
ATOM     15  C   UNL     1      -1.660  16.145  46.946  1.00  0.00    -0.000 C 
BRANCH  15  16
ATOM     16  C   UNL     1      -0.932  16.704  45.719  1.00  0.00    -0.000 C 
BRANCH  16  17
ATOM     17  C   UNL     1      -1.669  16.338  44.425  1.00  0.00    -0.003 C 
ATOM     18  C   UNL     1      -3.181  16.418  44.612  1.00  0.00     0.004 C 
ENDBRANCH  16  17
ENDBRANCH  15  16
ENDBRANCH  14  15
ENDBRANCH  13  14
ENDBRANCH  12  13
ENDBRANCH  11  12
ENDBRANCH   1  11
TORSDOF 14
ENDMDL
MODEL 3
REMARK VINA RESULT:    -4.875      2.332      3.987
REMARK INTER + INTRA:         -10.307
REMARK INTER:                  -8.747
REMARK INTRA:                  -1.560
REMARK UNBOUND:                -1.442
REMARK SMILES CCCCCCCCCCCCCCCC(=O)[O-]
REMARK SMILES IDX 9 1 10 2 11 3 12 4 13 5 14 6 15 7 16 8 17 9 18 10 8 11 7 12
REMARK SMILES IDX 6 13 5 14 4 15 3 16 2 17 1 18
REMARK H PARENT
REMARK Flexibility Score: inf
ROOT
ATOM      1  C   UNL     1      -5.098  24.724  47.772  1.00  0.00     0.000 C 
ENDROOT
BRANCH   1   2
ATOM      2  C   UNL     1      -4.647  23.331  47.281  1.00  0.00     0.000 C 
BRANCH   2   3
ATOM      3  C   UNL     1      -5.537  22.178  47.779  1.00  0.00     0.000 C 
BRANCH   3   4
ATOM      4  C   UNL     1      -4.859  20.803  47.659  1.00  0.00     0.000 C 
BRANCH   4   5
ATOM      5  C   UNL     1      -3.469  20.768  48.313  1.00  0.00     0.000 C 
BRANCH   5   6
ATOM      6  C   UNL     1      -3.207  19.451  49.066  1.00  0.00     0.006 C 
BRANCH   6   7
ATOM      7  C   UNL     1      -4.005  18.279  48.479  1.00  0.00     0.053 C 
BRANCH   7   8
ATOM      8  C   UNL     1      -3.225  17.542  47.434  1.00  0.00     0.041 C 
ATOM      9  O   UNL     1      -3.500  17.694  46.215  1.00  0.00    -0.550 OA
ATOM     10  O   UNL     1      -2.176  16.710  47.804  1.00  0.00    -0.550 OA
ENDBRANCH   7   8
ENDBRANCH   6   7
ENDBRANCH   5   6
ENDBRANCH   4   5
ENDBRANCH   3   4
ENDBRANCH   2   3
ENDBRANCH   1   2
BRANCH   1  11
ATOM     11  C   UNL     1      -5.940  24.648  49.058  1.00  0.00     0.000 C 
BRANCH  11  12
ATOM     12  C   UNL     1      -5.177  25.129  50.305  1.00  0.00    -0.000 C 
BRANCH  12  13
ATOM     13  C   UNL     1      -4.492  24.019  51.128  1.00  0.00    -0.000 C 
BRANCH  13  14
ATOM     14  C   UNL     1      -3.084  23.622  50.651  1.00  0.00    -0.000 C 
BRANCH  14  15
ATOM     15  C   UNL     1      -1.987  24.567  51.159  1.00  0.00    -0.000 C 
BRANCH  15  16
ATOM     16  C   UNL     1      -2.147  24.831  52.661  1.00  0.00    -0.000 C 
BRANCH  16  17
ATOM     17  C   UNL     1      -2.351  26.325  52.939  1.00  0.00    -0.003 C 
ATOM     18  C   UNL     1      -3.484  26.550  53.935  1.00  0.00     0.004 C 
ENDBRANCH  16  17
ENDBRANCH  15  16
ENDBRANCH  14  15
ENDBRANCH  13  14
ENDBRANCH  12  13
ENDBRANCH  11  12
ENDBRANCH   1  11
TORSDOF 14
ENDMDL
MODEL 4
REMARK VINA RESULT:    -4.866      2.150      3.457
REMARK INTER + INTRA:         -10.290
REMARK INTER:                  -8.879
REMARK INTRA:                  -1.411
REMARK UNBOUND:                -1.442
REMARK SMILES CCCCCCCCCCCCCCCC(=O)[O-]
REMARK SMILES IDX 9 1 10 2 11 3 12 4 13 5 14 6 15 7 16 8 17 9 18 10 8 11 7 12
REMARK SMILES IDX 6 13 5 14 4 15 3 16 2 17 1 18
REMARK H PARENT
REMARK Flexibility Score: inf
ROOT
ATOM      1  C   UNL     1      -5.129  21.769  47.758  1.00  0.00     0.000 C 
ENDROOT
BRANCH   1   2
ATOM      2  C   UNL     1      -4.463  20.376  47.771  1.00  0.00     0.000 C 
BRANCH   2   3
ATOM      3  C   UNL     1      -3.194  20.303  48.639  1.00  0.00     0.000 C 
BRANCH   3   4
ATOM      4  C   UNL     1      -2.910  18.886  49.167  1.00  0.00     0.000 C 
BRANCH   4   5
ATOM      5  C   UNL     1      -3.724  17.807  48.437  1.00  0.00     0.000 C 
BRANCH   5   6
ATOM      6  C   UNL     1      -2.829  16.776  47.727  1.00  0.00     0.006 C 
BRANCH   6   7
ATOM      7  C   UNL     1      -2.049  17.393  46.558  1.00  0.00     0.053 C 
BRANCH   7   8
ATOM      8  C   UNL     1      -2.585  16.947  45.233  1.00  0.00     0.041 C 
ATOM      9  O   UNL     1      -3.825  16.964  45.014  1.00  0.00    -0.550 OA
ATOM     10  O   UNL     1      -1.715  16.541  44.229  1.00  0.00    -0.550 OA
ENDBRANCH   7   8
ENDBRANCH   6   7
ENDBRANCH   5   6
ENDBRANCH   4   5
ENDBRANCH   3   4
ENDBRANCH   2   3
ENDBRANCH   1   2
BRANCH   1  11
ATOM     11  C   UNL     1      -4.609  22.679  48.885  1.00  0.00     0.000 C 
BRANCH  11  12
ATOM     12  C   UNL     1      -5.391  24.000  49.000  1.00  0.00    -0.000 C 
BRANCH  12  13
ATOM     13  C   UNL     1      -5.052  24.860  50.235  1.00  0.00    -0.000 C 
BRANCH  13  14
ATOM     14  C   UNL     1      -4.451  24.093  51.426  1.00  0.00    -0.000 C 
BRANCH  14  15
ATOM     15  C   UNL     1      -3.074  24.621  51.850  1.00  0.00    -0.000 C 
BRANCH  15  16
ATOM     16  C   UNL     1      -2.066  24.496  50.702  1.00  0.00    -0.000 C 
BRANCH  16  17
ATOM     17  C   UNL     1      -1.397  23.116  50.702  1.00  0.00    -0.003 C 
ATOM     18  C   UNL     1      -0.589  22.896  49.428  1.00  0.00     0.004 C 
ENDBRANCH  16  17
ENDBRANCH  15  16
ENDBRANCH  14  15
ENDBRANCH  13  14
ENDBRANCH  12  13
ENDBRANCH  11  12
ENDBRANCH   1  11
TORSDOF 14
ENDMDL
MODEL 5
REMARK VINA RESULT:    -4.830      3.800      8.221
REMARK INTER + INTRA:         -10.224
REMARK INTER:                  -8.477
REMARK INTRA:                  -1.747
REMARK UNBOUND:                -1.442
REMARK SMILES CCCCCCCCCCCCCCCC(=O)[O-]
REMARK SMILES IDX 9 1 10 2 11 3 12 4 13 5 14 6 15 7 16 8 17 9 18 10 8 11 7 12
REMARK SMILES IDX 6 13 5 14 4 15 3 16 2 17 1 18
REMARK H PARENT
REMARK Flexibility Score: inf
ROOT
ATOM      1  C   UNL     1      -2.699  21.489  47.094  1.00  0.00     0.000 C 
ENDROOT
BRANCH   1   2
ATOM      2  C   UNL     1      -4.191  21.562  46.707  1.00  0.00     0.000 C 
BRANCH   2   3
ATOM      3  C   UNL     1      -5.113  21.992  47.862  1.00  0.00     0.000 C 
BRANCH   3   4
ATOM      4  C   UNL     1      -4.339  22.380  49.133  1.00  0.00     0.000 C 
BRANCH   4   5
ATOM      5  C   UNL     1      -4.796  23.725  49.718  1.00  0.00     0.000 C 
BRANCH   5   6
ATOM      6  C   UNL     1      -5.915  24.378  48.888  1.00  0.00     0.006 C 
BRANCH   6   7
ATOM      7  C   UNL     1      -6.503  25.616  49.578  1.00  0.00     0.053 C 
BRANCH   7   8
ATOM      8  C   UNL     1      -5.474  26.689  49.768  1.00  0.00     0.041 C 
ATOM      9  O   UNL     1      -5.048  27.340  48.778  1.00  0.00    -0.550 OA
ATOM     10  O   UNL     1      -5.006  26.988  51.042  1.00  0.00    -0.550 OA
ENDBRANCH   7   8
ENDBRANCH   6   7
ENDBRANCH   5   6
ENDBRANCH   4   5
ENDBRANCH   3   4
ENDBRANCH   2   3
ENDBRANCH   1   2
BRANCH   1  11
ATOM     11  C   UNL     1      -1.945  20.393  46.322  1.00  0.00     0.000 C 
BRANCH  11  12
ATOM     12  C   UNL     1      -2.883  19.448  45.549  1.00  0.00    -0.000 C 
BRANCH  12  13
ATOM     13  C   UNL     1      -2.492  17.956  45.585  1.00  0.00    -0.000 C 
BRANCH  13  14
ATOM     14  C   UNL     1      -1.634  17.531  46.789  1.00  0.00    -0.000 C 
BRANCH  14  15
ATOM     15  C   UNL     1      -2.347  16.538  47.717  1.00  0.00    -0.000 C 
BRANCH  15  16
ATOM     16  C   UNL     1      -2.427  17.089  49.146  1.00  0.00    -0.000 C 
BRANCH  16  17
ATOM     17  C   UNL     1      -3.131  18.450  49.174  1.00  0.00    -0.003 C 
ATOM     18  C   UNL     1      -4.542  18.352  48.605  1.00  0.00     0.004 C 
ENDBRANCH  16  17
ENDBRANCH  15  16
ENDBRANCH  14  15
ENDBRANCH  13  14
ENDBRANCH  12  13
ENDBRANCH  11  12
ENDBRANCH   1  11
TORSDOF 14
ENDMDL
MODEL 6
REMARK VINA RESULT:    -4.757      3.446      8.498
REMARK INTER + INTRA:         -10.093
REMARK INTER:                  -9.204
REMARK INTRA:                  -0.889
REMARK UNBOUND:                -1.442
REMARK SMILES CCCCCCCCCCCCCCCC(=O)[O-]
REMARK SMILES IDX 9 1 10 2 11 3 12 4 13 5 14 6 15 7 16 8 17 9 18 10 8 11 7 12
REMARK SMILES IDX 6 13 5 14 4 15 3 16 2 17 1 18
REMARK H PARENT
REMARK Flexibility Score: inf
ROOT
ATOM      1  C   UNL     1      -5.097  22.197  47.563  1.00  0.00     0.000 C 
ENDROOT
BRANCH   1   2
ATOM      2  C   UNL     1      -5.238  23.620  48.145  1.00  0.00     0.000 C 
BRANCH   2   3
ATOM      3  C   UNL     1      -4.695  23.762  49.578  1.00  0.00     0.000 C 
BRANCH   3   4
ATOM      4  C   UNL     1      -5.537  24.711  50.446  1.00  0.00     0.000 C 
BRANCH   4   5
ATOM      5  C   UNL     1      -6.680  25.375  49.663  1.00  0.00     0.000 C 
BRANCH   5   6
ATOM      6  C   UNL     1      -6.712  26.902  49.849  1.00  0.00     0.006 C 
BRANCH   6   7
ATOM      7  C   UNL     1      -6.093  27.644  48.657  1.00  0.00     0.053 C 
BRANCH   7   8
ATOM      8  C   UNL     1      -6.920  27.492  47.417  1.00  0.00     0.041 C 
ATOM      9  O   UNL     1      -6.429  26.952  46.391  1.00  0.00    -0.550 OA
ATOM     10  O   UNL     1      -8.242  27.921  47.403  1.00  0.00    -0.550 OA
ENDBRANCH   7   8
ENDBRANCH   6   7
ENDBRANCH   5   6
ENDBRANCH   4   5
ENDBRANCH   3   4
ENDBRANCH   2   3
ENDBRANCH   1   2
BRANCH   1  11
ATOM     11  C   UNL     1      -4.315  21.256  48.496  1.00  0.00     0.000 C 
BRANCH  11  12
ATOM     12  C   UNL     1      -4.275  19.803  47.989  1.00  0.00    -0.000 C 
BRANCH  12  13
ATOM     13  C   UNL     1      -3.426  18.832  48.837  1.00  0.00    -0.000 C 
BRANCH  13  14
ATOM     14  C   UNL     1      -3.353  17.389  48.307  1.00  0.00    -0.000 C 
BRANCH  14  15
ATOM     15  C   UNL     1      -1.918  16.851  48.223  1.00  0.00    -0.000 C 
BRANCH  15  16
ATOM     16  C   UNL     1      -1.534  16.545  46.770  1.00  0.00    -0.000 C 
BRANCH  16  17
ATOM     17  C   UNL     1      -2.465  17.269  45.790  1.00  0.00    -0.003 C 
ATOM     18  C   UNL     1      -2.758  16.404  44.569  1.00  0.00     0.004 C 
ENDBRANCH  16  17
ENDBRANCH  15  16
ENDBRANCH  14  15
ENDBRANCH  13  14
ENDBRANCH  12  13
ENDBRANCH  11  12
ENDBRANCH   1  11
TORSDOF 14
ENDMDL
MODEL 7
REMARK VINA RESULT:    -4.744      1.811      3.201
REMARK INTER + INTRA:         -10.069
REMARK INTER:                  -9.115
REMARK INTRA:                  -0.953
REMARK UNBOUND:                -1.442
REMARK SMILES CCCCCCCCCCCCCCCC(=O)[O-]
REMARK SMILES IDX 9 1 10 2 11 3 12 4 13 5 14 6 15 7 16 8 17 9 18 10 8 11 7 12
REMARK SMILES IDX 6 13 5 14 4 15 3 16 2 17 1 18
REMARK H PARENT
REMARK Flexibility Score: inf
ROOT
ATOM      1  C   UNL     1      -5.555  22.206  47.694  1.00  0.00     0.000 C 
ENDROOT
BRANCH   1   2
ATOM      2  C   UNL     1      -4.735  20.899  47.757  1.00  0.00     0.000 C 
BRANCH   2   3
ATOM      3  C   UNL     1      -3.678  20.882  48.876  1.00  0.00     0.000 C 
BRANCH   3   4
ATOM      4  C   UNL     1      -2.876  19.571  48.923  1.00  0.00     0.000 C 
BRANCH   4   5
ATOM      5  C   UNL     1      -3.769  18.325  48.818  1.00  0.00     0.000 C 
BRANCH   5   6
ATOM      6  C   UNL     1      -3.214  17.284  47.830  1.00  0.00     0.006 C 
BRANCH   6   7
ATOM      7  C   UNL     1      -3.221  17.797  46.383  1.00  0.00     0.053 C 
BRANCH   7   8
ATOM      8  C   UNL     1      -2.488  16.872  45.461  1.00  0.00     0.041 C 
ATOM      9  O   UNL     1      -3.037  16.467  44.403  1.00  0.00    -0.550 OA
ATOM     10  O   UNL     1      -1.188  16.480  45.755  1.00  0.00    -0.550 OA
ENDBRANCH   7   8
ENDBRANCH   6   7
ENDBRANCH   5   6
ENDBRANCH   4   5
ENDBRANCH   3   4
ENDBRANCH   2   3
ENDBRANCH   1   2
BRANCH   1  11
ATOM     11  C   UNL     1      -4.727  23.394  47.173  1.00  0.00     0.000 C 
BRANCH  11  12
ATOM     12  C   UNL     1      -5.082  24.723  47.865  1.00  0.00    -0.000 C 
BRANCH  12  13
ATOM     13  C   UNL     1      -6.000  24.599  49.099  1.00  0.00    -0.000 C 
BRANCH  13  14
ATOM     14  C   UNL     1      -5.378  25.059  50.429  1.00  0.00    -0.000 C 
BRANCH  14  15
ATOM     15  C   UNL     1      -5.431  26.580  50.626  1.00  0.00    -0.000 C 
BRANCH  15  16
ATOM     16  C   UNL     1      -4.186  27.078  51.368  1.00  0.00    -0.000 C 
BRANCH  16  17
ATOM     17  C   UNL     1      -3.647  26.005  52.322  1.00  0.00    -0.003 C 
ATOM     18  C   UNL     1      -3.545  26.537  53.748  1.00  0.00     0.004 C 
ENDBRANCH  16  17
ENDBRANCH  15  16
ENDBRANCH  14  15
ENDBRANCH  13  14
ENDBRANCH  12  13
ENDBRANCH  11  12
ENDBRANCH   1  11
TORSDOF 14
ENDMDL
MODEL 8
REMARK VINA RESULT:    -4.733      1.547      2.404
REMARK INTER + INTRA:         -10.049
REMARK INTER:                  -8.696
REMARK INTRA:                  -1.354
REMARK UNBOUND:                -1.442
REMARK SMILES CCCCCCCCCCCCCCCC(=O)[O-]
REMARK SMILES IDX 9 1 10 2 11 3 12 4 13 5 14 6 15 7 16 8 17 9 18 10 8 11 7 12
REMARK SMILES IDX 6 13 5 14 4 15 3 16 2 17 1 18
REMARK H PARENT
REMARK Flexibility Score: inf
ROOT
ATOM      1  C   UNL     1      -4.484  23.578  49.836  1.00  0.00     0.000 C 
ENDROOT
BRANCH   1   2
ATOM      2  C   UNL     1      -4.015  24.038  48.438  1.00  0.00     0.000 C 
BRANCH   2   3
ATOM      3  C   UNL     1      -4.644  23.244  47.279  1.00  0.00     0.000 C 
BRANCH   3   4
ATOM      4  C   UNL     1      -5.398  21.990  47.752  1.00  0.00     0.000 C 
BRANCH   4   5
ATOM      5  C   UNL     1      -4.653  20.689  47.417  1.00  0.00     0.000 C 
BRANCH   5   6
ATOM      6  C   UNL     1      -3.875  20.130  48.621  1.00  0.00     0.006 C 
BRANCH   6   7
ATOM      7  C   UNL     1      -3.943  18.598  48.695  1.00  0.00     0.053 C 
BRANCH   7   8
ATOM      8  C   UNL     1      -2.752  17.955  48.054  1.00  0.00     0.041 C 
ATOM      9  O   UNL     1      -1.653  18.568  48.003  1.00  0.00    -0.550 OA
ATOM     10  O   UNL     1      -2.847  16.669  47.539  1.00  0.00    -0.550 OA
ENDBRANCH   7   8
ENDBRANCH   6   7
ENDBRANCH   5   6
ENDBRANCH   4   5
ENDBRANCH   3   4
ENDBRANCH   2   3
ENDBRANCH   1   2
BRANCH   1  11
ATOM     11  C   UNL     1      -5.250  24.679  50.590  1.00  0.00     0.000 C 
BRANCH  11  12
ATOM     12  C   UNL     1      -6.394  25.291  49.761  1.00  0.00    -0.000 C 
BRANCH  12  13
ATOM     13  C   UNL     1      -6.681  26.782  50.033  1.00  0.00    -0.000 C 
BRANCH  13  14
ATOM     14  C   UNL     1      -6.254  27.748  48.914  1.00  0.00    -0.000 C 
BRANCH  14  15
ATOM     15  C   UNL     1      -6.061  27.053  47.559  1.00  0.00    -0.000 C 
BRANCH  15  16
ATOM     16  C   UNL     1      -7.053  27.593  46.523  1.00  0.00    -0.000 C 
BRANCH  16  17
ATOM     17  C   UNL     1      -7.937  28.691  47.126  1.00  0.00    -0.003 C 
ATOM     18  C   UNL     1      -9.416  28.339  46.998  1.00  0.00     0.004 C 
ENDBRANCH  16  17
ENDBRANCH  15  16
ENDBRANCH  14  15
ENDBRANCH  13  14
ENDBRANCH  12  13
ENDBRANCH  11  12
ENDBRANCH   1  11
TORSDOF 14
ENDMDL
MODEL 9
REMARK VINA RESULT:    -4.677      3.769      8.042
REMARK INTER + INTRA:          -9.947
REMARK INTER:                  -8.541
REMARK INTRA:                  -1.406
REMARK UNBOUND:                -1.442
REMARK SMILES CCCCCCCCCCCCCCCC(=O)[O-]
REMARK SMILES IDX 9 1 10 2 11 3 12 4 13 5 14 6 15 7 16 8 17 9 18 10 8 11 7 12
REMARK SMILES IDX 6 13 5 14 4 15 3 16 2 17 1 18
REMARK H PARENT
REMARK Flexibility Score: inf
ROOT
ATOM      1  C   UNL     1      -4.008  20.492  48.499  1.00  0.00     0.000 C 
ENDROOT
BRANCH   1   2
ATOM      2  C   UNL     1      -4.218  21.109  47.099  1.00  0.00     0.000 C 
BRANCH   2   3
ATOM      3  C   UNL     1      -4.549  22.612  47.125  1.00  0.00     0.000 C 
BRANCH   3   4
ATOM      4  C   UNL     1      -5.525  22.991  48.252  1.00  0.00     0.000 C 
BRANCH   4   5
ATOM      5  C   UNL     1      -4.999  24.135  49.132  1.00  0.00     0.000 C 
BRANCH   5   6
ATOM      6  C   UNL     1      -3.980  23.651  50.179  1.00  0.00     0.006 C 
BRANCH   6   7
ATOM      7  C   UNL     1      -4.101  24.418  51.503  1.00  0.00     0.053 C 
BRANCH   7   8
ATOM      8  C   UNL     1      -2.758  24.743  52.082  1.00  0.00     0.041 C 
ATOM      9  O   UNL     1      -2.663  25.543  53.050  1.00  0.00    -0.550 OA
ATOM     10  O   UNL     1      -1.615  24.141  51.573  1.00  0.00    -0.550 OA
ENDBRANCH   7   8
ENDBRANCH   6   7
ENDBRANCH   5   6
ENDBRANCH   4   5
ENDBRANCH   3   4
ENDBRANCH   2   3
ENDBRANCH   1   2
BRANCH   1  11
ATOM     11  C   UNL     1      -2.519  20.392  48.878  1.00  0.00     0.000 C 
BRANCH  11  12
ATOM     12  C   UNL     1      -1.591  20.301  47.653  1.00  0.00    -0.000 C 
BRANCH  12  13
ATOM     13  C   UNL     1      -1.080  18.885  47.318  1.00  0.00    -0.000 C 
BRANCH  13  14
ATOM     14  C   UNL     1      -1.782  17.738  48.067  1.00  0.00    -0.000 C 
BRANCH  14  15
ATOM     15  C   UNL     1      -2.732  16.928  47.174  1.00  0.00    -0.000 C 
BRANCH  15  16
ATOM     16  C   UNL     1      -2.908  17.605  45.809  1.00  0.00    -0.000 C 
BRANCH  16  17
ATOM     17  C   UNL     1      -3.066  16.565  44.694  1.00  0.00    -0.003 C 
ATOM     18  C   UNL     1      -1.721  16.230  44.059  1.00  0.00     0.004 C 
ENDBRANCH  16  17
ENDBRANCH  15  16
ENDBRANCH  14  15
ENDBRANCH  13  14
ENDBRANCH  12  13
ENDBRANCH  11  12
ENDBRANCH   1  11
TORSDOF 14
ENDMDL
