MODEL 1
REMARK VINA RESULT:    -3.602      0.000      0.000
REMARK INTER + INTRA:          -4.500
REMARK INTER:                  -4.234
REMARK INTRA:                  -0.265
REMARK UNBOUND:                -0.265
REMARK SMILES O=c1cc(-c2ccc(O)c(O)c2)oc2cc(O)cc(O)c12
REMARK SMILES IDX 4 1 3 2 2 3 1 4 21 5 19 6 18 7 16 8 15 9 14 10 13 11 5 12
REMARK SMILES IDX 6 13 7 14 8 15 12 16 10 17 9 18 11 20 20 22 17 24
REMARK H PARENT 9 19 11 21 20 23 17 25
REMARK Flexibility Score: inf
ROOT
ATOM      1  C   UNL     1      13.401 -12.919  29.459  1.00  0.00     0.138 A 
ATOM      2  C   UNL     1      13.714 -13.331  28.156  1.00  0.00     0.100 A 
ATOM      3  C   UNL     1      14.483 -14.480  27.962  1.00  0.00     0.197 A 
ATOM      4  O   UNL     1      14.800 -14.790  26.785  1.00  0.00    -0.289 OA
ATOM      5  C   UNL     1      14.910 -15.237  29.078  1.00  0.00     0.107 A 
ATOM      6  C   UNL     1      15.663 -16.447  28.999  1.00  0.00     0.134 A 
ATOM      7  C   UNL     1      16.131 -17.046  30.175  1.00  0.00     0.093 A 
ATOM      8  C   UNL     1      15.822 -16.512  31.429  1.00  0.00     0.123 A 
ATOM      9  C   UNL     1      15.042 -15.362  31.518  1.00  0.00     0.094 A 
ATOM     10  C   UNL     1      14.590 -14.721  30.363  1.00  0.00     0.146 A 
ATOM     11  O   UNL     1      13.861 -13.617  30.492  1.00  0.00    -0.456 OA
ENDROOT
BRANCH   1  12
ATOM     12  C   UNL     1      12.587 -11.705  29.722  1.00  0.00     0.021 A 
ATOM     13  C   UNL     1      13.195 -10.576  30.299  1.00  0.00     0.016 A 
ATOM     14  C   UNL     1      12.451  -9.426  30.563  1.00  0.00     0.051 A 
ATOM     15  C   UNL     1      11.083  -9.384  30.267  1.00  0.00     0.157 A 
ATOM     16  C   UNL     1      11.208 -11.662  29.438  1.00  0.00     0.062 A 
ATOM     17  C   UNL     1      10.459 -10.510  29.704  1.00  0.00     0.158 A 
BRANCH  15  18
ATOM     18  O   UNL     1      10.342  -8.233  30.531  1.00  0.00    -0.504 OA
ATOM     19  H   UNL     1      10.789  -7.365  30.806  1.00  0.00     0.293 HD
ENDBRANCH  15  18
BRANCH  17  20
ATOM     20  O   UNL     1       9.097 -10.504  29.408  1.00  0.00    -0.504 OA
ATOM     21  H   UNL     1       8.392 -10.342  30.117  1.00  0.00     0.293 HD
ENDBRANCH  17  20
ENDBRANCH   1  12
BRANCH   6  22
ATOM     22  O   UNL     1      15.955 -17.109  27.803  1.00  0.00    -0.507 OA
ATOM     23  H   UNL     1      16.875 -17.413  27.522  1.00  0.00     0.293 HD
ENDBRANCH   6  22
BRANCH   8  24
ATOM     24  O   UNL     1      16.279 -17.125  32.594  1.00  0.00    -0.508 OA
ATOM     25  H   UNL     1      15.674 -17.258  33.395  1.00  0.00     0.293 HD
ENDBRANCH   8  24
TORSDOF 5
ENDMDL
MODEL 2
REMARK VINA RESULT:    -2.378      1.726      7.001
REMARK INTER + INTRA:          -3.061
REMARK INTER:                  -2.790
REMARK INTRA:                  -0.270
REMARK UNBOUND:                -0.265
REMARK SMILES O=c1cc(-c2ccc(O)c(O)c2)oc2cc(O)cc(O)c12
REMARK SMILES IDX 4 1 3 2 2 3 1 4 21 5 19 6 18 7 16 8 15 9 14 10 13 11 5 12
REMARK SMILES IDX 6 13 7 14 8 15 12 16 10 17 9 18 11 20 20 22 17 24
REMARK H PARENT 9 19 11 21 20 23 17 25
REMARK Flexibility Score: inf
ROOT
ATOM      1  C   UNL     1      13.202 -13.199  28.320  1.00  0.00     0.138 A 
ATOM      2  C   UNL     1      11.863 -13.204  27.904  1.00  0.00     0.100 A 
ATOM      3  C   UNL     1      10.992 -12.218  28.368  1.00  0.00     0.197 A 
ATOM      4  O   UNL     1       9.784 -12.284  28.026  1.00  0.00    -0.289 OA
ATOM      5  C   UNL     1      11.475 -11.201  29.227  1.00  0.00     0.107 A 
ATOM      6  C   UNL     1      10.688 -10.121  29.729  1.00  0.00     0.134 A 
ATOM      7  C   UNL     1      11.243  -9.242  30.667  1.00  0.00     0.093 A 
ATOM      8  C   UNL     1      12.575  -9.368  31.073  1.00  0.00     0.123 A 
ATOM      9  C   UNL     1      13.366 -10.386  30.547  1.00  0.00     0.094 A 
ATOM     10  C   UNL     1      12.831 -11.300  29.638  1.00  0.00     0.146 A 
ATOM     11  O   UNL     1      13.616 -12.266  29.171  1.00  0.00    -0.456 OA
ENDROOT
BRANCH   1  12
ATOM     12  C   UNL     1      14.171 -14.225  27.857  1.00  0.00     0.021 A 
ATOM     13  C   UNL     1      14.560 -14.248  26.506  1.00  0.00     0.016 A 
ATOM     14  C   UNL     1      15.462 -15.207  26.043  1.00  0.00     0.051 A 
ATOM     15  C   UNL     1      15.984 -16.169  26.918  1.00  0.00     0.157 A 
ATOM     16  C   UNL     1      14.688 -15.203  28.729  1.00  0.00     0.062 A 
ATOM     17  C   UNL     1      15.592 -16.167  28.267  1.00  0.00     0.158 A 
BRANCH  15  18
ATOM     18  O   UNL     1      16.886 -17.125  26.453  1.00  0.00    -0.504 OA
ATOM     19  H   UNL     1      17.354 -17.022  25.559  1.00  0.00     0.293 HD
ENDBRANCH  15  18
BRANCH  17  20
ATOM     20  O   UNL     1      16.084 -17.117  29.160  1.00  0.00    -0.504 OA
ATOM     21  H   UNL     1      16.962 -16.992  29.650  1.00  0.00     0.293 HD
ENDBRANCH  17  20
ENDBRANCH   1  12
BRANCH   6  22
ATOM     22  O   UNL     1       9.377  -9.856  29.325  1.00  0.00    -0.507 OA
ATOM     23  H   UNL     1       8.944  -8.944  29.335  1.00  0.00     0.293 HD
ENDBRANCH   6  22
BRANCH   8  24
ATOM     24  O   UNL     1      13.123  -8.478  31.995  1.00  0.00    -0.508 OA
ATOM     25  H   UNL     1      12.835  -8.477  32.966  1.00  0.00     0.293 HD
ENDBRANCH   8  24
TORSDOF 5
ENDMDL
MODEL 3
REMARK VINA RESULT:    -1.733      1.749      7.244
REMARK INTER + INTRA:          -2.302
REMARK INTER:                  -2.034
REMARK INTRA:                  -0.269
REMARK UNBOUND:                -0.265
REMARK SMILES O=c1cc(-c2ccc(O)c(O)c2)oc2cc(O)cc(O)c12
REMARK SMILES IDX 4 1 3 2 2 3 1 4 21 5 19 6 18 7 16 8 15 9 14 10 13 11 5 12
REMARK SMILES IDX 6 13 7 14 8 15 12 16 10 17 9 18 11 20 20 22 17 24
REMARK H PARENT 9 19 11 21 20 23 17 25
REMARK Flexibility Score: inf
ROOT
ATOM      1  C   UNL     1      14.008 -12.809  28.924  1.00  0.00     0.138 A 
ATOM      2  C   UNL     1      14.694 -11.999  29.841  1.00  0.00     0.100 A 
ATOM      3  C   UNL     1      14.024 -10.948  30.470  1.00  0.00     0.197 A 
ATOM      4  O   UNL     1      14.680 -10.201  31.240  1.00  0.00    -0.289 OA
ATOM      5  C   UNL     1      12.651 -10.731  30.203  1.00  0.00     0.107 A 
ATOM      6  C   UNL     1      11.855  -9.716  30.817  1.00  0.00     0.134 A 
ATOM      7  C   UNL     1      10.537  -9.520  30.387  1.00  0.00     0.093 A 
ATOM      8  C   UNL     1       9.968 -10.341  29.410  1.00  0.00     0.123 A 
ATOM      9  C   UNL     1      10.719 -11.367  28.844  1.00  0.00     0.094 A 
ATOM     10  C   UNL     1      12.048 -11.566  29.226  1.00  0.00     0.146 A 
ATOM     11  O   UNL     1      12.734 -12.548  28.650  1.00  0.00    -0.456 OA
ENDROOT
BRANCH   1  12
ATOM     12  C   UNL     1      14.673 -13.939  28.227  1.00  0.00     0.021 A 
ATOM     13  C   UNL     1      14.715 -13.956  26.822  1.00  0.00     0.016 A 
ATOM     14  C   UNL     1      15.328 -15.010  26.143  1.00  0.00     0.051 A 
ATOM     15  C   UNL     1      15.899 -16.073  26.853  1.00  0.00     0.157 A 
ATOM     16  C   UNL     1      15.238 -15.017  28.936  1.00  0.00     0.062 A 
ATOM     17  C   UNL     1      15.851 -16.076  28.257  1.00  0.00     0.158 A 
BRANCH  15  18
ATOM     18  O   UNL     1      16.511 -17.125  26.172  1.00  0.00    -0.504 OA
ATOM     19  H   UNL     1      17.420 -17.016  25.736  1.00  0.00     0.293 HD
ENDBRANCH  15  18
BRANCH  17  20
ATOM     20  O   UNL     1      16.400 -17.125  28.994  1.00  0.00    -0.504 OA
ATOM     21  H   UNL     1      16.216 -17.243  29.983  1.00  0.00     0.293 HD
ENDBRANCH  17  20
ENDBRANCH   1  12
BRANCH   6  22
ATOM     22  O   UNL     1      12.300  -8.899  31.860  1.00  0.00    -0.507 OA
ATOM     23  H   UNL     1      12.122  -9.066  32.839  1.00  0.00     0.293 HD
ENDBRANCH   6  22
BRANCH   8  24
ATOM     24  O   UNL     1       8.650 -10.147  29.000  1.00  0.00    -0.508 OA
ATOM     25  H   UNL     1       8.254  -9.219  28.911  1.00  0.00     0.293 HD
ENDBRANCH   8  24
TORSDOF 5
ENDMDL
MODEL 4
REMARK VINA RESULT:    -1.279     11.384     13.447
REMARK INTER + INTRA:          -1.769
REMARK INTER:                  -1.498
REMARK INTRA:                  -0.271
REMARK UNBOUND:                -0.265
REMARK SMILES O=c1cc(-c2ccc(O)c(O)c2)oc2cc(O)cc(O)c12
REMARK SMILES IDX 4 1 3 2 2 3 1 4 21 5 19 6 18 7 16 8 15 9 14 10 13 11 5 12
REMARK SMILES IDX 6 13 7 14 8 15 12 16 10 17 9 18 11 20 20 22 17 24
REMARK H PARENT 9 19 11 21 20 23 17 25
REMARK Flexibility Score: inf
ROOT
ATOM      1  C   UNL     1      16.169  -0.629  27.117  1.00  0.00     0.138 A 
ATOM      2  C   UNL     1      15.442  -1.117  28.212  1.00  0.00     0.100 A 
ATOM      3  C   UNL     1      16.040  -2.022  29.090  1.00  0.00     0.197 A 
ATOM      4  O   UNL     1      15.344  -2.489  30.027  1.00  0.00    -0.289 OA
ATOM      5  C   UNL     1      17.385  -2.413  28.887  1.00  0.00     0.107 A 
ATOM      6  C   UNL     1      18.111  -3.297  29.741  1.00  0.00     0.134 A 
ATOM      7  C   UNL     1      19.400  -3.705  29.375  1.00  0.00     0.093 A 
ATOM      8  C   UNL     1      20.011  -3.213  28.219  1.00  0.00     0.123 A 
ATOM      9  C   UNL     1      19.330  -2.308  27.408  1.00  0.00     0.094 A 
ATOM     10  C   UNL     1      18.031  -1.909  27.726  1.00  0.00     0.146 A 
ATOM     11  O   UNL     1      17.411  -1.055  26.918  1.00  0.00    -0.456 OA
ENDROOT
BRANCH   1  12
ATOM     12  C   UNL     1      15.580   0.335  26.153  1.00  0.00     0.021 A 
ATOM     13  C   UNL     1      15.376   1.669  26.547  1.00  0.00     0.016 A 
ATOM     14  C   UNL     1      14.817   2.593  25.662  1.00  0.00     0.051 A 
ATOM     15  C   UNL     1      14.440   2.200  24.372  1.00  0.00     0.157 A 
ATOM     16  C   UNL     1      15.187  -0.058  24.859  1.00  0.00     0.062 A 
ATOM     17  C   UNL     1      14.624   0.866  23.971  1.00  0.00     0.158 A 
BRANCH  15  18
ATOM     18  O   UNL     1      13.883   3.125  23.490  1.00  0.00    -0.504 OA
ATOM     19  H   UNL     1      14.077   4.117  23.570  1.00  0.00     0.293 HD
ENDBRANCH  15  18
BRANCH  17  20
ATOM     20  O   UNL     1      14.250   0.440  22.697  1.00  0.00    -0.504 OA
ATOM     21  H   UNL     1      14.254   1.062  21.898  1.00  0.00     0.293 HD
ENDBRANCH  17  20
ENDBRANCH   1  12
BRANCH   6  22
ATOM     22  O   UNL     1      17.627  -3.779  30.960  1.00  0.00    -0.507 OA
ATOM     23  H   UNL     1      18.138  -3.764  31.830  1.00  0.00     0.293 HD
ENDBRANCH   6  22
BRANCH   8  24
ATOM     24  O   UNL     1      21.300  -3.613  27.871  1.00  0.00    -0.508 OA
ATOM     25  H   UNL     1      21.493  -4.553  27.548  1.00  0.00     0.293 HD
ENDBRANCH   8  24
TORSDOF 5
ENDMDL
MODEL 5
REMARK VINA RESULT:    -1.231      1.198      2.748
REMARK INTER + INTRA:          -1.712
REMARK INTER:                  -1.442
REMARK INTRA:                  -0.270
REMARK UNBOUND:                -0.265
REMARK SMILES O=c1cc(-c2ccc(O)c(O)c2)oc2cc(O)cc(O)c12
REMARK SMILES IDX 4 1 3 2 2 3 1 4 21 5 19 6 18 7 16 8 15 9 14 10 13 11 5 12
REMARK SMILES IDX 6 13 7 14 8 15 12 16 10 17 9 18 11 20 20 22 17 24
REMARK H PARENT 9 19 11 21 20 23 17 25
REMARK Flexibility Score: inf
ROOT
ATOM      1  C   UNL     1      13.552 -12.943  29.788  1.00  0.00     0.138 A 
ATOM      2  C   UNL     1      13.931 -13.738  30.878  1.00  0.00     0.100 A 
ATOM      3  C   UNL     1      14.718 -14.871  30.665  1.00  0.00     0.197 A 
ATOM      4  O   UNL     1      14.992 -15.599  31.654  1.00  0.00    -0.289 OA
ATOM      5  C   UNL     1      15.155 -15.188  29.356  1.00  0.00     0.107 A 
ATOM      6  C   UNL     1      15.994 -16.294  29.025  1.00  0.00     0.134 A 
ATOM      7  C   UNL     1      16.264 -16.577  27.681  1.00  0.00     0.093 A 
ATOM      8  C   UNL     1      15.775 -15.758  26.660  1.00  0.00     0.123 A 
ATOM      9  C   UNL     1      14.999 -14.645  26.976  1.00  0.00     0.094 A 
ATOM     10  C   UNL     1      14.683 -14.357  28.305  1.00  0.00     0.146 A 
ATOM     11  O   UNL     1      13.928 -13.293  28.563  1.00  0.00    -0.456 OA
ENDROOT
BRANCH   1  12
ATOM     12  C   UNL     1      12.715 -11.728  29.959  1.00  0.00     0.021 A 
ATOM     13  C   UNL     1      13.280 -10.576  30.535  1.00  0.00     0.016 A 
ATOM     14  C   UNL     1      12.513  -9.423  30.714  1.00  0.00     0.051 A 
ATOM     15  C   UNL     1      11.166  -9.403  30.333  1.00  0.00     0.157 A 
ATOM     16  C   UNL     1      11.356 -11.705  29.589  1.00  0.00     0.062 A 
ATOM     17  C   UNL     1      10.585 -10.551  29.770  1.00  0.00     0.158 A 
BRANCH  15  18
ATOM     18  O   UNL     1      10.402  -8.250  30.512  1.00  0.00    -0.504 OA
ATOM     19  H   UNL     1       9.608  -8.232  31.142  1.00  0.00     0.293 HD
ENDBRANCH  15  18
BRANCH  17  20
ATOM     20  O   UNL     1       9.244 -10.567  29.390  1.00  0.00    -0.504 OA
ATOM     21  H   UNL     1       8.605 -11.291  29.697  1.00  0.00     0.293 HD
ENDBRANCH  17  20
ENDBRANCH   1  12
BRANCH   6  22
ATOM     22  O   UNL     1      16.603 -17.124  29.972  1.00  0.00    -0.507 OA
ATOM     23  H   UNL     1      16.866 -18.085  29.811  1.00  0.00     0.293 HD
ENDBRANCH   6  22
BRANCH   8  24
ATOM     24  O   UNL     1      16.062 -16.039  25.325  1.00  0.00    -0.508 OA
ATOM     25  H   UNL     1      16.427 -16.939  25.040  1.00  0.00     0.293 HD
ENDBRANCH   8  24
TORSDOF 5
ENDMDL
