MODEL 1
REMARK VINA RESULT:    -4.676      0.000      0.000
REMARK INTER + INTRA:          -4.950
REMARK INTER:                  -4.950
REMARK INTRA:                   0.000
REMARK UNBOUND:                 0.000
REMARK SMILES O=c1ccc2cc(O)c(O)cc2o1
REMARK SMILES IDX 4 1 3 2 2 3 1 4 13 5 12 6 11 7 9 8 7 9 6 10 5 11 8 12 10 14
REMARK H PARENT 8 13 10 15
REMARK Flexibility Score: inf
ROOT
ATOM      1  C   UNL     1      69.773  37.716  19.404  1.00  0.00     0.019 A 
ATOM      2  C   UNL     1      69.981  36.545  18.676  1.00  0.00     0.094 A 
ATOM      3  C   UNL     1      71.173  35.837  18.857  1.00  0.00     0.336 A 
ATOM      4  O   UNL     1      71.378  34.777  18.210  1.00  0.00    -0.246 OA
ATOM      5  O   UNL     1      72.093  36.275  19.712  1.00  0.00    -0.423 OA
ATOM      6  C   UNL     1      71.935  37.386  20.426  1.00  0.00     0.142 A 
ATOM      7  C   UNL     1      72.937  37.799  21.310  1.00  0.00     0.098 A 
ATOM      8  C   UNL     1      72.776  38.970  22.065  1.00  0.00     0.161 A 
ATOM      9  C   UNL     1      71.606  39.732  21.935  1.00  0.00     0.158 A 
ATOM     10  C   UNL     1      70.597  39.324  21.050  1.00  0.00     0.062 A 
ATOM     11  C   UNL     1      70.757  38.154  20.295  1.00  0.00     0.022 A 
ENDROOT
BRANCH   9  12
ATOM     12  O   UNL     1      71.454  40.894  22.688  1.00  0.00    -0.504 OA
ATOM     13  H   UNL     1      70.777  41.607  22.435  1.00  0.00     0.293 HD
ENDBRANCH   9  12
BRANCH   8  14
ATOM     14  O   UNL     1      73.774  39.383  22.946  1.00  0.00    -0.504 OA
ATOM     15  H   UNL     1      73.934  38.907  23.825  1.00  0.00     0.293 HD
ENDBRANCH   8  14
TORSDOF 2
ENDMDL
MODEL 2
REMARK VINA RESULT:    -4.607      2.767      4.671
REMARK INTER + INTRA:          -4.876
REMARK INTER:                  -4.876
REMARK INTRA:                   0.000
REMARK UNBOUND:                 0.000
REMARK SMILES O=c1ccc2cc(O)c(O)cc2o1
REMARK SMILES IDX 4 1 3 2 2 3 1 4 13 5 12 6 11 7 9 8 7 9 6 10 5 11 8 12 10 14
REMARK H PARENT 8 13 10 15
REMARK Flexibility Score: inf
ROOT
ATOM      1  C   UNL     1      70.160  39.480  21.276  1.00  0.00     0.019 A 
ATOM      2  C   UNL     1      71.521  39.176  21.329  1.00  0.00     0.094 A 
ATOM      3  C   UNL     1      71.973  37.989  20.743  1.00  0.00     0.336 A 
ATOM      4  O   UNL     1      73.197  37.698  20.780  1.00  0.00    -0.246 OA
ATOM      5  O   UNL     1      71.117  37.165  20.146  1.00  0.00    -0.423 OA
ATOM      6  C   UNL     1      69.812  37.416  20.074  1.00  0.00     0.142 A 
ATOM      7  C   UNL     1      68.960  36.511  19.433  1.00  0.00     0.098 A 
ATOM      8  C   UNL     1      67.583  36.772  19.355  1.00  0.00     0.161 A 
ATOM      9  C   UNL     1      67.058  37.943  19.920  1.00  0.00     0.158 A 
ATOM     10  C   UNL     1      67.908  38.854  20.564  1.00  0.00     0.062 A 
ATOM     11  C   UNL     1      69.283  38.594  20.643  1.00  0.00     0.022 A 
ENDROOT
BRANCH   9  12
ATOM     12  O   UNL     1      65.690  38.194  19.837  1.00  0.00    -0.504 OA
ATOM     13  H   UNL     1      65.005  37.472  20.037  1.00  0.00     0.293 HD
ENDBRANCH   9  12
BRANCH   8  14
ATOM     14  O   UNL     1      66.732  35.871  18.717  1.00  0.00    -0.504 OA
ATOM     15  H   UNL     1      67.062  35.261  17.980  1.00  0.00     0.293 HD
ENDBRANCH   8  14
TORSDOF 2
ENDMDL
MODEL 3
REMARK VINA RESULT:    -4.573      2.843      5.123
REMARK INTER + INTRA:          -4.841
REMARK INTER:                  -4.841
REMARK INTRA:                   0.000
REMARK UNBOUND:                 0.000
REMARK SMILES O=c1ccc2cc(O)c(O)cc2o1
REMARK SMILES IDX 4 1 3 2 2 3 1 4 13 5 12 6 11 7 9 8 7 9 6 10 5 11 8 12 10 14
REMARK H PARENT 8 13 10 15
REMARK Flexibility Score: inf
ROOT
ATOM      1  C   UNL     1      71.145  36.862  19.750  1.00  0.00     0.019 A 
ATOM      2  C   UNL     1      72.034  37.649  20.483  1.00  0.00     0.094 A 
ATOM      3  C   UNL     1      71.536  38.733  21.212  1.00  0.00     0.336 A 
ATOM      4  O   UNL     1      72.322  39.454  21.881  1.00  0.00    -0.246 OA
ATOM      5  O   UNL     1      70.235  39.009  21.205  1.00  0.00    -0.423 OA
ATOM      6  C   UNL     1      69.353  38.285  20.520  1.00  0.00     0.142 A 
ATOM      7  C   UNL     1      67.997  38.623  20.550  1.00  0.00     0.098 A 
ATOM      8  C   UNL     1      67.063  37.864  19.828  1.00  0.00     0.161 A 
ATOM      9  C   UNL     1      67.490  36.761  19.074  1.00  0.00     0.158 A 
ATOM     10  C   UNL     1      68.849  36.418  19.040  1.00  0.00     0.062 A 
ATOM     11  C   UNL     1      69.783  37.176  19.760  1.00  0.00     0.022 A 
ENDROOT
BRANCH   9  12
ATOM     12  O   UNL     1      66.556  36.013  18.360  1.00  0.00    -0.504 OA
ATOM     13  H   UNL     1      65.769  36.451  17.894  1.00  0.00     0.293 HD
ENDBRANCH   9  12
BRANCH   8  14
ATOM     14  O   UNL     1      65.710  38.199  19.857  1.00  0.00    -0.504 OA
ATOM     15  H   UNL     1      65.021  37.582  20.270  1.00  0.00     0.293 HD
ENDBRANCH   8  14
TORSDOF 2
ENDMDL
MODEL 4
REMARK VINA RESULT:    -4.551      2.632      3.891
REMARK INTER + INTRA:          -4.817
REMARK INTER:                  -4.817
REMARK INTRA:                   0.000
REMARK UNBOUND:                 0.000
REMARK SMILES O=c1ccc2cc(O)c(O)cc2o1
REMARK SMILES IDX 4 1 3 2 2 3 1 4 13 5 12 6 11 7 9 8 7 9 6 10 5 11 8 12 10 14
REMARK H PARENT 8 13 10 15
REMARK Flexibility Score: inf
ROOT
ATOM      1  C   UNL     1      71.432  37.561  19.969  1.00  0.00     0.019 A 
ATOM      2  C   UNL     1      71.954  36.487  19.246  1.00  0.00     0.094 A 
ATOM      3  C   UNL     1      71.077  35.654  18.544  1.00  0.00     0.336 A 
ATOM      4  O   UNL     1      71.529  34.681  17.885  1.00  0.00    -0.246 OA
ATOM      5  O   UNL     1      69.767  35.883  18.566  1.00  0.00    -0.423 OA
ATOM      6  C   UNL     1      69.229  36.894  19.242  1.00  0.00     0.142 A 
ATOM      7  C   UNL     1      67.844  37.086  19.229  1.00  0.00     0.098 A 
ATOM      8  C   UNL     1      67.271  38.150  19.942  1.00  0.00     0.161 A 
ATOM      9  C   UNL     1      68.088  39.028  20.669  1.00  0.00     0.158 A 
ATOM     10  C   UNL     1      69.478  38.840  20.686  1.00  0.00     0.062 A 
ATOM     11  C   UNL     1      70.051  37.777  19.975  1.00  0.00     0.022 A 
ENDROOT
BRANCH   9  12
ATOM     12  O   UNL     1      67.511  40.082  21.373  1.00  0.00    -0.504 OA
ATOM     13  H   UNL     1      66.783  39.925  22.062  1.00  0.00     0.293 HD
ENDBRANCH   9  12
BRANCH   8  14
ATOM     14  O   UNL     1      65.890  38.343  19.930  1.00  0.00    -0.504 OA
ATOM     15  H   UNL     1      65.250  37.577  19.765  1.00  0.00     0.293 HD
ENDBRANCH   8  14
TORSDOF 2
ENDMDL
MODEL 5
REMARK VINA RESULT:    -4.470      2.043      2.852
REMARK INTER + INTRA:          -4.731
REMARK INTER:                  -4.731
REMARK INTRA:                   0.000
REMARK UNBOUND:                 0.000
REMARK SMILES O=c1ccc2cc(O)c(O)cc2o1
REMARK SMILES IDX 4 1 3 2 2 3 1 4 13 5 12 6 11 7 9 8 7 9 6 10 5 11 8 12 10 14
REMARK H PARENT 8 13 10 15
REMARK Flexibility Score: inf
ROOT
ATOM      1  C   UNL     1      70.392  36.610  19.245  1.00  0.00     0.019 A 
ATOM      2  C   UNL     1      69.015  36.795  19.116  1.00  0.00     0.094 A 
ATOM      3  C   UNL     1      68.392  37.789  19.876  1.00  0.00     0.336 A 
ATOM      4  O   UNL     1      67.150  37.972  19.773  1.00  0.00    -0.246 OA
ATOM      5  O   UNL     1      69.102  38.546  20.708  1.00  0.00    -0.423 OA
ATOM      6  C   UNL     1      70.416  38.402  20.862  1.00  0.00     0.142 A 
ATOM      7  C   UNL     1      71.110  39.227  21.753  1.00  0.00     0.098 A 
ATOM      8  C   UNL     1      72.495  39.079  21.919  1.00  0.00     0.161 A 
ATOM      9  C   UNL     1      73.189  38.103  21.189  1.00  0.00     0.158 A 
ATOM     10  C   UNL     1      72.497  37.273  20.294  1.00  0.00     0.062 A 
ATOM     11  C   UNL     1      71.113  37.419  20.128  1.00  0.00     0.022 A 
ENDROOT
BRANCH   9  12
ATOM     12  O   UNL     1      74.564  37.963  21.360  1.00  0.00    -0.504 OA
ATOM     13  H   UNL     1      75.153  37.574  20.631  1.00  0.00     0.293 HD
ENDBRANCH   9  12
BRANCH   8  14
ATOM     14  O   UNL     1      73.190  39.900  22.806  1.00  0.00    -0.504 OA
ATOM     15  H   UNL     1      74.201  39.953  22.798  1.00  0.00     0.293 HD
ENDBRANCH   8  14
TORSDOF 2
ENDMDL
MODEL 6
REMARK VINA RESULT:    -4.462      1.373      2.346
REMARK INTER + INTRA:          -4.723
REMARK INTER:                  -4.723
REMARK INTRA:                   0.000
REMARK UNBOUND:                 0.000
REMARK SMILES O=c1ccc2cc(O)c(O)cc2o1
REMARK SMILES IDX 4 1 3 2 2 3 1 4 13 5 12 6 11 7 9 8 7 9 6 10 5 11 8 12 10 14
REMARK H PARENT 8 13 10 15
REMARK Flexibility Score: inf
ROOT
ATOM      1  C   UNL     1      71.739  36.406  19.699  1.00  0.00     0.019 A 
ATOM      2  C   UNL     1      70.635  36.147  18.886  1.00  0.00     0.094 A 
ATOM      3  C   UNL     1      69.572  37.056  18.879  1.00  0.00     0.336 A 
ATOM      4  O   UNL     1      68.567  36.841  18.151  1.00  0.00    -0.246 OA
ATOM      5  O   UNL     1      69.615  38.149  19.635  1.00  0.00    -0.423 OA
ATOM      6  C   UNL     1      70.648  38.434  20.424  1.00  0.00     0.142 A 
ATOM      7  C   UNL     1      70.637  39.599  21.198  1.00  0.00     0.098 A 
ATOM      8  C   UNL     1      71.724  39.903  22.032  1.00  0.00     0.161 A 
ATOM      9  C   UNL     1      72.826  39.037  22.091  1.00  0.00     0.158 A 
ATOM     10  C   UNL     1      72.842  37.868  21.317  1.00  0.00     0.062 A 
ATOM     11  C   UNL     1      71.757  37.563  20.484  1.00  0.00     0.022 A 
ENDROOT
BRANCH   9  12
ATOM     12  O   UNL     1      73.901  39.347  22.922  1.00  0.00    -0.504 OA
ATOM     13  H   UNL     1      73.784  39.927  23.746  1.00  0.00     0.293 HD
ENDBRANCH   9  12
BRANCH   8  14
ATOM     14  O   UNL     1      71.716  41.063  22.804  1.00  0.00    -0.504 OA
ATOM     15  H   UNL     1      70.896  41.345  23.328  1.00  0.00     0.293 HD
ENDBRANCH   8  14
TORSDOF 2
ENDMDL
MODEL 7
REMARK VINA RESULT:    -4.443      1.781      2.204
REMARK INTER + INTRA:          -4.703
REMARK INTER:                  -4.703
REMARK INTRA:                   0.000
REMARK UNBOUND:                 0.000
REMARK SMILES O=c1ccc2cc(O)c(O)cc2o1
REMARK SMILES IDX 4 1 3 2 2 3 1 4 13 5 12 6 11 7 9 8 7 9 6 10 5 11 8 12 10 14
REMARK H PARENT 8 13 10 15
REMARK Flexibility Score: inf
ROOT
ATOM      1  C   UNL     1      68.630  39.100  20.657  1.00  0.00     0.019 A 
ATOM      2  C   UNL     1      67.861  38.347  19.768  1.00  0.00     0.094 A 
ATOM      3  C   UNL     1      68.456  37.272  19.100  1.00  0.00     0.336 A 
ATOM      4  O   UNL     1      67.778  36.581  18.295  1.00  0.00    -0.246 OA
ATOM      5  O   UNL     1      69.735  36.974  19.310  1.00  0.00    -0.423 OA
ATOM      6  C   UNL     1      70.504  37.665  20.147  1.00  0.00     0.142 A 
ATOM      7  C   UNL     1      71.843  37.304  20.327  1.00  0.00     0.098 A 
ATOM      8  C   UNL     1      72.658  38.031  21.209  1.00  0.00     0.161 A 
ATOM      9  C   UNL     1      72.130  39.121  21.914  1.00  0.00     0.158 A 
ATOM     10  C   UNL     1      70.787  39.488  21.738  1.00  0.00     0.062 A 
ATOM     11  C   UNL     1      69.973  38.763  20.857  1.00  0.00     0.022 A 
ENDROOT
BRANCH   9  12
ATOM     12  O   UNL     1      72.946  39.837  22.788  1.00  0.00    -0.504 OA
ATOM     13  H   UNL     1      73.881  39.519  23.021  1.00  0.00     0.293 HD
ENDBRANCH   9  12
BRANCH   8  14
ATOM     14  O   UNL     1      73.993  37.673  21.390  1.00  0.00    -0.504 OA
ATOM     15  H   UNL     1      74.571  37.374  20.614  1.00  0.00     0.293 HD
ENDBRANCH   8  14
TORSDOF 2
ENDMDL
MODEL 8
REMARK VINA RESULT:    -4.315      2.297      3.125
REMARK INTER + INTRA:          -4.568
REMARK INTER:                  -4.568
REMARK INTRA:                   0.000
REMARK UNBOUND:                 0.000
REMARK SMILES O=c1ccc2cc(O)c(O)cc2o1
REMARK SMILES IDX 4 1 3 2 2 3 1 4 13 5 12 6 11 7 9 8 7 9 6 10 5 11 8 12 10 14
REMARK H PARENT 8 13 10 15
REMARK Flexibility Score: inf
ROOT
ATOM      1  C   UNL     1      73.683  38.228  18.657  1.00  0.00     0.019 A 
ATOM      2  C   UNL     1      72.726  37.216  18.734  1.00  0.00     0.094 A 
ATOM      3  C   UNL     1      72.091  36.976  19.957  1.00  0.00     0.336 A 
ATOM      4  O   UNL     1      71.224  36.067  20.047  1.00  0.00    -0.246 OA
ATOM      5  O   UNL     1      72.397  37.702  21.028  1.00  0.00    -0.423 OA
ATOM      6  C   UNL     1      73.303  38.676  20.998  1.00  0.00     0.142 A 
ATOM      7  C   UNL     1      73.583  39.407  22.157  1.00  0.00     0.098 A 
ATOM      8  C   UNL     1      74.539  40.434  22.131  1.00  0.00     0.161 A 
ATOM      9  C   UNL     1      75.215  40.732  20.939  1.00  0.00     0.158 A 
ATOM     10  C   UNL     1      74.938  40.002  19.774  1.00  0.00     0.062 A 
ATOM     11  C   UNL     1      73.985  38.975  19.799  1.00  0.00     0.022 A 
ENDROOT
BRANCH   9  12
ATOM     12  O   UNL     1      76.162  41.754  20.922  1.00  0.00    -0.504 OA
ATOM     13  H   UNL     1      75.890  42.730  20.971  1.00  0.00     0.293 HD
ENDBRANCH   9  12
BRANCH   8  14
ATOM     14  O   UNL     1      74.820  41.165  23.284  1.00  0.00    -0.504 OA
ATOM     15  H   UNL     1      75.560  41.855  23.307  1.00  0.00     0.293 HD
ENDBRANCH   8  14
TORSDOF 2
ENDMDL
MODEL 9
REMARK VINA RESULT:    -4.306      2.136      4.449
REMARK INTER + INTRA:          -4.558
REMARK INTER:                  -4.558
REMARK INTRA:                   0.000
REMARK UNBOUND:                 0.000
REMARK SMILES O=c1ccc2cc(O)c(O)cc2o1
REMARK SMILES IDX 4 1 3 2 2 3 1 4 13 5 12 6 11 7 9 8 7 9 6 10 5 11 8 12 10 14
REMARK H PARENT 8 13 10 15
REMARK Flexibility Score: inf
ROOT
ATOM      1  C   UNL     1      72.885  37.807  20.457  1.00  0.00     0.019 A 
ATOM      2  C   UNL     1      73.982  38.384  21.098  1.00  0.00     0.094 A 
ATOM      3  C   UNL     1      73.766  39.438  21.992  1.00  0.00     0.336 A 
ATOM      4  O   UNL     1      74.743  39.971  22.581  1.00  0.00    -0.246 OA
ATOM      5  O   UNL     1      72.534  39.880  22.227  1.00  0.00    -0.423 OA
ATOM      6  C   UNL     1      71.461  39.358  21.638  1.00  0.00     0.142 A 
ATOM      7  C   UNL     1      70.190  39.865  21.924  1.00  0.00     0.098 A 
ATOM      8  C   UNL     1      69.055  39.318  21.304  1.00  0.00     0.161 A 
ATOM      9  C   UNL     1      69.195  38.259  20.396  1.00  0.00     0.158 A 
ATOM     10  C   UNL     1      70.468  37.747  20.105  1.00  0.00     0.062 A 
ATOM     11  C   UNL     1      71.601  38.293  20.723  1.00  0.00     0.022 A 
ENDROOT
BRANCH   9  12
ATOM     12  O   UNL     1      68.063  37.723  19.785  1.00  0.00    -0.504 OA
ATOM     13  H   UNL     1      68.122  37.220  18.906  1.00  0.00     0.293 HD
ENDBRANCH   9  12
BRANCH   8  14
ATOM     14  O   UNL     1      67.787  39.822  21.588  1.00  0.00    -0.504 OA
ATOM     15  H   UNL     1      66.998  39.644  20.979  1.00  0.00     0.293 HD
ENDBRANCH   8  14
TORSDOF 2
ENDMDL
