MODEL 1
REMARK VINA RESULT:    -4.716      0.000      0.000
REMARK INTER + INTRA:          -8.162
REMARK INTER:                  -6.784
REMARK INTRA:                  -1.378
REMARK UNBOUND:                -1.378
REMARK SMILES O=c1c(O[C@@H]2O[C@H](CO)[C@@H](O)[C@H](O)[C@H]2O)c(-c2ccc(O)cc2)oc2cc(O)cc(O)c12
REMARK SMILES IDX 4 1 3 2 16 3 24 4 2 5 25 6 1 7 32 8 26 9 30 10 27 11 29 12
REMARK SMILES IDX 17 13 18 14 19 15 20 16 23 17 22 18 21 19 31 21 28 23 5 25
REMARK SMILES IDX 14 26 6 27 12 28 7 29 10 30 15 31 13 33 8 35 9 36 11 38
REMARK H PARENT 21 20 31 22 28 24 15 32 13 34 9 37 11 39
REMARK Flexibility Score: inf
ROOT
ATOM      1  O   UNL     1      -6.816  -6.013   7.464  1.00  0.00    -0.454 OA
ENDROOT
BRANCH   1   2
ATOM      2  C   UNL     1      -5.479  -5.874   7.884  1.00  0.00     0.214 A 
ATOM      3  C   UNL     1      -5.004  -4.767   8.628  1.00  0.00     0.180 A 
ATOM      4  O   UNL     1      -3.763  -4.767   9.101  1.00  0.00    -0.452 OA
ATOM      5  C   UNL     1      -4.578  -6.900   7.572  1.00  0.00     0.239 A 
ATOM      6  C   UNL     1      -2.896  -5.744   8.870  1.00  0.00     0.146 A 
ATOM      7  O   UNL     1      -4.975  -7.875   6.878  1.00  0.00    -0.285 OA
ATOM      8  C   UNL     1      -3.258  -6.853   8.068  1.00  0.00     0.111 A 
ATOM      9  C   UNL     1      -1.614  -5.658   9.418  1.00  0.00     0.094 A 
ATOM     10  C   UNL     1      -2.295  -7.860   7.816  1.00  0.00     0.134 A 
ATOM     11  C   UNL     1      -0.673  -6.660   9.179  1.00  0.00     0.123 A 
ATOM     12  C   UNL     1      -1.012  -7.755   8.376  1.00  0.00     0.093 A 
BRANCH   3  13
ATOM     13  C   UNL     1      -5.823  -3.569   8.873  1.00  0.00     0.021 A 
ATOM     14  C   UNL     1      -6.778  -3.572   9.900  1.00  0.00     0.016 A 
ATOM     15  C   UNL     1      -7.573  -2.443  10.125  1.00  0.00     0.047 A 
ATOM     16  C   UNL     1      -7.407  -1.298   9.331  1.00  0.00     0.115 A 
ATOM     17  C   UNL     1      -5.631  -2.408   8.107  1.00  0.00     0.016 A 
ATOM     18  C   UNL     1      -6.429  -1.281   8.330  1.00  0.00     0.047 A 
BRANCH  16  19
ATOM     19  O   UNL     1      -8.205  -0.176   9.528  1.00  0.00    -0.508 OA
ATOM     20  H   UNL     1      -9.151  -0.254   9.884  1.00  0.00     0.293 HD
ENDBRANCH  16  19
ENDBRANCH   3  13
BRANCH  10  21
ATOM     21  O   UNL     1      -2.595  -8.963   7.011  1.00  0.00    -0.507 OA
ATOM     22  H   UNL     1      -2.821  -8.851   6.028  1.00  0.00     0.293 HD
ENDBRANCH  10  21
BRANCH  11  23
ATOM     23  O   UNL     1       0.601  -6.558   9.737  1.00  0.00    -0.508 OA
ATOM     24  H   UNL     1       0.798  -5.902  10.485  1.00  0.00     0.293 HD
ENDBRANCH  11  23
ENDBRANCH   1   2
BRANCH   1  25
ATOM     25  C   UNL     1      -7.832  -6.719   8.183  1.00  0.00     0.339 C 
ATOM     26  C   UNL     1      -8.676  -7.535   7.185  1.00  0.00     0.214 C 
ATOM     27  O   UNL     1      -7.224  -7.556   9.156  1.00  0.00    -0.332 OA
ATOM     28  C   UNL     1      -9.856  -8.234   7.906  1.00  0.00     0.180 C 
ATOM     29  C   UNL     1      -8.089  -8.519   9.757  1.00  0.00     0.179 C 
ATOM     30  C   UNL     1      -9.609  -8.363   9.427  1.00  0.00     0.177 C 
BRANCH  26  31
ATOM     31  O   UNL     1      -9.146  -6.724   6.136  1.00  0.00    -0.384 OA
ATOM     32  H   UNL     1      -9.615  -5.948   6.543  1.00  0.00     0.211 HD
ENDBRANCH  26  31
BRANCH  28  33
ATOM     33  O   UNL     1     -10.062  -9.509   7.355  1.00  0.00    -0.387 OA
ATOM     34  H   UNL     1     -11.043  -9.654   7.328  1.00  0.00     0.211 HD
ENDBRANCH  28  33
BRANCH  29  35
ATOM     35  C   UNL     1      -7.563  -9.926   9.425  1.00  0.00     0.191 C 
BRANCH  35  36
ATOM     36  O   UNL     1      -6.397  -9.860   8.647  1.00  0.00    -0.394 OA
ATOM     37  H   UNL     1      -5.687 -10.340   9.147  1.00  0.00     0.210 HD
ENDBRANCH  35  36
ENDBRANCH  29  35
BRANCH  30  38
ATOM     38  O   UNL     1     -10.123  -7.225  10.077  1.00  0.00    -0.387 OA
ATOM     39  H   UNL     1     -10.292  -7.480  11.022  1.00  0.00     0.211 HD
ENDBRANCH  30  38
ENDBRANCH   1  25
TORSDOF 11
ENDMDL
MODEL 2
REMARK VINA RESULT:    -4.710      1.789      5.380
REMARK INTER + INTRA:          -8.153
REMARK INTER:                  -6.653
REMARK INTRA:                  -1.500
REMARK UNBOUND:                -1.378
REMARK SMILES O=c1c(O[C@@H]2O[C@H](CO)[C@@H](O)[C@H](O)[C@H]2O)c(-c2ccc(O)cc2)oc2cc(O)cc(O)c12
REMARK SMILES IDX 4 1 3 2 16 3 24 4 2 5 25 6 1 7 32 8 26 9 30 10 27 11 29 12
REMARK SMILES IDX 17 13 18 14 19 15 20 16 23 17 22 18 21 19 31 21 28 23 5 25
REMARK SMILES IDX 14 26 6 27 12 28 7 29 10 30 15 31 13 33 8 35 9 36 11 38
REMARK H PARENT 21 20 31 22 28 24 15 32 13 34 9 37 11 39
REMARK Flexibility Score: inf
ROOT
ATOM      1  O   UNL     1      -5.500  -5.947   9.377  1.00  0.00    -0.454 OA
ENDROOT
BRANCH   1   2
ATOM      2  C   UNL     1      -4.478  -6.859   9.051  1.00  0.00     0.214 A 
ATOM      3  C   UNL     1      -4.704  -8.069   8.351  1.00  0.00     0.180 A 
ATOM      4  O   UNL     1      -3.675  -8.815   7.963  1.00  0.00    -0.452 OA
ATOM      5  C   UNL     1      -3.164  -6.538   9.413  1.00  0.00     0.239 A 
ATOM      6  C   UNL     1      -2.413  -8.516   8.244  1.00  0.00     0.146 A 
ATOM      7  O   UNL     1      -2.950  -5.482  10.070  1.00  0.00    -0.285 OA
ATOM      8  C   UNL     1      -2.098  -7.368   9.009  1.00  0.00     0.111 A 
ATOM      9  C   UNL     1      -1.398  -9.360   7.785  1.00  0.00     0.094 A 
ATOM     10  C   UNL     1      -0.742  -7.100   9.317  1.00  0.00     0.134 A 
ATOM     11  C   UNL     1      -0.062  -9.084   8.079  1.00  0.00     0.123 A 
ATOM     12  C   UNL     1       0.264  -7.960   8.847  1.00  0.00     0.093 A 
BRANCH   3  13
ATOM     13  C   UNL     1      -6.055  -8.575   8.061  1.00  0.00     0.021 A 
ATOM     14  C   UNL     1      -6.817  -9.160   9.083  1.00  0.00     0.016 A 
ATOM     15  C   UNL     1      -8.095  -9.660   8.808  1.00  0.00     0.047 A 
ATOM     16  C   UNL     1      -8.623  -9.565   7.512  1.00  0.00     0.115 A 
ATOM     17  C   UNL     1      -6.602  -8.444   6.774  1.00  0.00     0.016 A 
ATOM     18  C   UNL     1      -7.878  -8.948   6.500  1.00  0.00     0.047 A 
BRANCH  16  19
ATOM     19  O   UNL     1      -9.883 -10.077   7.219  1.00  0.00    -0.508 OA
ATOM     20  H   UNL     1     -10.329 -10.762   7.818  1.00  0.00     0.293 HD
ENDBRANCH  16  19
ENDBRANCH   3  13
BRANCH  10  21
ATOM     21  O   UNL     1      -0.380  -5.993  10.089  1.00  0.00    -0.507 OA
ATOM     22  H   UNL     1      -0.880  -5.760  10.941  1.00  0.00     0.293 HD
ENDBRANCH  10  21
BRANCH  11  23
ATOM     23  O   UNL     1       0.937  -9.936   7.610  1.00  0.00    -0.508 OA
ATOM     24  H   UNL     1       1.374  -9.790   6.706  1.00  0.00     0.293 HD
ENDBRANCH  11  23
ENDBRANCH   1   2
BRANCH   1  25
ATOM     25  C   UNL     1      -6.126  -5.052   8.453  1.00  0.00     0.339 C 
ATOM     26  C   UNL     1      -7.561  -4.762   8.931  1.00  0.00     0.214 C 
ATOM     27  O   UNL     1      -5.358  -3.861   8.359  1.00  0.00    -0.332 OA
ATOM     28  C   UNL     1      -8.316  -3.880   7.904  1.00  0.00     0.180 C 
ATOM     29  C   UNL     1      -6.000  -2.774   7.691  1.00  0.00     0.179 C 
ATOM     30  C   UNL     1      -7.344  -3.120   6.972  1.00  0.00     0.177 C 
BRANCH  26  31
ATOM     31  O   UNL     1      -8.267  -5.955   9.172  1.00  0.00    -0.384 OA
ATOM     32  H   UNL     1      -7.936  -6.331  10.030  1.00  0.00     0.211 HD
ENDBRANCH  26  31
BRANCH  28  33
ATOM     33  O   UNL     1      -9.134  -2.958   8.579  1.00  0.00    -0.387 OA
ATOM     34  H   UNL     1      -9.224  -3.285   9.511  1.00  0.00     0.211 HD
ENDBRANCH  28  33
BRANCH  29  35
ATOM     35  C   UNL     1      -6.154  -1.610   8.685  1.00  0.00     0.191 C 
BRANCH  35  36
ATOM     36  O   UNL     1      -7.110  -0.686   8.238  1.00  0.00    -0.394 OA
ATOM     37  H   UNL     1      -6.821  -0.383   7.338  1.00  0.00     0.210 HD
ENDBRANCH  35  36
ENDBRANCH  29  35
BRANCH  30  38
ATOM     38  O   UNL     1      -7.086  -3.907   5.834  1.00  0.00    -0.387 OA
ATOM     39  H   UNL     1      -6.399  -3.429   5.297  1.00  0.00     0.211 HD
ENDBRANCH  30  38
ENDBRANCH   1  25
TORSDOF 11
ENDMDL
MODEL 3
REMARK VINA RESULT:    -4.478      2.459      6.170
REMARK INTER + INTRA:          -7.819
REMARK INTER:                  -6.176
REMARK INTRA:                  -1.643
REMARK UNBOUND:                -1.378
REMARK SMILES O=c1c(O[C@@H]2O[C@H](CO)[C@@H](O)[C@H](O)[C@H]2O)c(-c2ccc(O)cc2)oc2cc(O)cc(O)c12
REMARK SMILES IDX 4 1 3 2 16 3 24 4 2 5 25 6 1 7 32 8 26 9 30 10 27 11 29 12
REMARK SMILES IDX 17 13 18 14 19 15 20 16 23 17 22 18 21 19 31 21 28 23 5 25
REMARK SMILES IDX 14 26 6 27 12 28 7 29 10 30 15 31 13 33 8 35 9 36 11 38
REMARK H PARENT 21 20 31 22 28 24 15 32 13 34 9 37 11 39
REMARK Flexibility Score: inf
ROOT
ATOM      1  O   UNL     1      -7.395  -4.488   6.109  1.00  0.00    -0.454 OA
ENDROOT
BRANCH   1   2
ATOM      2  C   UNL     1      -7.372  -3.419   7.025  1.00  0.00     0.214 A 
ATOM      3  C   UNL     1      -6.636  -3.442   8.234  1.00  0.00     0.180 A 
ATOM      4  O   UNL     1      -6.555  -2.349   8.984  1.00  0.00    -0.452 OA
ATOM      5  C   UNL     1      -8.093  -2.261   6.709  1.00  0.00     0.239 A 
ATOM      6  C   UNL     1      -7.183  -1.218   8.691  1.00  0.00     0.146 A 
ATOM      7  O   UNL     1      -8.784  -2.238   5.654  1.00  0.00    -0.285 OA
ATOM      8  C   UNL     1      -8.007  -1.127   7.544  1.00  0.00     0.111 A 
ATOM      9  C   UNL     1      -7.030  -0.117   9.539  1.00  0.00     0.094 A 
ATOM     10  C   UNL     1      -8.687   0.087   7.282  1.00  0.00     0.134 A 
ATOM     11  C   UNL     1      -7.691   1.082   9.269  1.00  0.00     0.123 A 
ATOM     12  C   UNL     1      -8.521   1.181   8.146  1.00  0.00     0.093 A 
BRANCH   3  13
ATOM     13  C   UNL     1      -5.974  -4.658   8.735  1.00  0.00     0.021 A 
ATOM     14  C   UNL     1      -4.643  -4.925   8.383  1.00  0.00     0.016 A 
ATOM     15  C   UNL     1      -4.016  -6.089   8.840  1.00  0.00     0.047 A 
ATOM     16  C   UNL     1      -4.713  -6.986   9.663  1.00  0.00     0.115 A 
ATOM     17  C   UNL     1      -6.657  -5.537   9.591  1.00  0.00     0.016 A 
ATOM     18  C   UNL     1      -6.029  -6.702  10.045  1.00  0.00     0.047 A 
BRANCH  16  19
ATOM     19  O   UNL     1      -4.109  -8.159  10.106  1.00  0.00    -0.508 OA
ATOM     20  H   UNL     1      -3.852  -8.898   9.464  1.00  0.00     0.293 HD
ENDBRANCH  16  19
ENDBRANCH   3  13
BRANCH  10  21
ATOM     21  O   UNL     1      -9.531   0.219   6.176  1.00  0.00    -0.507 OA
ATOM     22  H   UNL     1     -10.016  -0.582   5.785  1.00  0.00     0.293 HD
ENDBRANCH  10  21
BRANCH  11  23
ATOM     23  O   UNL     1      -7.524   2.170  10.125  1.00  0.00    -0.508 OA
ATOM     24  H   UNL     1      -7.511   2.051  11.132  1.00  0.00     0.293 HD
ENDBRANCH  11  23
ENDBRANCH   1   2
BRANCH   1  25
ATOM     25  C   UNL     1      -8.196  -5.666   6.243  1.00  0.00     0.339 C 
ATOM     26  C   UNL     1      -9.052  -5.838   4.974  1.00  0.00     0.214 C 
ATOM     27  O   UNL     1      -7.351  -6.787   6.456  1.00  0.00    -0.332 OA
ATOM     28  C   UNL     1     -10.015  -7.043   5.118  1.00  0.00     0.180 C 
ATOM     29  C   UNL     1      -7.985  -8.060   6.334  1.00  0.00     0.179 C 
ATOM     30  C   UNL     1      -9.543  -8.031   6.210  1.00  0.00     0.177 C 
BRANCH  26  31
ATOM     31  O   UNL     1      -9.769  -4.662   4.682  1.00  0.00    -0.384 OA
ATOM     32  H   UNL     1     -10.388  -4.867   3.932  1.00  0.00     0.211 HD
ENDBRANCH  26  31
BRANCH  28  33
ATOM     33  O   UNL     1     -10.120  -7.717   3.890  1.00  0.00    -0.387 OA
ATOM     34  H   UNL     1     -10.365  -7.037   3.211  1.00  0.00     0.211 HD
ENDBRANCH  28  33
BRANCH  29  35
ATOM     35  C   UNL     1      -7.324  -8.828   5.176  1.00  0.00     0.191 C 
BRANCH  35  36
ATOM     36  O   UNL     1      -8.142  -9.878   4.733  1.00  0.00    -0.394 OA
ATOM     37  H   UNL     1      -7.541 -10.612   4.442  1.00  0.00     0.210 HD
ENDBRANCH  35  36
ENDBRANCH  29  35
BRANCH  30  38
ATOM     38  O   UNL     1     -10.112  -7.662   7.444  1.00  0.00    -0.387 OA
ATOM     39  H   UNL     1     -10.509  -6.759   7.324  1.00  0.00     0.211 HD
ENDBRANCH  30  38
ENDBRANCH   1  25
TORSDOF 11
ENDMDL
MODEL 4
REMARK VINA RESULT:    -4.457      3.778      7.277
REMARK INTER + INTRA:          -7.788
REMARK INTER:                  -6.699
REMARK INTRA:                  -1.090
REMARK UNBOUND:                -1.378
REMARK SMILES O=c1c(O[C@@H]2O[C@H](CO)[C@@H](O)[C@H](O)[C@H]2O)c(-c2ccc(O)cc2)oc2cc(O)cc(O)c12
REMARK SMILES IDX 4 1 3 2 16 3 24 4 2 5 25 6 1 7 32 8 26 9 30 10 27 11 29 12
REMARK SMILES IDX 17 13 18 14 19 15 20 16 23 17 22 18 21 19 31 21 28 23 5 25
REMARK SMILES IDX 14 26 6 27 12 28 7 29 10 30 15 31 13 33 8 35 9 36 11 38
REMARK H PARENT 21 20 31 22 28 24 15 32 13 34 9 37 11 39
REMARK Flexibility Score: inf
ROOT
ATOM      1  O   UNL     1      -5.736  -9.181   5.558  1.00  0.00    -0.454 OA
ENDROOT
BRANCH   1   2
ATOM      2  C   UNL     1      -6.687  -8.979   4.540  1.00  0.00     0.214 A 
ATOM      3  C   UNL     1      -7.949  -8.374   4.758  1.00  0.00     0.180 A 
ATOM      4  O   UNL     1      -8.740  -8.098   3.727  1.00  0.00    -0.452 OA
ATOM      5  C   UNL     1      -6.356  -9.372   3.238  1.00  0.00     0.239 A 
ATOM      6  C   UNL     1      -8.438  -8.409   2.474  1.00  0.00     0.146 A 
ATOM      7  O   UNL     1      -5.252  -9.947   3.033  1.00  0.00    -0.285 OA
ATOM      8  C   UNL     1      -7.234  -9.088   2.171  1.00  0.00     0.111 A 
ATOM      9  C   UNL     1      -9.332  -8.069   1.455  1.00  0.00     0.094 A 
ATOM     10  C   UNL     1      -6.961  -9.433   0.825  1.00  0.00     0.134 A 
ATOM     11  C   UNL     1      -9.053  -8.399   0.129  1.00  0.00     0.123 A 
ATOM     12  C   UNL     1      -7.873  -9.083  -0.184  1.00  0.00     0.093 A 
BRANCH   3  13
ATOM     13  C   UNL     1      -8.458  -8.068   6.105  1.00  0.00     0.021 A 
ATOM     14  C   UNL     1      -8.999  -9.090   6.898  1.00  0.00     0.016 A 
ATOM     15  C   UNL     1      -9.502  -8.800   8.171  1.00  0.00     0.047 A 
ATOM     16  C   UNL     1      -9.452  -7.487   8.664  1.00  0.00     0.115 A 
ATOM     17  C   UNL     1      -8.372  -6.762   6.616  1.00  0.00     0.016 A 
ATOM     18  C   UNL     1      -8.878  -6.473   7.888  1.00  0.00     0.047 A 
BRANCH  16  19
ATOM     19  O   UNL     1      -9.968  -7.180   9.919  1.00  0.00    -0.508 OA
ATOM     20  H   UNL     1      -9.407  -7.265  10.758  1.00  0.00     0.293 HD
ENDBRANCH  16  19
ENDBRANCH   3  13
BRANCH  10  21
ATOM     21  O   UNL     1      -5.798 -10.125   0.476  1.00  0.00    -0.507 OA
ATOM     22  H   UNL     1      -5.193 -10.528   1.185  1.00  0.00     0.293 HD
ENDBRANCH  10  21
BRANCH  11  23
ATOM     23  O   UNL     1      -9.957  -8.049  -0.874  1.00  0.00    -0.508 OA
ATOM     24  H   UNL     1     -10.809  -8.578  -1.024  1.00  0.00     0.293 HD
ENDBRANCH  11  23
ENDBRANCH   1   2
BRANCH   1  25
ATOM     25  C   UNL     1      -5.290  -8.177   6.475  1.00  0.00     0.339 C 
ATOM     26  C   UNL     1      -4.885  -8.851   7.799  1.00  0.00     0.214 C 
ATOM     27  O   UNL     1      -4.204  -7.465   5.900  1.00  0.00    -0.332 OA
ATOM     28  C   UNL     1      -4.495  -7.791   8.860  1.00  0.00     0.180 C 
ATOM     29  C   UNL     1      -3.482  -6.624   6.800  1.00  0.00     0.179 C 
ATOM     30  C   UNL     1      -4.124  -6.437   8.213  1.00  0.00     0.177 C 
BRANCH  26  31
ATOM     31  O   UNL     1      -5.914  -9.681   8.282  1.00  0.00    -0.384 OA
ATOM     32  H   UNL     1      -6.771  -9.345   7.908  1.00  0.00     0.211 HD
ENDBRANCH  26  31
BRANCH  28  33
ATOM     33  O   UNL     1      -3.412  -8.258   9.623  1.00  0.00    -0.387 OA
ATOM     34  H   UNL     1      -3.655  -9.167   9.938  1.00  0.00     0.211 HD
ENDBRANCH  28  33
BRANCH  29  35
ATOM     35  C   UNL     1      -2.030  -7.125   6.882  1.00  0.00     0.191 C 
BRANCH  35  36
ATOM     36  O   UNL     1      -1.429  -6.737   8.089  1.00  0.00    -0.394 OA
ATOM     37  H   UNL     1      -2.134  -6.766   8.787  1.00  0.00     0.210 HD
ENDBRANCH  35  36
ENDBRANCH  29  35
BRANCH  30  38
ATOM     38  O   UNL     1      -5.282  -5.642   8.109  1.00  0.00    -0.387 OA
ATOM     39  H   UNL     1      -5.553  -5.398   9.033  1.00  0.00     0.211 HD
ENDBRANCH  30  38
ENDBRANCH   1  25
TORSDOF 11
ENDMDL
MODEL 5
REMARK VINA RESULT:    -4.400      4.599      6.735
REMARK INTER + INTRA:          -7.707
REMARK INTER:                  -6.177
REMARK INTRA:                  -1.531
REMARK UNBOUND:                -1.378
REMARK SMILES O=c1c(O[C@@H]2O[C@H](CO)[C@@H](O)[C@H](O)[C@H]2O)c(-c2ccc(O)cc2)oc2cc(O)cc(O)c12
REMARK SMILES IDX 4 1 3 2 16 3 24 4 2 5 25 6 1 7 32 8 26 9 30 10 27 11 29 12
REMARK SMILES IDX 17 13 18 14 19 15 20 16 23 17 22 18 21 19 31 21 28 23 5 25
REMARK SMILES IDX 14 26 6 27 12 28 7 29 10 30 15 31 13 33 8 35 9 36 11 38
REMARK H PARENT 21 20 31 22 28 24 15 32 13 34 9 37 11 39
REMARK Flexibility Score: inf
ROOT
ATOM      1  O   UNL     1      -5.890  -9.813   4.900  1.00  0.00    -0.454 OA
ENDROOT
BRANCH   1   2
ATOM      2  C   UNL     1      -4.975  -9.589   3.853  1.00  0.00     0.214 A 
ATOM      3  C   UNL     1      -3.624  -9.218   4.062  1.00  0.00     0.180 A 
ATOM      4  O   UNL     1      -2.786  -9.152   3.034  1.00  0.00    -0.452 OA
ATOM      5  C   UNL     1      -5.417  -9.770   2.538  1.00  0.00     0.239 A 
ATOM      6  C   UNL     1      -3.158  -9.367   1.778  1.00  0.00     0.146 A 
ATOM      7  O   UNL     1      -6.627 -10.063   2.332  1.00  0.00    -0.285 OA
ATOM      8  C   UNL     1      -4.506  -9.664   1.466  1.00  0.00     0.111 A 
ATOM      9  C   UNL     1      -2.200  -9.282   0.763  1.00  0.00     0.094 A 
ATOM     10  C   UNL     1      -4.870  -9.854   0.111  1.00  0.00     0.134 A 
ATOM     11  C   UNL     1      -2.562  -9.484  -0.569  1.00  0.00     0.123 A 
ATOM     12  C   UNL     1      -3.894  -9.764  -0.894  1.00  0.00     0.093 A 
BRANCH   3  13
ATOM     13  C   UNL     1      -3.100  -8.853   5.388  1.00  0.00     0.021 A 
ATOM     14  C   UNL     1      -2.673  -9.854   6.272  1.00  0.00     0.016 A 
ATOM     15  C   UNL     1      -2.193  -9.514   7.541  1.00  0.00     0.047 A 
ATOM     16  C   UNL     1      -2.123  -8.167   7.927  1.00  0.00     0.115 A 
ATOM     17  C   UNL     1      -2.992  -7.503   5.762  1.00  0.00     0.016 A 
ATOM     18  C   UNL     1      -2.514  -7.164   7.032  1.00  0.00     0.047 A 
BRANCH  16  19
ATOM     19  O   UNL     1      -1.668  -7.815   9.195  1.00  0.00    -0.508 OA
ATOM     20  H   UNL     1      -2.304  -7.711   9.976  1.00  0.00     0.293 HD
ENDBRANCH  16  19
ENDBRANCH   3  13
BRANCH  10  21
ATOM     21  O   UNL     1      -6.193 -10.125  -0.251  1.00  0.00    -0.507 OA
ATOM     22  H   UNL     1      -6.971  -9.706   0.247  1.00  0.00     0.293 HD
ENDBRANCH  10  21
BRANCH  11  23
ATOM     23  O   UNL     1      -1.592  -9.398  -1.568  1.00  0.00    -0.508 OA
ATOM     24  H   UNL     1      -1.616 -10.005  -2.380  1.00  0.00     0.293 HD
ENDBRANCH  11  23
ENDBRANCH   1   2
BRANCH   1  25
ATOM     25  C   UNL     1      -6.599  -8.789   5.603  1.00  0.00     0.339 C 
ATOM     26  C   UNL     1      -8.107  -9.094   5.549  1.00  0.00     0.214 C 
ATOM     27  O   UNL     1      -6.129  -8.727   6.942  1.00  0.00    -0.332 OA
ATOM     28  C   UNL     1      -8.924  -7.955   6.207  1.00  0.00     0.180 C 
ATOM     29  C   UNL     1      -6.927  -7.947   7.833  1.00  0.00     0.179 C 
ATOM     30  C   UNL     1      -8.058  -7.102   7.163  1.00  0.00     0.177 C 
BRANCH  26  31
ATOM     31  O   UNL     1      -8.534  -9.309   4.225  1.00  0.00    -0.384 OA
ATOM     32  H   UNL     1      -8.854  -8.439   3.868  1.00  0.00     0.211 HD
ENDBRANCH  26  31
BRANCH  28  33
ATOM     33  O   UNL     1     -10.010  -8.496   6.916  1.00  0.00    -0.387 OA
ATOM     34  H   UNL     1      -9.764  -8.473   7.877  1.00  0.00     0.211 HD
ENDBRANCH  28  33
BRANCH  29  35
ATOM     35  C   UNL     1      -7.467  -8.868   8.941  1.00  0.00     0.191 C 
BRANCH  35  36
ATOM     36  O   UNL     1      -6.844 -10.124   8.903  1.00  0.00    -0.394 OA
ATOM     37  H   UNL     1      -7.254 -10.673   9.622  1.00  0.00     0.210 HD
ENDBRANCH  35  36
ENDBRANCH  29  35
BRANCH  30  38
ATOM     38  O   UNL     1      -7.491  -6.033   6.443  1.00  0.00    -0.387 OA
ATOM     39  H   UNL     1      -7.913  -6.030   5.544  1.00  0.00     0.211 HD
ENDBRANCH  30  38
ENDBRANCH   1  25
TORSDOF 11
ENDMDL
MODEL 6
REMARK VINA RESULT:    -4.391      2.609      8.061
REMARK INTER + INTRA:          -7.694
REMARK INTER:                  -6.109
REMARK INTRA:                  -1.585
REMARK UNBOUND:                -1.378
REMARK SMILES O=c1c(O[C@@H]2O[C@H](CO)[C@@H](O)[C@H](O)[C@H]2O)c(-c2ccc(O)cc2)oc2cc(O)cc(O)c12
REMARK SMILES IDX 4 1 3 2 16 3 24 4 2 5 25 6 1 7 32 8 26 9 30 10 27 11 29 12
REMARK SMILES IDX 17 13 18 14 19 15 20 16 23 17 22 18 21 19 31 21 28 23 5 25
REMARK SMILES IDX 14 26 6 27 12 28 7 29 10 30 15 31 13 33 8 35 9 36 11 38
REMARK H PARENT 21 20 31 22 28 24 15 32 13 34 9 37 11 39
REMARK Flexibility Score: inf
ROOT
ATOM      1  O   UNL     1      -3.397  -6.396   9.269  1.00  0.00    -0.454 OA
ENDROOT
BRANCH   1   2
ATOM      2  C   UNL     1      -4.438  -7.162   8.712  1.00  0.00     0.214 A 
ATOM      3  C   UNL     1      -4.224  -8.352   7.974  1.00  0.00     0.180 A 
ATOM      4  O   UNL     1      -5.258  -9.093   7.591  1.00  0.00    -0.452 OA
ATOM      5  C   UNL     1      -5.756  -6.741   8.923  1.00  0.00     0.239 A 
ATOM      6  C   UNL     1      -6.520  -8.751   7.817  1.00  0.00     0.146 A 
ATOM      7  O   UNL     1      -5.964  -5.664   9.545  1.00  0.00    -0.285 OA
ATOM      8  C   UNL     1      -6.831  -7.539   8.477  1.00  0.00     0.111 A 
ATOM      9  C   UNL     1      -7.540  -9.601   7.382  1.00  0.00     0.094 A 
ATOM     10  C   UNL     1      -8.190  -7.193   8.671  1.00  0.00     0.134 A 
ATOM     11  C   UNL     1      -8.878  -9.263   7.588  1.00  0.00     0.123 A 
ATOM     12  C   UNL     1      -9.202  -8.060   8.226  1.00  0.00     0.093 A 
BRANCH   3  13
ATOM     13  C   UNL     1      -2.882  -8.798   7.564  1.00  0.00     0.021 A 
ATOM     14  C   UNL     1      -2.399  -8.480   6.286  1.00  0.00     0.016 A 
ATOM     15  C   UNL     1      -1.132  -8.918   5.884  1.00  0.00     0.047 A 
ATOM     16  C   UNL     1      -0.335  -9.664   6.765  1.00  0.00     0.115 A 
ATOM     17  C   UNL     1      -2.066  -9.510   8.458  1.00  0.00     0.016 A 
ATOM     18  C   UNL     1      -0.801  -9.950   8.054  1.00  0.00     0.047 A 
BRANCH  16  19
ATOM     19  O   UNL     1       0.917 -10.125   6.371  1.00  0.00    -0.508 OA
ATOM     20  H   UNL     1       1.090 -11.108   6.198  1.00  0.00     0.293 HD
ENDBRANCH  16  19
ENDBRANCH   3  13
BRANCH  10  21
ATOM     21  O   UNL     1      -8.551  -5.996   9.295  1.00  0.00    -0.507 OA
ATOM     22  H   UNL     1      -7.851  -5.382   9.699  1.00  0.00     0.293 HD
ENDBRANCH  10  21
BRANCH  11  23
ATOM     23  O   UNL     1      -9.883 -10.125   7.149  1.00  0.00    -0.508 OA
ATOM     24  H   UNL     1      -9.703 -10.829   6.441  1.00  0.00     0.293 HD
ENDBRANCH  11  23
ENDBRANCH   1   2
BRANCH   1  25
ATOM     25  C   UNL     1      -2.502  -5.564   8.525  1.00  0.00     0.339 C 
ATOM     26  C   UNL     1      -2.643  -4.111   9.016  1.00  0.00     0.214 C 
ATOM     27  O   UNL     1      -1.174  -6.041   8.688  1.00  0.00    -0.332 OA
ATOM     28  C   UNL     1      -1.768  -3.155   8.166  1.00  0.00     0.180 C 
ATOM     29  C   UNL     1      -0.149  -5.157   8.232  1.00  0.00     0.179 C 
ATOM     30  C   UNL     1      -0.640  -3.911   7.426  1.00  0.00     0.177 C 
BRANCH  26  31
ATOM     31  O   UNL     1      -3.988  -3.698   9.000  1.00  0.00    -0.384 OA
ATOM     32  H   UNL     1      -4.349  -3.887   8.093  1.00  0.00     0.211 HD
ENDBRANCH  26  31
BRANCH  28  33
ATOM     33  O   UNL     1      -1.207  -2.165   8.989  1.00  0.00    -0.387 OA
ATOM     34  H   UNL     1      -1.529  -2.342   9.910  1.00  0.00     0.211 HD
ENDBRANCH  28  33
BRANCH  29  35
ATOM     35  C   UNL     1       0.729  -4.765   9.433  1.00  0.00     0.191 C 
BRANCH  35  36
ATOM     36  O   UNL     1       1.393  -3.551   9.199  1.00  0.00    -0.394 OA
ATOM     37  H   UNL     1       1.767  -3.252  10.068  1.00  0.00     0.210 HD
ENDBRANCH  35  36
ENDBRANCH  29  35
BRANCH  30  38
ATOM     38  O   UNL     1      -1.107  -4.315   6.161  1.00  0.00    -0.387 OA
ATOM     39  H   UNL     1      -2.098  -4.246   6.179  1.00  0.00     0.211 HD
ENDBRANCH  30  38
ENDBRANCH   1  25
TORSDOF 11
ENDMDL
MODEL 7
REMARK VINA RESULT:    -4.309      2.721      8.030
REMARK INTER + INTRA:          -7.577
REMARK INTER:                  -6.224
REMARK INTRA:                  -1.353
REMARK UNBOUND:                -1.378
REMARK SMILES O=c1c(O[C@@H]2O[C@H](CO)[C@@H](O)[C@H](O)[C@H]2O)c(-c2ccc(O)cc2)oc2cc(O)cc(O)c12
REMARK SMILES IDX 4 1 3 2 16 3 24 4 2 5 25 6 1 7 32 8 26 9 30 10 27 11 29 12
REMARK SMILES IDX 17 13 18 14 19 15 20 16 23 17 22 18 21 19 31 21 28 23 5 25
REMARK SMILES IDX 14 26 6 27 12 28 7 29 10 30 15 31 13 33 8 35 9 36 11 38
REMARK H PARENT 21 20 31 22 28 24 15 32 13 34 9 37 11 39
REMARK Flexibility Score: inf
ROOT
ATOM      1  O   UNL     1      -2.769  -6.629   9.687  1.00  0.00    -0.454 OA
ENDROOT
BRANCH   1   2
ATOM      2  C   UNL     1      -3.826  -7.308   9.050  1.00  0.00     0.214 A 
ATOM      3  C   UNL     1      -3.639  -8.434   8.212  1.00  0.00     0.180 A 
ATOM      4  O   UNL     1      -4.691  -9.102   7.752  1.00  0.00    -0.452 OA
ATOM      5  C   UNL     1      -5.132  -6.862   9.281  1.00  0.00     0.239 A 
ATOM      6  C   UNL     1      -5.945  -8.739   7.992  1.00  0.00     0.146 A 
ATOM      7  O   UNL     1      -5.314  -5.837   9.994  1.00  0.00    -0.285 OA
ATOM      8  C   UNL     1      -6.226  -7.579   8.752  1.00  0.00     0.111 A 
ATOM      9  C   UNL     1      -6.986  -9.511   7.470  1.00  0.00     0.094 A 
ATOM     10  C   UNL     1      -7.576  -7.205   8.959  1.00  0.00     0.134 A 
ATOM     11  C   UNL     1      -8.315  -9.147   7.688  1.00  0.00     0.123 A 
ATOM     12  C   UNL     1      -8.608  -7.994   8.426  1.00  0.00     0.093 A 
BRANCH   3  13
ATOM     13  C   UNL     1      -2.307  -8.888   7.781  1.00  0.00     0.021 A 
ATOM     14  C   UNL     1      -1.539  -9.704   8.624  1.00  0.00     0.016 A 
ATOM     15  C   UNL     1      -0.264 -10.122   8.228  1.00  0.00     0.047 A 
ATOM     16  C   UNL     1       0.245  -9.735   6.978  1.00  0.00     0.115 A 
ATOM     17  C   UNL     1      -1.812  -8.536   6.515  1.00  0.00     0.016 A 
ATOM     18  C   UNL     1      -0.536  -8.951   6.121  1.00  0.00     0.047 A 
BRANCH  16  19
ATOM     19  O   UNL     1       1.520 -10.125   6.580  1.00  0.00    -0.508 OA
ATOM     20  H   UNL     1       1.693 -11.035   6.172  1.00  0.00     0.293 HD
ENDBRANCH  16  19
ENDBRANCH   3  13
BRANCH  10  21
ATOM     21  O   UNL     1      -7.906  -6.056   9.682  1.00  0.00    -0.507 OA
ATOM     22  H   UNL     1      -7.639  -5.952  10.655  1.00  0.00     0.293 HD
ENDBRANCH  10  21
BRANCH  11  23
ATOM     23  O   UNL     1      -9.341  -9.932   7.162  1.00  0.00    -0.508 OA
ATOM     24  H   UNL     1      -9.164 -10.609   6.428  1.00  0.00     0.293 HD
ENDBRANCH  11  23
ENDBRANCH   1   2
BRANCH   1  25
ATOM     25  C   UNL     1      -2.100  -5.477   9.164  1.00  0.00     0.339 C 
ATOM     26  C   UNL     1      -0.638  -5.846   8.851  1.00  0.00     0.214 C 
ATOM     27  O   UNL     1      -2.783  -5.025   8.003  1.00  0.00    -0.332 OA
ATOM     28  C   UNL     1       0.155  -4.600   8.381  1.00  0.00     0.180 C 
ATOM     29  C   UNL     1      -2.080  -4.059   7.221  1.00  0.00     0.179 C 
ATOM     30  C   UNL     1      -0.780  -3.480   7.869  1.00  0.00     0.177 C 
BRANCH  26  31
ATOM     31  O   UNL     1      -0.014  -6.440   9.964  1.00  0.00    -0.384 OA
ATOM     32  H   UNL     1      -0.411  -7.343  10.084  1.00  0.00     0.211 HD
ENDBRANCH  26  31
BRANCH  28  33
ATOM     33  O   UNL     1       1.052  -4.964   7.362  1.00  0.00    -0.387 OA
ATOM     34  H   UNL     1       1.787  -5.469   7.796  1.00  0.00     0.211 HD
ENDBRANCH  28  33
BRANCH  29  35
ATOM     35  C   UNL     1      -1.821  -4.652   5.826  1.00  0.00     0.191 C 
BRANCH  35  36
ATOM     36  O   UNL     1      -2.890  -5.461   5.414  1.00  0.00    -0.394 OA
ATOM     37  H   UNL     1      -3.529  -4.874   4.931  1.00  0.00     0.210 HD
ENDBRANCH  35  36
ENDBRANCH  29  35
BRANCH  30  38
ATOM     38  O   UNL     1      -1.119  -2.635   8.942  1.00  0.00    -0.387 OA
ATOM     39  H   UNL     1      -2.087  -2.765   9.124  1.00  0.00     0.211 HD
ENDBRANCH  30  38
ENDBRANCH   1  25
TORSDOF 11
ENDMDL
MODEL 8
REMARK VINA RESULT:    -4.224      3.561      8.054
REMARK INTER + INTRA:          -7.454
REMARK INTER:                  -5.992
REMARK INTRA:                  -1.462
REMARK UNBOUND:                -1.378
REMARK SMILES O=c1c(O[C@@H]2O[C@H](CO)[C@@H](O)[C@H](O)[C@H]2O)c(-c2ccc(O)cc2)oc2cc(O)cc(O)c12
REMARK SMILES IDX 4 1 3 2 16 3 24 4 2 5 25 6 1 7 32 8 26 9 30 10 27 11 29 12
REMARK SMILES IDX 17 13 18 14 19 15 20 16 23 17 22 18 21 19 31 21 28 23 5 25
REMARK SMILES IDX 14 26 6 27 12 28 7 29 10 30 15 31 13 33 8 35 9 36 11 38
REMARK H PARENT 21 20 31 22 28 24 15 32 13 34 9 37 11 39
REMARK Flexibility Score: inf
ROOT
ATOM      1  O   UNL     1      -3.591  -9.964   5.288  1.00  0.00    -0.454 OA
ENDROOT
BRANCH   1   2
ATOM      2  C   UNL     1      -4.410  -9.480   6.327  1.00  0.00     0.214 A 
ATOM      3  C   UNL     1      -3.904  -8.897   7.514  1.00  0.00     0.180 A 
ATOM      4  O   UNL     1      -4.735  -8.344   8.390  1.00  0.00    -0.452 OA
ATOM      5  C   UNL     1      -5.798  -9.554   6.163  1.00  0.00     0.239 A 
ATOM      6  C   UNL     1      -6.054  -8.350   8.245  1.00  0.00     0.146 A 
ATOM      7  O   UNL     1      -6.266 -10.104   5.129  1.00  0.00    -0.285 OA
ATOM      8  C   UNL     1      -6.653  -8.981   7.129  1.00  0.00     0.111 A 
ATOM      9  C   UNL     1      -6.847  -7.735   9.218  1.00  0.00     0.094 A 
ATOM     10  C   UNL     1      -8.065  -8.995   7.025  1.00  0.00     0.134 A 
ATOM     11  C   UNL     1      -8.237  -7.738   9.104  1.00  0.00     0.123 A 
ATOM     12  C   UNL     1      -8.844  -8.371   8.013  1.00  0.00     0.093 A 
BRANCH   3  13
ATOM     13  C   UNL     1      -2.472  -8.911   7.854  1.00  0.00     0.021 A 
ATOM     14  C   UNL     1      -1.727  -7.724   7.796  1.00  0.00     0.016 A 
ATOM     15  C   UNL     1      -0.361  -7.736   8.099  1.00  0.00     0.047 A 
ATOM     16  C   UNL     1       0.264  -8.934   8.476  1.00  0.00     0.115 A 
ATOM     17  C   UNL     1      -1.852 -10.101   8.271  1.00  0.00     0.016 A 
ATOM     18  C   UNL     1      -0.486 -10.112   8.570  1.00  0.00     0.047 A 
BRANCH  16  19
ATOM     19  O   UNL     1       1.627  -8.965   8.758  1.00  0.00    -0.508 OA
ATOM     20  H   UNL     1       2.313  -8.618   8.099  1.00  0.00     0.293 HD
ENDBRANCH  16  19
ENDBRANCH   3  13
BRANCH  10  21
ATOM     21  O   UNL     1      -8.706  -9.626   5.955  1.00  0.00    -0.507 OA
ATOM     22  H   UNL     1      -9.661  -9.958   6.037  1.00  0.00     0.293 HD
ENDBRANCH  10  21
BRANCH  11  23
ATOM     23  O   UNL     1      -9.011  -7.117  10.083  1.00  0.00    -0.508 OA
ATOM     24  H   UNL     1      -9.994  -7.339  10.199  1.00  0.00     0.293 HD
ENDBRANCH  11  23
ENDBRANCH   1   2
BRANCH   1  25
ATOM     25  C   UNL     1      -3.029  -9.161   4.245  1.00  0.00     0.339 C 
ATOM     26  C   UNL     1      -1.665  -9.750   3.840  1.00  0.00     0.214 C 
ATOM     27  O   UNL     1      -3.927  -9.124   3.146  1.00  0.00    -0.332 OA
ATOM     28  C   UNL     1      -0.969  -8.853   2.786  1.00  0.00     0.180 C 
ATOM     29  C   UNL     1      -3.386  -8.594   1.935  1.00  0.00     0.179 C 
ATOM     30  C   UNL     1      -1.976  -7.932   2.058  1.00  0.00     0.177 C 
BRANCH  26  31
ATOM     31  O   UNL     1      -0.836  -9.930   4.963  1.00  0.00    -0.384 OA
ATOM     32  H   UNL     1       0.082  -9.649   4.706  1.00  0.00     0.211 HD
ENDBRANCH  26  31
BRANCH  28  33
ATOM     33  O   UNL     1      -0.302  -9.654   1.845  1.00  0.00    -0.387 OA
ATOM     34  H   UNL     1       0.124 -10.394   2.350  1.00  0.00     0.211 HD
ENDBRANCH  28  33
BRANCH  29  35
ATOM     35  C   UNL     1      -3.421  -9.694   0.860  1.00  0.00     0.191 C 
BRANCH  35  36
ATOM     36  O   UNL     1      -2.680  -9.319  -0.271  1.00  0.00    -0.394 OA
ATOM     37  H   UNL     1      -3.319  -8.916  -0.916  1.00  0.00     0.210 HD
ENDBRANCH  35  36
ENDBRANCH  29  35
BRANCH  30  38
ATOM     38  O   UNL     1      -2.080  -6.716   2.759  1.00  0.00    -0.387 OA
ATOM     39  H   UNL     1      -2.847  -6.803   3.384  1.00  0.00     0.211 HD
ENDBRANCH  30  38
ENDBRANCH   1  25
TORSDOF 11
ENDMDL
MODEL 9
REMARK VINA RESULT:    -4.183      2.010      5.270
REMARK INTER + INTRA:          -7.395
REMARK INTER:                  -5.735
REMARK INTRA:                  -1.659
REMARK UNBOUND:                -1.378
REMARK SMILES O=c1c(O[C@@H]2O[C@H](CO)[C@@H](O)[C@H](O)[C@H]2O)c(-c2ccc(O)cc2)oc2cc(O)cc(O)c12
REMARK SMILES IDX 4 1 3 2 16 3 24 4 2 5 25 6 1 7 32 8 26 9 30 10 27 11 29 12
REMARK SMILES IDX 17 13 18 14 19 15 20 16 23 17 22 18 21 19 31 21 28 23 5 25
REMARK SMILES IDX 14 26 6 27 12 28 7 29 10 30 15 31 13 33 8 35 9 36 11 38
REMARK H PARENT 21 20 31 22 28 24 15 32 13 34 9 37 11 39
REMARK Flexibility Score: inf
ROOT
ATOM      1  O   UNL     1      -5.013  -5.513   6.800  1.00  0.00    -0.454 OA
ENDROOT
BRANCH   1   2
ATOM      2  C   UNL     1      -4.034  -6.367   7.343  1.00  0.00     0.214 A 
ATOM      3  C   UNL     1      -4.244  -7.749   7.573  1.00  0.00     0.180 A 
ATOM      4  O   UNL     1      -3.234  -8.519   7.964  1.00  0.00    -0.452 OA
ATOM      5  C   UNL     1      -2.778  -5.828   7.644  1.00  0.00     0.239 A 
ATOM      6  C   UNL     1      -2.017  -8.052   8.211  1.00  0.00     0.146 A 
ATOM      7  O   UNL     1      -2.587  -4.592   7.481  1.00  0.00    -0.285 OA
ATOM      8  C   UNL     1      -1.736  -6.670   8.085  1.00  0.00     0.111 A 
ATOM      9  C   UNL     1      -1.017  -8.942   8.610  1.00  0.00     0.094 A 
ATOM     10  C   UNL     1      -0.434  -6.205   8.389  1.00  0.00     0.134 A 
ATOM     11  C   UNL     1       0.269  -8.481   8.895  1.00  0.00     0.123 A 
ATOM     12  C   UNL     1       0.557  -7.116   8.789  1.00  0.00     0.093 A 
BRANCH   3  13
ATOM     13  C   UNL     1      -5.566  -8.382   7.438  1.00  0.00     0.021 A 
ATOM     14  C   UNL     1      -6.028  -8.775   6.174  1.00  0.00     0.016 A 
ATOM     15  C   UNL     1      -7.292  -9.359   6.037  1.00  0.00     0.047 A 
ATOM     16  C   UNL     1      -8.095  -9.566   7.169  1.00  0.00     0.115 A 
ATOM     17  C   UNL     1      -6.355  -8.627   8.574  1.00  0.00     0.016 A 
ATOM     18  C   UNL     1      -7.620  -9.208   8.435  1.00  0.00     0.047 A 
BRANCH  16  19
ATOM     19  O   UNL     1      -9.364 -10.125   7.045  1.00  0.00    -0.508 OA
ATOM     20  H   UNL     1      -9.925  -9.987   6.214  1.00  0.00     0.293 HD
ENDBRANCH  16  19
ENDBRANCH   3  13
BRANCH  10  21
ATOM     21  O   UNL     1      -0.112  -4.848   8.305  1.00  0.00    -0.507 OA
ATOM     22  H   UNL     1       0.823  -4.543   8.057  1.00  0.00     0.293 HD
ENDBRANCH  10  21
BRANCH  11  23
ATOM     23  O   UNL     1       1.255  -9.385   9.290  1.00  0.00    -0.508 OA
ATOM     24  H   UNL     1       2.012  -9.645   8.667  1.00  0.00     0.293 HD
ENDBRANCH  11  23
ENDBRANCH   1   2
BRANCH   1  25
ATOM     25  C   UNL     1      -5.988  -4.795   7.561  1.00  0.00     0.339 C 
ATOM     26  C   UNL     1      -6.035  -3.336   7.069  1.00  0.00     0.214 C 
ATOM     27  O   UNL     1      -7.251  -5.430   7.425  1.00  0.00    -0.332 OA
ATOM     28  C   UNL     1      -7.003  -2.493   7.936  1.00  0.00     0.180 C 
ATOM     29  C   UNL     1      -8.367  -4.677   7.900  1.00  0.00     0.179 C 
ATOM     30  C   UNL     1      -8.016  -3.379   8.697  1.00  0.00     0.177 C 
BRANCH  26  31
ATOM     31  O   UNL     1      -4.749  -2.763   7.059  1.00  0.00    -0.384 OA
ATOM     32  H   UNL     1      -4.332  -2.976   6.183  1.00  0.00     0.211 HD
ENDBRANCH  26  31
BRANCH  28  33
ATOM     33  O   UNL     1      -7.696  -1.580   7.124  1.00  0.00    -0.387 OA
ATOM     34  H   UNL     1      -7.028  -0.920   6.802  1.00  0.00     0.211 HD
ENDBRANCH  28  33
BRANCH  29  35
ATOM     35  C   UNL     1      -9.309  -4.397   6.717  1.00  0.00     0.191 C 
BRANCH  35  36
ATOM     36  O   UNL     1     -10.125  -3.284   6.972  1.00  0.00    -0.394 OA
ATOM     37  H   UNL     1     -11.034  -3.509   6.642  1.00  0.00     0.210 HD
ENDBRANCH  35  36
ENDBRANCH  29  35
BRANCH  30  38
ATOM     38  O   UNL     1      -7.479  -3.721   9.952  1.00  0.00    -0.387 OA
ATOM     39  H   UNL     1      -6.490  -3.671   9.871  1.00  0.00     0.211 HD
ENDBRANCH  30  38
ENDBRANCH   1  25
TORSDOF 11
ENDMDL
