MODEL 1
REMARK VINA RESULT:    -3.109      0.000      0.000
REMARK INTER + INTRA:         -10.512
REMARK INTER:                  -6.745
REMARK INTRA:                  -3.767
REMARK UNBOUND:                -3.767
REMARK SMILES CCCCCCCCCCCCCCCCCCCCCC(=O)[O-]
REMARK SMILES IDX 12 1 11 2 10 3 9 4 8 5 7 6 6 7 5 8 4 9 3 10 2 11 1 12 13 13
REMARK SMILES IDX 14 14 15 15 16 16 17 17 18 18 19 19 20 20 21 21 22 22 23 23
REMARK SMILES IDX 24 24
REMARK H PARENT
REMARK Flexibility Score: inf
ROOT
ATOM      1  C   UNL     1      62.808  31.767  58.419  1.00  0.00     0.000 C 
ENDROOT
BRANCH   1   2
ATOM      2  C   UNL     1      61.371  32.244  58.154  1.00  0.00     0.000 C 
BRANCH   2   3
ATOM      3  C   UNL     1      60.466  32.104  59.390  1.00  0.00     0.000 C 
BRANCH   3   4
ATOM      4  C   UNL     1      61.244  32.242  60.709  1.00  0.00    -0.000 C 
BRANCH   4   5
ATOM      5  C   UNL     1      61.064  31.019  61.627  1.00  0.00    -0.000 C 
BRANCH   5   6
ATOM      6  C   UNL     1      62.366  30.224  61.812  1.00  0.00    -0.000 C 
BRANCH   6   7
ATOM      7  C   UNL     1      62.450  28.999  60.884  1.00  0.00    -0.000 C 
BRANCH   7   8
ATOM      8  C   UNL     1      63.862  28.392  60.834  1.00  0.00    -0.000 C 
BRANCH   8   9
ATOM      9  C   UNL     1      64.965  29.458  60.954  1.00  0.00    -0.000 C 
BRANCH   9  10
ATOM     10  C   UNL     1      66.376  28.847  60.985  1.00  0.00    -0.000 C 
BRANCH  10  11
ATOM     11  C   UNL     1      67.169  29.118  59.698  1.00  0.00    -0.003 C 
ATOM     12  C   UNL     1      66.539  30.252  58.895  1.00  0.00     0.004 C 
ENDBRANCH  10  11
ENDBRANCH   9  10
ENDBRANCH   8   9
ENDBRANCH   7   8
ENDBRANCH   6   7
ENDBRANCH   5   6
ENDBRANCH   4   5
ENDBRANCH   3   4
ENDBRANCH   2   3
ENDBRANCH   1   2
BRANCH   1  13
ATOM     13  C   UNL     1      63.864  32.647  57.728  1.00  0.00     0.000 C 
BRANCH  13  14
ATOM     14  C   UNL     1      64.504  33.663  58.689  1.00  0.00     0.000 C 
BRANCH  14  15
ATOM     15  C   UNL     1      64.587  33.137  60.130  1.00  0.00     0.000 C 
BRANCH  15  16
ATOM     16  C   UNL     1      64.179  34.224  61.136  1.00  0.00     0.000 C 
BRANCH  16  17
ATOM     17  C   UNL     1      63.514  35.443  60.469  1.00  0.00     0.000 C 
BRANCH  17  18
ATOM     18  C   UNL     1      62.195  35.903  61.115  1.00  0.00     0.000 C 
BRANCH  18  19
ATOM     19  C   UNL     1      61.051  36.060  60.101  1.00  0.00     0.000 C 
BRANCH  19  20
ATOM     20  C   UNL     1      61.513  35.672  58.689  1.00  0.00     0.006 C 
BRANCH  20  21
ATOM     21  C   UNL     1      60.579  36.219  57.602  1.00  0.00     0.053 C 
BRANCH  21  22
ATOM     22  C   UNL     1      59.146  35.875  57.875  1.00  0.00     0.041 C 
ATOM     23  O   UNL     1      58.765  34.675  57.842  1.00  0.00    -0.550 OA
ATOM     24  O   UNL     1      58.239  36.877  58.195  1.00  0.00    -0.550 OA
ENDBRANCH  21  22
ENDBRANCH  20  21
ENDBRANCH  19  20
ENDBRANCH  18  19
ENDBRANCH  17  18
ENDBRANCH  16  17
ENDBRANCH  15  16
ENDBRANCH  14  15
ENDBRANCH  13  14
ENDBRANCH   1  13
TORSDOF 20
ENDMDL
MODEL 2
REMARK VINA RESULT:    -3.071      2.756      6.550
REMARK INTER + INTRA:         -10.428
REMARK INTER:                  -6.541
REMARK INTRA:                  -3.888
REMARK UNBOUND:                -3.767
REMARK SMILES CCCCCCCCCCCCCCCCCCCCCC(=O)[O-]
REMARK SMILES IDX 12 1 11 2 10 3 9 4 8 5 7 6 6 7 5 8 4 9 3 10 2 11 1 12 13 13
REMARK SMILES IDX 14 14 15 15 16 16 17 17 18 18 19 19 20 20 21 21 22 22 23 23
REMARK SMILES IDX 24 24
REMARK H PARENT
REMARK Flexibility Score: inf
ROOT
ATOM      1  C   UNL     1      64.889  31.412  60.298  1.00  0.00     0.000 C 
ENDROOT
BRANCH   1   2
ATOM      2  C   UNL     1      64.712  32.474  59.201  1.00  0.00     0.000 C 
BRANCH   2   3
ATOM      3  C   UNL     1      64.157  33.800  59.749  1.00  0.00     0.000 C 
BRANCH   3   4
ATOM      4  C   UNL     1      64.316  33.921  61.274  1.00  0.00    -0.000 C 
BRANCH   4   5
ATOM      5  C   UNL     1      64.841  35.303  61.702  1.00  0.00    -0.000 C 
BRANCH   5   6
ATOM      6  C   UNL     1      64.265  36.443  60.847  1.00  0.00    -0.000 C 
BRANCH   6   7
ATOM      7  C   UNL     1      62.942  36.995  61.409  1.00  0.00    -0.000 C 
BRANCH   7   8
ATOM      8  C   UNL     1      61.834  37.069  60.345  1.00  0.00    -0.000 C 
BRANCH   8   9
ATOM      9  C   UNL     1      60.934  35.821  60.345  1.00  0.00    -0.000 C 
BRANCH   9  10
ATOM     10  C   UNL     1      60.611  35.325  58.925  1.00  0.00    -0.000 C 
BRANCH  10  11
ATOM     11  C   UNL     1      59.332  35.953  58.353  1.00  0.00    -0.003 C 
ATOM     12  C   UNL     1      58.587  34.964  57.462  1.00  0.00     0.004 C 
ENDBRANCH  10  11
ENDBRANCH   9  10
ENDBRANCH   8   9
ENDBRANCH   7   8
ENDBRANCH   6   7
ENDBRANCH   5   6
ENDBRANCH   4   5
ENDBRANCH   3   4
ENDBRANCH   2   3
ENDBRANCH   1   2
BRANCH   1  13
ATOM     13  C   UNL     1      64.514  29.997  59.823  1.00  0.00     0.000 C 
BRANCH  13  14
ATOM     14  C   UNL     1      63.343  29.400  60.622  1.00  0.00     0.000 C 
BRANCH  14  15
ATOM     15  C   UNL     1      62.868  30.328  61.750  1.00  0.00     0.000 C 
BRANCH  15  16
ATOM     16  C   UNL     1      61.387  30.693  61.574  1.00  0.00     0.000 C 
BRANCH  16  17
ATOM     17  C   UNL     1      61.177  31.974  60.744  1.00  0.00     0.000 C 
BRANCH  17  18
ATOM     18  C   UNL     1      60.444  31.773  59.405  1.00  0.00     0.000 C 
BRANCH  18  19
ATOM     19  C   UNL     1      61.400  31.555  58.223  1.00  0.00     0.000 C 
BRANCH  19  20
ATOM     20  C   UNL     1      61.295  30.118  57.691  1.00  0.00     0.006 C 
BRANCH  20  21
ATOM     21  C   UNL     1      60.039  29.400  58.202  1.00  0.00     0.053 C 
BRANCH  21  22
ATOM     22  C   UNL     1      60.367  28.070  58.810  1.00  0.00     0.041 C 
ATOM     23  O   UNL     1      61.086  27.247  58.184  1.00  0.00    -0.550 OA
ATOM     24  O   UNL     1      59.904  27.754  60.081  1.00  0.00    -0.550 OA
ENDBRANCH  21  22
ENDBRANCH  20  21
ENDBRANCH  19  20
ENDBRANCH  18  19
ENDBRANCH  17  18
ENDBRANCH  16  17
ENDBRANCH  15  16
ENDBRANCH  14  15
ENDBRANCH  13  14
ENDBRANCH   1  13
TORSDOF 20
ENDMDL
MODEL 3
REMARK VINA RESULT:    -3.068      4.302      7.640
REMARK INTER + INTRA:         -10.421
REMARK INTER:                  -8.592
REMARK INTRA:                  -1.830
REMARK UNBOUND:                -3.767
REMARK SMILES CCCCCCCCCCCCCCCCCCCCCC(=O)[O-]
REMARK SMILES IDX 12 1 11 2 10 3 9 4 8 5 7 6 6 7 5 8 4 9 3 10 2 11 1 12 13 13
REMARK SMILES IDX 14 14 15 15 16 16 17 17 18 18 19 19 20 20 21 21 22 22 23 23
REMARK SMILES IDX 24 24
REMARK H PARENT
REMARK Flexibility Score: inf
ROOT
ATOM      1  C   UNL     1      64.384  29.530  60.522  1.00  0.00     0.000 C 
ENDROOT
BRANCH   1   2
ATOM      2  C   UNL     1      63.620  30.495  61.442  1.00  0.00     0.000 C 
BRANCH   2   3
ATOM      3  C   UNL     1      62.232  29.960  61.835  1.00  0.00     0.000 C 
BRANCH   3   4
ATOM      4  C   UNL     1      61.104  30.957  61.518  1.00  0.00    -0.000 C 
BRANCH   4   5
ATOM      5  C   UNL     1      60.923  31.176  60.005  1.00  0.00    -0.000 C 
BRANCH   5   6
ATOM      6  C   UNL     1      61.043  32.655  59.605  1.00  0.00    -0.000 C 
BRANCH   6   7
ATOM      7  C   UNL     1      61.422  33.561  60.791  1.00  0.00    -0.000 C 
BRANCH   7   8
ATOM      8  C   UNL     1      61.753  34.998  60.354  1.00  0.00    -0.000 C 
BRANCH   8   9
ATOM      9  C   UNL     1      62.941  35.590  61.131  1.00  0.00    -0.000 C 
BRANCH   9  10
ATOM     10  C   UNL     1      64.225  34.758  60.973  1.00  0.00    -0.000 C 
BRANCH  10  11
ATOM     11  C   UNL     1      64.683  34.646  59.511  1.00  0.00    -0.003 C 
ATOM     12  C   UNL     1      64.708  33.190  59.054  1.00  0.00     0.004 C 
ENDBRANCH  10  11
ENDBRANCH   9  10
ENDBRANCH   8   9
ENDBRANCH   7   8
ENDBRANCH   6   7
ENDBRANCH   5   6
ENDBRANCH   4   5
ENDBRANCH   3   4
ENDBRANCH   2   3
ENDBRANCH   1   2
BRANCH   1  13
ATOM     13  C   UNL     1      65.857  29.932  60.330  1.00  0.00     0.000 C 
BRANCH  13  14
ATOM     14  C   UNL     1      66.830  28.907  60.936  1.00  0.00     0.000 C 
BRANCH  14  15
ATOM     15  C   UNL     1      68.155  28.825  60.163  1.00  0.00     0.000 C 
BRANCH  15  16
ATOM     16  C   UNL     1      69.353  28.836  61.124  1.00  0.00     0.000 C 
BRANCH  16  17
ATOM     17  C   UNL     1      70.571  29.592  60.561  1.00  0.00     0.000 C 
BRANCH  17  18
ATOM     18  C   UNL     1      71.262  30.549  61.549  1.00  0.00     0.000 C 
BRANCH  18  19
ATOM     19  C   UNL     1      72.296  31.464  60.877  1.00  0.00     0.000 C 
BRANCH  19  20
ATOM     20  C   UNL     1      71.643  32.768  60.395  1.00  0.00     0.006 C 
BRANCH  20  21
ATOM     21  C   UNL     1      71.528  32.828  58.866  1.00  0.00     0.053 C 
BRANCH  21  22
ATOM     22  C   UNL     1      70.540  33.865  58.422  1.00  0.00     0.041 C 
ATOM     23  O   UNL     1      69.640  33.568  57.592  1.00  0.00    -0.550 OA
ATOM     24  O   UNL     1      70.594  35.148  58.950  1.00  0.00    -0.550 OA
ENDBRANCH  21  22
ENDBRANCH  20  21
ENDBRANCH  19  20
ENDBRANCH  18  19
ENDBRANCH  17  18
ENDBRANCH  16  17
ENDBRANCH  15  16
ENDBRANCH  14  15
ENDBRANCH  13  14
ENDBRANCH   1  13
TORSDOF 20
ENDMDL
MODEL 4
REMARK VINA RESULT:    -3.035     10.732     12.668
REMARK INTER + INTRA:         -10.351
REMARK INTER:                  -7.245
REMARK INTRA:                  -3.106
REMARK UNBOUND:                -3.767
REMARK SMILES CCCCCCCCCCCCCCCCCCCCCC(=O)[O-]
REMARK SMILES IDX 12 1 11 2 10 3 9 4 8 5 7 6 6 7 5 8 4 9 3 10 2 11 1 12 13 13
REMARK SMILES IDX 14 14 15 15 16 16 17 17 18 18 19 19 20 20 21 21 22 22 23 23
REMARK SMILES IDX 24 24
REMARK H PARENT
REMARK Flexibility Score: inf
ROOT
ATOM      1  C   UNL     1      56.717  29.181  51.961  1.00  0.00     0.000 C 
ENDROOT
BRANCH   1   2
ATOM      2  C   UNL     1      55.638  28.953  50.891  1.00  0.00     0.000 C 
BRANCH   2   3
ATOM      3  C   UNL     1      54.572  27.936  51.337  1.00  0.00     0.000 C 
BRANCH   3   4
ATOM      4  C   UNL     1      55.052  26.481  51.202  1.00  0.00    -0.000 C 
BRANCH   4   5
ATOM      5  C   UNL     1      55.583  26.166  49.792  1.00  0.00    -0.000 C 
BRANCH   5   6
ATOM      6  C   UNL     1      57.080  25.817  49.790  1.00  0.00    -0.000 C 
BRANCH   6   7
ATOM      7  C   UNL     1      57.638  25.592  51.207  1.00  0.00    -0.000 C 
BRANCH   7   8
ATOM      8  C   UNL     1      59.174  25.640  51.250  1.00  0.00    -0.000 C 
BRANCH   8   9
ATOM      9  C   UNL     1      59.814  25.223  49.914  1.00  0.00    -0.000 C 
BRANCH   9  10
ATOM     10  C   UNL     1      60.943  24.194  50.096  1.00  0.00    -0.000 C 
BRANCH  10  11
ATOM     11  C   UNL     1      60.419  22.760  50.259  1.00  0.00    -0.003 C 
ATOM     12  C   UNL     1      60.898  21.868  49.116  1.00  0.00     0.004 C 
ENDBRANCH  10  11
ENDBRANCH   9  10
ENDBRANCH   8   9
ENDBRANCH   7   8
ENDBRANCH   6   7
ENDBRANCH   5   6
ENDBRANCH   4   5
ENDBRANCH   3   4
ENDBRANCH   2   3
ENDBRANCH   1   2
BRANCH   1  13
ATOM     13  C   UNL     1      58.127  29.327  51.362  1.00  0.00     0.000 C 
BRANCH  13  14
ATOM     14  C   UNL     1      58.148  29.092  49.842  1.00  0.00     0.000 C 
BRANCH  14  15
ATOM     15  C   UNL     1      59.563  28.830  49.306  1.00  0.00     0.000 C 
BRANCH  15  16
ATOM     16  C   UNL     1      60.625  29.413  50.250  1.00  0.00     0.000 C 
BRANCH  16  17
ATOM     17  C   UNL     1      61.757  28.419  50.571  1.00  0.00     0.000 C 
BRANCH  17  18
ATOM     18  C   UNL     1      62.430  27.776  49.345  1.00  0.00     0.000 C 
BRANCH  18  19
ATOM     19  C   UNL     1      63.439  26.679  49.718  1.00  0.00     0.000 C 
BRANCH  19  20
ATOM     20  C   UNL     1      64.850  27.263  49.876  1.00  0.00     0.006 C 
BRANCH  20  21
ATOM     21  C   UNL     1      65.640  27.234  48.561  1.00  0.00     0.053 C 
BRANCH  21  22
ATOM     22  C   UNL     1      65.645  28.571  47.884  1.00  0.00     0.041 C 
ATOM     23  O   UNL     1      65.224  28.685  46.702  1.00  0.00    -0.550 OA
ATOM     24  O   UNL     1      66.086  29.696  48.569  1.00  0.00    -0.550 OA
ENDBRANCH  21  22
ENDBRANCH  20  21
ENDBRANCH  19  20
ENDBRANCH  18  19
ENDBRANCH  17  18
ENDBRANCH  16  17
ENDBRANCH  15  16
ENDBRANCH  14  15
ENDBRANCH  13  14
ENDBRANCH   1  13
TORSDOF 20
ENDMDL
MODEL 5
REMARK VINA RESULT:    -3.035      9.751     11.636
REMARK INTER + INTRA:         -10.351
REMARK INTER:                  -6.568
REMARK INTRA:                  -3.783
REMARK UNBOUND:                -3.767
REMARK SMILES CCCCCCCCCCCCCCCCCCCCCC(=O)[O-]
REMARK SMILES IDX 12 1 11 2 10 3 9 4 8 5 7 6 6 7 5 8 4 9 3 10 2 11 1 12 13 13
REMARK SMILES IDX 14 14 15 15 16 16 17 17 18 18 19 19 20 20 21 21 22 22 23 23
REMARK SMILES IDX 24 24
REMARK H PARENT
REMARK Flexibility Score: inf
ROOT
ATOM      1  C   UNL     1      58.845  28.891  49.620  1.00  0.00     0.000 C 
ENDROOT
BRANCH   1   2
ATOM      2  C   UNL     1      59.604  27.607  49.252  1.00  0.00     0.000 C 
BRANCH   2   3
ATOM      3  C   UNL     1      61.124  27.743  49.452  1.00  0.00     0.000 C 
BRANCH   3   4
ATOM      4  C   UNL     1      61.483  28.583  50.689  1.00  0.00    -0.000 C 
BRANCH   4   5
ATOM      5  C   UNL     1      61.700  27.718  51.944  1.00  0.00    -0.000 C 
BRANCH   5   6
ATOM      6  C   UNL     1      60.546  27.842  52.952  1.00  0.00    -0.000 C 
BRANCH   6   7
ATOM      7  C   UNL     1      59.574  26.650  52.888  1.00  0.00    -0.000 C 
BRANCH   7   8
ATOM      8  C   UNL     1      60.249  25.363  52.386  1.00  0.00    -0.000 C 
BRANCH   8   9
ATOM      9  C   UNL     1      59.336  24.542  51.460  1.00  0.00    -0.000 C 
BRANCH   9  10
ATOM     10  C   UNL     1      60.067  24.037  50.205  1.00  0.00    -0.000 C 
BRANCH  10  11
ATOM     11  C   UNL     1      61.594  24.017  50.375  1.00  0.00    -0.003 C 
ATOM     12  C   UNL     1      62.116  22.587  50.476  1.00  0.00     0.004 C 
ENDBRANCH  10  11
ENDBRANCH   9  10
ENDBRANCH   8   9
ENDBRANCH   7   8
ENDBRANCH   6   7
ENDBRANCH   5   6
ENDBRANCH   4   5
ENDBRANCH   3   4
ENDBRANCH   2   3
ENDBRANCH   1   2
BRANCH   1  13
ATOM     13  C   UNL     1      57.627  28.625  50.522  1.00  0.00     0.000 C 
BRANCH  13  14
ATOM     14  C   UNL     1      56.930  27.294  50.191  1.00  0.00     0.000 C 
BRANCH  14  15
ATOM     15  C   UNL     1      56.218  26.685  51.409  1.00  0.00     0.000 C 
BRANCH  15  16
ATOM     16  C   UNL     1      54.726  26.466  51.119  1.00  0.00     0.000 C 
BRANCH  16  17
ATOM     17  C   UNL     1      54.252  27.168  49.832  1.00  0.00     0.000 C 
BRANCH  17  18
ATOM     18  C   UNL     1      53.304  28.361  50.048  1.00  0.00     0.000 C 
BRANCH  18  19
ATOM     19  C   UNL     1      54.042  29.660  50.405  1.00  0.00     0.000 C 
BRANCH  19  20
ATOM     20  C   UNL     1      53.527  30.236  51.732  1.00  0.00     0.006 C 
BRANCH  20  21
ATOM     21  C   UNL     1      54.270  29.658  52.943  1.00  0.00     0.053 C 
BRANCH  21  22
ATOM     22  C   UNL     1      55.188  30.666  53.567  1.00  0.00     0.041 C 
ATOM     23  O   UNL     1      56.341  30.850  53.095  1.00  0.00    -0.550 OA
ATOM     24  O   UNL     1      54.757  31.423  54.649  1.00  0.00    -0.550 OA
ENDBRANCH  21  22
ENDBRANCH  20  21
ENDBRANCH  19  20
ENDBRANCH  18  19
ENDBRANCH  17  18
ENDBRANCH  16  17
ENDBRANCH  15  16
ENDBRANCH  14  15
ENDBRANCH  13  14
ENDBRANCH   1  13
TORSDOF 20
ENDMDL
MODEL 6
REMARK VINA RESULT:    -3.028      3.435      6.701
REMARK INTER + INTRA:         -10.336
REMARK INTER:                  -6.387
REMARK INTRA:                  -3.949
REMARK UNBOUND:                -3.767
REMARK SMILES CCCCCCCCCCCCCCCCCCCCCC(=O)[O-]
REMARK SMILES IDX 12 1 11 2 10 3 9 4 8 5 7 6 6 7 5 8 4 9 3 10 2 11 1 12 13 13
REMARK SMILES IDX 14 14 15 15 16 16 17 17 18 18 19 19 20 20 21 21 22 22 23 23
REMARK SMILES IDX 24 24
REMARK H PARENT
REMARK Flexibility Score: inf
ROOT
ATOM      1  C   UNL     1      64.498  34.034  59.819  1.00  0.00     0.000 C 
ENDROOT
BRANCH   1   2
ATOM      2  C   UNL     1      64.366  35.550  60.025  1.00  0.00     0.000 C 
BRANCH   2   3
ATOM      3  C   UNL     1      63.589  35.906  61.304  1.00  0.00     0.000 C 
BRANCH   3   4
ATOM      4  C   UNL     1      62.334  36.747  61.018  1.00  0.00    -0.000 C 
BRANCH   4   5
ATOM      5  C   UNL     1      61.119  35.880  60.641  1.00  0.00    -0.000 C 
BRANCH   5   6
ATOM      6  C   UNL     1      60.659  36.108  59.193  1.00  0.00    -0.000 C 
BRANCH   6   7
ATOM      7  C   UNL     1      60.614  34.806  58.372  1.00  0.00    -0.000 C 
BRANCH   7   8
ATOM      8  C   UNL     1      61.811  34.670  57.417  1.00  0.00    -0.000 C 
BRANCH   8   9
ATOM      9  C   UNL     1      61.909  33.267  56.793  1.00  0.00    -0.000 C 
BRANCH   9  10
ATOM     10  C   UNL     1      63.333  32.929  56.320  1.00  0.00    -0.000 C 
BRANCH  10  11
ATOM     11  C   UNL     1      63.812  31.555  56.812  1.00  0.00    -0.003 C 
ATOM     12  C   UNL     1      62.632  30.619  57.058  1.00  0.00     0.004 C 
ENDBRANCH  10  11
ENDBRANCH   9  10
ENDBRANCH   8   9
ENDBRANCH   7   8
ENDBRANCH   6   7
ENDBRANCH   5   6
ENDBRANCH   4   5
ENDBRANCH   3   4
ENDBRANCH   2   3
ENDBRANCH   1   2
BRANCH   1  13
ATOM     13  C   UNL     1      63.715  33.221  60.867  1.00  0.00     0.000 C 
BRANCH  13  14
ATOM     14  C   UNL     1      62.656  32.306  60.230  1.00  0.00     0.000 C 
BRANCH  14  15
ATOM     15  C   UNL     1      61.355  32.256  61.045  1.00  0.00     0.000 C 
BRANCH  15  16
ATOM     16  C   UNL     1      61.026  30.817  61.468  1.00  0.00     0.000 C 
BRANCH  16  17
ATOM     17  C   UNL     1      62.271  30.013  61.889  1.00  0.00     0.000 C 
BRANCH  17  18
ATOM     18  C   UNL     1      62.331  28.571  61.354  1.00  0.00     0.000 C 
BRANCH  18  19
ATOM     19  C   UNL     1      63.654  28.246  60.646  1.00  0.00     0.000 C 
BRANCH  19  20
ATOM     20  C   UNL     1      64.733  29.281  60.997  1.00  0.00     0.006 C 
BRANCH  20  21
ATOM     21  C   UNL     1      65.390  29.881  59.747  1.00  0.00     0.053 C 
BRANCH  21  22
ATOM     22  C   UNL     1      66.642  29.148  59.371  1.00  0.00     0.041 C 
ATOM     23  O   UNL     1      67.760  29.540  59.800  1.00  0.00    -0.550 OA
ATOM     24  O   UNL     1      66.570  28.014  58.572  1.00  0.00    -0.550 OA
ENDBRANCH  21  22
ENDBRANCH  20  21
ENDBRANCH  19  20
ENDBRANCH  18  19
ENDBRANCH  17  18
ENDBRANCH  16  17
ENDBRANCH  15  16
ENDBRANCH  14  15
ENDBRANCH  13  14
ENDBRANCH   1  13
TORSDOF 20
ENDMDL
MODEL 7
REMARK VINA RESULT:    -3.008     11.038     13.829
REMARK INTER + INTRA:         -10.291
REMARK INTER:                  -6.728
REMARK INTRA:                  -3.563
REMARK UNBOUND:                -3.767
REMARK SMILES CCCCCCCCCCCCCCCCCCCCCC(=O)[O-]
REMARK SMILES IDX 12 1 11 2 10 3 9 4 8 5 7 6 6 7 5 8 4 9 3 10 2 11 1 12 13 13
REMARK SMILES IDX 14 14 15 15 16 16 17 17 18 18 19 19 20 20 21 21 22 22 23 23
REMARK SMILES IDX 24 24
REMARK H PARENT
REMARK Flexibility Score: inf
ROOT
ATOM      1  C   UNL     1      57.811  25.487  52.515  1.00  0.00     0.000 C 
ENDROOT
BRANCH   1   2
ATOM      2  C   UNL     1      58.689  24.863  51.420  1.00  0.00     0.000 C 
BRANCH   2   3
ATOM      3  C   UNL     1      58.503  25.546  50.054  1.00  0.00     0.000 C 
BRANCH   3   4
ATOM      4  C   UNL     1      59.802  26.181  49.530  1.00  0.00    -0.000 C 
BRANCH   4   5
ATOM      5  C   UNL     1      59.776  27.719  49.605  1.00  0.00    -0.000 C 
BRANCH   5   6
ATOM      6  C   UNL     1      58.352  28.278  49.752  1.00  0.00    -0.000 C 
BRANCH   6   7
ATOM      7  C   UNL     1      58.117  28.949  51.118  1.00  0.00    -0.000 C 
BRANCH   7   8
ATOM      8  C   UNL     1      56.626  29.192  51.407  1.00  0.00    -0.000 C 
BRANCH   8   9
ATOM      9  C   UNL     1      55.759  27.957  51.103  1.00  0.00    -0.000 C 
BRANCH   9  10
ATOM     10  C   UNL     1      54.552  28.288  50.209  1.00  0.00    -0.000 C 
BRANCH  10  11
ATOM     11  C   UNL     1      53.876  27.034  49.637  1.00  0.00    -0.003 C 
ATOM     12  C   UNL     1      54.877  25.892  49.484  1.00  0.00     0.004 C 
ENDBRANCH  10  11
ENDBRANCH   9  10
ENDBRANCH   8   9
ENDBRANCH   7   8
ENDBRANCH   6   7
ENDBRANCH   5   6
ENDBRANCH   4   5
ENDBRANCH   3   4
ENDBRANCH   2   3
ENDBRANCH   1   2
BRANCH   1  13
ATOM     13  C   UNL     1      58.634  26.116  53.652  1.00  0.00     0.000 C 
BRANCH  13  14
ATOM     14  C   UNL     1      59.952  26.731  53.153  1.00  0.00     0.000 C 
BRANCH  14  15
ATOM     15  C   UNL     1      61.183  26.131  53.850  1.00  0.00     0.000 C 
BRANCH  15  16
ATOM     16  C   UNL     1      62.242  25.706  52.823  1.00  0.00     0.000 C 
BRANCH  16  17
ATOM     17  C   UNL     1      62.045  24.265  52.314  1.00  0.00     0.000 C 
BRANCH  17  18
ATOM     18  C   UNL     1      62.511  24.012  50.869  1.00  0.00     0.000 C 
BRANCH  18  19
ATOM     19  C   UNL     1      62.244  22.577  50.393  1.00  0.00     0.000 C 
BRANCH  19  20
ATOM     20  C   UNL     1      60.948  22.503  49.572  1.00  0.00     0.006 C 
BRANCH  20  21
ATOM     21  C   UNL     1      60.281  21.124  49.663  1.00  0.00     0.053 C 
BRANCH  21  22
ATOM     22  C   UNL     1      60.127  20.673  51.085  1.00  0.00     0.041 C 
ATOM     23  O   UNL     1      59.356  21.292  51.865  1.00  0.00    -0.550 OA
ATOM     24  O   UNL     1      60.811  19.552  51.536  1.00  0.00    -0.550 OA
ENDBRANCH  21  22
ENDBRANCH  20  21
ENDBRANCH  19  20
ENDBRANCH  18  19
ENDBRANCH  17  18
ENDBRANCH  16  17
ENDBRANCH  15  16
ENDBRANCH  14  15
ENDBRANCH  13  14
ENDBRANCH   1  13
TORSDOF 20
ENDMDL
MODEL 8
REMARK VINA RESULT:    -2.974      9.201     11.489
REMARK INTER + INTRA:         -10.218
REMARK INTER:                  -6.581
REMARK INTRA:                  -3.636
REMARK UNBOUND:                -3.767
REMARK SMILES CCCCCCCCCCCCCCCCCCCCCC(=O)[O-]
REMARK SMILES IDX 12 1 11 2 10 3 9 4 8 5 7 6 6 7 5 8 4 9 3 10 2 11 1 12 13 13
REMARK SMILES IDX 14 14 15 15 16 16 17 17 18 18 19 19 20 20 21 21 22 22 23 23
REMARK SMILES IDX 24 24
REMARK H PARENT
REMARK Flexibility Score: inf
ROOT
ATOM      1  C   UNL     1      58.616  28.455  52.828  1.00  0.00     0.000 C 
ENDROOT
BRANCH   1   2
ATOM      2  C   UNL     1      58.264  29.506  51.765  1.00  0.00     0.000 C 
BRANCH   2   3
ATOM      3  C   UNL     1      59.341  29.624  50.673  1.00  0.00     0.000 C 
BRANCH   3   4
ATOM      4  C   UNL     1      59.057  28.717  49.463  1.00  0.00    -0.000 C 
BRANCH   4   5
ATOM      5  C   UNL     1      60.155  27.658  49.252  1.00  0.00    -0.000 C 
BRANCH   5   6
ATOM      6  C   UNL     1      59.692  26.244  49.637  1.00  0.00    -0.000 C 
BRANCH   6   7
ATOM      7  C   UNL     1      58.160  26.102  49.639  1.00  0.00    -0.000 C 
BRANCH   7   8
ATOM      8  C   UNL     1      57.625  25.505  50.952  1.00  0.00    -0.000 C 
BRANCH   8   9
ATOM      9  C   UNL     1      56.207  26.000  51.289  1.00  0.00    -0.000 C 
BRANCH   9  10
ATOM     10  C   UNL     1      55.777  27.194  50.420  1.00  0.00    -0.000 C 
BRANCH  10  11
ATOM     11  C   UNL     1      54.425  26.967  49.728  1.00  0.00    -0.003 C 
ATOM     12  C   UNL     1      54.267  25.513  49.296  1.00  0.00     0.004 C 
ENDBRANCH  10  11
ENDBRANCH   9  10
ENDBRANCH   8   9
ENDBRANCH   7   8
ENDBRANCH   6   7
ENDBRANCH   5   6
ENDBRANCH   4   5
ENDBRANCH   3   4
ENDBRANCH   2   3
ENDBRANCH   1   2
BRANCH   1  13
ATOM     13  C   UNL     1      60.132  28.339  53.071  1.00  0.00     0.000 C 
BRANCH  13  14
ATOM     14  C   UNL     1      60.599  26.878  53.184  1.00  0.00     0.000 C 
BRANCH  14  15
ATOM     15  C   UNL     1      62.091  26.711  52.856  1.00  0.00     0.000 C 
BRANCH  15  16
ATOM     16  C   UNL     1      62.542  27.740  51.810  1.00  0.00     0.000 C 
BRANCH  16  17
ATOM     17  C   UNL     1      63.554  28.760  52.365  1.00  0.00     0.000 C 
BRANCH  17  18
ATOM     18  C   UNL     1      63.675  30.066  51.560  1.00  0.00     0.000 C 
BRANCH  18  19
ATOM     19  C   UNL     1      63.025  29.980  50.171  1.00  0.00     0.000 C 
BRANCH  19  20
ATOM     20  C   UNL     1      62.419  31.331  49.765  1.00  0.00     0.006 C 
BRANCH  20  21
ATOM     21  C   UNL     1      63.432  32.228  49.042  1.00  0.00     0.053 C 
BRANCH  21  22
ATOM     22  C   UNL     1      63.130  33.683  49.242  1.00  0.00     0.041 C 
ATOM     23  O   UNL     1      61.944  34.099  49.171  1.00  0.00    -0.550 OA
ATOM     24  O   UNL     1      64.157  34.572  49.536  1.00  0.00    -0.550 OA
ENDBRANCH  21  22
ENDBRANCH  20  21
ENDBRANCH  19  20
ENDBRANCH  18  19
ENDBRANCH  17  18
ENDBRANCH  16  17
ENDBRANCH  15  16
ENDBRANCH  14  15
ENDBRANCH  13  14
ENDBRANCH   1  13
TORSDOF 20
ENDMDL
MODEL 9
REMARK VINA RESULT:    -2.930      1.449      3.605
REMARK INTER + INTRA:         -10.123
REMARK INTER:                  -6.020
REMARK INTRA:                  -4.103
REMARK UNBOUND:                -3.767
REMARK SMILES CCCCCCCCCCCCCCCCCCCCCC(=O)[O-]
REMARK SMILES IDX 12 1 11 2 10 3 9 4 8 5 7 6 6 7 5 8 4 9 3 10 2 11 1 12 13 13
REMARK SMILES IDX 14 14 15 15 16 16 17 17 18 18 19 19 20 20 21 21 22 22 23 23
REMARK SMILES IDX 24 24
REMARK H PARENT
REMARK Flexibility Score: inf
ROOT
ATOM      1  C   UNL     1      64.698  31.318  60.408  1.00  0.00     0.000 C 
ENDROOT
BRANCH   1   2
ATOM      2  C   UNL     1      64.482  29.844  60.033  1.00  0.00     0.000 C 
BRANCH   2   3
ATOM      3  C   UNL     1      63.242  29.238  60.714  1.00  0.00     0.000 C 
BRANCH   3   4
ATOM      4  C   UNL     1      62.649  30.163  61.791  1.00  0.00    -0.000 C 
BRANCH   4   5
ATOM      5  C   UNL     1      61.190  30.552  61.491  1.00  0.00    -0.000 C 
BRANCH   5   6
ATOM      6  C   UNL     1      61.042  32.033  61.109  1.00  0.00    -0.000 C 
BRANCH   6   7
ATOM      7  C   UNL     1      61.091  32.261  59.587  1.00  0.00    -0.000 C 
BRANCH   7   8
ATOM      8  C   UNL     1      60.604  31.038  58.792  1.00  0.00    -0.000 C 
BRANCH   8   9
ATOM      9  C   UNL     1      61.091  31.053  57.333  1.00  0.00    -0.000 C 
BRANCH   9  10
ATOM     10  C   UNL     1      61.943  32.291  57.007  1.00  0.00    -0.000 C 
BRANCH  10  11
ATOM     11  C   UNL     1      61.830  32.719  55.536  1.00  0.00    -0.003 C 
ATOM     12  C   UNL     1      62.270  34.168  55.352  1.00  0.00     0.004 C 
ENDBRANCH  10  11
ENDBRANCH   9  10
ENDBRANCH   8   9
ENDBRANCH   7   8
ENDBRANCH   6   7
ENDBRANCH   5   6
ENDBRANCH   4   5
ENDBRANCH   3   4
ENDBRANCH   2   3
ENDBRANCH   1   2
BRANCH   1  13
ATOM     13  C   UNL     1      64.912  32.219  59.179  1.00  0.00     0.000 C 
BRANCH  13  14
ATOM     14  C   UNL     1      64.470  33.670  59.430  1.00  0.00     0.000 C 
BRANCH  14  15
ATOM     15  C   UNL     1      64.274  33.976  60.923  1.00  0.00     0.000 C 
BRANCH  15  16
ATOM     16  C   UNL     1      63.763  35.410  61.128  1.00  0.00     0.000 C 
BRANCH  16  17
ATOM     17  C   UNL     1      62.229  35.520  61.048  1.00  0.00     0.000 C 
BRANCH  17  18
ATOM     18  C   UNL     1      61.700  36.642  60.136  1.00  0.00     0.000 C 
BRANCH  18  19
ATOM     19  C   UNL     1      60.310  36.342  59.557  1.00  0.00     0.000 C 
BRANCH  19  20
ATOM     20  C   UNL     1      60.421  35.539  58.252  1.00  0.00     0.006 C 
BRANCH  20  21
ATOM     21  C   UNL     1      59.172  35.685  57.373  1.00  0.00     0.053 C 
BRANCH  21  22
ATOM     22  C   UNL     1      58.697  34.361  56.856  1.00  0.00     0.041 C 
ATOM     23  O   UNL     1      58.364  33.450  57.659  1.00  0.00    -0.550 OA
ATOM     24  O   UNL     1      58.592  34.146  55.487  1.00  0.00    -0.550 OA
ENDBRANCH  21  22
ENDBRANCH  20  21
ENDBRANCH  19  20
ENDBRANCH  18  19
ENDBRANCH  17  18
ENDBRANCH  16  17
ENDBRANCH  15  16
ENDBRANCH  14  15
ENDBRANCH  13  14
ENDBRANCH   1  13
TORSDOF 20
ENDMDL
