MODEL 1
REMARK VINA RESULT:    -4.388      0.000      0.000
REMARK INTER + INTRA:         -12.228
REMARK INTER:                  -9.518
REMARK INTRA:                  -2.710
REMARK UNBOUND:                -2.710
REMARK SMILES CCCCCCCCCCCCCCCCCCCCCC(=O)[O-]
REMARK SMILES IDX 12 1 11 2 10 3 9 4 8 5 7 6 6 7 5 8 4 9 3 10 2 11 1 12 13 13
REMARK SMILES IDX 14 14 15 15 16 16 17 17 18 18 19 19 20 20 21 21 22 22 23 23
REMARK SMILES IDX 24 24
REMARK H PARENT
REMARK Flexibility Score: inf
ROOT
ATOM      1  C   UNL     1      28.384  12.372 -16.424  1.00  0.00     0.000 C 
ENDROOT
BRANCH   1   2
ATOM      2  C   UNL     1      28.885  13.597 -17.207  1.00  0.00     0.000 C 
BRANCH   2   3
ATOM      3  C   UNL     1      29.910  13.226 -18.291  1.00  0.00     0.000 C 
BRANCH   3   4
ATOM      4  C   UNL     1      30.777  12.017 -17.905  1.00  0.00    -0.000 C 
BRANCH   4   5
ATOM      5  C   UNL     1      30.925  10.978 -19.038  1.00  0.00    -0.000 C 
BRANCH   5   6
ATOM      6  C   UNL     1      30.773   9.535 -18.524  1.00  0.00    -0.000 C 
BRANCH   6   7
ATOM      7  C   UNL     1      30.588   9.471 -17.000  1.00  0.00    -0.000 C 
BRANCH   7   8
ATOM      8  C   UNL     1      29.329   8.684 -16.595  1.00  0.00    -0.000 C 
BRANCH   8   9
ATOM      9  C   UNL     1      29.243   7.307 -17.277  1.00  0.00    -0.000 C 
BRANCH   9  10
ATOM     10  C   UNL     1      27.817   6.752 -17.438  1.00  0.00    -0.000 C 
BRANCH  10  11
ATOM     11  C   UNL     1      27.495   6.339 -18.881  1.00  0.00    -0.003 C 
ATOM     12  C   UNL     1      28.600   5.460 -19.462  1.00  0.00     0.004 C 
ENDBRANCH  10  11
ENDBRANCH   9  10
ENDBRANCH   8   9
ENDBRANCH   7   8
ENDBRANCH   6   7
ENDBRANCH   5   6
ENDBRANCH   4   5
ENDBRANCH   3   4
ENDBRANCH   2   3
ENDBRANCH   1   2
BRANCH   1  13
ATOM     13  C   UNL     1      28.499  12.554 -14.903  1.00  0.00     0.000 C 
BRANCH  13  14
ATOM     14  C   UNL     1      29.707  13.434 -14.548  1.00  0.00     0.000 C 
BRANCH  14  15
ATOM     15  C   UNL     1      30.983  12.619 -14.283  1.00  0.00     0.000 C 
BRANCH  15  16
ATOM     16  C   UNL     1      30.689  11.231 -13.686  1.00  0.00     0.000 C 
BRANCH  16  17
ATOM     17  C   UNL     1      30.737  11.230 -12.148  1.00  0.00     0.000 C 
BRANCH  17  18
ATOM     18  C   UNL     1      29.728  10.243 -11.537  1.00  0.00     0.000 C 
BRANCH  18  19
ATOM     19  C   UNL     1      28.688  10.931 -10.639  1.00  0.00     0.000 C 
BRANCH  19  20
ATOM     20  C   UNL     1      28.138  12.228 -11.253  1.00  0.00     0.006 C 
BRANCH  20  21
ATOM     21  C   UNL     1      26.669  12.434 -10.873  1.00  0.00     0.053 C 
BRANCH  21  22
ATOM     22  C   UNL     1      26.224  13.817 -11.232  1.00  0.00     0.041 C 
ATOM     23  O   UNL     1      25.066  14.209 -10.928  1.00  0.00    -0.550 OA
ATOM     24  O   UNL     1      27.073  14.660 -11.939  1.00  0.00    -0.550 OA
ENDBRANCH  21  22
ENDBRANCH  20  21
ENDBRANCH  19  20
ENDBRANCH  18  19
ENDBRANCH  17  18
ENDBRANCH  16  17
ENDBRANCH  15  16
ENDBRANCH  14  15
ENDBRANCH  13  14
ENDBRANCH   1  13
TORSDOF 20
ENDMDL
MODEL 2
REMARK VINA RESULT:    -4.379      1.364      2.519
REMARK INTER + INTRA:         -12.209
REMARK INTER:                  -8.659
REMARK INTRA:                  -3.549
REMARK UNBOUND:                -2.710
REMARK SMILES CCCCCCCCCCCCCCCCCCCCCC(=O)[O-]
REMARK SMILES IDX 12 1 11 2 10 3 9 4 8 5 7 6 6 7 5 8 4 9 3 10 2 11 1 12 13 13
REMARK SMILES IDX 14 14 15 15 16 16 17 17 18 18 19 19 20 20 21 21 22 22 23 23
REMARK SMILES IDX 24 24
REMARK H PARENT
REMARK Flexibility Score: inf
ROOT
ATOM      1  C   UNL     1      30.408  12.473 -14.564  1.00  0.00     0.000 C 
ENDROOT
BRANCH   1   2
ATOM      2  C   UNL     1      28.954  12.738 -14.990  1.00  0.00     0.000 C 
BRANCH   2   3
ATOM      3  C   UNL     1      28.846  13.243 -16.438  1.00  0.00     0.000 C 
BRANCH   3   4
ATOM      4  C   UNL     1      30.170  13.128 -17.211  1.00  0.00    -0.000 C 
BRANCH   4   5
ATOM      5  C   UNL     1      30.013  12.497 -18.611  1.00  0.00    -0.000 C 
BRANCH   5   6
ATOM      6  C   UNL     1      30.802  11.183 -18.746  1.00  0.00    -0.000 C 
BRANCH   6   7
ATOM      7  C   UNL     1      30.395  10.142 -17.692  1.00  0.00    -0.000 C 
BRANCH   7   8
ATOM      8  C   UNL     1      30.837   8.718 -18.073  1.00  0.00    -0.000 C 
BRANCH   8   9
ATOM      9  C   UNL     1      29.769   7.658 -17.751  1.00  0.00    -0.000 C 
BRANCH   9  10
ATOM     10  C   UNL     1      29.696   7.241 -16.271  1.00  0.00    -0.000 C 
BRANCH  10  11
ATOM     11  C   UNL     1      31.080   7.093 -15.622  1.00  0.00    -0.003 C 
ATOM     12  C   UNL     1      31.004   6.257 -14.348  1.00  0.00     0.004 C 
ENDBRANCH  10  11
ENDBRANCH   9  10
ENDBRANCH   8   9
ENDBRANCH   7   8
ENDBRANCH   6   7
ENDBRANCH   5   6
ENDBRANCH   4   5
ENDBRANCH   3   4
ENDBRANCH   2   3
ENDBRANCH   1   2
BRANCH   1  13
ATOM     13  C   UNL     1      30.658  11.003 -14.196  1.00  0.00     0.000 C 
BRANCH  13  14
ATOM     14  C   UNL     1      29.337  10.219 -14.151  1.00  0.00     0.000 C 
BRANCH  14  15
ATOM     15  C   UNL     1      29.275   9.220 -12.985  1.00  0.00     0.000 C 
BRANCH  15  16
ATOM     16  C   UNL     1      30.465   9.358 -12.019  1.00  0.00     0.000 C 
BRANCH  16  17
ATOM     17  C   UNL     1      30.037   9.284 -10.543  1.00  0.00     0.000 C 
BRANCH  17  18
ATOM     18  C   UNL     1      29.350  10.578 -10.073  1.00  0.00     0.000 C 
BRANCH  18  19
ATOM     19  C   UNL     1      30.113  11.845 -10.492  1.00  0.00     0.000 C 
BRANCH  19  20
ATOM     20  C   UNL     1      29.236  12.836 -11.273  1.00  0.00     0.006 C 
BRANCH  20  21
ATOM     21  C   UNL     1      27.761  12.432 -11.211  1.00  0.00     0.053 C 
BRANCH  21  22
ATOM     22  C   UNL     1      26.883  13.597 -11.543  1.00  0.00     0.041 C 
ATOM     23  O   UNL     1      25.678  13.413 -11.862  1.00  0.00    -0.550 OA
ATOM     24  O   UNL     1      27.405  14.885 -11.541  1.00  0.00    -0.550 OA
ENDBRANCH  21  22
ENDBRANCH  20  21
ENDBRANCH  19  20
ENDBRANCH  18  19
ENDBRANCH  17  18
ENDBRANCH  16  17
ENDBRANCH  15  16
ENDBRANCH  14  15
ENDBRANCH  13  14
ENDBRANCH   1  13
TORSDOF 20
ENDMDL
MODEL 3
REMARK VINA RESULT:    -4.369      3.611      7.668
REMARK INTER + INTRA:         -12.186
REMARK INTER:                  -9.304
REMARK INTRA:                  -2.882
REMARK UNBOUND:                -2.710
REMARK SMILES CCCCCCCCCCCCCCCCCCCCCC(=O)[O-]
REMARK SMILES IDX 12 1 11 2 10 3 9 4 8 5 7 6 6 7 5 8 4 9 3 10 2 11 1 12 13 13
REMARK SMILES IDX 14 14 15 15 16 16 17 17 18 18 19 19 20 20 21 21 22 22 23 23
REMARK SMILES IDX 24 24
REMARK H PARENT
REMARK Flexibility Score: inf
ROOT
ATOM      1  C   UNL     1      29.559  13.793 -15.455  1.00  0.00     0.000 C 
ENDROOT
BRANCH   1   2
ATOM      2  C   UNL     1      29.965  12.803 -14.350  1.00  0.00     0.000 C 
BRANCH   2   3
ATOM      3  C   UNL     1      29.259  11.445 -14.486  1.00  0.00     0.000 C 
BRANCH   3   4
ATOM      4  C   UNL     1      29.991  10.313 -13.745  1.00  0.00    -0.000 C 
BRANCH   4   5
ATOM      5  C   UNL     1      29.132   9.634 -12.657  1.00  0.00    -0.000 C 
BRANCH   5   6
ATOM      6  C   UNL     1      29.778   9.734 -11.264  1.00  0.00    -0.000 C 
BRANCH   6   7
ATOM      7  C   UNL     1      29.416  11.040 -10.541  1.00  0.00    -0.000 C 
BRANCH   7   8
ATOM      8  C   UNL     1      27.981  11.502 -10.848  1.00  0.00    -0.000 C 
BRANCH   8   9
ATOM      9  C   UNL     1      27.918  12.955 -11.351  1.00  0.00    -0.000 C 
BRANCH   9  10
ATOM     10  C   UNL     1      26.561  13.377 -11.942  1.00  0.00    -0.000 C 
BRANCH  10  11
ATOM     11  C   UNL     1      26.455  14.891 -12.174  1.00  0.00    -0.003 C 
ATOM     12  C   UNL     1      27.766  15.459 -12.711  1.00  0.00     0.004 C 
ENDBRANCH  10  11
ENDBRANCH   9  10
ENDBRANCH   8   9
ENDBRANCH   7   8
ENDBRANCH   6   7
ENDBRANCH   5   6
ENDBRANCH   4   5
ENDBRANCH   3   4
ENDBRANCH   2   3
ENDBRANCH   1   2
BRANCH   1  13
ATOM     13  C   UNL     1      28.665  13.149 -16.526  1.00  0.00     0.000 C 
BRANCH  13  14
ATOM     14  C   UNL     1      29.308  13.266 -17.916  1.00  0.00     0.000 C 
BRANCH  14  15
ATOM     15  C   UNL     1      30.764  12.774 -17.945  1.00  0.00     0.000 C 
BRANCH  15  16
ATOM     16  C   UNL     1      30.905  11.371 -18.561  1.00  0.00     0.000 C 
BRANCH  16  17
ATOM     17  C   UNL     1      30.891  10.258 -17.498  1.00  0.00     0.000 C 
BRANCH  17  18
ATOM     18  C   UNL     1      30.033   9.056 -17.928  1.00  0.00     0.000 C 
BRANCH  18  19
ATOM     19  C   UNL     1      29.293   8.399 -16.753  1.00  0.00     0.000 C 
BRANCH  19  20
ATOM     20  C   UNL     1      29.003   6.909 -16.990  1.00  0.00     0.006 C 
BRANCH  20  21
ATOM     21  C   UNL     1      29.506   6.465 -18.366  1.00  0.00     0.053 C 
BRANCH  21  22
ATOM     22  C   UNL     1      28.402   5.819 -19.144  1.00  0.00     0.041 C 
ATOM     23  O   UNL     1      27.204   6.151 -18.940  1.00  0.00    -0.550 OA
ATOM     24  O   UNL     1      28.692   4.821 -20.067  1.00  0.00    -0.550 OA
ENDBRANCH  21  22
ENDBRANCH  20  21
ENDBRANCH  19  20
ENDBRANCH  18  19
ENDBRANCH  17  18
ENDBRANCH  16  17
ENDBRANCH  15  16
ENDBRANCH  14  15
ENDBRANCH  13  14
ENDBRANCH   1  13
TORSDOF 20
ENDMDL
MODEL 4
REMARK VINA RESULT:    -4.286      3.160      6.503
REMARK INTER + INTRA:         -12.008
REMARK INTER:                  -8.826
REMARK INTRA:                  -3.182
REMARK UNBOUND:                -2.710
REMARK SMILES CCCCCCCCCCCCCCCCCCCCCC(=O)[O-]
REMARK SMILES IDX 12 1 11 2 10 3 9 4 8 5 7 6 6 7 5 8 4 9 3 10 2 11 1 12 13 13
REMARK SMILES IDX 14 14 15 15 16 16 17 17 18 18 19 19 20 20 21 21 22 22 23 23
REMARK SMILES IDX 24 24
REMARK H PARENT
REMARK Flexibility Score: inf
ROOT
ATOM      1  C   UNL     1      29.119  11.684 -16.230  1.00  0.00     0.000 C 
ENDROOT
BRANCH   1   2
ATOM      2  C   UNL     1      30.374  11.678 -17.119  1.00  0.00     0.000 C 
BRANCH   2   3
ATOM      3  C   UNL     1      30.715  13.074 -17.667  1.00  0.00     0.000 C 
BRANCH   3   4
ATOM      4  C   UNL     1      29.630  14.119 -17.358  1.00  0.00    -0.000 C 
BRANCH   4   5
ATOM      5  C   UNL     1      30.181  15.405 -16.707  1.00  0.00    -0.000 C 
BRANCH   5   6
ATOM      6  C   UNL     1      30.500  15.208 -15.215  1.00  0.00    -0.000 C 
BRANCH   6   7
ATOM      7  C   UNL     1      29.244  15.275 -14.332  1.00  0.00    -0.000 C 
BRANCH   7   8
ATOM      8  C   UNL     1      29.173  14.114 -13.325  1.00  0.00    -0.000 C 
BRANCH   8   9
ATOM      9  C   UNL     1      27.731  13.659 -13.041  1.00  0.00    -0.000 C 
BRANCH   9  10
ATOM     10  C   UNL     1      27.460  13.235 -11.587  1.00  0.00    -0.000 C 
BRANCH  10  11
ATOM     11  C   UNL     1      25.963  13.120 -11.266  1.00  0.00    -0.003 C 
ATOM     12  C   UNL     1      25.498  14.276 -10.384  1.00  0.00     0.004 C 
ENDBRANCH  10  11
ENDBRANCH   9  10
ENDBRANCH   8   9
ENDBRANCH   7   8
ENDBRANCH   6   7
ENDBRANCH   5   6
ENDBRANCH   4   5
ENDBRANCH   3   4
ENDBRANCH   2   3
ENDBRANCH   1   2
BRANCH   1  13
ATOM     13  C   UNL     1      29.298  10.853 -14.951  1.00  0.00     0.000 C 
BRANCH  13  14
ATOM     14  C   UNL     1      30.753  10.907 -14.463  1.00  0.00     0.000 C 
BRANCH  14  15
ATOM     15  C   UNL     1      30.876  10.797 -12.935  1.00  0.00     0.000 C 
BRANCH  15  16
ATOM     16  C   UNL     1      29.631  10.171 -12.282  1.00  0.00     0.000 C 
BRANCH  16  17
ATOM     17  C   UNL     1      29.971   8.929 -11.438  1.00  0.00     0.000 C 
BRANCH  17  18
ATOM     18  C   UNL     1      30.237   7.690 -12.310  1.00  0.00     0.000 C 
BRANCH  18  19
ATOM     19  C   UNL     1      29.165   7.480 -13.391  1.00  0.00     0.000 C 
BRANCH  19  20
ATOM     20  C   UNL     1      29.762   7.323 -14.798  1.00  0.00     0.006 C 
BRANCH  20  21
ATOM     21  C   UNL     1      28.821   6.530 -15.709  1.00  0.00     0.053 C 
BRANCH  21  22
ATOM     22  C   UNL     1      28.712   7.187 -17.049  1.00  0.00     0.041 C 
ATOM     23  O   UNL     1      29.436   8.179 -17.330  1.00  0.00    -0.550 OA
ATOM     24  O   UNL     1      27.783   6.728 -17.976  1.00  0.00    -0.550 OA
ENDBRANCH  21  22
ENDBRANCH  20  21
ENDBRANCH  19  20
ENDBRANCH  18  19
ENDBRANCH  17  18
ENDBRANCH  16  17
ENDBRANCH  15  16
ENDBRANCH  14  15
ENDBRANCH  13  14
ENDBRANCH   1  13
TORSDOF 20
ENDMDL
MODEL 5
REMARK VINA RESULT:    -4.273      3.351      5.813
REMARK INTER + INTRA:         -11.980
REMARK INTER:                  -8.894
REMARK INTRA:                  -3.086
REMARK UNBOUND:                -2.710
REMARK SMILES CCCCCCCCCCCCCCCCCCCCCC(=O)[O-]
REMARK SMILES IDX 12 1 11 2 10 3 9 4 8 5 7 6 6 7 5 8 4 9 3 10 2 11 1 12 13 13
REMARK SMILES IDX 14 14 15 15 16 16 17 17 18 18 19 19 20 20 21 21 22 22 23 23
REMARK SMILES IDX 24 24
REMARK H PARENT
REMARK Flexibility Score: inf
ROOT
ATOM      1  C   UNL     1      25.521  14.322 -12.007  1.00  0.00     0.000 C 
ENDROOT
BRANCH   1   2
ATOM      2  C   UNL     1      26.266  15.613 -12.384  1.00  0.00     0.000 C 
BRANCH   2   3
ATOM      3  C   UNL     1      27.788  15.492 -12.198  1.00  0.00     0.000 C 
BRANCH   3   4
ATOM      4  C   UNL     1      28.532  15.228 -13.517  1.00  0.00    -0.000 C 
BRANCH   4   5
ATOM      5  C   UNL     1      29.225  13.849 -13.567  1.00  0.00    -0.000 C 
BRANCH   5   6
ATOM      6  C   UNL     1      28.442  12.838 -14.423  1.00  0.00    -0.000 C 
BRANCH   6   7
ATOM      7  C   UNL     1      29.173  11.492 -14.557  1.00  0.00    -0.000 C 
BRANCH   7   8
ATOM      8  C   UNL     1      29.110  10.931 -15.988  1.00  0.00    -0.000 C 
BRANCH   8   9
ATOM      9  C   UNL     1      30.468  10.986 -16.710  1.00  0.00    -0.000 C 
BRANCH   9  10
ATOM     10  C   UNL     1      30.882  12.383 -17.205  1.00  0.00    -0.000 C 
BRANCH  10  11
ATOM     11  C   UNL     1      29.930  12.947 -18.269  1.00  0.00    -0.003 C 
ATOM     12  C   UNL     1      29.293  14.253 -17.803  1.00  0.00     0.004 C 
ENDBRANCH  10  11
ENDBRANCH   9  10
ENDBRANCH   8   9
ENDBRANCH   7   8
ENDBRANCH   6   7
ENDBRANCH   5   6
ENDBRANCH   4   5
ENDBRANCH   3   4
ENDBRANCH   2   3
ENDBRANCH   1   2
BRANCH   1  13
ATOM     13  C   UNL     1      26.201  13.560 -10.860  1.00  0.00     0.000 C 
BRANCH  13  14
ATOM     14  C   UNL     1      26.557  12.129 -11.289  1.00  0.00     0.000 C 
BRANCH  14  15
ATOM     15  C   UNL     1      27.521  11.435 -10.314  1.00  0.00     0.000 C 
BRANCH  15  16
ATOM     16  C   UNL     1      28.943  11.294 -10.884  1.00  0.00     0.000 C 
BRANCH  16  17
ATOM     17  C   UNL     1      29.941  10.749  -9.846  1.00  0.00     0.000 C 
BRANCH  17  18
ATOM     18  C   UNL     1      30.456   9.347 -10.218  1.00  0.00     0.000 C 
BRANCH  18  19
ATOM     19  C   UNL     1      30.614   9.152 -11.734  1.00  0.00     0.000 C 
BRANCH  19  20
ATOM     20  C   UNL     1      30.182   7.753 -12.202  1.00  0.00     0.006 C 
BRANCH  20  21
ATOM     21  C   UNL     1      29.070   7.844 -13.250  1.00  0.00     0.053 C 
BRANCH  21  22
ATOM     22  C   UNL     1      29.615   7.576 -14.617  1.00  0.00     0.041 C 
ATOM     23  O   UNL     1      30.790   7.921 -14.910  1.00  0.00    -0.550 OA
ATOM     24  O   UNL     1      28.812   6.980 -15.583  1.00  0.00    -0.550 OA
ENDBRANCH  21  22
ENDBRANCH  20  21
ENDBRANCH  19  20
ENDBRANCH  18  19
ENDBRANCH  17  18
ENDBRANCH  16  17
ENDBRANCH  15  16
ENDBRANCH  14  15
ENDBRANCH  13  14
ENDBRANCH   1  13
TORSDOF 20
ENDMDL
MODEL 6
REMARK VINA RESULT:    -4.265      3.085      7.041
REMARK INTER + INTRA:         -11.961
REMARK INTER:                  -8.966
REMARK INTRA:                  -2.996
REMARK UNBOUND:                -2.710
REMARK SMILES CCCCCCCCCCCCCCCCCCCCCC(=O)[O-]
REMARK SMILES IDX 12 1 11 2 10 3 9 4 8 5 7 6 6 7 5 8 4 9 3 10 2 11 1 12 13 13
REMARK SMILES IDX 14 14 15 15 16 16 17 17 18 18 19 19 20 20 21 21 22 22 23 23
REMARK SMILES IDX 24 24
REMARK H PARENT
REMARK Flexibility Score: inf
ROOT
ATOM      1  C   UNL     1      28.889  12.962 -15.114  1.00  0.00     0.000 C 
ENDROOT
BRANCH   1   2
ATOM      2  C   UNL     1      30.119  12.757 -14.214  1.00  0.00     0.000 C 
BRANCH   2   3
ATOM      3  C   UNL     1      30.707  11.341 -14.331  1.00  0.00     0.000 C 
BRANCH   3   4
ATOM      4  C   UNL     1      29.632  10.242 -14.288  1.00  0.00    -0.000 C 
BRANCH   4   5
ATOM      5  C   UNL     1      30.152   8.894 -13.746  1.00  0.00    -0.000 C 
BRANCH   5   6
ATOM      6  C   UNL     1      29.553   8.553 -12.370  1.00  0.00    -0.000 C 
BRANCH   6   7
ATOM      7  C   UNL     1      30.416   9.072 -11.209  1.00  0.00    -0.000 C 
BRANCH   7   8
ATOM      8  C   UNL     1      29.616   9.946 -10.228  1.00  0.00    -0.000 C 
BRANCH   8   9
ATOM      9  C   UNL     1      29.289  11.337 -10.800  1.00  0.00    -0.000 C 
BRANCH   9  10
ATOM     10  C   UNL     1      27.788  11.668 -10.881  1.00  0.00    -0.000 C 
BRANCH  10  11
ATOM     11  C   UNL     1      27.510  13.025 -11.543  1.00  0.00    -0.003 C 
ATOM     12  C   UNL     1      26.118  13.538 -11.184  1.00  0.00     0.004 C 
ENDBRANCH  10  11
ENDBRANCH   9  10
ENDBRANCH   8   9
ENDBRANCH   7   8
ENDBRANCH   6   7
ENDBRANCH   5   6
ENDBRANCH   4   5
ENDBRANCH   3   4
ENDBRANCH   2   3
ENDBRANCH   1   2
BRANCH   1  13
ATOM     13  C   UNL     1      29.194  13.833 -16.342  1.00  0.00     0.000 C 
BRANCH  13  14
ATOM     14  C   UNL     1      29.258  12.977 -17.617  1.00  0.00     0.000 C 
BRANCH  14  15
ATOM     15  C   UNL     1      30.690  12.560 -17.986  1.00  0.00     0.000 C 
BRANCH  15  16
ATOM     16  C   UNL     1      30.744  11.216 -18.733  1.00  0.00     0.000 C 
BRANCH  16  17
ATOM     17  C   UNL     1      31.034  10.032 -17.793  1.00  0.00     0.000 C 
BRANCH  17  18
ATOM     18  C   UNL     1      30.345   8.738 -18.261  1.00  0.00     0.000 C 
BRANCH  18  19
ATOM     19  C   UNL     1      29.336   8.196 -17.237  1.00  0.00     0.000 C 
BRANCH  19  20
ATOM     20  C   UNL     1      28.975   6.722 -17.481  1.00  0.00     0.006 C 
BRANCH  20  21
ATOM     21  C   UNL     1      29.318   5.864 -16.261  1.00  0.00     0.053 C 
BRANCH  21  22
ATOM     22  C   UNL     1      28.085   5.568 -15.465  1.00  0.00     0.041 C 
ATOM     23  O   UNL     1      27.870   6.173 -14.381  1.00  0.00    -0.550 OA
ATOM     24  O   UNL     1      27.192   4.596 -15.900  1.00  0.00    -0.550 OA
ENDBRANCH  21  22
ENDBRANCH  20  21
ENDBRANCH  19  20
ENDBRANCH  18  19
ENDBRANCH  17  18
ENDBRANCH  16  17
ENDBRANCH  15  16
ENDBRANCH  14  15
ENDBRANCH  13  14
ENDBRANCH   1  13
TORSDOF 20
ENDMDL
MODEL 7
REMARK VINA RESULT:    -4.248      3.721      7.736
REMARK INTER + INTRA:         -11.924
REMARK INTER:                  -9.611
REMARK INTRA:                  -2.313
REMARK UNBOUND:                -2.710
REMARK SMILES CCCCCCCCCCCCCCCCCCCCCC(=O)[O-]
REMARK SMILES IDX 12 1 11 2 10 3 9 4 8 5 7 6 6 7 5 8 4 9 3 10 2 11 1 12 13 13
REMARK SMILES IDX 14 14 15 15 16 16 17 17 18 18 19 19 20 20 21 21 22 22 23 23
REMARK SMILES IDX 24 24
REMARK H PARENT
REMARK Flexibility Score: inf
ROOT
ATOM      1  C   UNL     1      28.762  13.645 -17.239  1.00  0.00     0.000 C 
ENDROOT
BRANCH   1   2
ATOM      2  C   UNL     1      28.411  12.524 -16.247  1.00  0.00     0.000 C 
BRANCH   2   3
ATOM      3  C   UNL     1      28.421  13.005 -14.786  1.00  0.00     0.000 C 
BRANCH   3   4
ATOM      4  C   UNL     1      29.839  13.279 -14.258  1.00  0.00    -0.000 C 
BRANCH   4   5
ATOM      5  C   UNL     1      30.658  11.997 -13.998  1.00  0.00    -0.000 C 
BRANCH   5   6
ATOM      6  C   UNL     1      29.972  11.067 -12.982  1.00  0.00    -0.000 C 
BRANCH   6   7
ATOM      7  C   UNL     1      30.052  11.606 -11.545  1.00  0.00    -0.000 C 
BRANCH   7   8
ATOM      8  C   UNL     1      28.939  11.042 -10.645  1.00  0.00    -0.000 C 
BRANCH   8   9
ATOM      9  C   UNL     1      27.555  11.631 -10.968  1.00  0.00    -0.000 C 
BRANCH   9  10
ATOM     10  C   UNL     1      27.534  13.154 -11.189  1.00  0.00    -0.000 C 
BRANCH  10  11
ATOM     11  C   UNL     1      26.143  13.769 -10.982  1.00  0.00    -0.003 C 
ATOM     12  C   UNL     1      25.643  14.441 -12.258  1.00  0.00     0.004 C 
ENDBRANCH  10  11
ENDBRANCH   9  10
ENDBRANCH   8   9
ENDBRANCH   7   8
ENDBRANCH   6   7
ENDBRANCH   5   6
ENDBRANCH   4   5
ENDBRANCH   3   4
ENDBRANCH   2   3
ENDBRANCH   1   2
BRANCH   1  13
ATOM     13  C   UNL     1      29.700  13.172 -18.359  1.00  0.00     0.000 C 
BRANCH  13  14
ATOM     14  C   UNL     1      30.693  12.124 -17.833  1.00  0.00     0.000 C 
BRANCH  14  15
ATOM     15  C   UNL     1      30.728  10.850 -18.693  1.00  0.00     0.000 C 
BRANCH  15  16
ATOM     16  C   UNL     1      30.919   9.573 -17.856  1.00  0.00     0.000 C 
BRANCH  16  17
ATOM     17  C   UNL     1      29.834   9.409 -16.777  1.00  0.00     0.000 C 
BRANCH  17  18
ATOM     18  C   UNL     1      29.424   7.939 -16.585  1.00  0.00     0.000 C 
BRANCH  18  19
ATOM     19  C   UNL     1      29.235   7.194 -17.915  1.00  0.00     0.000 C 
BRANCH  19  20
ATOM     20  C   UNL     1      27.764   6.860 -18.208  1.00  0.00     0.006 C 
BRANCH  20  21
ATOM     21  C   UNL     1      27.649   5.806 -19.312  1.00  0.00     0.053 C 
BRANCH  21  22
ATOM     22  C   UNL     1      27.354   4.462 -18.724  1.00  0.00     0.041 C 
ATOM     23  O   UNL     1      27.583   3.416 -19.388  1.00  0.00    -0.550 OA
ATOM     24  O   UNL     1      26.787   4.364 -17.459  1.00  0.00    -0.550 OA
ENDBRANCH  21  22
ENDBRANCH  20  21
ENDBRANCH  19  20
ENDBRANCH  18  19
ENDBRANCH  17  18
ENDBRANCH  16  17
ENDBRANCH  15  16
ENDBRANCH  14  15
ENDBRANCH  13  14
ENDBRANCH   1  13
TORSDOF 20
ENDMDL
MODEL 8
REMARK VINA RESULT:    -4.204      3.491      6.287
REMARK INTER + INTRA:         -11.829
REMARK INTER:                  -8.948
REMARK INTRA:                  -2.882
REMARK UNBOUND:                -2.710
REMARK SMILES CCCCCCCCCCCCCCCCCCCCCC(=O)[O-]
REMARK SMILES IDX 12 1 11 2 10 3 9 4 8 5 7 6 6 7 5 8 4 9 3 10 2 11 1 12 13 13
REMARK SMILES IDX 14 14 15 15 16 16 17 17 18 18 19 19 20 20 21 21 22 22 23 23
REMARK SMILES IDX 24 24
REMARK H PARENT
REMARK Flexibility Score: inf
ROOT
ATOM      1  C   UNL     1      29.490  10.052 -15.707  1.00  0.00     0.000 C 
ENDROOT
BRANCH   1   2
ATOM      2  C   UNL     1      30.860  10.285 -16.366  1.00  0.00     0.000 C 
BRANCH   2   3
ATOM      3  C   UNL     1      30.878   9.879 -17.849  1.00  0.00     0.000 C 
BRANCH   3   4
ATOM      4  C   UNL     1      30.792  11.084 -18.800  1.00  0.00    -0.000 C 
BRANCH   4   5
ATOM      5  C   UNL     1      30.805  12.445 -18.072  1.00  0.00    -0.000 C 
BRANCH   5   6
ATOM      6  C   UNL     1      29.461  13.184 -18.200  1.00  0.00    -0.000 C 
BRANCH   6   7
ATOM      7  C   UNL     1      28.970  13.746 -16.858  1.00  0.00    -0.000 C 
BRANCH   7   8
ATOM      8  C   UNL     1      29.916  14.817 -16.288  1.00  0.00    -0.000 C 
BRANCH   8   9
ATOM      9  C   UNL     1      30.110  14.694 -14.767  1.00  0.00    -0.000 C 
BRANCH   9  10
ATOM     10  C   UNL     1      28.969  15.282 -13.919  1.00  0.00    -0.000 C 
BRANCH  10  11
ATOM     11  C   UNL     1      28.320  14.248 -12.988  1.00  0.00    -0.003 C 
ATOM     12  C   UNL     1      27.508  14.928 -11.889  1.00  0.00     0.004 C 
ENDBRANCH  10  11
ENDBRANCH   9  10
ENDBRANCH   8   9
ENDBRANCH   7   8
ENDBRANCH   6   7
ENDBRANCH   5   6
ENDBRANCH   4   5
ENDBRANCH   3   4
ENDBRANCH   2   3
ENDBRANCH   1   2
BRANCH   1  13
ATOM     13  C   UNL     1      29.255  10.964 -14.494  1.00  0.00     0.000 C 
BRANCH  13  14
ATOM     14  C   UNL     1      30.570  11.223 -13.742  1.00  0.00     0.000 C 
BRANCH  14  15
ATOM     15  C   UNL     1      30.427  11.070 -12.219  1.00  0.00     0.000 C 
BRANCH  15  16
ATOM     16  C   UNL     1      29.742   9.753 -11.815  1.00  0.00     0.000 C 
BRANCH  16  17
ATOM     17  C   UNL     1      30.739   8.589 -11.676  1.00  0.00     0.000 C 
BRANCH  17  18
ATOM     18  C   UNL     1      30.263   7.326 -12.414  1.00  0.00     0.000 C 
BRANCH  18  19
ATOM     19  C   UNL     1      28.932   7.534 -13.154  1.00  0.00     0.000 C 
BRANCH  19  20
ATOM     20  C   UNL     1      28.537   6.325 -14.018  1.00  0.00     0.006 C 
BRANCH  20  21
ATOM     21  C   UNL     1      27.143   5.815 -13.643  1.00  0.00     0.053 C 
BRANCH  21  22
ATOM     22  C   UNL     1      26.393   5.392 -14.867  1.00  0.00     0.041 C 
ATOM     23  O   UNL     1      25.136   5.470 -14.899  1.00  0.00    -0.550 OA
ATOM     24  O   UNL     1      27.079   4.873 -15.959  1.00  0.00    -0.550 OA
ENDBRANCH  21  22
ENDBRANCH  20  21
ENDBRANCH  19  20
ENDBRANCH  18  19
ENDBRANCH  17  18
ENDBRANCH  16  17
ENDBRANCH  15  16
ENDBRANCH  14  15
ENDBRANCH  13  14
ENDBRANCH   1  13
TORSDOF 20
ENDMDL
MODEL 9
REMARK VINA RESULT:    -4.146      3.007      6.529
REMARK INTER + INTRA:         -11.703
REMARK INTER:                  -8.688
REMARK INTRA:                  -3.014
REMARK UNBOUND:                -2.710
REMARK SMILES CCCCCCCCCCCCCCCCCCCCCC(=O)[O-]
REMARK SMILES IDX 12 1 11 2 10 3 9 4 8 5 7 6 6 7 5 8 4 9 3 10 2 11 1 12 13 13
REMARK SMILES IDX 14 14 15 15 16 16 17 17 18 18 19 19 20 20 21 21 22 22 23 23
REMARK SMILES IDX 24 24
REMARK H PARENT
REMARK Flexibility Score: inf
ROOT
ATOM      1  C   UNL     1      28.696  13.518 -17.203  1.00  0.00     0.000 C 
ENDROOT
BRANCH   1   2
ATOM      2  C   UNL     1      28.491  12.369 -16.202  1.00  0.00     0.000 C 
BRANCH   2   3
ATOM      3  C   UNL     1      28.480  12.852 -14.743  1.00  0.00     0.000 C 
BRANCH   3   4
ATOM      4  C   UNL     1      29.838  13.416 -14.291  1.00  0.00    -0.000 C 
BRANCH   4   5
ATOM      5  C   UNL     1      30.951  12.349 -14.210  1.00  0.00    -0.000 C 
BRANCH   5   6
ATOM      6  C   UNL     1      30.422  10.999 -13.696  1.00  0.00    -0.000 C 
BRANCH   6   7
ATOM      7  C   UNL     1      30.458  10.899 -12.163  1.00  0.00    -0.000 C 
BRANCH   7   8
ATOM      8  C   UNL     1      29.052  10.762 -11.551  1.00  0.00    -0.000 C 
BRANCH   8   9
ATOM      9  C   UNL     1      28.467  12.109 -11.094  1.00  0.00    -0.000 C 
BRANCH   9  10
ATOM     10  C   UNL     1      26.940  12.120 -10.903  1.00  0.00    -0.000 C 
BRANCH  10  11
ATOM     11  C   UNL     1      26.286  13.421 -11.390  1.00  0.00    -0.003 C 
ATOM     12  C   UNL     1      27.333  14.498 -11.656  1.00  0.00     0.004 C 
ENDBRANCH  10  11
ENDBRANCH   9  10
ENDBRANCH   8   9
ENDBRANCH   7   8
ENDBRANCH   6   7
ENDBRANCH   5   6
ENDBRANCH   4   5
ENDBRANCH   3   4
ENDBRANCH   2   3
ENDBRANCH   1   2
BRANCH   1  13
ATOM     13  C   UNL     1      29.618  13.130 -18.369  1.00  0.00     0.000 C 
BRANCH  13  14
ATOM     14  C   UNL     1      30.882  12.426 -17.854  1.00  0.00     0.000 C 
BRANCH  14  15
ATOM     15  C   UNL     1      31.034  10.997 -18.397  1.00  0.00     0.000 C 
BRANCH  15  16
ATOM     16  C   UNL     1      31.020   9.933 -17.285  1.00  0.00     0.000 C 
BRANCH  16  17
ATOM     17  C   UNL     1      30.119   8.734 -17.630  1.00  0.00     0.000 C 
BRANCH  17  18
ATOM     18  C   UNL     1      29.273   8.279 -16.428  1.00  0.00     0.000 C 
BRANCH  18  19
ATOM     19  C   UNL     1      30.128   7.819 -15.237  1.00  0.00     0.000 C 
BRANCH  19  20
ATOM     20  C   UNL     1      29.288   7.499 -13.991  1.00  0.00     0.006 C 
BRANCH  20  21
ATOM     21  C   UNL     1      28.940   6.009 -13.931  1.00  0.00     0.053 C 
BRANCH  21  22
ATOM     22  C   UNL     1      27.487   5.798 -14.218  1.00  0.00     0.041 C 
ATOM     23  O   UNL     1      26.628   5.998 -13.319  1.00  0.00    -0.550 OA
ATOM     24  O   UNL     1      27.083   5.341 -15.467  1.00  0.00    -0.550 OA
ENDBRANCH  21  22
ENDBRANCH  20  21
ENDBRANCH  19  20
ENDBRANCH  18  19
ENDBRANCH  17  18
ENDBRANCH  16  17
ENDBRANCH  15  16
ENDBRANCH  14  15
ENDBRANCH  13  14
ENDBRANCH   1  13
TORSDOF 20
ENDMDL
