MODEL 1
REMARK VINA RESULT:    -3.963      0.000      0.000
REMARK INTER + INTRA:          -4.691
REMARK INTER:                  -4.542
REMARK INTRA:                  -0.149
REMARK UNBOUND:                -0.149
REMARK SMILES O=C([O-])C=Cc1ccc(O)cc1
REMARK SMILES IDX 6 1 7 2 12 3 8 4 11 5 9 6 5 7 4 8 2 9 1 10 3 11 10 12
REMARK H PARENT 10 13
REMARK Flexibility Score: inf
ROOT
ATOM      1  C   UNL     1      20.239 -23.826  13.785  1.00  0.00    -0.025 A 
ATOM      2  C   UNL     1      19.083 -23.108  13.413  1.00  0.00     0.012 A 
ATOM      3  C   UNL     1      21.158 -23.223  14.660  1.00  0.00     0.012 A 
ATOM      4  C   UNL     1      18.872 -21.810  13.891  1.00  0.00     0.047 A 
ATOM      5  C   UNL     1      20.943 -21.925  15.135  1.00  0.00     0.047 A 
ATOM      6  C   UNL     1      19.803 -21.216  14.751  1.00  0.00     0.115 A 
ENDROOT
BRANCH   1   7
ATOM      7  C   UNL     1      20.506 -25.208  13.317  1.00  0.00     0.010 C 
ATOM      8  C   UNL     1      21.227 -26.102  14.008  1.00  0.00     0.025 C 
BRANCH   8   9
ATOM      9  C   UNL     1      21.463 -27.471  13.516  1.00  0.00     0.064 C 
ATOM     10  O   UNL     1      22.579 -28.036  13.667  1.00  0.00    -0.545 OA
ATOM     11  O   UNL     1      20.436 -28.152  12.875  1.00  0.00    -0.545 OA
ENDBRANCH   8   9
ENDBRANCH   1   7
BRANCH   6  12
ATOM     12  O   UNL     1      19.603 -19.923  15.230  1.00  0.00    -0.508 OA
ATOM     13  H   UNL     1      18.770 -19.675  15.752  1.00  0.00     0.293 HD
ENDBRANCH   6  12
TORSDOF 3
ENDMDL
MODEL 2
REMARK VINA RESULT:    -3.599     15.605     16.726
REMARK INTER + INTRA:          -4.275
REMARK INTER:                  -4.123
REMARK INTRA:                  -0.152
REMARK UNBOUND:                -0.149
REMARK SMILES O=C([O-])C=Cc1ccc(O)cc1
REMARK SMILES IDX 6 1 7 2 12 3 8 4 11 5 9 6 5 7 4 8 2 9 1 10 3 11 10 12
REMARK H PARENT 10 13
REMARK Flexibility Score: inf
ROOT
ATOM      1  C   UNL     1       7.658 -34.666  16.456  1.00  0.00    -0.025 A 
ATOM      2  C   UNL     1       7.163 -34.580  17.774  1.00  0.00     0.012 A 
ATOM      3  C   UNL     1       8.440 -33.611  15.956  1.00  0.00     0.012 A 
ATOM      4  C   UNL     1       7.430 -33.452  18.558  1.00  0.00     0.047 A 
ATOM      5  C   UNL     1       8.702 -32.484  16.742  1.00  0.00     0.047 A 
ATOM      6  C   UNL     1       8.197 -32.401  18.042  1.00  0.00     0.115 A 
ENDROOT
BRANCH   1   7
ATOM      7  C   UNL     1       7.415 -35.843  15.586  1.00  0.00     0.010 C 
ATOM      8  C   UNL     1       8.069 -36.068  14.438  1.00  0.00     0.025 C 
BRANCH   8   9
ATOM      9  C   UNL     1       7.809 -37.255  13.605  1.00  0.00     0.064 C 
ATOM     10  O   UNL     1       6.658 -37.496  13.153  1.00  0.00    -0.545 OA
ATOM     11  O   UNL     1       8.851 -38.125  13.311  1.00  0.00    -0.545 OA
ENDBRANCH   8   9
ENDBRANCH   1   7
BRANCH   6  12
ATOM     12  O   UNL     1       8.466 -31.272  18.814  1.00  0.00    -0.508 OA
ATOM     13  H   UNL     1       9.317 -30.737  18.689  1.00  0.00     0.293 HD
ENDBRANCH   6  12
TORSDOF 3
ENDMDL
MODEL 3
REMARK VINA RESULT:    -3.447     14.781     16.266
REMARK INTER + INTRA:          -4.100
REMARK INTER:                  -3.947
REMARK INTRA:                  -0.153
REMARK UNBOUND:                -0.149
REMARK SMILES O=C([O-])C=Cc1ccc(O)cc1
REMARK SMILES IDX 6 1 7 2 12 3 8 4 11 5 9 6 5 7 4 8 2 9 1 10 3 11 10 12
REMARK H PARENT 10 13
REMARK Flexibility Score: inf
ROOT
ATOM      1  C   UNL     1       9.081 -34.889  14.024  1.00  0.00    -0.025 A 
ATOM      2  C   UNL     1      10.146 -34.912  13.100  1.00  0.00     0.012 A 
ATOM      3  C   UNL     1       8.823 -33.703  14.732  1.00  0.00     0.012 A 
ATOM      4  C   UNL     1      10.944 -33.778  12.913  1.00  0.00     0.047 A 
ATOM      5  C   UNL     1       9.625 -32.572  14.542  1.00  0.00     0.047 A 
ATOM      6  C   UNL     1      10.687 -32.607  13.635  1.00  0.00     0.115 A 
ENDROOT
BRANCH   1   7
ATOM      7  C   UNL     1       8.197 -36.058  14.254  1.00  0.00     0.010 C 
ATOM      8  C   UNL     1       7.251 -36.102  15.203  1.00  0.00     0.025 C 
BRANCH   8   9
ATOM      9  C   UNL     1       6.384 -37.277  15.395  1.00  0.00     0.064 C 
ATOM     10  O   UNL     1       6.021 -37.987  14.419  1.00  0.00    -0.545 OA
ATOM     11  O   UNL     1       5.960 -37.611  16.674  1.00  0.00    -0.545 OA
ENDBRANCH   8   9
ENDBRANCH   1   7
BRANCH   6  12
ATOM     12  O   UNL     1      11.478 -31.474  13.458  1.00  0.00    -0.508 OA
ATOM     13  H   UNL     1      11.068 -30.552  13.365  1.00  0.00     0.293 HD
ENDBRANCH   6  12
TORSDOF 3
ENDMDL
MODEL 4
REMARK VINA RESULT:    -3.433     14.894     16.450
REMARK INTER + INTRA:          -4.084
REMARK INTER:                  -3.937
REMARK INTRA:                  -0.148
REMARK UNBOUND:                -0.149
REMARK SMILES O=C([O-])C=Cc1ccc(O)cc1
REMARK SMILES IDX 6 1 7 2 12 3 8 4 11 5 9 6 5 7 4 8 2 9 1 10 3 11 10 12
REMARK H PARENT 10 13
REMARK Flexibility Score: inf
ROOT
ATOM      1  C   UNL     1       8.034 -33.547  15.254  1.00  0.00    -0.025 A 
ATOM      2  C   UNL     1       7.361 -33.227  14.057  1.00  0.00     0.012 A 
ATOM      3  C   UNL     1       8.040 -34.882  15.692  1.00  0.00     0.012 A 
ATOM      4  C   UNL     1       6.693 -34.221  13.334  1.00  0.00     0.047 A 
ATOM      5  C   UNL     1       7.370 -35.872  14.966  1.00  0.00     0.047 A 
ATOM      6  C   UNL     1       6.694 -35.545  13.788  1.00  0.00     0.115 A 
ENDROOT
BRANCH   1   7
ATOM      7  C   UNL     1       8.767 -32.535  16.054  1.00  0.00     0.010 C 
ATOM      8  C   UNL     1       8.851 -32.561  17.392  1.00  0.00     0.025 C 
BRANCH   8   9
ATOM      9  C   UNL     1       9.598 -31.544  18.152  1.00  0.00     0.064 C 
ATOM     10  O   UNL     1       9.461 -31.429  19.399  1.00  0.00    -0.545 OA
ATOM     11  O   UNL     1      10.472 -30.698  17.483  1.00  0.00    -0.545 OA
ENDBRANCH   8   9
ENDBRANCH   1   7
BRANCH   6  12
ATOM     12  O   UNL     1       6.029 -36.541  13.076  1.00  0.00    -0.508 OA
ATOM     13  H   UNL     1       6.511 -37.373  12.755  1.00  0.00     0.293 HD
ENDBRANCH   6  12
TORSDOF 3
ENDMDL
MODEL 5
REMARK VINA RESULT:    -3.301     15.512     16.513
REMARK INTER + INTRA:          -3.933
REMARK INTER:                  -3.785
REMARK INTRA:                  -0.148
REMARK UNBOUND:                -0.149
REMARK SMILES O=C([O-])C=Cc1ccc(O)cc1
REMARK SMILES IDX 6 1 7 2 12 3 8 4 11 5 9 6 5 7 4 8 2 9 1 10 3 11 10 12
REMARK H PARENT 10 13
REMARK Flexibility Score: inf
ROOT
ATOM      1  C   UNL     1       7.918 -33.699  16.257  1.00  0.00    -0.025 A 
ATOM      2  C   UNL     1       8.892 -32.717  15.977  1.00  0.00     0.012 A 
ATOM      3  C   UNL     1       7.334 -33.728  17.534  1.00  0.00     0.012 A 
ATOM      4  C   UNL     1       9.282 -31.806  16.964  1.00  0.00     0.047 A 
ATOM      5  C   UNL     1       7.728 -32.816  18.518  1.00  0.00     0.047 A 
ATOM      6  C   UNL     1       8.703 -31.856  18.238  1.00  0.00     0.115 A 
ENDROOT
BRANCH   1   7
ATOM      7  C   UNL     1       7.460 -34.681  15.244  1.00  0.00     0.010 C 
ATOM      8  C   UNL     1       7.083 -35.934  15.538  1.00  0.00     0.025 C 
BRANCH   8   9
ATOM      9  C   UNL     1       6.623 -36.879  14.506  1.00  0.00     0.064 C 
ATOM     10  O   UNL     1       6.625 -38.122  14.711  1.00  0.00    -0.545 OA
ATOM     11  O   UNL     1       6.176 -36.391  13.285  1.00  0.00    -0.545 OA
ENDBRANCH   8   9
ENDBRANCH   1   7
BRANCH   6  12
ATOM     12  O   UNL     1       9.086 -30.955  19.229  1.00  0.00    -0.508 OA
ATOM     13  H   UNL     1      10.054 -30.866  19.517  1.00  0.00     0.293 HD
ENDBRANCH   6  12
TORSDOF 3
ENDMDL
MODEL 6
REMARK VINA RESULT:    -3.015     19.307     20.823
REMARK INTER + INTRA:          -3.605
REMARK INTER:                  -3.462
REMARK INTRA:                  -0.143
REMARK UNBOUND:                -0.149
REMARK SMILES O=C([O-])C=Cc1ccc(O)cc1
REMARK SMILES IDX 6 1 7 2 12 3 8 4 11 5 9 6 5 7 4 8 2 9 1 10 3 11 10 12
REMARK H PARENT 10 13
REMARK Flexibility Score: inf
ROOT
ATOM      1  C   UNL     1      16.912 -37.205  29.096  1.00  0.00    -0.025 A 
ATOM      2  C   UNL     1      16.868 -38.122  28.025  1.00  0.00     0.012 A 
ATOM      3  C   UNL     1      17.393 -35.906  28.856  1.00  0.00     0.012 A 
ATOM      4  C   UNL     1      17.318 -37.748  26.754  1.00  0.00     0.047 A 
ATOM      5  C   UNL     1      17.842 -35.537  27.584  1.00  0.00     0.047 A 
ATOM      6  C   UNL     1      17.809 -36.456  26.532  1.00  0.00     0.115 A 
ENDROOT
BRANCH   1   7
ATOM      7  C   UNL     1      16.437 -37.545  30.459  1.00  0.00     0.010 C 
ATOM      8  C   UNL     1      15.468 -36.875  31.100  1.00  0.00     0.025 C 
BRANCH   8   9
ATOM      9  C   UNL     1      15.015 -37.250  32.451  1.00  0.00     0.064 C 
ATOM     10  O   UNL     1      15.622 -38.125  33.123  1.00  0.00    -0.545 OA
ATOM     11  O   UNL     1      13.900 -36.625  32.994  1.00  0.00    -0.545 OA
ENDBRANCH   8   9
ENDBRANCH   1   7
BRANCH   6  12
ATOM     12  O   UNL     1      18.262 -36.075  25.271  1.00  0.00    -0.508 OA
ATOM     13  H   UNL     1      18.827 -35.244  25.141  1.00  0.00     0.293 HD
ENDBRANCH   6  12
TORSDOF 3
ENDMDL
MODEL 7
REMARK VINA RESULT:    -2.944     14.984     15.733
REMARK INTER + INTRA:          -3.524
REMARK INTER:                  -3.370
REMARK INTRA:                  -0.153
REMARK UNBOUND:                -0.149
REMARK SMILES O=C([O-])C=Cc1ccc(O)cc1
REMARK SMILES IDX 6 1 7 2 12 3 8 4 11 5 9 6 5 7 4 8 2 9 1 10 3 11 10 12
REMARK H PARENT 10 13
REMARK Flexibility Score: inf
ROOT
ATOM      1  C   UNL     1       8.073 -34.007  15.531  1.00  0.00    -0.025 A 
ATOM      2  C   UNL     1       6.684 -33.835  15.710  1.00  0.00     0.012 A 
ATOM      3  C   UNL     1       8.955 -33.314  16.378  1.00  0.00     0.012 A 
ATOM      4  C   UNL     1       6.199 -32.972  16.698  1.00  0.00     0.047 A 
ATOM      5  C   UNL     1       8.466 -32.451  17.364  1.00  0.00     0.047 A 
ATOM      6  C   UNL     1       7.089 -32.276  17.525  1.00  0.00     0.115 A 
ENDROOT
BRANCH   1   7
ATOM      7  C   UNL     1       8.641 -34.918  14.507  1.00  0.00     0.010 C 
ATOM      8  C   UNL     1       9.954 -35.148  14.361  1.00  0.00     0.025 C 
BRANCH   8   9
ATOM      9  C   UNL     1      10.480 -36.069  13.339  1.00  0.00     0.064 C 
ATOM     10  O   UNL     1       9.773 -37.003  12.875  1.00  0.00    -0.545 OA
ATOM     11  O   UNL     1      11.779 -35.904  12.876  1.00  0.00    -0.545 OA
ENDBRANCH   8   9
ENDBRANCH   1   7
BRANCH   6  12
ATOM     12  O   UNL     1       6.616 -31.412  18.510  1.00  0.00    -0.508 OA
ATOM     13  H   UNL     1       5.629 -31.351  18.730  1.00  0.00     0.293 HD
ENDBRANCH   6  12
TORSDOF 3
ENDMDL
MODEL 8
REMARK VINA RESULT:    -2.834     15.862     17.690
REMARK INTER + INTRA:          -3.397
REMARK INTER:                  -3.260
REMARK INTRA:                  -0.137
REMARK UNBOUND:                -0.149
REMARK SMILES O=C([O-])C=Cc1ccc(O)cc1
REMARK SMILES IDX 6 1 7 2 12 3 8 4 11 5 9 6 5 7 4 8 2 9 1 10 3 11 10 12
REMARK H PARENT 10 13
REMARK Flexibility Score: inf
ROOT
ATOM      1  C   UNL     1       7.560 -35.288  15.972  1.00  0.00    -0.025 A 
ATOM      2  C   UNL     1       8.450 -35.244  14.878  1.00  0.00     0.012 A 
ATOM      3  C   UNL     1       6.591 -36.305  16.017  1.00  0.00     0.012 A 
ATOM      4  C   UNL     1       8.351 -36.185  13.848  1.00  0.00     0.047 A 
ATOM      5  C   UNL     1       6.496 -37.243  14.984  1.00  0.00     0.047 A 
ATOM      6  C   UNL     1       7.372 -37.185  13.898  1.00  0.00     0.115 A 
ENDROOT
BRANCH   1   7
ATOM      7  C   UNL     1       7.627 -34.322  17.096  1.00  0.00     0.010 C 
ATOM      8  C   UNL     1       8.186 -33.107  17.002  1.00  0.00     0.025 C 
BRANCH   8   9
ATOM      9  C   UNL     1       8.225 -32.170  18.138  1.00  0.00     0.064 C 
ATOM     10  O   UNL     1       9.319 -31.752  18.603  1.00  0.00    -0.545 OA
ATOM     11  O   UNL     1       7.034 -31.736  18.706  1.00  0.00    -0.545 OA
ENDBRANCH   8   9
ENDBRANCH   1   7
BRANCH   6  12
ATOM     12  O   UNL     1       7.264 -38.125  12.875  1.00  0.00    -0.508 OA
ATOM     13  H   UNL     1       6.949 -37.865  11.948  1.00  0.00     0.293 HD
ENDBRANCH   6  12
TORSDOF 3
ENDMDL
