MODEL 1
REMARK VINA RESULT:    -2.485      0.000      0.000
REMARK INTER + INTRA:          -5.865
REMARK INTER:                  -4.809
REMARK INTRA:                  -1.057
REMARK UNBOUND:                -1.057
REMARK SMILES CCCCCCCCCCCCCCCCCC(=O)[O-]
REMARK SMILES IDX 10 1 11 2 12 3 13 4 14 5 15 6 16 7 17 8 18 9 19 10 20 11
REMARK SMILES IDX 9 12 8 13 7 14 6 15 5 16 4 17 3 18 2 19 1 20
REMARK H PARENT
REMARK Flexibility Score: inf
ROOT
ATOM      1  C   UNL     1       2.352 -14.212 -18.797  1.00  0.00     0.000 C 
ENDROOT
BRANCH   1   2
ATOM      2  C   UNL     1       2.388 -12.677 -18.745  1.00  0.00     0.000 C 
BRANCH   2   3
ATOM      3  C   UNL     1       3.796 -12.107 -18.975  1.00  0.00     0.000 C 
BRANCH   3   4
ATOM      4  C   UNL     1       3.862 -10.586 -18.751  1.00  0.00     0.000 C 
BRANCH   4   5
ATOM      5  C   UNL     1       2.553 -10.006 -18.187  1.00  0.00     0.000 C 
BRANCH   5   6
ATOM      6  C   UNL     1       2.710  -8.712 -17.366  1.00  0.00     0.000 C 
BRANCH   6   7
ATOM      7  C   UNL     1       3.337  -8.950 -15.985  1.00  0.00     0.006 C 
BRANCH   7   8
ATOM      8  C   UNL     1       3.483  -7.633 -15.215  1.00  0.00     0.053 C 
BRANCH   8   9
ATOM      9  C   UNL     1       3.669  -7.898 -13.754  1.00  0.00     0.041 C 
ATOM     10  O   UNL     1       4.385  -8.860 -13.371  1.00  0.00    -0.550 OA
ATOM     11  O   UNL     1       3.092  -7.053 -12.815  1.00  0.00    -0.550 OA
ENDBRANCH   8   9
ENDBRANCH   7   8
ENDBRANCH   6   7
ENDBRANCH   5   6
ENDBRANCH   4   5
ENDBRANCH   3   4
ENDBRANCH   2   3
ENDBRANCH   1   2
BRANCH   1  12
ATOM     12  C   UNL     1       1.384 -14.774 -17.745  1.00  0.00     0.000 C 
BRANCH  12  13
ATOM     13  C   UNL     1       0.559 -15.964 -18.264  1.00  0.00    -0.000 C 
BRANCH  13  14
ATOM     14  C   UNL     1      -0.906 -15.638 -18.623  1.00  0.00    -0.000 C 
BRANCH  14  15
ATOM     15  C   UNL     1      -1.853 -16.850 -18.692  1.00  0.00    -0.000 C 
BRANCH  15  16
ATOM     16  C   UNL     1      -1.859 -17.526 -20.074  1.00  0.00    -0.000 C 
BRANCH  16  17
ATOM     17  C   UNL     1      -1.802 -19.062 -19.991  1.00  0.00    -0.000 C 
BRANCH  17  18
ATOM     18  C   UNL     1      -1.034 -19.625 -18.781  1.00  0.00    -0.000 C 
BRANCH  18  19
ATOM     19  C   UNL     1       0.486 -19.665 -19.001  1.00  0.00    -0.003 C 
ATOM     20  C   UNL     1       1.237 -19.391 -17.701  1.00  0.00     0.004 C 
ENDBRANCH  18  19
ENDBRANCH  17  18
ENDBRANCH  16  17
ENDBRANCH  15  16
ENDBRANCH  14  15
ENDBRANCH  13  14
ENDBRANCH  12  13
ENDBRANCH   1  12
TORSDOF 16
ENDMDL
MODEL 2
REMARK VINA RESULT:    -2.377      4.488      9.707
REMARK INTER + INTRA:          -5.656
REMARK INTER:                  -5.260
REMARK INTRA:                  -0.396
REMARK UNBOUND:                -1.057
REMARK SMILES CCCCCCCCCCCCCCCCCC(=O)[O-]
REMARK SMILES IDX 10 1 11 2 12 3 13 4 14 5 15 6 16 7 17 8 18 9 19 10 20 11
REMARK SMILES IDX 9 12 8 13 7 14 6 15 5 16 4 17 3 18 2 19 1 20
REMARK H PARENT
REMARK Flexibility Score: inf
ROOT
ATOM      1  C   UNL     1       0.992 -15.923 -18.354  1.00  0.00     0.000 C 
ENDROOT
BRANCH   1   2
ATOM      2  C   UNL     1      -0.457 -15.489 -18.626  1.00  0.00     0.000 C 
BRANCH   2   3
ATOM      3  C   UNL     1      -1.428 -16.677 -18.715  1.00  0.00     0.000 C 
BRANCH   3   4
ATOM      4  C   UNL     1      -1.943 -16.912 -20.145  1.00  0.00     0.000 C 
BRANCH   4   5
ATOM      5  C   UNL     1      -2.030 -18.404 -20.514  1.00  0.00     0.000 C 
BRANCH   5   6
ATOM      6  C   UNL     1      -1.712 -19.382 -19.367  1.00  0.00     0.000 C 
BRANCH   6   7
ATOM      7  C   UNL     1      -0.360 -20.089 -19.540  1.00  0.00     0.006 C 
BRANCH   7   8
ATOM      8  C   UNL     1       0.691 -19.501 -18.592  1.00  0.00     0.053 C 
BRANCH   8   9
ATOM      9  C   UNL     1       0.407 -19.903 -17.179  1.00  0.00     0.041 C 
ATOM     10  O   UNL     1      -0.777 -20.120 -16.808  1.00  0.00    -0.550 OA
ATOM     11  O   UNL     1       1.453 -20.086 -16.284  1.00  0.00    -0.550 OA
ENDBRANCH   8   9
ENDBRANCH   7   8
ENDBRANCH   6   7
ENDBRANCH   5   6
ENDBRANCH   4   5
ENDBRANCH   3   4
ENDBRANCH   2   3
ENDBRANCH   1   2
BRANCH   1  12
ATOM     12  C   UNL     1       1.842 -14.733 -17.886  1.00  0.00     0.000 C 
BRANCH  12  13
ATOM     13  C   UNL     1       1.830 -13.560 -18.880  1.00  0.00    -0.000 C 
BRANCH  13  14
ATOM     14  C   UNL     1       3.020 -12.585 -18.757  1.00  0.00    -0.000 C 
BRANCH  14  15
ATOM     15  C   UNL     1       2.648 -11.091 -18.726  1.00  0.00    -0.000 C 
BRANCH  15  16
ATOM     16  C   UNL     1       3.867 -10.167 -18.891  1.00  0.00    -0.000 C 
BRANCH  16  17
ATOM     17  C   UNL     1       4.740 -10.538 -20.103  1.00  0.00    -0.000 C 
BRANCH  17  18
ATOM     18  C   UNL     1       6.098 -11.178 -19.761  1.00  0.00    -0.000 C 
BRANCH  18  19
ATOM     19  C   UNL     1       7.149 -10.981 -20.864  1.00  0.00    -0.003 C 
ATOM     20  C   UNL     1       8.356 -10.207 -20.342  1.00  0.00     0.004 C 
ENDBRANCH  18  19
ENDBRANCH  17  18
ENDBRANCH  16  17
ENDBRANCH  15  16
ENDBRANCH  14  15
ENDBRANCH  13  14
ENDBRANCH  12  13
ENDBRANCH   1  12
TORSDOF 16
ENDMDL
MODEL 3
REMARK VINA RESULT:    -2.212      3.020      3.934
REMARK INTER + INTRA:          -5.337
REMARK INTER:                  -4.128
REMARK INTRA:                  -1.209
REMARK UNBOUND:                -1.057
REMARK SMILES CCCCCCCCCCCCCCCCCC(=O)[O-]
REMARK SMILES IDX 10 1 11 2 12 3 13 4 14 5 15 6 16 7 17 8 18 9 19 10 20 11
REMARK SMILES IDX 9 12 8 13 7 14 6 15 5 16 4 17 3 18 2 19 1 20
REMARK H PARENT
REMARK Flexibility Score: inf
ROOT
ATOM      1  C   UNL     1       0.407 -16.004 -18.605  1.00  0.00     0.000 C 
ENDROOT
BRANCH   1   2
ATOM      2  C   UNL     1       1.185 -14.924 -17.838  1.00  0.00     0.000 C 
BRANCH   2   3
ATOM      3  C   UNL     1       2.385 -14.380 -18.629  1.00  0.00     0.000 C 
BRANCH   3   4
ATOM      4  C   UNL     1       2.153 -12.950 -19.146  1.00  0.00     0.000 C 
BRANCH   4   5
ATOM      5  C   UNL     1       2.795 -11.876 -18.249  1.00  0.00     0.000 C 
BRANCH   5   6
ATOM      6  C   UNL     1       2.705 -10.435 -18.785  1.00  0.00     0.000 C 
BRANCH   6   7
ATOM      7  C   UNL     1       4.062  -9.876 -19.235  1.00  0.00     0.006 C 
BRANCH   7   8
ATOM      8  C   UNL     1       4.789 -10.870 -20.148  1.00  0.00     0.053 C 
BRANCH   8   9
ATOM      9  C   UNL     1       6.135 -11.206 -19.589  1.00  0.00     0.041 C 
ATOM     10  O   UNL     1       6.231 -11.852 -18.512  1.00  0.00    -0.550 OA
ATOM     11  O   UNL     1       7.285 -10.849 -20.282  1.00  0.00    -0.550 OA
ENDBRANCH   8   9
ENDBRANCH   7   8
ENDBRANCH   6   7
ENDBRANCH   5   6
ENDBRANCH   4   5
ENDBRANCH   3   4
ENDBRANCH   2   3
ENDBRANCH   1   2
BRANCH   1  12
ATOM     12  C   UNL     1      -1.094 -15.923 -18.294  1.00  0.00     0.000 C 
BRANCH  12  13
ATOM     13  C   UNL     1      -1.965 -15.838 -19.560  1.00  0.00    -0.000 C 
BRANCH  13  14
ATOM     14  C   UNL     1      -1.855 -17.046 -20.512  1.00  0.00    -0.000 C 
BRANCH  14  15
ATOM     15  C   UNL     1      -1.969 -18.427 -19.842  1.00  0.00    -0.000 C 
BRANCH  15  16
ATOM     16  C   UNL     1      -0.819 -19.375 -20.223  1.00  0.00    -0.000 C 
BRANCH  16  17
ATOM     17  C   UNL     1      -0.234 -20.125 -19.013  1.00  0.00    -0.000 C 
BRANCH  17  18
ATOM     18  C   UNL     1      -1.073 -20.046 -17.724  1.00  0.00    -0.000 C 
BRANCH  18  19
ATOM     19  C   UNL     1      -0.215 -19.993 -16.452  1.00  0.00    -0.003 C 
ATOM     20  C   UNL     1       1.269 -19.903 -16.792  1.00  0.00     0.004 C 
ENDBRANCH  18  19
ENDBRANCH  17  18
ENDBRANCH  16  17
ENDBRANCH  15  16
ENDBRANCH  14  15
ENDBRANCH  13  14
ENDBRANCH  12  13
ENDBRANCH   1  12
TORSDOF 16
ENDMDL
MODEL 4
REMARK VINA RESULT:    -2.061      4.086      9.958
REMARK INTER + INTRA:          -5.045
REMARK INTER:                  -4.386
REMARK INTRA:                  -0.658
REMARK UNBOUND:                -1.057
REMARK SMILES CCCCCCCCCCCCCCCCCC(=O)[O-]
REMARK SMILES IDX 10 1 11 2 12 3 13 4 14 5 15 6 16 7 17 8 18 9 19 10 20 11
REMARK SMILES IDX 9 12 8 13 7 14 6 15 5 16 4 17 3 18 2 19 1 20
REMARK H PARENT
REMARK Flexibility Score: inf
ROOT
ATOM      1  C   UNL     1       2.283 -14.525 -18.448  1.00  0.00     0.000 C 
ENDROOT
BRANCH   1   2
ATOM      2  C   UNL     1       1.038 -14.982 -17.672  1.00  0.00     0.000 C 
BRANCH   2   3
ATOM      3  C   UNL     1       0.283 -16.120 -18.377  1.00  0.00     0.000 C 
BRANCH   3   4
ATOM      4  C   UNL     1      -1.165 -15.738 -18.730  1.00  0.00     0.000 C 
BRANCH   4   5
ATOM      5  C   UNL     1      -1.754 -16.602 -19.859  1.00  0.00     0.000 C 
BRANCH   5   6
ATOM      6  C   UNL     1      -1.315 -18.079 -19.852  1.00  0.00     0.000 C 
BRANCH   6   7
ATOM      7  C   UNL     1      -1.736 -18.823 -18.577  1.00  0.00     0.006 C 
BRANCH   7   8
ATOM      8  C   UNL     1      -0.912 -20.102 -18.392  1.00  0.00     0.053 C 
BRANCH   8   9
ATOM      9  C   UNL     1       0.232 -19.858 -17.459  1.00  0.00     0.041 C 
ATOM     10  O   UNL     1       1.309 -19.369 -17.892  1.00  0.00    -0.550 OA
ATOM     11  O   UNL     1       0.093 -20.124 -16.103  1.00  0.00    -0.550 OA
ENDBRANCH   8   9
ENDBRANCH   7   8
ENDBRANCH   6   7
ENDBRANCH   5   6
ENDBRANCH   4   5
ENDBRANCH   3   4
ENDBRANCH   2   3
ENDBRANCH   1   2
BRANCH   1  12
ATOM     12  C   UNL     1       2.118 -13.082 -18.948  1.00  0.00     0.000 C 
BRANCH  12  13
ATOM     13  C   UNL     1       3.375 -12.223 -18.725  1.00  0.00    -0.000 C 
BRANCH  13  14
ATOM     14  C   UNL     1       3.229 -10.736 -19.110  1.00  0.00    -0.000 C 
BRANCH  14  15
ATOM     15  C   UNL     1       3.740  -9.730 -18.063  1.00  0.00    -0.000 C 
BRANCH  15  16
ATOM     16  C   UNL     1       2.610  -9.128 -17.210  1.00  0.00    -0.000 C 
BRANCH  16  17
ATOM     17  C   UNL     1       3.131  -8.248 -16.060  1.00  0.00    -0.000 C 
BRANCH  17  18
ATOM     18  C   UNL     1       3.960  -8.986 -14.992  1.00  0.00    -0.000 C 
BRANCH  18  19
ATOM     19  C   UNL     1       3.799  -8.388 -13.588  1.00  0.00    -0.003 C 
ATOM     20  C   UNL     1       3.609  -6.875 -13.653  1.00  0.00     0.004 C 
ENDBRANCH  18  19
ENDBRANCH  17  18
ENDBRANCH  16  17
ENDBRANCH  15  16
ENDBRANCH  14  15
ENDBRANCH  13  14
ENDBRANCH  12  13
ENDBRANCH   1  12
TORSDOF 16
ENDMDL
MODEL 5
REMARK VINA RESULT:    -1.935      0.718      1.350
REMARK INTER + INTRA:          -4.802
REMARK INTER:                  -3.696
REMARK INTRA:                  -1.106
REMARK UNBOUND:                -1.057
REMARK SMILES CCCCCCCCCCCCCCCCCC(=O)[O-]
REMARK SMILES IDX 10 1 11 2 12 3 13 4 14 5 15 6 16 7 17 8 18 9 19 10 20 11
REMARK SMILES IDX 9 12 8 13 7 14 6 15 5 16 4 17 3 18 2 19 1 20
REMARK H PARENT
REMARK Flexibility Score: inf
ROOT
ATOM      1  C   UNL     1       1.538 -14.806 -17.822  1.00  0.00     0.000 C 
ENDROOT
BRANCH   1   2
ATOM      2  C   UNL     1       2.351 -14.097 -18.917  1.00  0.00     0.000 C 
BRANCH   2   3
ATOM      3  C   UNL     1       2.219 -12.567 -18.858  1.00  0.00     0.000 C 
BRANCH   3   4
ATOM      4  C   UNL     1       3.581 -11.860 -18.746  1.00  0.00     0.000 C 
BRANCH   4   5
ATOM      5  C   UNL     1       3.480 -10.334 -18.914  1.00  0.00     0.000 C 
BRANCH   5   6
ATOM      6  C   UNL     1       2.718  -9.600 -17.795  1.00  0.00     0.000 C 
BRANCH   6   7
ATOM      7  C   UNL     1       3.594  -9.300 -16.570  1.00  0.00     0.006 C 
BRANCH   7   8
ATOM      8  C   UNL     1       3.163  -7.995 -15.893  1.00  0.00     0.053 C 
BRANCH   8   9
ATOM      9  C   UNL     1       3.666  -7.943 -14.485  1.00  0.00     0.041 C 
ATOM     10  O   UNL     1       4.136  -8.977 -13.942  1.00  0.00    -0.550 OA
ATOM     11  O   UNL     1       3.662  -6.741 -13.789  1.00  0.00    -0.550 OA
ENDBRANCH   8   9
ENDBRANCH   7   8
ENDBRANCH   6   7
ENDBRANCH   5   6
ENDBRANCH   4   5
ENDBRANCH   3   4
ENDBRANCH   2   3
ENDBRANCH   1   2
BRANCH   1  12
ATOM     12  C   UNL     1       0.654 -15.908 -18.423  1.00  0.00     0.000 C 
BRANCH  12  13
ATOM     13  C   UNL     1      -0.849 -15.591 -18.325  1.00  0.00    -0.000 C 
BRANCH  13  14
ATOM     14  C   UNL     1      -1.766 -16.495 -19.174  1.00  0.00    -0.000 C 
BRANCH  14  15
ATOM     15  C   UNL     1      -1.049 -17.605 -19.964  1.00  0.00    -0.000 C 
BRANCH  15  16
ATOM     16  C   UNL     1      -1.657 -18.998 -19.727  1.00  0.00    -0.000 C 
BRANCH  16  17
ATOM     17  C   UNL     1      -0.692 -19.959 -19.008  1.00  0.00    -0.000 C 
BRANCH  17  18
ATOM     18  C   UNL     1      -0.931 -20.117 -17.494  1.00  0.00    -0.000 C 
BRANCH  18  19
ATOM     19  C   UNL     1       0.370 -20.124 -16.680  1.00  0.00    -0.003 C 
ATOM     20  C   UNL     1       1.489 -19.399 -17.422  1.00  0.00     0.004 C 
ENDBRANCH  18  19
ENDBRANCH  17  18
ENDBRANCH  16  17
ENDBRANCH  15  16
ENDBRANCH  14  15
ENDBRANCH  13  14
ENDBRANCH  12  13
ENDBRANCH   1  12
TORSDOF 16
ENDMDL
MODEL 6
REMARK VINA RESULT:    -1.710      4.064      9.639
REMARK INTER + INTRA:          -4.365
REMARK INTER:                  -3.629
REMARK INTRA:                  -0.736
REMARK UNBOUND:                -1.057
REMARK SMILES CCCCCCCCCCCCCCCCCC(=O)[O-]
REMARK SMILES IDX 10 1 11 2 12 3 13 4 14 5 15 6 16 7 17 8 18 9 19 10 20 11
REMARK SMILES IDX 9 12 8 13 7 14 6 15 5 16 4 17 3 18 2 19 1 20
REMARK H PARENT
REMARK Flexibility Score: inf
ROOT
ATOM      1  C   UNL     1       0.828 -14.851 -17.862  1.00  0.00     0.000 C 
ENDROOT
BRANCH   1   2
ATOM      2  C   UNL     1       0.170 -15.963 -18.694  1.00  0.00     0.000 C 
BRANCH   2   3
ATOM      3  C   UNL     1      -1.366 -15.917 -18.640  1.00  0.00     0.000 C 
BRANCH   3   4
ATOM      4  C   UNL     1      -2.020 -16.567 -19.871  1.00  0.00     0.000 C 
BRANCH   4   5
ATOM      5  C   UNL     1      -1.545 -18.012 -20.109  1.00  0.00     0.000 C 
BRANCH   5   6
ATOM      6  C   UNL     1      -1.881 -19.007 -18.982  1.00  0.00     0.000 C 
BRANCH   6   7
ATOM      7  C   UNL     1      -0.838 -20.124 -18.838  1.00  0.00     0.006 C 
BRANCH   7   8
ATOM      8  C   UNL     1       0.543 -19.547 -18.513  1.00  0.00     0.053 C 
BRANCH   8   9
ATOM      9  C   UNL     1       0.904 -19.821 -17.087  1.00  0.00     0.041 C 
ATOM     10  O   UNL     1      -0.000 -19.989 -16.226  1.00  0.00    -0.550 OA
ATOM     11  O   UNL     1       2.237 -19.940 -16.717  1.00  0.00    -0.550 OA
ENDBRANCH   8   9
ENDBRANCH   7   8
ENDBRANCH   6   7
ENDBRANCH   5   6
ENDBRANCH   4   5
ENDBRANCH   3   4
ENDBRANCH   2   3
ENDBRANCH   1   2
BRANCH   1  12
ATOM     12  C   UNL     1       2.231 -14.526 -18.394  1.00  0.00     0.000 C 
BRANCH  12  13
ATOM     13  C   UNL     1       2.408 -13.040 -18.752  1.00  0.00    -0.000 C 
BRANCH  13  14
ATOM     14  C   UNL     1       3.867 -12.541 -18.772  1.00  0.00    -0.000 C 
BRANCH  14  15
ATOM     15  C   UNL     1       4.109 -11.243 -19.565  1.00  0.00    -0.000 C 
BRANCH  15  16
ATOM     16  C   UNL     1       3.853  -9.976 -18.731  1.00  0.00    -0.000 C 
BRANCH  16  17
ATOM     17  C   UNL     1       2.408  -9.883 -18.209  1.00  0.00    -0.000 C 
BRANCH  17  18
ATOM     18  C   UNL     1       2.241  -9.144 -16.869  1.00  0.00    -0.000 C 
BRANCH  18  19
ATOM     19  C   UNL     1       3.535  -8.470 -16.390  1.00  0.00    -0.003 C 
ATOM     20  C   UNL     1       3.715  -8.631 -14.883  1.00  0.00     0.004 C 
ENDBRANCH  18  19
ENDBRANCH  17  18
ENDBRANCH  16  17
ENDBRANCH  15  16
ENDBRANCH  14  15
ENDBRANCH  13  14
ENDBRANCH  12  13
ENDBRANCH   1  12
TORSDOF 16
ENDMDL
MODEL 7
REMARK VINA RESULT:    -1.391      4.261     10.147
REMARK INTER + INTRA:          -3.749
REMARK INTER:                  -3.073
REMARK INTRA:                  -0.676
REMARK UNBOUND:                -1.057
REMARK SMILES CCCCCCCCCCCCCCCCCC(=O)[O-]
REMARK SMILES IDX 10 1 11 2 12 3 13 4 14 5 15 6 16 7 17 8 18 9 19 10 20 11
REMARK SMILES IDX 9 12 8 13 7 14 6 15 5 16 4 17 3 18 2 19 1 20
REMARK H PARENT
REMARK Flexibility Score: inf
ROOT
ATOM      1  C   UNL     1       2.537 -12.640 -18.376  1.00  0.00     0.000 C 
ENDROOT
BRANCH   1   2
ATOM      2  C   UNL     1       2.110 -14.022 -18.892  1.00  0.00     0.000 C 
BRANCH   2   3
ATOM      3  C   UNL     1       1.459 -14.890 -17.802  1.00  0.00     0.000 C 
BRANCH   3   4
ATOM      4  C   UNL     1       0.757 -16.132 -18.376  1.00  0.00     0.000 C 
BRANCH   4   5
ATOM      5  C   UNL     1      -0.758 -15.932 -18.562  1.00  0.00     0.000 C 
BRANCH   5   6
ATOM      6  C   UNL     1      -1.398 -16.775 -19.681  1.00  0.00     0.000 C 
BRANCH   6   7
ATOM      7  C   UNL     1      -2.117 -18.024 -19.154  1.00  0.00     0.006 C 
BRANCH   7   8
ATOM      8  C   UNL     1      -1.340 -19.296 -19.510  1.00  0.00     0.053 C 
BRANCH   8   9
ATOM      9  C   UNL     1      -0.431 -19.687 -18.388  1.00  0.00     0.041 C 
ATOM     10  O   UNL     1       0.819 -19.655 -18.544  1.00  0.00    -0.550 OA
ATOM     11  O   UNL     1      -0.961 -20.039 -17.154  1.00  0.00    -0.550 OA
ENDBRANCH   8   9
ENDBRANCH   7   8
ENDBRANCH   6   7
ENDBRANCH   5   6
ENDBRANCH   4   5
ENDBRANCH   3   4
ENDBRANCH   2   3
ENDBRANCH   1   2
BRANCH   1  12
ATOM     12  C   UNL     1       3.776 -12.133 -19.128  1.00  0.00     0.000 C 
BRANCH  12  13
ATOM     13  C   UNL     1       3.949 -10.607 -19.038  1.00  0.00    -0.000 C 
BRANCH  13  14
ATOM     14  C   UNL     1       2.651  -9.815 -18.775  1.00  0.00    -0.000 C 
BRANCH  14  15
ATOM     15  C   UNL     1       2.380  -9.466 -17.300  1.00  0.00    -0.000 C 
BRANCH  15  16
ATOM     16  C   UNL     1       3.646  -9.020 -16.548  1.00  0.00    -0.000 C 
BRANCH  16  17
ATOM     17  C   UNL     1       3.355  -7.986 -15.445  1.00  0.00    -0.000 C 
BRANCH  17  18
ATOM     18  C   UNL     1       3.942  -8.321 -14.061  1.00  0.00    -0.000 C 
BRANCH  18  19
ATOM     19  C   UNL     1       3.957  -7.117 -13.108  1.00  0.00    -0.003 C 
ATOM     20  C   UNL     1       2.542  -6.618 -12.830  1.00  0.00     0.004 C 
ENDBRANCH  18  19
ENDBRANCH  17  18
ENDBRANCH  16  17
ENDBRANCH  15  16
ENDBRANCH  14  15
ENDBRANCH  13  14
ENDBRANCH  12  13
ENDBRANCH   1  12
TORSDOF 16
ENDMDL
MODEL 8
REMARK VINA RESULT:    -1.333      4.395      9.393
REMARK INTER + INTRA:          -3.637
REMARK INTER:                  -2.757
REMARK INTRA:                  -0.880
REMARK UNBOUND:                -1.057
REMARK SMILES CCCCCCCCCCCCCCCCCC(=O)[O-]
REMARK SMILES IDX 10 1 11 2 12 3 13 4 14 5 15 6 16 7 17 8 18 9 19 10 20 11
REMARK SMILES IDX 9 12 8 13 7 14 6 15 5 16 4 17 3 18 2 19 1 20
REMARK H PARENT
REMARK Flexibility Score: inf
ROOT
ATOM      1  C   UNL     1       1.927 -14.207 -18.832  1.00  0.00     0.000 C 
ENDROOT
BRANCH   1   2
ATOM      2  C   UNL     1       1.239 -14.853 -17.620  1.00  0.00     0.000 C 
BRANCH   2   3
ATOM      3  C   UNL     1       0.372 -16.063 -18.002  1.00  0.00     0.000 C 
BRANCH   3   4
ATOM      4  C   UNL     1      -0.915 -15.658 -18.741  1.00  0.00     0.000 C 
BRANCH   4   5
ATOM      5  C   UNL     1      -1.571 -16.833 -19.489  1.00  0.00     0.000 C 
BRANCH   5   6
ATOM      6  C   UNL     1      -1.904 -18.059 -18.619  1.00  0.00     0.000 C 
BRANCH   6   7
ATOM      7  C   UNL     1      -1.403 -19.378 -19.225  1.00  0.00     0.006 C 
BRANCH   7   8
ATOM      8  C   UNL     1       0.104 -19.545 -19.005  1.00  0.00     0.053 C 
BRANCH   8   9
ATOM      9  C   UNL     1       0.400 -19.773 -17.556  1.00  0.00     0.041 C 
ATOM     10  O   UNL     1       1.567 -19.604 -17.114  1.00  0.00    -0.550 OA
ATOM     11  O   UNL     1      -0.623 -20.125 -16.685  1.00  0.00    -0.550 OA
ENDBRANCH   8   9
ENDBRANCH   7   8
ENDBRANCH   6   7
ENDBRANCH   5   6
ENDBRANCH   4   5
ENDBRANCH   3   4
ENDBRANCH   2   3
ENDBRANCH   1   2
BRANCH   1  12
ATOM     12  C   UNL     1       2.826 -13.041 -18.395  1.00  0.00     0.000 C 
BRANCH  12  13
ATOM     13  C   UNL     1       2.355 -11.683 -18.944  1.00  0.00    -0.000 C 
BRANCH  13  14
ATOM     14  C   UNL     1       3.228 -10.476 -18.542  1.00  0.00    -0.000 C 
BRANCH  14  15
ATOM     15  C   UNL     1       4.186  -9.963 -19.632  1.00  0.00    -0.000 C 
BRANCH  15  16
ATOM     16  C   UNL     1       4.944 -11.096 -20.345  1.00  0.00    -0.000 C 
BRANCH  16  17
ATOM     17  C   UNL     1       6.466 -10.869 -20.382  1.00  0.00    -0.000 C 
BRANCH  17  18
ATOM     18  C   UNL     1       7.226 -11.309 -19.117  1.00  0.00    -0.000 C 
BRANCH  18  19
ATOM     19  C   UNL     1       6.392 -12.218 -18.202  1.00  0.00    -0.003 C 
ATOM     20  C   UNL     1       6.990 -12.285 -16.800  1.00  0.00     0.004 C 
ENDBRANCH  18  19
ENDBRANCH  17  18
ENDBRANCH  16  17
ENDBRANCH  15  16
ENDBRANCH  14  15
ENDBRANCH  13  14
ENDBRANCH  12  13
ENDBRANCH   1  12
TORSDOF 16
ENDMDL
MODEL 9
REMARK VINA RESULT:    -1.299      1.746      3.115
REMARK INTER + INTRA:          -3.570
REMARK INTER:                  -2.252
REMARK INTRA:                  -1.318
REMARK UNBOUND:                -1.057
REMARK SMILES CCCCCCCCCCCCCCCCCC(=O)[O-]
REMARK SMILES IDX 10 1 11 2 12 3 13 4 14 5 15 6 16 7 17 8 18 9 19 10 20 11
REMARK SMILES IDX 9 12 8 13 7 14 6 15 5 16 4 17 3 18 2 19 1 20
REMARK H PARENT
REMARK Flexibility Score: inf
ROOT
ATOM      1  C   UNL     1       0.171 -15.891 -18.018  1.00  0.00     0.000 C 
ENDROOT
BRANCH   1   2
ATOM      2  C   UNL     1       1.280 -14.890 -17.661  1.00  0.00     0.000 C 
BRANCH   2   3
ATOM      3  C   UNL     1       2.069 -14.411 -18.891  1.00  0.00     0.000 C 
BRANCH   3   4
ATOM      4  C   UNL     1       2.465 -12.928 -18.797  1.00  0.00     0.000 C 
BRANCH   4   5
ATOM      5  C   UNL     1       3.980 -12.722 -18.619  1.00  0.00     0.000 C 
BRANCH   5   6
ATOM      6  C   UNL     1       4.582 -11.553 -19.422  1.00  0.00     0.000 C 
BRANCH   6   7
ATOM      7  C   UNL     1       3.625 -10.360 -19.552  1.00  0.00     0.006 C 
BRANCH   7   8
ATOM      8  C   UNL     1       3.898  -9.316 -18.463  1.00  0.00     0.053 C 
BRANCH   8   9
ATOM      9  C   UNL     1       2.769  -9.273 -17.483  1.00  0.00     0.041 C 
ATOM     10  O   UNL     1       2.975  -8.915 -16.294  1.00  0.00    -0.550 OA
ATOM     11  O   UNL     1       1.479  -9.582 -17.895  1.00  0.00    -0.550 OA
ENDBRANCH   8   9
ENDBRANCH   7   8
ENDBRANCH   6   7
ENDBRANCH   5   6
ENDBRANCH   4   5
ENDBRANCH   3   4
ENDBRANCH   2   3
ENDBRANCH   1   2
BRANCH   1  12
ATOM     12  C   UNL     1      -0.834 -15.270 -18.999  1.00  0.00     0.000 C 
BRANCH  12  13
ATOM     13  C   UNL     1      -2.100 -16.125 -19.182  1.00  0.00    -0.000 C 
BRANCH  13  14
ATOM     14  C   UNL     1      -2.058 -17.111 -20.367  1.00  0.00    -0.000 C 
BRANCH  14  15
ATOM     15  C   UNL     1      -1.460 -18.495 -20.053  1.00  0.00    -0.000 C 
BRANCH  15  16
ATOM     16  C   UNL     1      -2.051 -19.127 -18.780  1.00  0.00    -0.000 C 
BRANCH  16  17
ATOM     17  C   UNL     1      -0.982 -19.772 -17.880  1.00  0.00    -0.000 C 
BRANCH  17  18
ATOM     18  C   UNL     1       0.468 -19.343 -18.173  1.00  0.00    -0.000 C 
BRANCH  18  19
ATOM     19  C   UNL     1       1.480 -19.932 -17.179  1.00  0.00    -0.003 C 
ATOM     20  C   UNL     1       0.851 -20.125 -15.802  1.00  0.00     0.004 C 
ENDBRANCH  18  19
ENDBRANCH  17  18
ENDBRANCH  16  17
ENDBRANCH  15  16
ENDBRANCH  14  15
ENDBRANCH  13  14
ENDBRANCH  12  13
ENDBRANCH   1  12
TORSDOF 16
ENDMDL
