MODEL 1
REMARK VINA RESULT:    -4.258      0.000      0.000
REMARK INTER + INTRA:         -13.601
REMARK INTER:                  -9.237
REMARK INTRA:                  -4.364
REMARK UNBOUND:                -4.364
REMARK SMILES CCCCCCCCCCCCCCCCCCCCCC(=O)[O-]
REMARK SMILES IDX 12 1 11 2 10 3 9 4 8 5 7 6 6 7 5 8 4 9 3 10 2 11 1 12 13 13
REMARK SMILES IDX 14 14 15 15 16 16 17 17 18 18 19 19 20 20 21 21 22 22 23 23
REMARK SMILES IDX 24 24
REMARK H PARENT
REMARK Flexibility Score: inf
ROOT
ATOM      1  C   UNL     1       8.805  -4.248 -22.578  1.00  0.00     0.000 C 
ENDROOT
BRANCH   1   2
ATOM      2  C   UNL     1       7.576  -4.093 -23.486  1.00  0.00     0.000 C 
BRANCH   2   3
ATOM      3  C   UNL     1       7.940  -3.612 -24.899  1.00  0.00     0.000 C 
BRANCH   3   4
ATOM      4  C   UNL     1       7.021  -4.252 -25.948  1.00  0.00    -0.000 C 
BRANCH   4   5
ATOM      5  C   UNL     1       6.212  -5.409 -25.342  1.00  0.00    -0.000 C 
BRANCH   5   6
ATOM      6  C   UNL     1       6.589  -6.771 -25.947  1.00  0.00    -0.000 C 
BRANCH   6   7
ATOM      7  C   UNL     1       7.534  -7.577 -25.038  1.00  0.00    -0.000 C 
BRANCH   7   8
ATOM      8  C   UNL     1       8.959  -7.675 -25.607  1.00  0.00    -0.000 C 
BRANCH   8   9
ATOM      9  C   UNL     1       9.964  -6.808 -24.835  1.00  0.00    -0.000 C 
BRANCH   9  10
ATOM     10  C   UNL     1      10.716  -5.864 -25.785  1.00  0.00    -0.000 C 
BRANCH  10  11
ATOM     11  C   UNL     1      11.968  -5.250 -25.140  1.00  0.00    -0.003 C 
ATOM     12  C   UNL     1      11.762  -3.798 -24.712  1.00  0.00     0.004 C 
ENDBRANCH  10  11
ENDBRANCH   9  10
ENDBRANCH   8   9
ENDBRANCH   7   8
ENDBRANCH   6   7
ENDBRANCH   5   6
ENDBRANCH   4   5
ENDBRANCH   3   4
ENDBRANCH   2   3
ENDBRANCH   1   2
BRANCH   1  13
ATOM     13  C   UNL     1       8.706  -5.470 -21.649  1.00  0.00     0.000 C 
BRANCH  13  14
ATOM     14  C   UNL     1       7.304  -6.115 -21.686  1.00  0.00     0.000 C 
BRANCH  14  15
ATOM     15  C   UNL     1       7.303  -7.616 -21.348  1.00  0.00     0.000 C 
BRANCH  15  16
ATOM     16  C   UNL     1       8.616  -8.315 -21.734  1.00  0.00     0.000 C 
BRANCH  16  17
ATOM     17  C   UNL     1       9.393  -8.856 -20.518  1.00  0.00     0.000 C 
BRANCH  17  18
ATOM     18  C   UNL     1      10.826  -8.315 -20.357  1.00  0.00     0.000 C 
BRANCH  18  19
ATOM     19  C   UNL     1      11.520  -8.043 -21.699  1.00  0.00     0.000 C 
BRANCH  19  20
ATOM     20  C   UNL     1      12.119  -6.628 -21.730  1.00  0.00     0.006 C 
BRANCH  20  21
ATOM     21  C   UNL     1      12.122  -5.967 -20.346  1.00  0.00     0.053 C 
BRANCH  21  22
ATOM     22  C   UNL     1      13.458  -5.373 -20.017  1.00  0.00     0.041 C 
ATOM     23  O   UNL     1      13.550  -4.461 -19.152  1.00  0.00    -0.550 OA
ATOM     24  O   UNL     1      14.605  -5.844 -20.643  1.00  0.00    -0.550 OA
ENDBRANCH  21  22
ENDBRANCH  20  21
ENDBRANCH  19  20
ENDBRANCH  18  19
ENDBRANCH  17  18
ENDBRANCH  16  17
ENDBRANCH  15  16
ENDBRANCH  14  15
ENDBRANCH  13  14
ENDBRANCH   1  13
TORSDOF 20
ENDMDL
MODEL 2
REMARK VINA RESULT:    -4.245      2.995      5.399
REMARK INTER + INTRA:         -13.572
REMARK INTER:                  -9.547
REMARK INTRA:                  -4.024
REMARK UNBOUND:                -4.364
REMARK SMILES CCCCCCCCCCCCCCCCCCCCCC(=O)[O-]
REMARK SMILES IDX 12 1 11 2 10 3 9 4 8 5 7 6 6 7 5 8 4 9 3 10 2 11 1 12 13 13
REMARK SMILES IDX 14 14 15 15 16 16 17 17 18 18 19 19 20 20 21 21 22 22 23 23
REMARK SMILES IDX 24 24
REMARK H PARENT
REMARK Flexibility Score: inf
ROOT
ATOM      1  C   UNL     1      11.287  -4.287 -21.574  1.00  0.00     0.000 C 
ENDROOT
BRANCH   1   2
ATOM      2  C   UNL     1      12.486  -3.517 -22.148  1.00  0.00     0.000 C 
BRANCH   2   3
ATOM      3  C   UNL     1      13.714  -4.414 -22.367  1.00  0.00     0.000 C 
BRANCH   3   4
ATOM      4  C   UNL     1      13.970  -4.635 -23.864  1.00  0.00    -0.000 C 
BRANCH   4   5
ATOM      5  C   UNL     1      12.952  -5.621 -24.457  1.00  0.00    -0.000 C 
BRANCH   5   6
ATOM      6  C   UNL     1      12.235  -5.055 -25.693  1.00  0.00    -0.000 C 
BRANCH   6   7
ATOM      7  C   UNL     1      10.703  -5.075 -25.544  1.00  0.00    -0.000 C 
BRANCH   7   8
ATOM      8  C   UNL     1      10.197  -6.327 -24.809  1.00  0.00    -0.000 C 
BRANCH   8   9
ATOM      9  C   UNL     1       9.438  -7.288 -25.735  1.00  0.00    -0.000 C 
BRANCH   9  10
ATOM     10  C   UNL     1       9.178  -8.631 -25.036  1.00  0.00    -0.000 C 
BRANCH  10  11
ATOM     11  C   UNL     1       7.718  -8.789 -24.584  1.00  0.00    -0.003 C 
ATOM     12  C   UNL     1       6.717  -8.428 -25.680  1.00  0.00     0.004 C 
ENDBRANCH  10  11
ENDBRANCH   9  10
ENDBRANCH   8   9
ENDBRANCH   7   8
ENDBRANCH   6   7
ENDBRANCH   5   6
ENDBRANCH   4   5
ENDBRANCH   3   4
ENDBRANCH   2   3
ENDBRANCH   1   2
BRANCH   1  13
ATOM     13  C   UNL     1      11.568  -4.860 -20.173  1.00  0.00     0.000 C 
BRANCH  13  14
ATOM     14  C   UNL     1      11.140  -6.339 -20.055  1.00  0.00     0.000 C 
BRANCH  14  15
ATOM     15  C   UNL     1      11.246  -7.122 -21.376  1.00  0.00     0.000 C 
BRANCH  15  16
ATOM     16  C   UNL     1      10.021  -8.012 -21.642  1.00  0.00     0.000 C 
BRANCH  16  17
ATOM     17  C   UNL     1       8.905  -7.833 -20.594  1.00  0.00     0.000 C 
BRANCH  17  18
ATOM     18  C   UNL     1       7.614  -7.173 -21.114  1.00  0.00     0.000 C 
BRANCH  18  19
ATOM     19  C   UNL     1       7.825  -5.730 -21.592  1.00  0.00     0.000 C 
BRANCH  19  20
ATOM     20  C   UNL     1       7.194  -5.511 -22.976  1.00  0.00     0.006 C 
BRANCH  20  21
ATOM     21  C   UNL     1       7.520  -4.127 -23.551  1.00  0.00     0.053 C 
BRANCH  21  22
ATOM     22  C   UNL     1       7.193  -4.040 -25.011  1.00  0.00     0.041 C 
ATOM     23  O   UNL     1       6.504  -4.940 -25.560  1.00  0.00    -0.550 OA
ATOM     24  O   UNL     1       7.624  -2.951 -25.759  1.00  0.00    -0.550 OA
ENDBRANCH  21  22
ENDBRANCH  20  21
ENDBRANCH  19  20
ENDBRANCH  18  19
ENDBRANCH  17  18
ENDBRANCH  16  17
ENDBRANCH  15  16
ENDBRANCH  14  15
ENDBRANCH  13  14
ENDBRANCH   1  13
TORSDOF 20
ENDMDL
MODEL 3
REMARK VINA RESULT:    -4.196      6.917     10.587
REMARK INTER + INTRA:         -13.465
REMARK INTER:                  -9.309
REMARK INTRA:                  -4.156
REMARK UNBOUND:                -4.364
REMARK SMILES CCCCCCCCCCCCCCCCCCCCCC(=O)[O-]
REMARK SMILES IDX 12 1 11 2 10 3 9 4 8 5 7 6 6 7 5 8 4 9 3 10 2 11 1 12 13 13
REMARK SMILES IDX 14 14 15 15 16 16 17 17 18 18 19 19 20 20 21 21 22 22 23 23
REMARK SMILES IDX 24 24
REMARK H PARENT
REMARK Flexibility Score: inf
ROOT
ATOM      1  C   UNL     1      19.939  -3.923 -21.247  1.00  0.00     0.000 C 
ENDROOT
BRANCH   1   2
ATOM      2  C   UNL     1      19.762  -2.796 -20.219  1.00  0.00     0.000 C 
BRANCH   2   3
ATOM      3  C   UNL     1      20.301  -3.173 -18.830  1.00  0.00     0.000 C 
BRANCH   3   4
ATOM      4  C   UNL     1      19.304  -2.780 -17.732  1.00  0.00    -0.000 C 
BRANCH   4   5
ATOM      5  C   UNL     1      17.906  -2.534 -18.318  1.00  0.00    -0.000 C 
BRANCH   5   6
ATOM      6  C   UNL     1      16.800  -2.602 -17.253  1.00  0.00    -0.000 C 
BRANCH   6   7
ATOM      7  C   UNL     1      16.147  -3.993 -17.170  1.00  0.00    -0.000 C 
BRANCH   7   8
ATOM      8  C   UNL     1      16.639  -4.806 -15.962  1.00  0.00    -0.000 C 
BRANCH   8   9
ATOM      9  C   UNL     1      17.301  -6.129 -16.370  1.00  0.00    -0.000 C 
BRANCH   9  10
ATOM     10  C   UNL     1      17.400  -6.243 -17.899  1.00  0.00    -0.000 C 
BRANCH  10  11
ATOM     11  C   UNL     1      18.829  -6.547 -18.377  1.00  0.00    -0.003 C 
ATOM     12  C   UNL     1      19.860  -6.458 -17.253  1.00  0.00     0.004 C 
ENDBRANCH  10  11
ENDBRANCH   9  10
ENDBRANCH   8   9
ENDBRANCH   7   8
ENDBRANCH   6   7
ENDBRANCH   5   6
ENDBRANCH   4   5
ENDBRANCH   3   4
ENDBRANCH   2   3
ENDBRANCH   1   2
BRANCH   1  13
ATOM     13  C   UNL     1      21.262  -4.688 -21.066  1.00  0.00     0.000 C 
BRANCH  13  14
ATOM     14  C   UNL     1      21.090  -6.205 -21.294  1.00  0.00     0.000 C 
BRANCH  14  15
ATOM     15  C   UNL     1      19.969  -6.560 -22.287  1.00  0.00     0.000 C 
BRANCH  15  16
ATOM     16  C   UNL     1      19.208  -7.837 -21.896  1.00  0.00     0.000 C 
BRANCH  16  17
ATOM     17  C   UNL     1      17.685  -7.718 -22.098  1.00  0.00     0.000 C 
BRANCH  17  18
ATOM     18  C   UNL     1      17.065  -6.377 -21.659  1.00  0.00     0.000 C 
BRANCH  18  19
ATOM     19  C   UNL     1      16.421  -5.604 -22.818  1.00  0.00     0.000 C 
BRANCH  19  20
ATOM     20  C   UNL     1      16.455  -4.090 -22.556  1.00  0.00     0.006 C 
BRANCH  20  21
ATOM     21  C   UNL     1      16.227  -3.752 -21.077  1.00  0.00     0.053 C 
BRANCH  21  22
ATOM     22  C   UNL     1      14.771  -3.570 -20.767  1.00  0.00     0.041 C 
ATOM     23  O   UNL     1      14.138  -2.595 -21.251  1.00  0.00    -0.550 OA
ATOM     24  O   UNL     1      14.108  -4.493 -19.968  1.00  0.00    -0.550 OA
ENDBRANCH  21  22
ENDBRANCH  20  21
ENDBRANCH  19  20
ENDBRANCH  18  19
ENDBRANCH  17  18
ENDBRANCH  16  17
ENDBRANCH  15  16
ENDBRANCH  14  15
ENDBRANCH  13  14
ENDBRANCH   1  13
TORSDOF 20
ENDMDL
MODEL 4
REMARK VINA RESULT:    -4.168      2.505      4.813
REMARK INTER + INTRA:         -13.404
REMARK INTER:                  -9.888
REMARK INTRA:                  -3.516
REMARK UNBOUND:                -4.364
REMARK SMILES CCCCCCCCCCCCCCCCCCCCCC(=O)[O-]
REMARK SMILES IDX 12 1 11 2 10 3 9 4 8 5 7 6 6 7 5 8 4 9 3 10 2 11 1 12 13 13
REMARK SMILES IDX 14 14 15 15 16 16 17 17 18 18 19 19 20 20 21 21 22 22 23 23
REMARK SMILES IDX 24 24
REMARK H PARENT
REMARK Flexibility Score: inf
ROOT
ATOM      1  C   UNL     1       9.795  -5.203 -21.711  1.00  0.00     0.000 C 
ENDROOT
BRANCH   1   2
ATOM      2  C   UNL     1       8.495  -5.527 -22.462  1.00  0.00     0.000 C 
BRANCH   2   3
ATOM      3  C   UNL     1       7.328  -5.843 -21.515  1.00  0.00     0.000 C 
BRANCH   3   4
ATOM      4  C   UNL     1       6.636  -7.152 -21.917  1.00  0.00    -0.000 C 
BRANCH   4   5
ATOM      5  C   UNL     1       7.261  -8.353 -21.190  1.00  0.00    -0.000 C 
BRANCH   5   6
ATOM      6  C   UNL     1       7.869  -9.378 -22.160  1.00  0.00    -0.000 C 
BRANCH   6   7
ATOM      7  C   UNL     1       7.397  -9.168 -23.610  1.00  0.00    -0.000 C 
BRANCH   7   8
ATOM      8  C   UNL     1       8.563  -8.927 -24.582  1.00  0.00    -0.000 C 
BRANCH   8   9
ATOM      9  C   UNL     1       8.407  -7.623 -25.378  1.00  0.00    -0.000 C 
BRANCH   9  10
ATOM     10  C   UNL     1       6.932  -7.356 -25.710  1.00  0.00    -0.000 C 
BRANCH  10  11
ATOM     11  C   UNL     1       6.555  -5.872 -25.573  1.00  0.00    -0.003 C 
ATOM     12  C   UNL     1       5.398  -5.470 -26.487  1.00  0.00     0.004 C 
ENDBRANCH  10  11
ENDBRANCH   9  10
ENDBRANCH   8   9
ENDBRANCH   7   8
ENDBRANCH   6   7
ENDBRANCH   5   6
ENDBRANCH   4   5
ENDBRANCH   3   4
ENDBRANCH   2   3
ENDBRANCH   1   2
BRANCH   1  13
ATOM     13  C   UNL     1      10.314  -6.394 -20.885  1.00  0.00     0.000 C 
BRANCH  13  14
ATOM     14  C   UNL     1      11.632  -6.062 -20.153  1.00  0.00     0.000 C 
BRANCH  14  15
ATOM     15  C   UNL     1      11.942  -4.556 -20.089  1.00  0.00     0.000 C 
BRANCH  15  16
ATOM     16  C   UNL     1      13.446  -4.252 -20.186  1.00  0.00     0.000 C 
BRANCH  16  17
ATOM     17  C   UNL     1      13.936  -4.085 -21.638  1.00  0.00     0.000 C 
BRANCH  17  18
ATOM     18  C   UNL     1      14.672  -5.302 -22.229  1.00  0.00     0.000 C 
BRANCH  18  19
ATOM     19  C   UNL     1      13.927  -5.943 -23.408  1.00  0.00     0.000 C 
BRANCH  19  20
ATOM     20  C   UNL     1      12.820  -5.014 -23.929  1.00  0.00     0.006 C 
BRANCH  20  21
ATOM     21  C   UNL     1      11.733  -5.780 -24.696  1.00  0.00     0.053 C 
BRANCH  21  22
ATOM     22  C   UNL     1      11.132  -4.946 -25.787  1.00  0.00     0.041 C 
ATOM     23  O   UNL     1      10.012  -4.396 -25.620  1.00  0.00    -0.550 OA
ATOM     24  O   UNL     1      11.822  -4.754 -26.978  1.00  0.00    -0.550 OA
ENDBRANCH  21  22
ENDBRANCH  20  21
ENDBRANCH  19  20
ENDBRANCH  18  19
ENDBRANCH  17  18
ENDBRANCH  16  17
ENDBRANCH  15  16
ENDBRANCH  14  15
ENDBRANCH  13  14
ENDBRANCH   1  13
TORSDOF 20
ENDMDL
MODEL 5
REMARK VINA RESULT:    -4.123      5.476     10.368
REMARK INTER + INTRA:         -13.307
REMARK INTER:                  -9.960
REMARK INTRA:                  -3.347
REMARK UNBOUND:                -4.364
REMARK SMILES CCCCCCCCCCCCCCCCCCCCCC(=O)[O-]
REMARK SMILES IDX 12 1 11 2 10 3 9 4 8 5 7 6 6 7 5 8 4 9 3 10 2 11 1 12 13 13
REMARK SMILES IDX 14 14 15 15 16 16 17 17 18 18 19 19 20 20 21 21 22 22 23 23
REMARK SMILES IDX 24 24
REMARK H PARENT
REMARK Flexibility Score: inf
ROOT
ATOM      1  C   UNL     1      18.685  -6.353 -16.730  1.00  0.00     0.000 C 
ENDROOT
BRANCH   1   2
ATOM      2  C   UNL     1      17.204  -5.990 -16.912  1.00  0.00     0.000 C 
BRANCH   2   3
ATOM      3  C   UNL     1      16.762  -4.834 -16.002  1.00  0.00     0.000 C 
BRANCH   3   4
ATOM      4  C   UNL     1      15.995  -3.772 -16.801  1.00  0.00    -0.000 C 
BRANCH   4   5
ATOM      5  C   UNL     1      16.960  -2.772 -17.457  1.00  0.00    -0.000 C 
BRANCH   5   6
ATOM      6  C   UNL     1      16.713  -2.619 -18.966  1.00  0.00    -0.000 C 
BRANCH   6   7
ATOM      7  C   UNL     1      16.620  -3.976 -19.687  1.00  0.00    -0.000 C 
BRANCH   7   8
ATOM      8  C   UNL     1      15.567  -3.979 -20.806  1.00  0.00    -0.000 C 
BRANCH   8   9
ATOM      9  C   UNL     1      14.190  -3.502 -20.322  1.00  0.00    -0.000 C 
BRANCH   9  10
ATOM     10  C   UNL     1      13.534  -4.553 -19.414  1.00  0.00    -0.000 C 
BRANCH  10  11
ATOM     11  C   UNL     1      12.003  -4.569 -19.539  1.00  0.00    -0.003 C 
ATOM     12  C   UNL     1      11.529  -4.943 -20.943  1.00  0.00     0.004 C 
ENDBRANCH  10  11
ENDBRANCH   9  10
ENDBRANCH   8   9
ENDBRANCH   7   8
ENDBRANCH   6   7
ENDBRANCH   5   6
ENDBRANCH   4   5
ENDBRANCH   3   4
ENDBRANCH   2   3
ENDBRANCH   1   2
BRANCH   1  13
ATOM     13  C   UNL     1      19.569  -5.826 -17.875  1.00  0.00     0.000 C 
BRANCH  13  14
ATOM     14  C   UNL     1      20.064  -4.388 -17.611  1.00  0.00     0.000 C 
BRANCH  14  15
ATOM     15  C   UNL     1      21.042  -3.864 -18.678  1.00  0.00     0.000 C 
BRANCH  15  16
ATOM     16  C   UNL     1      20.496  -2.645 -19.440  1.00  0.00     0.000 C 
BRANCH  16  17
ATOM     17  C   UNL     1      20.095  -2.971 -20.891  1.00  0.00     0.000 C 
BRANCH  17  18
ATOM     18  C   UNL     1      21.073  -3.881 -21.657  1.00  0.00     0.000 C 
BRANCH  18  19
ATOM     19  C   UNL     1      20.367  -4.881 -22.583  1.00  0.00     0.000 C 
BRANCH  19  20
ATOM     20  C   UNL     1      18.943  -5.179 -22.087  1.00  0.00     0.006 C 
BRANCH  20  21
ATOM     21  C   UNL     1      18.822  -6.581 -21.476  1.00  0.00     0.053 C 
BRANCH  21  22
ATOM     22  C   UNL     1      18.527  -7.617 -22.518  1.00  0.00     0.041 C 
ATOM     23  O   UNL     1      17.338  -7.842 -22.868  1.00  0.00    -0.550 OA
ATOM     24  O   UNL     1      19.565  -8.315 -23.123  1.00  0.00    -0.550 OA
ENDBRANCH  21  22
ENDBRANCH  20  21
ENDBRANCH  19  20
ENDBRANCH  18  19
ENDBRANCH  17  18
ENDBRANCH  16  17
ENDBRANCH  15  16
ENDBRANCH  14  15
ENDBRANCH  13  14
ENDBRANCH   1  13
TORSDOF 20
ENDMDL
MODEL 6
REMARK VINA RESULT:    -4.106      7.582     11.156
REMARK INTER + INTRA:         -13.270
REMARK INTER:                  -8.943
REMARK INTRA:                  -4.327
REMARK UNBOUND:                -4.364
REMARK SMILES CCCCCCCCCCCCCCCCCCCCCC(=O)[O-]
REMARK SMILES IDX 12 1 11 2 10 3 9 4 8 5 7 6 6 7 5 8 4 9 3 10 2 11 1 12 13 13
REMARK SMILES IDX 14 14 15 15 16 16 17 17 18 18 19 19 20 20 21 21 22 22 23 23
REMARK SMILES IDX 24 24
REMARK H PARENT
REMARK Flexibility Score: inf
ROOT
ATOM      1  C   UNL     1      17.257  -6.762 -18.961  1.00  0.00     0.000 C 
ENDROOT
BRANCH   1   2
ATOM      2  C   UNL     1      18.663  -6.164 -19.116  1.00  0.00     0.000 C 
BRANCH   2   3
ATOM      3  C   UNL     1      19.673  -6.761 -18.123  1.00  0.00     0.000 C 
BRANCH   3   4
ATOM      4  C   UNL     1      20.439  -5.653 -17.388  1.00  0.00    -0.000 C 
BRANCH   4   5
ATOM      5  C   UNL     1      21.084  -4.676 -18.383  1.00  0.00    -0.000 C 
BRANCH   5   6
ATOM      6  C   UNL     1      20.639  -3.223 -18.154  1.00  0.00    -0.000 C 
BRANCH   6   7
ATOM      7  C   UNL     1      19.935  -2.623 -19.385  1.00  0.00    -0.000 C 
BRANCH   7   8
ATOM      8  C   UNL     1      18.412  -2.523 -19.204  1.00  0.00    -0.000 C 
BRANCH   8   9
ATOM      9  C   UNL     1      17.970  -2.797 -17.759  1.00  0.00    -0.000 C 
BRANCH   9  10
ATOM     10  C   UNL     1      16.442  -2.923 -17.668  1.00  0.00    -0.000 C 
BRANCH  10  11
ATOM     11  C   UNL     1      15.984  -3.674 -16.408  1.00  0.00    -0.003 C 
ATOM     12  C   UNL     1      16.910  -4.834 -16.043  1.00  0.00     0.004 C 
ENDBRANCH  10  11
ENDBRANCH   9  10
ENDBRANCH   8   9
ENDBRANCH   7   8
ENDBRANCH   6   7
ENDBRANCH   5   6
ENDBRANCH   4   5
ENDBRANCH   3   4
ENDBRANCH   2   3
ENDBRANCH   1   2
BRANCH   1  13
ATOM     13  C   UNL     1      16.412  -6.628 -20.240  1.00  0.00     0.000 C 
BRANCH  13  14
ATOM     14  C   UNL     1      15.426  -5.442 -20.162  1.00  0.00     0.000 C 
BRANCH  14  15
ATOM     15  C   UNL     1      15.769  -4.288 -21.121  1.00  0.00     0.000 C 
BRANCH  15  16
ATOM     16  C   UNL     1      16.592  -4.745 -22.336  1.00  0.00     0.000 C 
BRANCH  16  17
ATOM     17  C   UNL     1      18.052  -4.254 -22.296  1.00  0.00     0.000 C 
BRANCH  17  18
ATOM     18  C   UNL     1      19.112  -5.304 -22.681  1.00  0.00     0.000 C 
BRANCH  18  19
ATOM     19  C   UNL     1      20.508  -4.979 -22.133  1.00  0.00     0.000 C 
BRANCH  19  20
ATOM     20  C   UNL     1      21.261  -6.262 -21.749  1.00  0.00     0.006 C 
BRANCH  20  21
ATOM     21  C   UNL     1      20.451  -7.527 -22.063  1.00  0.00     0.053 C 
BRANCH  21  22
ATOM     22  C   UNL     1      21.285  -8.766 -21.942  1.00  0.00     0.041 C 
ATOM     23  O   UNL     1      21.701  -9.142 -20.814  1.00  0.00    -0.550 OA
ATOM     24  O   UNL     1      21.581  -9.520 -23.070  1.00  0.00    -0.550 OA
ENDBRANCH  21  22
ENDBRANCH  20  21
ENDBRANCH  19  20
ENDBRANCH  18  19
ENDBRANCH  17  18
ENDBRANCH  16  17
ENDBRANCH  15  16
ENDBRANCH  14  15
ENDBRANCH  13  14
ENDBRANCH   1  13
TORSDOF 20
ENDMDL
MODEL 7
REMARK VINA RESULT:    -4.067      5.318     10.171
REMARK INTER + INTRA:         -13.187
REMARK INTER:                  -9.368
REMARK INTRA:                  -3.819
REMARK UNBOUND:                -4.364
REMARK SMILES CCCCCCCCCCCCCCCCCCCCCC(=O)[O-]
REMARK SMILES IDX 12 1 11 2 10 3 9 4 8 5 7 6 6 7 5 8 4 9 3 10 2 11 1 12 13 13
REMARK SMILES IDX 14 14 15 15 16 16 17 17 18 18 19 19 20 20 21 21 22 22 23 23
REMARK SMILES IDX 24 24
REMARK H PARENT
REMARK Flexibility Score: inf
ROOT
ATOM      1  C   UNL     1      17.017  -5.998 -16.986  1.00  0.00     0.000 C 
ENDROOT
BRANCH   1   2
ATOM      2  C   UNL     1      16.751  -4.863 -15.985  1.00  0.00     0.000 C 
BRANCH   2   3
ATOM      3  C   UNL     1      15.987  -3.688 -16.614  1.00  0.00     0.000 C 
BRANCH   3   4
ATOM      4  C   UNL     1      15.443  -4.068 -17.998  1.00  0.00    -0.000 C 
BRANCH   4   5
ATOM      5  C   UNL     1      16.021  -3.154 -19.089  1.00  0.00    -0.000 C 
BRANCH   5   6
ATOM      6  C   UNL     1      17.196  -2.302 -18.582  1.00  0.00    -0.000 C 
BRANCH   6   7
ATOM      7  C   UNL     1      18.505  -2.598 -19.335  1.00  0.00    -0.000 C 
BRANCH   7   8
ATOM      8  C   UNL     1      19.645  -3.019 -18.394  1.00  0.00    -0.000 C 
BRANCH   8   9
ATOM      9  C   UNL     1      21.012  -3.034 -19.092  1.00  0.00    -0.000 C 
BRANCH   9  10
ATOM     10  C   UNL     1      20.861  -3.359 -20.586  1.00  0.00    -0.000 C 
BRANCH  10  11
ATOM     11  C   UNL     1      21.697  -4.575 -21.014  1.00  0.00    -0.003 C 
ATOM     12  C   UNL     1      22.023  -5.508 -19.849  1.00  0.00     0.004 C 
ENDBRANCH  10  11
ENDBRANCH   9  10
ENDBRANCH   8   9
ENDBRANCH   7   8
ENDBRANCH   6   7
ENDBRANCH   5   6
ENDBRANCH   4   5
ENDBRANCH   3   4
ENDBRANCH   2   3
ENDBRANCH   1   2
BRANCH   1  13
ATOM     13  C   UNL     1      18.519  -6.260 -17.199  1.00  0.00     0.000 C 
BRANCH  13  14
ATOM     14  C   UNL     1      18.842  -6.625 -18.664  1.00  0.00     0.000 C 
BRANCH  14  15
ATOM     15  C   UNL     1      17.662  -6.414 -19.629  1.00  0.00     0.000 C 
BRANCH  15  16
ATOM     16  C   UNL     1      18.075  -6.511 -21.107  1.00  0.00     0.000 C 
BRANCH  16  17
ATOM     17  C   UNL     1      18.145  -5.140 -21.806  1.00  0.00     0.000 C 
BRANCH  17  18
ATOM     18  C   UNL     1      17.253  -4.989 -23.053  1.00  0.00     0.000 C 
BRANCH  18  19
ATOM     19  C   UNL     1      16.275  -3.810 -22.955  1.00  0.00     0.000 C 
BRANCH  19  20
ATOM     20  C   UNL     1      14.899  -4.277 -22.455  1.00  0.00     0.006 C 
BRANCH  20  21
ATOM     21  C   UNL     1      14.089  -4.977 -23.554  1.00  0.00     0.053 C 
BRANCH  21  22
ATOM     22  C   UNL     1      13.394  -6.200 -23.037  1.00  0.00     0.041 C 
ATOM     23  O   UNL     1      13.786  -7.346 -23.382  1.00  0.00    -0.550 OA
ATOM     24  O   UNL     1      12.330  -6.076 -22.152  1.00  0.00    -0.550 OA
ENDBRANCH  21  22
ENDBRANCH  20  21
ENDBRANCH  19  20
ENDBRANCH  18  19
ENDBRANCH  17  18
ENDBRANCH  16  17
ENDBRANCH  15  16
ENDBRANCH  14  15
ENDBRANCH  13  14
ENDBRANCH   1  13
TORSDOF 20
ENDMDL
MODEL 8
REMARK VINA RESULT:    -4.048      5.618     10.898
REMARK INTER + INTRA:         -13.144
REMARK INTER:                  -9.155
REMARK INTRA:                  -3.989
REMARK UNBOUND:                -4.364
REMARK SMILES CCCCCCCCCCCCCCCCCCCCCC(=O)[O-]
REMARK SMILES IDX 12 1 11 2 10 3 9 4 8 5 7 6 6 7 5 8 4 9 3 10 2 11 1 12 13 13
REMARK SMILES IDX 14 14 15 15 16 16 17 17 18 18 19 19 20 20 21 21 22 22 23 23
REMARK SMILES IDX 24 24
REMARK H PARENT
REMARK Flexibility Score: inf
ROOT
ATOM      1  C   UNL     1      19.492  -2.530 -19.747  1.00  0.00     0.000 C 
ENDROOT
BRANCH   1   2
ATOM      2  C   UNL     1      20.898  -2.937 -19.281  1.00  0.00     0.000 C 
BRANCH   2   3
ATOM      3  C   UNL     1      20.971  -3.182 -17.765  1.00  0.00     0.000 C 
BRANCH   3   4
ATOM      4  C   UNL     1      21.600  -4.548 -17.462  1.00  0.00    -0.000 C 
BRANCH   4   5
ATOM      5  C   UNL     1      21.565  -5.459 -18.698  1.00  0.00    -0.000 C 
BRANCH   5   6
ATOM      6  C   UNL     1      20.783  -6.759 -18.450  1.00  0.00    -0.000 C 
BRANCH   6   7
ATOM      7  C   UNL     1      19.781  -6.630 -17.289  1.00  0.00    -0.000 C 
BRANCH   7   8
ATOM      8  C   UNL     1      18.346  -6.370 -17.774  1.00  0.00    -0.000 C 
BRANCH   8   9
ATOM      9  C   UNL     1      17.880  -4.933 -17.497  1.00  0.00    -0.000 C 
BRANCH   9  10
ATOM     10  C   UNL     1      16.786  -4.910 -16.419  1.00  0.00    -0.000 C 
BRANCH  10  11
ATOM     11  C   UNL     1      16.002  -3.588 -16.400  1.00  0.00    -0.003 C 
ATOM     12  C   UNL     1      16.471  -2.608 -17.475  1.00  0.00     0.004 C 
ENDBRANCH  10  11
ENDBRANCH   9  10
ENDBRANCH   8   9
ENDBRANCH   7   8
ENDBRANCH   6   7
ENDBRANCH   5   6
ENDBRANCH   4   5
ENDBRANCH   3   4
ENDBRANCH   2   3
ENDBRANCH   1   2
BRANCH   1  13
ATOM     13  C   UNL     1      18.963  -3.423 -20.883  1.00  0.00     0.000 C 
BRANCH  13  14
ATOM     14  C   UNL     1      20.106  -4.113 -21.658  1.00  0.00     0.000 C 
BRANCH  14  15
ATOM     15  C   UNL     1      19.701  -5.456 -22.293  1.00  0.00     0.000 C 
BRANCH  15  16
ATOM     16  C   UNL     1      18.577  -6.166 -21.521  1.00  0.00     0.000 C 
BRANCH  16  17
ATOM     17  C   UNL     1      17.246  -6.211 -22.296  1.00  0.00     0.000 C 
BRANCH  17  18
ATOM     18  C   UNL     1      15.981  -6.330 -21.426  1.00  0.00     0.000 C 
BRANCH  18  19
ATOM     19  C   UNL     1      15.747  -5.105 -20.532  1.00  0.00     0.000 C 
BRANCH  19  20
ATOM     20  C   UNL     1      14.699  -5.405 -19.449  1.00  0.00     0.006 C 
BRANCH  20  21
ATOM     21  C   UNL     1      13.551  -4.387 -19.453  1.00  0.00     0.053 C 
BRANCH  21  22
ATOM     22  C   UNL     1      12.657  -4.561 -20.643  1.00  0.00     0.041 C 
ATOM     23  O   UNL     1      12.546  -3.638 -21.492  1.00  0.00    -0.550 OA
ATOM     24  O   UNL     1      11.969  -5.754 -20.830  1.00  0.00    -0.550 OA
ENDBRANCH  21  22
ENDBRANCH  20  21
ENDBRANCH  19  20
ENDBRANCH  18  19
ENDBRANCH  17  18
ENDBRANCH  16  17
ENDBRANCH  15  16
ENDBRANCH  14  15
ENDBRANCH  13  14
ENDBRANCH   1  13
TORSDOF 20
ENDMDL
MODEL 9
REMARK VINA RESULT:    -4.040      5.411     10.003
REMARK INTER + INTRA:         -13.128
REMARK INTER:                  -9.664
REMARK INTRA:                  -3.464
REMARK UNBOUND:                -4.364
REMARK SMILES CCCCCCCCCCCCCCCCCCCCCC(=O)[O-]
REMARK SMILES IDX 12 1 11 2 10 3 9 4 8 5 7 6 6 7 5 8 4 9 3 10 2 11 1 12 13 13
REMARK SMILES IDX 14 14 15 15 16 16 17 17 18 18 19 19 20 20 21 21 22 22 23 23
REMARK SMILES IDX 24 24
REMARK H PARENT
REMARK Flexibility Score: inf
ROOT
ATOM      1  C   UNL     1      20.958  -6.010 -21.599  1.00  0.00     0.000 C 
ENDROOT
BRANCH   1   2
ATOM      2  C   UNL     1      20.037  -6.803 -20.659  1.00  0.00     0.000 C 
BRANCH   2   3
ATOM      3  C   UNL     1      18.570  -6.357 -20.754  1.00  0.00     0.000 C 
BRANCH   3   4
ATOM      4  C   UNL     1      18.235  -5.880 -22.173  1.00  0.00    -0.000 C 
BRANCH   4   5
ATOM      5  C   UNL     1      17.613  -4.476 -22.152  1.00  0.00    -0.000 C 
BRANCH   5   6
ATOM      6  C   UNL     1      17.025  -4.113 -20.779  1.00  0.00    -0.000 C 
BRANCH   6   7
ATOM      7  C   UNL     1      15.494  -4.268 -20.736  1.00  0.00    -0.000 C 
BRANCH   7   8
ATOM      8  C   UNL     1      15.041  -5.400 -19.801  1.00  0.00    -0.000 C 
BRANCH   8   9
ATOM      9  C   UNL     1      13.601  -5.855 -20.079  1.00  0.00    -0.000 C 
BRANCH   9  10
ATOM     10  C   UNL     1      12.595  -4.766 -19.676  1.00  0.00    -0.000 C 
BRANCH  10  11
ATOM     11  C   UNL     1      11.160  -5.094 -20.118  1.00  0.00    -0.003 C 
ATOM     12  C   UNL     1      10.847  -4.595 -21.527  1.00  0.00     0.004 C 
ENDBRANCH  10  11
ENDBRANCH   9  10
ENDBRANCH   8   9
ENDBRANCH   7   8
ENDBRANCH   6   7
ENDBRANCH   5   6
ENDBRANCH   4   5
ENDBRANCH   3   4
ENDBRANCH   2   3
ENDBRANCH   1   2
BRANCH   1  13
ATOM     13  C   UNL     1      21.648  -4.829 -20.895  1.00  0.00     0.000 C 
BRANCH  13  14
ATOM     14  C   UNL     1      21.047  -3.471 -21.316  1.00  0.00     0.000 C 
BRANCH  14  15
ATOM     15  C   UNL     1      20.312  -2.738 -20.179  1.00  0.00     0.000 C 
BRANCH  15  16
ATOM     16  C   UNL     1      20.800  -3.161 -18.784  1.00  0.00     0.000 C 
BRANCH  16  17
ATOM     17  C   UNL     1      19.721  -3.894 -17.963  1.00  0.00     0.000 C 
BRANCH  17  18
ATOM     18  C   UNL     1      20.091  -5.319 -17.511  1.00  0.00     0.000 C 
BRANCH  18  19
ATOM     19  C   UNL     1      18.917  -6.070 -16.868  1.00  0.00     0.000 C 
BRANCH  19  20
ATOM     20  C   UNL     1      17.575  -5.436 -17.263  1.00  0.00     0.006 C 
BRANCH  20  21
ATOM     21  C   UNL     1      16.766  -4.980 -16.042  1.00  0.00     0.053 C 
BRANCH  21  22
ATOM     22  C   UNL     1      16.083  -3.668 -16.286  1.00  0.00     0.041 C 
ATOM     23  O   UNL     1      16.243  -3.065 -17.380  1.00  0.00    -0.550 OA
ATOM     24  O   UNL     1      15.249  -3.125 -15.317  1.00  0.00    -0.550 OA
ENDBRANCH  21  22
ENDBRANCH  20  21
ENDBRANCH  19  20
ENDBRANCH  18  19
ENDBRANCH  17  18
ENDBRANCH  16  17
ENDBRANCH  15  16
ENDBRANCH  14  15
ENDBRANCH  13  14
ENDBRANCH   1  13
TORSDOF 20
ENDMDL
