MODEL 1
REMARK VINA RESULT:    -5.159      0.000      0.000
REMARK INTER + INTRA:         -14.742
REMARK INTER:                 -11.191
REMARK INTRA:                  -3.551
REMARK UNBOUND:                -3.551
REMARK SMILES CCCCCCCCCCCCCCCCCCCCCC(=O)[O-]
REMARK SMILES IDX 12 1 11 2 10 3 9 4 8 5 7 6 6 7 5 8 4 9 3 10 2 11 1 12 13 13
REMARK SMILES IDX 14 14 15 15 16 16 17 17 18 18 19 19 20 20 21 21 22 22 23 23
REMARK SMILES IDX 24 24
REMARK H PARENT
REMARK Flexibility Score: inf
ROOT
ATOM      1  C   UNL     1      46.704 -14.307 -36.184  1.00  0.00     0.000 C 
ENDROOT
BRANCH   1   2
ATOM      2  C   UNL     1      45.258 -13.832 -35.986  1.00  0.00     0.000 C 
BRANCH   2   3
ATOM      3  C   UNL     1      45.168 -12.338 -35.599  1.00  0.00     0.000 C 
BRANCH   3   4
ATOM      4  C   UNL     1      43.742 -11.875 -35.248  1.00  0.00    -0.000 C 
BRANCH   4   5
ATOM      5  C   UNL     1      42.621 -12.757 -35.827  1.00  0.00    -0.000 C 
BRANCH   5   6
ATOM      6  C   UNL     1      41.662 -12.000 -36.774  1.00  0.00    -0.000 C 
BRANCH   6   7
ATOM      7  C   UNL     1      42.383 -10.935 -37.617  1.00  0.00    -0.000 C 
BRANCH   7   8
ATOM      8  C   UNL     1      42.146 -11.111 -39.125  1.00  0.00    -0.000 C 
BRANCH   8   9
ATOM      9  C   UNL     1      43.423 -10.905 -39.955  1.00  0.00    -0.000 C 
BRANCH   9  10
ATOM     10  C   UNL     1      44.677 -11.097 -39.090  1.00  0.00    -0.000 C 
BRANCH  10  11
ATOM     11  C   UNL     1      45.333 -12.472 -39.297  1.00  0.00    -0.003 C 
ATOM     12  C   UNL     1      46.789 -12.371 -39.750  1.00  0.00     0.004 C 
ENDBRANCH  10  11
ENDBRANCH   9  10
ENDBRANCH   8   9
ENDBRANCH   7   8
ENDBRANCH   6   7
ENDBRANCH   5   6
ENDBRANCH   4   5
ENDBRANCH   3   4
ENDBRANCH   2   3
ENDBRANCH   1   2
BRANCH   1  13
ATOM     13  C   UNL     1      47.638 -13.127 -36.480  1.00  0.00     0.000 C 
BRANCH  13  14
ATOM     14  C   UNL     1      48.840 -13.127 -35.523  1.00  0.00     0.000 C 
BRANCH  14  15
ATOM     15  C   UNL     1      48.658 -14.093 -34.342  1.00  0.00     0.000 C 
BRANCH  15  16
ATOM     16  C   UNL     1      49.120 -13.487 -33.006  1.00  0.00     0.000 C 
BRANCH  16  17
ATOM     17  C   UNL     1      47.950 -13.220 -32.046  1.00  0.00     0.000 C 
BRANCH  17  18
ATOM     18  C   UNL     1      46.784 -14.203 -32.251  1.00  0.00     0.000 C 
BRANCH  18  19
ATOM     19  C   UNL     1      45.415 -13.503 -32.273  1.00  0.00     0.000 C 
BRANCH  19  20
ATOM     20  C   UNL     1      44.249 -14.493 -32.440  1.00  0.00     0.006 C 
BRANCH  20  21
ATOM     21  C   UNL     1      44.735 -15.913 -32.758  1.00  0.00     0.053 C 
BRANCH  21  22
ATOM     22  C   UNL     1      43.747 -16.664 -33.597  1.00  0.00     0.041 C 
ATOM     23  O   UNL     1      43.490 -17.870 -33.345  1.00  0.00    -0.550 OA
ATOM     24  O   UNL     1      43.132 -16.038 -34.674  1.00  0.00    -0.550 OA
ENDBRANCH  21  22
ENDBRANCH  20  21
ENDBRANCH  19  20
ENDBRANCH  18  19
ENDBRANCH  17  18
ENDBRANCH  16  17
ENDBRANCH  15  16
ENDBRANCH  14  15
ENDBRANCH  13  14
ENDBRANCH   1  13
TORSDOF 20
ENDMDL
MODEL 2
REMARK VINA RESULT:    -5.120      3.774      9.143
REMARK INTER + INTRA:         -14.657
REMARK INTER:                 -12.238
REMARK INTRA:                  -2.420
REMARK UNBOUND:                -3.551
REMARK SMILES CCCCCCCCCCCCCCCCCCCCCC(=O)[O-]
REMARK SMILES IDX 12 1 11 2 10 3 9 4 8 5 7 6 6 7 5 8 4 9 3 10 2 11 1 12 13 13
REMARK SMILES IDX 14 14 15 15 16 16 17 17 18 18 19 19 20 20 21 21 22 22 23 23
REMARK SMILES IDX 24 24
REMARK H PARENT
REMARK Flexibility Score: inf
ROOT
ATOM      1  C   UNL     1      43.224 -12.486 -43.197  1.00  0.00     0.000 C 
ENDROOT
BRANCH   1   2
ATOM      2  C   UNL     1      43.855 -11.541 -42.164  1.00  0.00     0.000 C 
BRANCH   2   3
ATOM      3  C   UNL     1      44.077 -12.219 -40.793  1.00  0.00     0.000 C 
BRANCH   3   4
ATOM      4  C   UNL     1      44.986 -11.414 -39.846  1.00  0.00    -0.000 C 
BRANCH   4   5
ATOM      5  C   UNL     1      46.263 -12.150 -39.403  1.00  0.00    -0.000 C 
BRANCH   5   6
ATOM      6  C   UNL     1      45.989 -13.426 -38.574  1.00  0.00    -0.000 C 
BRANCH   6   7
ATOM      7  C   UNL     1      45.237 -13.130 -37.266  1.00  0.00    -0.000 C 
BRANCH   7   8
ATOM      8  C   UNL     1      45.453 -14.213 -36.198  1.00  0.00    -0.000 C 
BRANCH   8   9
ATOM      9  C   UNL     1      44.134 -14.808 -35.679  1.00  0.00    -0.000 C 
BRANCH   9  10
ATOM     10  C   UNL     1      43.849 -14.341 -34.244  1.00  0.00    -0.000 C 
BRANCH  10  11
ATOM     11  C   UNL     1      43.069 -13.018 -34.197  1.00  0.00    -0.003 C 
ATOM     12  C   UNL     1      41.874 -13.001 -35.150  1.00  0.00     0.004 C 
ENDBRANCH  10  11
ENDBRANCH   9  10
ENDBRANCH   8   9
ENDBRANCH   7   8
ENDBRANCH   6   7
ENDBRANCH   5   6
ENDBRANCH   4   5
ENDBRANCH   3   4
ENDBRANCH   2   3
ENDBRANCH   1   2
BRANCH   1  13
ATOM     13  C   UNL     1      43.538 -12.030 -44.627  1.00  0.00     0.000 C 
BRANCH  13  14
ATOM     14  C   UNL     1      42.253 -11.640 -45.373  1.00  0.00     0.000 C 
BRANCH  14  15
ATOM     15  C   UNL     1      40.984 -11.922 -44.553  1.00  0.00     0.000 C 
BRANCH  15  16
ATOM     16  C   UNL     1      40.191 -10.643 -44.232  1.00  0.00     0.000 C 
BRANCH  16  17
ATOM     17  C   UNL     1      40.946  -9.367 -44.634  1.00  0.00     0.000 C 
BRANCH  17  18
ATOM     18  C   UNL     1      40.925  -8.297 -43.527  1.00  0.00     0.000 C 
BRANCH  18  19
ATOM     19  C   UNL     1      41.726  -8.715 -42.283  1.00  0.00     0.000 C 
BRANCH  19  20
ATOM     20  C   UNL     1      40.852  -8.798 -41.019  1.00  0.00     0.006 C 
BRANCH  20  21
ATOM     21  C   UNL     1      40.999 -10.147 -40.302  1.00  0.00     0.053 C 
BRANCH  21  22
ATOM     22  C   UNL     1      41.642  -9.995 -38.959  1.00  0.00     0.041 C 
ATOM     23  O   UNL     1      41.490 -10.883 -38.079  1.00  0.00    -0.550 OA
ATOM     24  O   UNL     1      42.387  -8.858 -38.669  1.00  0.00    -0.550 OA
ENDBRANCH  21  22
ENDBRANCH  20  21
ENDBRANCH  19  20
ENDBRANCH  18  19
ENDBRANCH  17  18
ENDBRANCH  16  17
ENDBRANCH  15  16
ENDBRANCH  14  15
ENDBRANCH  13  14
ENDBRANCH   1  13
TORSDOF 20
ENDMDL
MODEL 3
REMARK VINA RESULT:    -5.018      3.739      7.574
REMARK INTER + INTRA:         -14.436
REMARK INTER:                 -11.347
REMARK INTRA:                  -3.089
REMARK UNBOUND:                -3.551
REMARK SMILES CCCCCCCCCCCCCCCCCCCCCC(=O)[O-]
REMARK SMILES IDX 12 1 11 2 10 3 9 4 8 5 7 6 6 7 5 8 4 9 3 10 2 11 1 12 13 13
REMARK SMILES IDX 14 14 15 15 16 16 17 17 18 18 19 19 20 20 21 21 22 22 23 23
REMARK SMILES IDX 24 24
REMARK H PARENT
REMARK Flexibility Score: inf
ROOT
ATOM      1  C   UNL     1      46.414 -14.313 -37.044  1.00  0.00     0.000 C 
ENDROOT
BRANCH   1   2
ATOM      2  C   UNL     1      47.548 -14.186 -36.016  1.00  0.00     0.000 C 
BRANCH   2   3
ATOM      3  C   UNL     1      47.433 -12.907 -35.156  1.00  0.00     0.000 C 
BRANCH   3   4
ATOM      4  C   UNL     1      47.035 -13.179 -33.693  1.00  0.00    -0.000 C 
BRANCH   4   5
ATOM      5  C   UNL     1      46.584 -14.624 -33.411  1.00  0.00    -0.000 C 
BRANCH   5   6
ATOM      6  C   UNL     1      45.141 -14.729 -32.867  1.00  0.00    -0.000 C 
BRANCH   6   7
ATOM      7  C   UNL     1      44.210 -15.509 -33.810  1.00  0.00    -0.000 C 
BRANCH   7   8
ATOM      8  C   UNL     1      43.596 -14.623 -34.906  1.00  0.00    -0.000 C 
BRANCH   8   9
ATOM      9  C   UNL     1      43.199 -13.231 -34.391  1.00  0.00    -0.000 C 
BRANCH   9  10
ATOM     10  C   UNL     1      43.817 -12.127 -35.262  1.00  0.00    -0.000 C 
BRANCH  10  11
ATOM     11  C   UNL     1      43.203 -12.069 -36.669  1.00  0.00    -0.003 C 
ATOM     12  C   UNL     1      41.676 -12.001 -36.646  1.00  0.00     0.004 C 
ENDBRANCH  10  11
ENDBRANCH   9  10
ENDBRANCH   8   9
ENDBRANCH   7   8
ENDBRANCH   6   7
ENDBRANCH   5   6
ENDBRANCH   4   5
ENDBRANCH   3   4
ENDBRANCH   2   3
ENDBRANCH   1   2
BRANCH   1  13
ATOM     13  C   UNL     1      46.537 -13.245 -38.137  1.00  0.00     0.000 C 
BRANCH  13  14
ATOM     14  C   UNL     1      45.749 -13.651 -39.392  1.00  0.00     0.000 C 
BRANCH  14  15
ATOM     15  C   UNL     1      45.063 -12.456 -40.073  1.00  0.00     0.000 C 
BRANCH  15  16
ATOM     16  C   UNL     1      45.378 -11.120 -39.379  1.00  0.00     0.000 C 
BRANCH  16  17
ATOM     17  C   UNL     1      44.260 -10.082 -39.567  1.00  0.00     0.000 C 
BRANCH  17  18
ATOM     18  C   UNL     1      43.227 -10.515 -40.623  1.00  0.00     0.000 C 
BRANCH  18  19
ATOM     19  C   UNL     1      41.796 -10.569 -40.064  1.00  0.00     0.000 C 
BRANCH  19  20
ATOM     20  C   UNL     1      40.765  -9.943 -41.021  1.00  0.00     0.006 C 
BRANCH  20  21
ATOM     21  C   UNL     1      41.429  -9.281 -42.235  1.00  0.00     0.053 C 
BRANCH  21  22
ATOM     22  C   UNL     1      40.859  -9.787 -43.525  1.00  0.00     0.041 C 
ATOM     23  O   UNL     1      40.126 -10.810 -43.536  1.00  0.00    -0.550 OA
ATOM     24  O   UNL     1      41.162  -9.143 -44.718  1.00  0.00    -0.550 OA
ENDBRANCH  21  22
ENDBRANCH  20  21
ENDBRANCH  19  20
ENDBRANCH  18  19
ENDBRANCH  17  18
ENDBRANCH  16  17
ENDBRANCH  15  16
ENDBRANCH  14  15
ENDBRANCH  13  14
ENDBRANCH   1  13
TORSDOF 20
ENDMDL
MODEL 4
REMARK VINA RESULT:    -4.985      3.280      7.972
REMARK INTER + INTRA:         -14.365
REMARK INTER:                 -11.717
REMARK INTRA:                  -2.648
REMARK UNBOUND:                -3.551
REMARK SMILES CCCCCCCCCCCCCCCCCCCCCC(=O)[O-]
REMARK SMILES IDX 12 1 11 2 10 3 9 4 8 5 7 6 6 7 5 8 4 9 3 10 2 11 1 12 13 13
REMARK SMILES IDX 14 14 15 15 16 16 17 17 18 18 19 19 20 20 21 21 22 22 23 23
REMARK SMILES IDX 24 24
REMARK H PARENT
REMARK Flexibility Score: inf
ROOT
ATOM      1  C   UNL     1      44.705 -13.478 -36.380  1.00  0.00     0.000 C 
ENDROOT
BRANCH   1   2
ATOM      2  C   UNL     1      45.743 -13.719 -37.487  1.00  0.00     0.000 C 
BRANCH   2   3
ATOM      3  C   UNL     1      47.075 -14.284 -36.943  1.00  0.00     0.000 C 
BRANCH   3   4
ATOM      4  C   UNL     1      48.005 -13.209 -36.350  1.00  0.00    -0.000 C 
BRANCH   4   5
ATOM      5  C   UNL     1      48.760 -13.645 -35.081  1.00  0.00    -0.000 C 
BRANCH   5   6
ATOM      6  C   UNL     1      47.997 -13.346 -33.770  1.00  0.00    -0.000 C 
BRANCH   6   7
ATOM      7  C   UNL     1      48.133 -14.476 -32.736  1.00  0.00    -0.000 C 
BRANCH   7   8
ATOM      8  C   UNL     1      46.776 -15.056 -32.309  1.00  0.00    -0.000 C 
BRANCH   8   9
ATOM      9  C   UNL     1      45.741 -15.045 -33.445  1.00  0.00    -0.000 C 
BRANCH   9  10
ATOM     10  C   UNL     1      44.353 -14.650 -32.918  1.00  0.00    -0.000 C 
BRANCH  10  11
ATOM     11  C   UNL     1      44.302 -13.198 -32.418  1.00  0.00    -0.003 C 
ATOM     12  C   UNL     1      44.086 -13.099 -30.908  1.00  0.00     0.004 C 
ENDBRANCH  10  11
ENDBRANCH   9  10
ENDBRANCH   8   9
ENDBRANCH   7   8
ENDBRANCH   6   7
ENDBRANCH   5   6
ENDBRANCH   4   5
ENDBRANCH   3   4
ENDBRANCH   2   3
ENDBRANCH   1   2
BRANCH   1  13
ATOM     13  C   UNL     1      44.715 -12.014 -35.924  1.00  0.00     0.000 C 
BRANCH  13  14
ATOM     14  C   UNL     1      43.311 -11.565 -35.492  1.00  0.00     0.000 C 
BRANCH  14  15
ATOM     15  C   UNL     1      42.195 -12.368 -36.179  1.00  0.00     0.000 C 
BRANCH  15  16
ATOM     16  C   UNL     1      41.458 -11.553 -37.256  1.00  0.00     0.000 C 
BRANCH  16  17
ATOM     17  C   UNL     1      42.401 -10.631 -38.044  1.00  0.00     0.000 C 
BRANCH  17  18
ATOM     18  C   UNL     1      43.079 -11.352 -39.223  1.00  0.00     0.000 C 
BRANCH  18  19
ATOM     19  C   UNL     1      43.758 -10.379 -40.201  1.00  0.00     0.000 C 
BRANCH  19  20
ATOM     20  C   UNL     1      43.246 -10.538 -41.644  1.00  0.00     0.006 C 
BRANCH  20  21
ATOM     21  C   UNL     1      42.290  -9.408 -42.047  1.00  0.00     0.053 C 
BRANCH  21  22
ATOM     22  C   UNL     1      40.856  -9.813 -41.898  1.00  0.00     0.041 C 
ATOM     23  O   UNL     1      40.236  -9.572 -40.830  1.00  0.00    -0.550 OA
ATOM     24  O   UNL     1      40.212 -10.483 -42.932  1.00  0.00    -0.550 OA
ENDBRANCH  21  22
ENDBRANCH  20  21
ENDBRANCH  19  20
ENDBRANCH  18  19
ENDBRANCH  17  18
ENDBRANCH  16  17
ENDBRANCH  15  16
ENDBRANCH  14  15
ENDBRANCH  13  14
ENDBRANCH   1  13
TORSDOF 20
ENDMDL
MODEL 5
REMARK VINA RESULT:    -4.981      4.127      8.502
REMARK INTER + INTRA:         -14.356
REMARK INTER:                 -11.835
REMARK INTRA:                  -2.521
REMARK UNBOUND:                -3.551
REMARK SMILES CCCCCCCCCCCCCCCCCCCCCC(=O)[O-]
REMARK SMILES IDX 12 1 11 2 10 3 9 4 8 5 7 6 6 7 5 8 4 9 3 10 2 11 1 12 13 13
REMARK SMILES IDX 14 14 15 15 16 16 17 17 18 18 19 19 20 20 21 21 22 22 23 23
REMARK SMILES IDX 24 24
REMARK H PARENT
REMARK Flexibility Score: inf
ROOT
ATOM      1  C   UNL     1      45.603 -13.418 -39.213  1.00  0.00     0.000 C 
ENDROOT
BRANCH   1   2
ATOM      2  C   UNL     1      46.767 -13.135 -38.251  1.00  0.00     0.000 C 
BRANCH   2   3
ATOM      3  C   UNL     1      46.797 -14.106 -37.049  1.00  0.00     0.000 C 
BRANCH   3   4
ATOM      4  C   UNL     1      47.169 -13.429 -35.717  1.00  0.00    -0.000 C 
BRANCH   4   5
ATOM      5  C   UNL     1      46.924 -14.295 -34.468  1.00  0.00    -0.000 C 
BRANCH   5   6
ATOM      6  C   UNL     1      45.538 -14.073 -33.821  1.00  0.00    -0.000 C 
BRANCH   6   7
ATOM      7  C   UNL     1      44.513 -15.142 -34.238  1.00  0.00    -0.000 C 
BRANCH   7   8
ATOM      8  C   UNL     1      43.591 -14.670 -35.373  1.00  0.00    -0.000 C 
BRANCH   8   9
ATOM      9  C   UNL     1      43.074 -13.238 -35.162  1.00  0.00    -0.000 C 
BRANCH   9  10
ATOM     10  C   UNL     1      43.645 -12.287 -36.224  1.00  0.00    -0.000 C 
BRANCH  10  11
ATOM     11  C   UNL     1      42.549 -11.610 -37.063  1.00  0.00    -0.003 C 
ATOM     12  C   UNL     1      42.944 -10.212 -37.537  1.00  0.00     0.004 C 
ENDBRANCH  10  11
ENDBRANCH   9  10
ENDBRANCH   8   9
ENDBRANCH   7   8
ENDBRANCH   6   7
ENDBRANCH   5   6
ENDBRANCH   4   5
ENDBRANCH   3   4
ENDBRANCH   2   3
ENDBRANCH   1   2
BRANCH   1  13
ATOM     13  C   UNL     1      45.134 -12.133 -39.905  1.00  0.00     0.000 C 
BRANCH  13  14
ATOM     14  C   UNL     1      44.005 -12.430 -40.905  1.00  0.00     0.000 C 
BRANCH  14  15
ATOM     15  C   UNL     1      43.800 -11.294 -41.919  1.00  0.00     0.000 C 
BRANCH  15  16
ATOM     16  C   UNL     1      43.078 -10.080 -41.309  1.00  0.00     0.000 C 
BRANCH  16  17
ATOM     17  C   UNL     1      41.678 -10.433 -40.782  1.00  0.00     0.000 C 
BRANCH  17  18
ATOM     18  C   UNL     1      40.583  -9.522 -41.366  1.00  0.00     0.000 C 
BRANCH  18  19
ATOM     19  C   UNL     1      41.043  -8.775 -42.628  1.00  0.00     0.000 C 
BRANCH  19  20
ATOM     20  C   UNL     1      40.432  -9.356 -43.915  1.00  0.00     0.006 C 
BRANCH  20  21
ATOM     21  C   UNL     1      40.032 -10.828 -43.752  1.00  0.00     0.053 C 
BRANCH  21  22
ATOM     22  C   UNL     1      40.763 -11.712 -44.714  1.00  0.00     0.041 C 
ATOM     23  O   UNL     1      42.011 -11.613 -44.844  1.00  0.00    -0.550 OA
ATOM     24  O   UNL     1      40.061 -12.627 -45.490  1.00  0.00    -0.550 OA
ENDBRANCH  21  22
ENDBRANCH  20  21
ENDBRANCH  19  20
ENDBRANCH  18  19
ENDBRANCH  17  18
ENDBRANCH  16  17
ENDBRANCH  15  16
ENDBRANCH  14  15
ENDBRANCH  13  14
ENDBRANCH   1  13
TORSDOF 20
ENDMDL
MODEL 6
REMARK VINA RESULT:    -4.973      2.737      4.098
REMARK INTER + INTRA:         -14.338
REMARK INTER:                 -12.007
REMARK INTRA:                  -2.331
REMARK UNBOUND:                -3.551
REMARK SMILES CCCCCCCCCCCCCCCCCCCCCC(=O)[O-]
REMARK SMILES IDX 12 1 11 2 10 3 9 4 8 5 7 6 6 7 5 8 4 9 3 10 2 11 1 12 13 13
REMARK SMILES IDX 14 14 15 15 16 16 17 17 18 18 19 19 20 20 21 21 22 22 23 23
REMARK SMILES IDX 24 24
REMARK H PARENT
REMARK Flexibility Score: inf
ROOT
ATOM      1  C   UNL     1      45.998 -14.388 -37.603  1.00  0.00     0.000 C 
ENDROOT
BRANCH   1   2
ATOM      2  C   UNL     1      45.752 -13.906 -39.040  1.00  0.00     0.000 C 
BRANCH   2   3
ATOM      3  C   UNL     1      46.016 -12.394 -39.216  1.00  0.00     0.000 C 
BRANCH   3   4
ATOM      4  C   UNL     1      44.758 -11.586 -39.586  1.00  0.00    -0.000 C 
BRANCH   4   5
ATOM      5  C   UNL     1      44.220 -11.851 -41.004  1.00  0.00    -0.000 C 
BRANCH   5   6
ATOM      6  C   UNL     1      43.435 -10.662 -41.603  1.00  0.00    -0.000 C 
BRANCH   6   7
ATOM      7  C   UNL     1      42.057 -10.473 -40.946  1.00  0.00    -0.000 C 
BRANCH   7   8
ATOM      8  C   UNL     1      41.092  -9.654 -41.817  1.00  0.00    -0.000 C 
BRANCH   8   9
ATOM      9  C   UNL     1      40.367 -10.510 -42.867  1.00  0.00    -0.000 C 
BRANCH   9  10
ATOM     10  C   UNL     1      41.080 -10.431 -44.226  1.00  0.00    -0.000 C 
BRANCH  10  11
ATOM     11  C   UNL     1      41.429 -11.816 -44.793  1.00  0.00    -0.003 C 
ATOM     12  C   UNL     1      42.929 -12.005 -45.011  1.00  0.00     0.004 C 
ENDBRANCH  10  11
ENDBRANCH   9  10
ENDBRANCH   8   9
ENDBRANCH   7   8
ENDBRANCH   6   7
ENDBRANCH   5   6
ENDBRANCH   4   5
ENDBRANCH   3   4
ENDBRANCH   2   3
ENDBRANCH   1   2
BRANCH   1  13
ATOM     13  C   UNL     1      47.079 -13.545 -36.915  1.00  0.00     0.000 C 
BRANCH  13  14
ATOM     14  C   UNL     1      47.562 -14.221 -35.623  1.00  0.00     0.000 C 
BRANCH  14  15
ATOM     15  C   UNL     1      47.392 -13.325 -34.386  1.00  0.00     0.000 C 
BRANCH  15  16
ATOM     16  C   UNL     1      47.768 -14.045 -33.079  1.00  0.00     0.000 C 
BRANCH  16  17
ATOM     17  C   UNL     1      46.690 -15.042 -32.627  1.00  0.00     0.000 C 
BRANCH  17  18
ATOM     18  C   UNL     1      45.264 -14.499 -32.830  1.00  0.00     0.000 C 
BRANCH  18  19
ATOM     19  C   UNL     1      44.401 -15.414 -33.714  1.00  0.00     0.000 C 
BRANCH  19  20
ATOM     20  C   UNL     1      43.710 -14.651 -34.857  1.00  0.00     0.006 C 
BRANCH  20  21
ATOM     21  C   UNL     1      43.436 -13.186 -34.492  1.00  0.00     0.053 C 
BRANCH  21  22
ATOM     22  C   UNL     1      43.647 -12.273 -35.660  1.00  0.00     0.041 C 
ATOM     23  O   UNL     1      44.574 -11.421 -35.638  1.00  0.00    -0.550 OA
ATOM     24  O   UNL     1      42.802 -12.344 -36.760  1.00  0.00    -0.550 OA
ENDBRANCH  21  22
ENDBRANCH  20  21
ENDBRANCH  19  20
ENDBRANCH  18  19
ENDBRANCH  17  18
ENDBRANCH  16  17
ENDBRANCH  15  16
ENDBRANCH  14  15
ENDBRANCH  13  14
ENDBRANCH   1  13
TORSDOF 20
ENDMDL
MODEL 7
REMARK VINA RESULT:    -4.967      3.735      8.484
REMARK INTER + INTRA:         -14.325
REMARK INTER:                 -11.330
REMARK INTRA:                  -2.995
REMARK UNBOUND:                -3.551
REMARK SMILES CCCCCCCCCCCCCCCCCCCCCC(=O)[O-]
REMARK SMILES IDX 12 1 11 2 10 3 9 4 8 5 7 6 6 7 5 8 4 9 3 10 2 11 1 12 13 13
REMARK SMILES IDX 14 14 15 15 16 16 17 17 18 18 19 19 20 20 21 21 22 22 23 23
REMARK SMILES IDX 24 24
REMARK H PARENT
REMARK Flexibility Score: inf
ROOT
ATOM      1  C   UNL     1      41.495 -12.012 -36.736  1.00  0.00     0.000 C 
ENDROOT
BRANCH   1   2
ATOM      2  C   UNL     1      42.710 -12.089 -35.799  1.00  0.00     0.000 C 
BRANCH   2   3
ATOM      3  C   UNL     1      43.569 -13.351 -36.039  1.00  0.00     0.000 C 
BRANCH   3   4
ATOM      4  C   UNL     1      45.070 -13.052 -36.215  1.00  0.00    -0.000 C 
BRANCH   4   5
ATOM      5  C   UNL     1      45.922 -14.268 -36.622  1.00  0.00    -0.000 C 
BRANCH   5   6
ATOM      6  C   UNL     1      47.313 -14.305 -35.950  1.00  0.00    -0.000 C 
BRANCH   6   7
ATOM      7  C   UNL     1      47.419 -13.337 -34.759  1.00  0.00    -0.000 C 
BRANCH   7   8
ATOM      8  C   UNL     1      47.983 -14.009 -33.497  1.00  0.00    -0.000 C 
BRANCH   8   9
ATOM      9  C   UNL     1      46.884 -14.537 -32.563  1.00  0.00    -0.000 C 
BRANCH   9  10
ATOM     10  C   UNL     1      45.658 -13.611 -32.579  1.00  0.00    -0.000 C 
BRANCH  10  11
ATOM     11  C   UNL     1      44.331 -14.386 -32.596  1.00  0.00    -0.003 C 
ATOM     12  C   UNL     1      44.447 -15.743 -33.289  1.00  0.00     0.004 C 
ENDBRANCH  10  11
ENDBRANCH   9  10
ENDBRANCH   8   9
ENDBRANCH   7   8
ENDBRANCH   6   7
ENDBRANCH   5   6
ENDBRANCH   4   5
ENDBRANCH   3   4
ENDBRANCH   2   3
ENDBRANCH   1   2
BRANCH   1  13
ATOM     13  C   UNL     1      41.771 -11.081 -37.923  1.00  0.00     0.000 C 
BRANCH  13  14
ATOM     14  C   UNL     1      42.969 -10.163 -37.632  1.00  0.00     0.000 C 
BRANCH  14  15
ATOM     15  C   UNL     1      44.093 -10.312 -38.669  1.00  0.00     0.000 C 
BRANCH  15  16
ATOM     16  C   UNL     1      44.037 -11.658 -39.413  1.00  0.00     0.000 C 
BRANCH  16  17
ATOM     17  C   UNL     1      43.675 -11.494 -40.898  1.00  0.00     0.000 C 
BRANCH  17  18
ATOM     18  C   UNL     1      43.791 -10.034 -41.374  1.00  0.00     0.000 C 
BRANCH  18  19
ATOM     19  C   UNL     1      42.478  -9.499 -41.967  1.00  0.00     0.000 C 
BRANCH  19  20
ATOM     20  C   UNL     1      41.309 -10.485 -41.801  1.00  0.00     0.006 C 
BRANCH  20  21
ATOM     21  C   UNL     1      40.155 -10.183 -42.766  1.00  0.00     0.053 C 
BRANCH  21  22
ATOM     22  C   UNL     1      40.297 -10.933 -44.055  1.00  0.00     0.041 C 
ATOM     23  O   UNL     1      39.429 -10.810 -44.958  1.00  0.00    -0.550 OA
ATOM     24  O   UNL     1      41.374 -11.791 -44.245  1.00  0.00    -0.550 OA
ENDBRANCH  21  22
ENDBRANCH  20  21
ENDBRANCH  19  20
ENDBRANCH  18  19
ENDBRANCH  17  18
ENDBRANCH  16  17
ENDBRANCH  15  16
ENDBRANCH  14  15
ENDBRANCH  13  14
ENDBRANCH   1  13
TORSDOF 20
ENDMDL
MODEL 8
REMARK VINA RESULT:    -4.960      3.754      7.703
REMARK INTER + INTRA:         -14.309
REMARK INTER:                 -11.546
REMARK INTRA:                  -2.763
REMARK UNBOUND:                -3.551
REMARK SMILES CCCCCCCCCCCCCCCCCCCCCC(=O)[O-]
REMARK SMILES IDX 12 1 11 2 10 3 9 4 8 5 7 6 6 7 5 8 4 9 3 10 2 11 1 12 13 13
REMARK SMILES IDX 14 14 15 15 16 16 17 17 18 18 19 19 20 20 21 21 22 22 23 23
REMARK SMILES IDX 24 24
REMARK H PARENT
REMARK Flexibility Score: inf
ROOT
ATOM      1  C   UNL     1      42.809 -13.407 -34.457  1.00  0.00     0.000 C 
ENDROOT
BRANCH   1   2
ATOM      2  C   UNL     1      43.624 -14.555 -35.069  1.00  0.00     0.000 C 
BRANCH   2   3
ATOM      3  C   UNL     1      44.206 -15.509 -34.001  1.00  0.00     0.000 C 
BRANCH   3   4
ATOM      4  C   UNL     1      45.040 -14.792 -32.921  1.00  0.00    -0.000 C 
BRANCH   4   5
ATOM      5  C   UNL     1      46.551 -14.740 -33.209  1.00  0.00    -0.000 C 
BRANCH   5   6
ATOM      6  C   UNL     1      47.030 -13.382 -33.770  1.00  0.00    -0.000 C 
BRANCH   6   7
ATOM      7  C   UNL     1      47.996 -13.540 -34.957  1.00  0.00    -0.000 C 
BRANCH   7   8
ATOM      8  C   UNL     1      47.367 -14.297 -36.137  1.00  0.00    -0.000 C 
BRANCH   8   9
ATOM      9  C   UNL     1      46.360 -13.442 -36.922  1.00  0.00    -0.000 C 
BRANCH   9  10
ATOM     10  C   UNL     1      45.876 -14.181 -38.178  1.00  0.00    -0.000 C 
BRANCH  10  11
ATOM     11  C   UNL     1      45.612 -13.232 -39.358  1.00  0.00    -0.003 C 
ATOM     12  C   UNL     1      46.783 -12.289 -39.633  1.00  0.00     0.004 C 
ENDBRANCH  10  11
ENDBRANCH   9  10
ENDBRANCH   8   9
ENDBRANCH   7   8
ENDBRANCH   6   7
ENDBRANCH   5   6
ENDBRANCH   4   5
ENDBRANCH   3   4
ENDBRANCH   2   3
ENDBRANCH   1   2
BRANCH   1  13
ATOM     13  C   UNL     1      41.996 -12.673 -35.530  1.00  0.00     0.000 C 
BRANCH  13  14
ATOM     14  C   UNL     1      42.864 -12.366 -36.760  1.00  0.00     0.000 C 
BRANCH  14  15
ATOM     15  C   UNL     1      43.544 -10.991 -36.676  1.00  0.00     0.000 C 
BRANCH  15  16
ATOM     16  C   UNL     1      43.657 -10.303 -38.048  1.00  0.00     0.000 C 
BRANCH  16  17
ATOM     17  C   UNL     1      42.285  -9.946 -38.641  1.00  0.00     0.000 C 
BRANCH  17  18
ATOM     18  C   UNL     1      41.933 -10.803 -39.870  1.00  0.00     0.000 C 
BRANCH  18  19
ATOM     19  C   UNL     1      43.096 -10.911 -40.870  1.00  0.00     0.000 C 
BRANCH  19  20
ATOM     20  C   UNL     1      42.626 -10.829 -42.333  1.00  0.00     0.006 C 
BRANCH  20  21
ATOM     21  C   UNL     1      41.379  -9.949 -42.492  1.00  0.00     0.053 C 
BRANCH  21  22
ATOM     22  C   UNL     1      40.648 -10.246 -43.765  1.00  0.00     0.041 C 
ATOM     23  O   UNL     1      40.240  -9.306 -44.495  1.00  0.00    -0.550 OA
ATOM     24  O   UNL     1      40.393 -11.563 -44.129  1.00  0.00    -0.550 OA
ENDBRANCH  21  22
ENDBRANCH  20  21
ENDBRANCH  19  20
ENDBRANCH  18  19
ENDBRANCH  17  18
ENDBRANCH  16  17
ENDBRANCH  15  16
ENDBRANCH  14  15
ENDBRANCH  13  14
ENDBRANCH   1  13
TORSDOF 20
ENDMDL
MODEL 9
REMARK VINA RESULT:    -4.957      2.303      5.733
REMARK INTER + INTRA:         -14.304
REMARK INTER:                 -11.724
REMARK INTRA:                  -2.580
REMARK UNBOUND:                -3.551
REMARK SMILES CCCCCCCCCCCCCCCCCCCCCC(=O)[O-]
REMARK SMILES IDX 12 1 11 2 10 3 9 4 8 5 7 6 6 7 5 8 4 9 3 10 2 11 1 12 13 13
REMARK SMILES IDX 14 14 15 15 16 16 17 17 18 18 19 19 20 20 21 21 22 22 23 23
REMARK SMILES IDX 24 24
REMARK H PARENT
REMARK Flexibility Score: inf
ROOT
ATOM      1  C   UNL     1      42.990 -10.534 -41.900  1.00  0.00     0.000 C 
ENDROOT
BRANCH   1   2
ATOM      2  C   UNL     1      41.519 -10.293 -41.528  1.00  0.00     0.000 C 
BRANCH   2   3
ATOM      3  C   UNL     1      41.262  -8.861 -41.009  1.00  0.00     0.000 C 
BRANCH   3   4
ATOM      4  C   UNL     1      41.632  -8.665 -39.526  1.00  0.00    -0.000 C 
BRANCH   4   5
ATOM      5  C   UNL     1      41.583  -9.950 -38.679  1.00  0.00    -0.000 C 
BRANCH   5   6
ATOM      6  C   UNL     1      42.658 -10.003 -37.570  1.00  0.00    -0.000 C 
BRANCH   6   7
ATOM      7  C   UNL     1      42.889 -11.428 -37.039  1.00  0.00    -0.000 C 
BRANCH   7   8
ATOM      8  C   UNL     1      41.581 -12.142 -36.665  1.00  0.00    -0.000 C 
BRANCH   8   9
ATOM      9  C   UNL     1      41.612 -12.737 -35.249  1.00  0.00    -0.000 C 
BRANCH   9  10
ATOM     10  C   UNL     1      43.022 -13.229 -34.891  1.00  0.00    -0.000 C 
BRANCH  10  11
ATOM     11  C   UNL     1      43.509 -12.696 -33.535  1.00  0.00    -0.003 C 
ATOM     12  C   UNL     1      44.198 -13.767 -32.690  1.00  0.00     0.004 C 
ENDBRANCH  10  11
ENDBRANCH   9  10
ENDBRANCH   8   9
ENDBRANCH   7   8
ENDBRANCH   6   7
ENDBRANCH   5   6
ENDBRANCH   4   5
ENDBRANCH   3   4
ENDBRANCH   2   3
ENDBRANCH   1   2
BRANCH   1  13
ATOM     13  C   UNL     1      43.517 -11.825 -41.262  1.00  0.00     0.000 C 
BRANCH  13  14
ATOM     14  C   UNL     1      44.633 -11.520 -40.251  1.00  0.00     0.000 C 
BRANCH  14  15
ATOM     15  C   UNL     1      45.476 -12.759 -39.909  1.00  0.00     0.000 C 
BRANCH  15  16
ATOM     16  C   UNL     1      46.866 -12.394 -39.360  1.00  0.00     0.000 C 
BRANCH  16  17
ATOM     17  C   UNL     1      47.231 -13.199 -38.103  1.00  0.00     0.000 C 
BRANCH  17  18
ATOM     18  C   UNL     1      46.066 -13.288 -37.102  1.00  0.00     0.000 C 
BRANCH  18  19
ATOM     19  C   UNL     1      46.466 -13.977 -35.787  1.00  0.00     0.000 C 
BRANCH  19  20
ATOM     20  C   UNL     1      47.307 -13.066 -34.875  1.00  0.00     0.006 C 
BRANCH  20  21
ATOM     21  C   UNL     1      48.343 -13.856 -34.065  1.00  0.00     0.053 C 
BRANCH  21  22
ATOM     22  C   UNL     1      48.155 -13.671 -32.591  1.00  0.00     0.041 C 
ATOM     23  O   UNL     1      47.934 -12.526 -32.119  1.00  0.00    -0.550 OA
ATOM     24  O   UNL     1      48.252 -14.763 -31.736  1.00  0.00    -0.550 OA
ENDBRANCH  21  22
ENDBRANCH  20  21
ENDBRANCH  19  20
ENDBRANCH  18  19
ENDBRANCH  17  18
ENDBRANCH  16  17
ENDBRANCH  15  16
ENDBRANCH  14  15
ENDBRANCH  13  14
ENDBRANCH   1  13
TORSDOF 20
ENDMDL
