MODEL 1
REMARK VINA RESULT:    -4.970      0.000      0.000
REMARK INTER + INTRA:         -10.111
REMARK INTER:                  -9.038
REMARK INTRA:                  -1.073
REMARK UNBOUND:                -1.073
REMARK SMILES CCCCCCCCCCCCCCCC(=O)[O-]
REMARK SMILES IDX 9 1 10 2 11 3 12 4 13 5 14 6 15 7 16 8 17 9 18 10 8 11 7 12
REMARK SMILES IDX 6 13 5 14 4 15 3 16 2 17 1 18
REMARK H PARENT
REMARK Flexibility Score: inf
ROOT
ATOM      1  C   UNL     1      42.464  55.352  17.847  1.00  0.00     0.000 C 
ENDROOT
BRANCH   1   2
ATOM      2  C   UNL     1      41.162  55.922  17.258  1.00  0.00     0.000 C 
BRANCH   2   3
ATOM      3  C   UNL     1      40.040  56.023  18.314  1.00  0.00     0.000 C 
BRANCH   3   4
ATOM      4  C   UNL     1      38.985  57.094  17.990  1.00  0.00     0.000 C 
BRANCH   4   5
ATOM      5  C   UNL     1      38.003  56.652  16.893  1.00  0.00     0.000 C 
BRANCH   5   6
ATOM      6  C   UNL     1      36.607  57.271  17.064  1.00  0.00     0.006 C 
BRANCH   6   7
ATOM      7  C   UNL     1      35.976  57.684  15.729  1.00  0.00     0.053 C 
BRANCH   7   8
ATOM      8  C   UNL     1      34.733  56.892  15.473  1.00  0.00     0.041 C 
ATOM      9  O   UNL     1      34.196  56.908  14.335  1.00  0.00    -0.550 OA
ATOM     10  O   UNL     1      34.194  56.099  16.478  1.00  0.00    -0.550 OA
ENDBRANCH   7   8
ENDBRANCH   6   7
ENDBRANCH   5   6
ENDBRANCH   4   5
ENDBRANCH   3   4
ENDBRANCH   2   3
ENDBRANCH   1   2
BRANCH   1  11
ATOM     11  C   UNL     1      42.929  54.073  17.131  1.00  0.00     0.000 C 
BRANCH  11  12
ATOM     12  C   UNL     1      42.701  54.127  15.614  1.00  0.00    -0.000 C 
BRANCH  12  13
ATOM     13  C   UNL     1      43.734  53.272  14.872  1.00  0.00    -0.000 C 
BRANCH  13  14
ATOM     14  C   UNL     1      45.112  53.944  14.876  1.00  0.00    -0.000 C 
BRANCH  14  15
ATOM     15  C   UNL     1      45.000  55.434  14.518  1.00  0.00    -0.000 C 
BRANCH  15  16
ATOM     16  C   UNL     1      45.837  56.326  15.459  1.00  0.00    -0.000 C 
BRANCH  16  17
ATOM     17  C   UNL     1      46.229  55.637  16.776  1.00  0.00    -0.003 C 
ATOM     18  C   UNL     1      47.584  56.094  17.311  1.00  0.00     0.004 C 
ENDBRANCH  16  17
ENDBRANCH  15  16
ENDBRANCH  14  15
ENDBRANCH  13  14
ENDBRANCH  12  13
ENDBRANCH  11  12
ENDBRANCH   1  11
TORSDOF 14
ENDMDL
MODEL 2
REMARK VINA RESULT:    -4.929      3.963      9.596
REMARK INTER + INTRA:         -10.035
REMARK INTER:                  -9.167
REMARK INTRA:                  -0.868
REMARK UNBOUND:                -1.073
REMARK SMILES CCCCCCCCCCCCCCCC(=O)[O-]
REMARK SMILES IDX 9 1 10 2 11 3 12 4 13 5 14 6 15 7 16 8 17 9 18 10 8 11 7 12
REMARK SMILES IDX 6 13 5 14 4 15 3 16 2 17 1 18
REMARK H PARENT
REMARK Flexibility Score: inf
ROOT
ATOM      1  C   UNL     1      36.357  57.154  16.867  1.00  0.00     0.000 C 
ENDROOT
BRANCH   1   2
ATOM      2  C   UNL     1      37.823  56.690  16.808  1.00  0.00     0.000 C 
BRANCH   2   3
ATOM      3  C   UNL     1      38.656  57.241  17.985  1.00  0.00     0.000 C 
BRANCH   3   4
ATOM      4  C   UNL     1      39.843  56.343  18.372  1.00  0.00     0.000 C 
BRANCH   4   5
ATOM      5  C   UNL     1      40.736  55.985  17.173  1.00  0.00     0.000 C 
BRANCH   5   6
ATOM      6  C   UNL     1      42.161  55.593  17.594  1.00  0.00     0.006 C 
BRANCH   6   7
ATOM      7  C   UNL     1      42.773  54.521  16.684  1.00  0.00     0.053 C 
BRANCH   7   8
ATOM      8  C   UNL     1      44.092  54.981  16.149  1.00  0.00     0.041 C 
ATOM      9  O   UNL     1      44.821  55.745  16.833  1.00  0.00    -0.550 OA
ATOM     10  O   UNL     1      44.538  54.526  14.914  1.00  0.00    -0.550 OA
ENDBRANCH   7   8
ENDBRANCH   6   7
ENDBRANCH   5   6
ENDBRANCH   4   5
ENDBRANCH   3   4
ENDBRANCH   2   3
ENDBRANCH   1   2
BRANCH   1  11
ATOM     11  C   UNL     1      36.016  58.184  15.778  1.00  0.00     0.000 C 
BRANCH  11  12
ATOM     12  C   UNL     1      35.791  57.540  14.402  1.00  0.00    -0.000 C 
BRANCH  12  13
ATOM     13  C   UNL     1      34.317  57.170  14.203  1.00  0.00    -0.000 C 
BRANCH  13  14
ATOM     14  C   UNL     1      34.107  55.656  14.324  1.00  0.00    -0.000 C 
BRANCH  14  15
ATOM     15  C   UNL     1      32.904  55.335  15.224  1.00  0.00    -0.000 C 
BRANCH  15  16
ATOM     16  C   UNL     1      32.868  56.219  16.489  1.00  0.00    -0.000 C 
BRANCH  16  17
ATOM     17  C   UNL     1      31.460  56.718  16.853  1.00  0.00    -0.003 C 
ATOM     18  C   UNL     1      30.727  55.792  17.821  1.00  0.00     0.004 C 
ENDBRANCH  16  17
ENDBRANCH  15  16
ENDBRANCH  14  15
ENDBRANCH  13  14
ENDBRANCH  12  13
ENDBRANCH  11  12
ENDBRANCH   1  11
TORSDOF 14
ENDMDL
MODEL 3
REMARK VINA RESULT:    -4.897      4.564      9.904
REMARK INTER + INTRA:          -9.977
REMARK INTER:                  -9.474
REMARK INTRA:                  -0.503
REMARK UNBOUND:                -1.073
REMARK SMILES CCCCCCCCCCCCCCCC(=O)[O-]
REMARK SMILES IDX 9 1 10 2 11 3 12 4 13 5 14 6 15 7 16 8 17 9 18 10 8 11 7 12
REMARK SMILES IDX 6 13 5 14 4 15 3 16 2 17 1 18
REMARK H PARENT
REMARK Flexibility Score: inf
ROOT
ATOM      1  C   UNL     1      38.915  57.110  17.986  1.00  0.00     0.000 C 
ENDROOT
BRANCH   1   2
ATOM      2  C   UNL     1      39.982  56.055  18.327  1.00  0.00     0.000 C 
BRANCH   2   3
ATOM      3  C   UNL     1      41.084  55.970  17.248  1.00  0.00     0.000 C 
BRANCH   3   4
ATOM      4  C   UNL     1      42.352  55.239  17.720  1.00  0.00     0.000 C 
BRANCH   4   5
ATOM      5  C   UNL     1      42.813  54.150  16.738  1.00  0.00     0.000 C 
BRANCH   5   6
ATOM      6  C   UNL     1      44.119  54.519  16.018  1.00  0.00     0.006 C 
BRANCH   6   7
ATOM      7  C   UNL     1      44.909  55.610  16.749  1.00  0.00     0.053 C 
BRANCH   7   8
ATOM      8  C   UNL     1      46.325  55.643  16.266  1.00  0.00     0.041 C 
ATOM      9  O   UNL     1      47.269  55.804  17.083  1.00  0.00    -0.550 OA
ATOM     10  O   UNL     1      46.605  55.446  14.920  1.00  0.00    -0.550 OA
ENDBRANCH   7   8
ENDBRANCH   6   7
ENDBRANCH   5   6
ENDBRANCH   4   5
ENDBRANCH   3   4
ENDBRANCH   2   3
ENDBRANCH   1   2
BRANCH   1  11
ATOM     11  C   UNL     1      37.931  56.630  16.906  1.00  0.00     0.000 C 
BRANCH  11  12
ATOM     12  C   UNL     1      36.579  57.355  16.973  1.00  0.00    -0.000 C 
BRANCH  12  13
ATOM     13  C   UNL     1      36.101  57.756  15.573  1.00  0.00    -0.000 C 
BRANCH  13  14
ATOM     14  C   UNL     1      34.790  57.046  15.214  1.00  0.00    -0.000 C 
BRANCH  14  15
ATOM     15  C   UNL     1      34.032  56.613  16.477  1.00  0.00    -0.000 C 
BRANCH  15  16
ATOM     16  C   UNL     1      32.658  55.989  16.151  1.00  0.00    -0.000 C 
BRANCH  16  17
ATOM     17  C   UNL     1      31.483  56.673  16.868  1.00  0.00    -0.003 C 
ATOM     18  C   UNL     1      30.786  55.764  17.877  1.00  0.00     0.004 C 
ENDBRANCH  16  17
ENDBRANCH  15  16
ENDBRANCH  14  15
ENDBRANCH  13  14
ENDBRANCH  12  13
ENDBRANCH  11  12
ENDBRANCH   1  11
TORSDOF 14
ENDMDL
MODEL 4
REMARK VINA RESULT:    -4.885      4.786      9.373
REMARK INTER + INTRA:          -9.956
REMARK INTER:                  -9.202
REMARK INTRA:                  -0.753
REMARK UNBOUND:                -1.073
REMARK SMILES CCCCCCCCCCCCCCCC(=O)[O-]
REMARK SMILES IDX 9 1 10 2 11 3 12 4 13 5 14 6 15 7 16 8 17 9 18 10 8 11 7 12
REMARK SMILES IDX 6 13 5 14 4 15 3 16 2 17 1 18
REMARK H PARENT
REMARK Flexibility Score: inf
ROOT
ATOM      1  C   UNL     1      42.315  55.723  17.683  1.00  0.00     0.000 C 
ENDROOT
BRANCH   1   2
ATOM      2  C   UNL     1      42.876  54.351  17.269  1.00  0.00     0.000 C 
BRANCH   2   3
ATOM      3  C   UNL     1      42.892  54.167  15.736  1.00  0.00     0.000 C 
BRANCH   3   4
ATOM      4  C   UNL     1      44.244  53.679  15.190  1.00  0.00     0.000 C 
BRANCH   4   5
ATOM      5  C   UNL     1      45.159  54.831  14.745  1.00  0.00     0.000 C 
BRANCH   5   6
ATOM      6  C   UNL     1      46.437  54.932  15.593  1.00  0.00     0.006 C 
BRANCH   6   7
ATOM      7  C   UNL     1      46.359  56.044  16.647  1.00  0.00     0.053 C 
BRANCH   7   8
ATOM      8  C   UNL     1      47.663  56.171  17.368  1.00  0.00     0.041 C 
ATOM      9  O   UNL     1      48.142  55.186  17.990  1.00  0.00    -0.550 OA
ATOM     10  O   UNL     1      48.375  57.363  17.314  1.00  0.00    -0.550 OA
ENDBRANCH   7   8
ENDBRANCH   6   7
ENDBRANCH   5   6
ENDBRANCH   4   5
ENDBRANCH   3   4
ENDBRANCH   2   3
ENDBRANCH   1   2
BRANCH   1  11
ATOM     11  C   UNL     1      40.871  55.942  17.205  1.00  0.00     0.000 C 
BRANCH  11  12
ATOM     12  C   UNL     1      39.890  56.172  18.364  1.00  0.00    -0.000 C 
BRANCH  12  13
ATOM     13  C   UNL     1      38.817  57.196  17.981  1.00  0.00    -0.000 C 
BRANCH  13  14
ATOM     14  C   UNL     1      37.927  56.666  16.850  1.00  0.00    -0.000 C 
BRANCH  14  15
ATOM     15  C   UNL     1      36.473  57.125  17.030  1.00  0.00    -0.000 C 
BRANCH  15  16
ATOM     16  C   UNL     1      35.909  57.793  15.758  1.00  0.00    -0.000 C 
BRANCH  16  17
ATOM     17  C   UNL     1      34.800  56.978  15.072  1.00  0.00    -0.003 C 
ATOM     18  C   UNL     1      33.770  56.424  16.054  1.00  0.00     0.004 C 
ENDBRANCH  16  17
ENDBRANCH  15  16
ENDBRANCH  14  15
ENDBRANCH  13  14
ENDBRANCH  12  13
ENDBRANCH  11  12
ENDBRANCH   1  11
TORSDOF 14
ENDMDL
MODEL 5
REMARK VINA RESULT:    -4.857      4.741      9.793
REMARK INTER + INTRA:          -9.906
REMARK INTER:                  -9.381
REMARK INTRA:                  -0.525
REMARK UNBOUND:                -1.073
REMARK SMILES CCCCCCCCCCCCCCCC(=O)[O-]
REMARK SMILES IDX 9 1 10 2 11 3 12 4 13 5 14 6 15 7 16 8 17 9 18 10 8 11 7 12
REMARK SMILES IDX 6 13 5 14 4 15 3 16 2 17 1 18
REMARK H PARENT
REMARK Flexibility Score: inf
ROOT
ATOM      1  C   UNL     1      40.073  56.282  18.430  1.00  0.00     0.000 C 
ENDROOT
BRANCH   1   2
ATOM      2  C   UNL     1      40.961  55.934  17.222  1.00  0.00     0.000 C 
BRANCH   2   3
ATOM      3  C   UNL     1      42.412  55.612  17.640  1.00  0.00     0.000 C 
BRANCH   3   4
ATOM      4  C   UNL     1      43.004  54.391  16.915  1.00  0.00     0.000 C 
BRANCH   4   5
ATOM      5  C   UNL     1      44.219  54.747  16.042  1.00  0.00     0.000 C 
BRANCH   5   6
ATOM      6  C   UNL     1      45.087  55.855  16.660  1.00  0.00     0.006 C 
BRANCH   6   7
ATOM      7  C   UNL     1      46.536  55.817  16.160  1.00  0.00     0.053 C 
BRANCH   7   8
ATOM      8  C   UNL     1      47.472  56.254  17.242  1.00  0.00     0.041 C 
ATOM      9  O   UNL     1      48.041  55.399  17.971  1.00  0.00    -0.550 OA
ATOM     10  O   UNL     1      47.755  57.603  17.415  1.00  0.00    -0.550 OA
ENDBRANCH   7   8
ENDBRANCH   6   7
ENDBRANCH   5   6
ENDBRANCH   4   5
ENDBRANCH   3   4
ENDBRANCH   2   3
ENDBRANCH   1   2
BRANCH   1  11
ATOM     11  C   UNL     1      38.852  57.131  18.042  1.00  0.00     0.000 C 
BRANCH  11  12
ATOM     12  C   UNL     1      38.052  56.524  16.880  1.00  0.00    -0.000 C 
BRANCH  12  13
ATOM     13  C   UNL     1      36.666  57.170  16.770  1.00  0.00    -0.000 C 
BRANCH  13  14
ATOM     14  C   UNL     1      36.340  57.530  15.316  1.00  0.00    -0.000 C 
BRANCH  14  15
ATOM     15  C   UNL     1      34.870  57.227  14.989  1.00  0.00    -0.000 C 
BRANCH  15  16
ATOM     16  C   UNL     1      34.130  56.569  16.174  1.00  0.00    -0.000 C 
BRANCH  16  17
ATOM     17  C   UNL     1      32.697  56.127  15.838  1.00  0.00    -0.003 C 
ATOM     18  C   UNL     1      31.672  56.572  16.879  1.00  0.00     0.004 C 
ENDBRANCH  16  17
ENDBRANCH  15  16
ENDBRANCH  14  15
ENDBRANCH  13  14
ENDBRANCH  12  13
ENDBRANCH  11  12
ENDBRANCH   1  11
TORSDOF 14
ENDMDL
MODEL 6
REMARK VINA RESULT:    -4.857      1.992      3.679
REMARK INTER + INTRA:          -9.905
REMARK INTER:                  -9.290
REMARK INTRA:                  -0.615
REMARK UNBOUND:                -1.073
REMARK SMILES CCCCCCCCCCCCCCCC(=O)[O-]
REMARK SMILES IDX 9 1 10 2 11 3 12 4 13 5 14 6 15 7 16 8 17 9 18 10 8 11 7 12
REMARK SMILES IDX 6 13 5 14 4 15 3 16 2 17 1 18
REMARK H PARENT
REMARK Flexibility Score: inf
ROOT
ATOM      1  C   UNL     1      38.945  57.073  17.998  1.00  0.00     0.000 C 
ENDROOT
BRANCH   1   2
ATOM      2  C   UNL     1      37.909  56.648  16.943  1.00  0.00     0.000 C 
BRANCH   2   3
ATOM      3  C   UNL     1      36.541  57.330  17.163  1.00  0.00     0.000 C 
BRANCH   3   4
ATOM      4  C   UNL     1      35.870  57.796  15.860  1.00  0.00     0.000 C 
BRANCH   4   5
ATOM      5  C   UNL     1      34.945  56.730  15.251  1.00  0.00     0.000 C 
BRANCH   5   6
ATOM      6  C   UNL     1      34.003  56.101  16.290  1.00  0.00     0.006 C 
BRANCH   6   7
ATOM      7  C   UNL     1      32.542  56.078  15.824  1.00  0.00     0.053 C 
BRANCH   7   8
ATOM      8  C   UNL     1      31.620  56.254  16.989  1.00  0.00     0.041 C 
ATOM      9  O   UNL     1      30.878  57.268  17.062  1.00  0.00    -0.550 OA
ATOM     10  O   UNL     1      31.544  55.273  17.970  1.00  0.00    -0.550 OA
ENDBRANCH   7   8
ENDBRANCH   6   7
ENDBRANCH   5   6
ENDBRANCH   4   5
ENDBRANCH   3   4
ENDBRANCH   2   3
ENDBRANCH   1   2
BRANCH   1  11
ATOM     11  C   UNL     1      39.995  55.984  18.271  1.00  0.00     0.000 C 
BRANCH  11  12
ATOM     12  C   UNL     1      41.107  55.954  17.212  1.00  0.00    -0.000 C 
BRANCH  12  13
ATOM     13  C   UNL     1      42.474  55.701  17.858  1.00  0.00    -0.000 C 
BRANCH  13  14
ATOM     14  C   UNL     1      43.411  54.962  16.895  1.00  0.00    -0.000 C 
BRANCH  14  15
ATOM     15  C   UNL     1      42.812  53.613  16.468  1.00  0.00    -0.000 C 
BRANCH  15  16
ATOM     16  C   UNL     1      43.049  53.314  14.973  1.00  0.00    -0.000 C 
BRANCH  16  17
ATOM     17  C   UNL     1      44.419  53.788  14.459  1.00  0.00    -0.003 C 
ATOM     18  C   UNL     1      45.497  52.711  14.547  1.00  0.00     0.004 C 
ENDBRANCH  16  17
ENDBRANCH  15  16
ENDBRANCH  14  15
ENDBRANCH  13  14
ENDBRANCH  12  13
ENDBRANCH  11  12
ENDBRANCH   1  11
TORSDOF 14
ENDMDL
MODEL 7
REMARK VINA RESULT:    -4.856      1.178      2.285
REMARK INTER + INTRA:          -9.903
REMARK INTER:                  -9.409
REMARK INTRA:                  -0.494
REMARK UNBOUND:                -1.073
REMARK SMILES CCCCCCCCCCCCCCCC(=O)[O-]
REMARK SMILES IDX 9 1 10 2 11 3 12 4 13 5 14 6 15 7 16 8 17 9 18 10 8 11 7 12
REMARK SMILES IDX 6 13 5 14 4 15 3 16 2 17 1 18
REMARK H PARENT
REMARK Flexibility Score: inf
ROOT
ATOM      1  C   UNL     1      40.014  55.961  18.288  1.00  0.00     0.000 C 
ENDROOT
BRANCH   1   2
ATOM      2  C   UNL     1      38.980  57.056  17.974  1.00  0.00     0.000 C 
BRANCH   2   3
ATOM      3  C   UNL     1      37.982  56.617  16.880  1.00  0.00     0.000 C 
BRANCH   3   4
ATOM      4  C   UNL     1      36.652  57.389  16.915  1.00  0.00     0.000 C 
BRANCH   4   5
ATOM      5  C   UNL     1      36.143  57.765  15.514  1.00  0.00     0.000 C 
BRANCH   5   6
ATOM      6  C   UNL     1      34.843  57.035  15.143  1.00  0.00     0.006 C 
BRANCH   6   7
ATOM      7  C   UNL     1      34.049  56.579  16.373  1.00  0.00     0.053 C 
BRANCH   7   8
ATOM      8  C   UNL     1      32.642  56.244  15.992  1.00  0.00     0.041 C 
ATOM      9  O   UNL     1      32.407  55.617  14.926  1.00  0.00    -0.550 OA
ATOM     10  O   UNL     1      31.593  56.581  16.838  1.00  0.00    -0.550 OA
ENDBRANCH   7   8
ENDBRANCH   6   7
ENDBRANCH   5   6
ENDBRANCH   4   5
ENDBRANCH   3   4
ENDBRANCH   2   3
ENDBRANCH   1   2
BRANCH   1  11
ATOM     11  C   UNL     1      41.157  55.911  17.261  1.00  0.00     0.000 C 
BRANCH  11  12
ATOM     12  C   UNL     1      42.416  55.222  17.808  1.00  0.00    -0.000 C 
BRANCH  12  13
ATOM     13  C   UNL     1      42.939  54.172  16.821  1.00  0.00    -0.000 C 
BRANCH  13  14
ATOM     14  C   UNL     1      44.090  54.733  15.978  1.00  0.00    -0.000 C 
BRANCH  14  15
ATOM     15  C   UNL     1      45.023  55.607  16.830  1.00  0.00    -0.000 C 
BRANCH  15  16
ATOM     16  C   UNL     1      46.469  55.618  16.290  1.00  0.00    -0.000 C 
BRANCH  16  17
ATOM     17  C   UNL     1      47.536  55.776  17.386  1.00  0.00    -0.003 C 
ATOM     18  C   UNL     1      48.096  57.193  17.477  1.00  0.00     0.004 C 
ENDBRANCH  16  17
ENDBRANCH  15  16
ENDBRANCH  14  15
ENDBRANCH  13  14
ENDBRANCH  12  13
ENDBRANCH  11  12
ENDBRANCH   1  11
TORSDOF 14
ENDMDL
MODEL 8
REMARK VINA RESULT:    -4.846      1.036      2.558
REMARK INTER + INTRA:          -9.884
REMARK INTER:                  -9.058
REMARK INTRA:                  -0.827
REMARK UNBOUND:                -1.073
REMARK SMILES CCCCCCCCCCCCCCCC(=O)[O-]
REMARK SMILES IDX 9 1 10 2 11 3 12 4 13 5 14 6 15 7 16 8 17 9 18 10 8 11 7 12
REMARK SMILES IDX 6 13 5 14 4 15 3 16 2 17 1 18
REMARK H PARENT
REMARK Flexibility Score: inf
ROOT
ATOM      1  C   UNL     1      40.063  56.064  18.340  1.00  0.00     0.000 C 
ENDROOT
BRANCH   1   2
ATOM      2  C   UNL     1      38.965  57.099  18.039  1.00  0.00     0.000 C 
BRANCH   2   3
ATOM      3  C   UNL     1      38.012  56.627  16.919  1.00  0.00     0.000 C 
BRANCH   3   4
ATOM      4  C   UNL     1      36.592  57.208  17.034  1.00  0.00     0.000 C 
BRANCH   4   5
ATOM      5  C   UNL     1      36.070  57.775  15.705  1.00  0.00     0.000 C 
BRANCH   5   6
ATOM      6  C   UNL     1      34.846  57.010  15.176  1.00  0.00     0.006 C 
BRANCH   6   7
ATOM      7  C   UNL     1      34.083  56.277  16.286  1.00  0.00     0.053 C 
BRANCH   7   8
ATOM      8  C   UNL     1      32.608  56.363  16.049  1.00  0.00     0.041 C 
ATOM      9  O   UNL     1      31.815  56.451  17.023  1.00  0.00    -0.550 OA
ATOM     10  O   UNL     1      32.113  56.395  14.752  1.00  0.00    -0.550 OA
ENDBRANCH   7   8
ENDBRANCH   6   7
ENDBRANCH   5   6
ENDBRANCH   4   5
ENDBRANCH   3   4
ENDBRANCH   2   3
ENDBRANCH   1   2
BRANCH   1  11
ATOM     11  C   UNL     1      41.054  55.896  17.176  1.00  0.00     0.000 C 
BRANCH  11  12
ATOM     12  C   UNL     1      42.446  55.445  17.643  1.00  0.00    -0.000 C 
BRANCH  12  13
ATOM     13  C   UNL     1      42.782  54.050  17.104  1.00  0.00    -0.000 C 
BRANCH  13  14
ATOM     14  C   UNL     1      42.869  54.057  15.574  1.00  0.00    -0.000 C 
BRANCH  14  15
ATOM     15  C   UNL     1      44.085  53.253  15.086  1.00  0.00    -0.000 C 
BRANCH  15  16
ATOM     16  C   UNL     1      45.375  54.099  15.066  1.00  0.00    -0.000 C 
BRANCH  16  17
ATOM     17  C   UNL     1      45.127  55.599  14.834  1.00  0.00    -0.003 C 
ATOM     18  C   UNL     1      45.630  56.473  15.981  1.00  0.00     0.004 C 
ENDBRANCH  16  17
ENDBRANCH  15  16
ENDBRANCH  14  15
ENDBRANCH  13  14
ENDBRANCH  12  13
ENDBRANCH  11  12
ENDBRANCH   1  11
TORSDOF 14
ENDMDL
MODEL 9
REMARK VINA RESULT:    -4.835      1.463      2.112
REMARK INTER + INTRA:          -9.865
REMARK INTER:                  -8.982
REMARK INTRA:                  -0.883
REMARK UNBOUND:                -1.073
REMARK SMILES CCCCCCCCCCCCCCCC(=O)[O-]
REMARK SMILES IDX 9 1 10 2 11 3 12 4 13 5 14 6 15 7 16 8 17 9 18 10 8 11 7 12
REMARK SMILES IDX 6 13 5 14 4 15 3 16 2 17 1 18
REMARK H PARENT
REMARK Flexibility Score: inf
ROOT
ATOM      1  C   UNL     1      42.807  54.023  16.727  1.00  0.00     0.000 C 
ENDROOT
BRANCH   1   2
ATOM      2  C   UNL     1      42.464  55.263  17.571  1.00  0.00     0.000 C 
BRANCH   2   3
ATOM      3  C   UNL     1      41.100  55.873  17.181  1.00  0.00     0.000 C 
BRANCH   3   4
ATOM      4  C   UNL     1      40.156  56.085  18.377  1.00  0.00     0.000 C 
BRANCH   4   5
ATOM      5  C   UNL     1      39.031  57.088  18.079  1.00  0.00     0.000 C 
BRANCH   5   6
ATOM      6  C   UNL     1      38.116  56.628  16.932  1.00  0.00     0.006 C 
BRANCH   6   7
ATOM      7  C   UNL     1      36.672  57.118  17.096  1.00  0.00     0.053 C 
BRANCH   7   8
ATOM      8  C   UNL     1      35.969  57.117  15.775  1.00  0.00     0.041 C 
ATOM      9  O   UNL     1      34.711  57.100  15.728  1.00  0.00    -0.550 OA
ATOM     10  O   UNL     1      36.701  57.186  14.597  1.00  0.00    -0.550 OA
ENDBRANCH   7   8
ENDBRANCH   6   7
ENDBRANCH   5   6
ENDBRANCH   4   5
ENDBRANCH   3   4
ENDBRANCH   2   3
ENDBRANCH   1   2
BRANCH   1  11
ATOM     11  C   UNL     1      43.912  54.296  15.693  1.00  0.00     0.000 C 
BRANCH  11  12
ATOM     12  C   UNL     1      44.319  53.037  14.914  1.00  0.00    -0.000 C 
BRANCH  12  13
ATOM     13  C   UNL     1      45.655  53.246  14.193  1.00  0.00    -0.000 C 
BRANCH  13  14
ATOM     14  C   UNL     1      46.691  52.207  14.639  1.00  0.00    -0.000 C 
BRANCH  14  15
ATOM     15  C   UNL     1      48.063  52.859  14.867  1.00  0.00    -0.000 C 
BRANCH  15  16
ATOM     16  C   UNL     1      47.969  54.395  14.990  1.00  0.00    -0.000 C 
BRANCH  16  17
ATOM     17  C   UNL     1      48.235  54.918  16.411  1.00  0.00    -0.003 C 
ATOM     18  C   UNL     1      47.034  55.637  17.020  1.00  0.00     0.004 C 
ENDBRANCH  16  17
ENDBRANCH  15  16
ENDBRANCH  14  15
ENDBRANCH  13  14
ENDBRANCH  12  13
ENDBRANCH  11  12
ENDBRANCH   1  11
TORSDOF 14
ENDMDL
