MODEL 1
REMARK VINA RESULT:    38.261      0.000      0.000
REMARK INTER + INTRA:          49.644
REMARK INTER:                  50.563
REMARK INTRA:                  -0.919
REMARK UNBOUND:                -0.919
REMARK SMILES CC[C@H](C=C[C@@H](C)[C@@H]1CC[C@@H]2C3=CC[C@@H]4C[C@H](O)CC[C@]4(C)[C@@H]3CC[C@@]21C)C(C)C
REMARK SMILES IDX 6 1 7 2 5 3 4 4 3 5 2 6 1 7 28 8 29 9 30 10 8 11 9 12 26 13
REMARK SMILES IDX 10 14 11 15 25 16 27 17 12 18 24 19 23 20 13 21 21 22 14 23
REMARK SMILES IDX 15 24 20 25 22 26 16 27 19 28 17 29 18 30
REMARK H PARENT 18 31
REMARK Flexibility Score: inf
ROOT
ATOM      1  C   UNL     1       5.106  41.009  51.330  1.00  0.00     0.012 C 
ATOM      2  C   UNL     1       6.479  41.636  51.031  1.00  0.00     0.012 C 
ENDROOT
BRANCH   1   3
ATOM      3  C   UNL     1       5.245  39.500  51.331  1.00  0.00    -0.028 C 
ATOM      4  C   UNL     1       6.449  38.905  51.307  1.00  0.00    -0.027 C 
BRANCH   4   5
ATOM      5  C   UNL     1       6.586  37.398  51.229  1.00  0.00     0.014 C 
BRANCH   5   6
ATOM      6  C   UNL     1       5.380  36.826  50.446  1.00  0.00     0.004 C 
ATOM      7  C   UNL     1       4.527  35.859  51.266  1.00  0.00     0.004 C 
ENDBRANCH   5   6
BRANCH   5   8
ATOM      8  C   UNL     1       7.979  36.957  50.675  1.00  0.00    -0.011 C 
ATOM      9  C   UNL     1       8.932  36.391  51.744  1.00  0.00     0.008 C 
ATOM     10  C   UNL     1       7.829  35.955  49.520  1.00  0.00     0.008 C 
ENDBRANCH   5   8
ENDBRANCH   4   5
ENDBRANCH   1   3
BRANCH   1  11
ATOM     11  C   UNL     1       3.911  41.438  50.406  1.00  0.00     0.002 C 
ATOM     12  C   UNL     1       4.205  41.653  48.913  1.00  0.00     0.005 C 
ATOM     13  C   UNL     1       3.012  42.646  50.802  1.00  0.00    -0.023 C 
ATOM     14  C   UNL     1       2.990  42.421  48.364  1.00  0.00     0.009 C 
ATOM     15  C   UNL     1       2.080  42.698  49.572  1.00  0.00     0.021 C 
ATOM     16  C   UNL     1       3.814  43.986  50.973  1.00  0.00     0.008 C 
ATOM     17  C   UNL     1       2.202  42.336  52.084  1.00  0.00     0.012 C 
ATOM     18  C   UNL     1       1.260  43.972  49.443  1.00  0.00    -0.067 C 
ATOM     19  C   UNL     1       3.247  45.227  50.258  1.00  0.00     0.009 C 
ATOM     20  C   UNL     1       1.708  45.237  50.140  1.00  0.00     0.021 C 
ATOM     21  C   UNL     1       0.062  43.903  48.841  1.00  0.00    -0.027 C 
ATOM     22  C   UNL     1       1.133  46.538  49.455  1.00  0.00    -0.023 C 
ATOM     23  C   UNL     1      -0.922  45.036  48.791  1.00  0.00     0.031 C 
ATOM     24  C   UNL     1      -0.425  46.399  49.349  1.00  0.00     0.002 C 
ATOM     25  C   UNL     1       1.731  46.761  48.034  1.00  0.00     0.010 C 
ATOM     26  C   UNL     1       1.478  47.756  50.363  1.00  0.00     0.012 C 
ATOM     27  C   UNL     1      -1.088  47.571  48.575  1.00  0.00     0.036 C 
ATOM     28  C   UNL     1       1.118  47.969  47.305  1.00  0.00     0.032 C 
ATOM     29  C   UNL     1      -0.421  47.913  47.224  1.00  0.00     0.114 C 
BRANCH  29  30
ATOM     30  O   UNL     1      -0.877  47.067  46.195  1.00  0.00    -0.393 OA
ATOM     31  H   UNL     1      -0.832  46.126  46.505  1.00  0.00     0.210 HD
ENDBRANCH  29  30
ENDBRANCH   1  11
TORSDOF 6
ENDMDL
MODEL 2
REMARK VINA RESULT:    40.284      0.595      1.443
REMARK INTER + INTRA:          52.318
REMARK INTER:                  51.997
REMARK INTRA:                   0.322
REMARK UNBOUND:                -0.919
REMARK SMILES CC[C@H](C=C[C@@H](C)[C@@H]1CC[C@@H]2C3=CC[C@@H]4C[C@H](O)CC[C@]4(C)[C@@H]3CC[C@@]21C)C(C)C
REMARK SMILES IDX 6 1 7 2 5 3 4 4 3 5 2 6 1 7 28 8 29 9 30 10 8 11 9 12 26 13
REMARK SMILES IDX 10 14 11 15 25 16 27 17 12 18 24 19 23 20 13 21 21 22 14 23
REMARK SMILES IDX 15 24 20 25 22 26 16 27 19 28 17 29 18 30
REMARK H PARENT 18 31
REMARK Flexibility Score: inf
ROOT
ATOM      1  C   UNL     1       5.104  40.985  51.018  1.00  0.00     0.012 C 
ATOM      2  C   UNL     1       6.251  42.002  51.160  1.00  0.00     0.012 C 
ENDROOT
BRANCH   1   3
ATOM      3  C   UNL     1       5.660  39.694  50.452  1.00  0.00    -0.028 C 
ATOM      4  C   UNL     1       6.717  39.081  51.008  1.00  0.00    -0.027 C 
BRANCH   4   5
ATOM      5  C   UNL     1       7.321  37.833  50.395  1.00  0.00     0.014 C 
BRANCH   5   6
ATOM      6  C   UNL     1       8.826  37.780  50.749  1.00  0.00     0.004 C 
ATOM      7  C   UNL     1       9.521  36.512  50.256  1.00  0.00     0.004 C 
ENDBRANCH   5   6
BRANCH   5   8
ATOM      8  C   UNL     1       6.526  36.542  50.774  1.00  0.00    -0.011 C 
ATOM      9  C   UNL     1       5.046  36.791  51.119  1.00  0.00     0.008 C 
ATOM     10  C   UNL     1       6.639  35.475  49.674  1.00  0.00     0.008 C 
ENDBRANCH   5   8
ENDBRANCH   4   5
ENDBRANCH   1   3
BRANCH   1  11
ATOM     11  C   UNL     1       3.849  41.438  50.192  1.00  0.00     0.002 C 
ATOM     12  C   UNL     1       4.023  41.633  48.677  1.00  0.00     0.005 C 
ATOM     13  C   UNL     1       3.017  42.673  50.648  1.00  0.00    -0.023 C 
ATOM     14  C   UNL     1       2.788  42.429  48.222  1.00  0.00     0.009 C 
ATOM     15  C   UNL     1       1.988  42.740  49.498  1.00  0.00     0.021 C 
ATOM     16  C   UNL     1       3.864  43.993  50.738  1.00  0.00     0.008 C 
ATOM     17  C   UNL     1       2.308  42.396  51.995  1.00  0.00     0.012 C 
ATOM     18  C   UNL     1       1.194  44.034  49.424  1.00  0.00    -0.067 C 
ATOM     19  C   UNL     1       3.273  45.242  50.059  1.00  0.00     0.009 C 
ATOM     20  C   UNL     1       1.730  45.293  50.068  1.00  0.00     0.021 C 
ATOM     21  C   UNL     1      -0.052  43.992  48.923  1.00  0.00    -0.027 C 
ATOM     22  C   UNL     1       1.134  46.603  49.419  1.00  0.00    -0.023 C 
ATOM     23  C   UNL     1      -1.007  45.151  48.943  1.00  0.00     0.031 C 
ATOM     24  C   UNL     1      -0.430  46.504  49.444  1.00  0.00     0.002 C 
ATOM     25  C   UNL     1       1.618  46.798  47.951  1.00  0.00     0.010 C 
ATOM     26  C   UNL     1       1.584  47.819  50.283  1.00  0.00     0.012 C 
ATOM     27  C   UNL     1      -1.125  47.687  48.715  1.00  0.00     0.036 C 
ATOM     28  C   UNL     1       0.978  48.016  47.263  1.00  0.00     0.032 C 
ATOM     29  C   UNL     1      -0.563  48.000  47.309  1.00  0.00     0.114 C 
BRANCH  29  30
ATOM     30  O   UNL     1      -1.124  47.158  46.330  1.00  0.00    -0.393 OA
ATOM     31  H   UNL     1      -0.423  46.545  45.990  1.00  0.00     0.210 HD
ENDBRANCH  29  30
ENDBRANCH   1  11
TORSDOF 6
ENDMDL
MODEL 3
REMARK VINA RESULT:    41.203      0.688      1.058
REMARK INTER + INTRA:          53.532
REMARK INTER:                  53.600
REMARK INTRA:                  -0.068
REMARK UNBOUND:                -0.919
REMARK SMILES CC[C@H](C=C[C@@H](C)[C@@H]1CC[C@@H]2C3=CC[C@@H]4C[C@H](O)CC[C@]4(C)[C@@H]3CC[C@@]21C)C(C)C
REMARK SMILES IDX 6 1 7 2 5 3 4 4 3 5 2 6 1 7 28 8 29 9 30 10 8 11 9 12 26 13
REMARK SMILES IDX 10 14 11 15 25 16 27 17 12 18 24 19 23 20 13 21 21 22 14 23
REMARK SMILES IDX 15 24 20 25 22 26 16 27 19 28 17 29 18 30
REMARK H PARENT 18 31
REMARK Flexibility Score: inf
ROOT
ATOM      1  C   UNL     1       5.061  40.854  50.848  1.00  0.00     0.012 C 
ATOM      2  C   UNL     1       6.411  41.496  50.483  1.00  0.00     0.012 C 
ENDROOT
BRANCH   1   3
ATOM      3  C   UNL     1       5.195  39.347  50.764  1.00  0.00    -0.028 C 
ATOM      4  C   UNL     1       6.394  38.752  50.668  1.00  0.00    -0.027 C 
BRANCH   4   5
ATOM      5  C   UNL     1       6.523  37.251  50.505  1.00  0.00     0.014 C 
BRANCH   5   6
ATOM      6  C   UNL     1       5.894  36.839  49.152  1.00  0.00     0.004 C 
ATOM      7  C   UNL     1       6.863  36.093  48.235  1.00  0.00     0.004 C 
ENDBRANCH   5   6
BRANCH   5   8
ATOM      8  C   UNL     1       7.991  36.755  50.708  1.00  0.00    -0.011 C 
ATOM      9  C   UNL     1       8.986  37.285  49.659  1.00  0.00     0.008 C 
ATOM     10  C   UNL     1       8.496  37.076  52.123  1.00  0.00     0.008 C 
ENDBRANCH   5   8
ENDBRANCH   4   5
ENDBRANCH   1   3
BRANCH   1  11
ATOM     11  C   UNL     1       3.804  41.329  50.037  1.00  0.00     0.002 C 
ATOM     12  C   UNL     1       3.967  41.530  48.522  1.00  0.00     0.005 C 
ATOM     13  C   UNL     1       2.994  42.573  50.507  1.00  0.00    -0.023 C 
ATOM     14  C   UNL     1       2.739  42.345  48.082  1.00  0.00     0.009 C 
ATOM     15  C   UNL     1       1.955  42.660  49.367  1.00  0.00     0.021 C 
ATOM     16  C   UNL     1       3.860  43.880  50.597  1.00  0.00     0.008 C 
ATOM     17  C   UNL     1       2.293  42.298  51.860  1.00  0.00     0.012 C 
ATOM     18  C   UNL     1       1.178  43.966  49.309  1.00  0.00    -0.067 C 
ATOM     19  C   UNL     1       3.280  45.141  49.931  1.00  0.00     0.009 C 
ATOM     20  C   UNL     1       1.738  45.213  49.954  1.00  0.00     0.021 C 
ATOM     21  C   UNL     1      -0.072  43.943  48.819  1.00  0.00    -0.027 C 
ATOM     22  C   UNL     1       1.154  46.535  49.319  1.00  0.00    -0.023 C 
ATOM     23  C   UNL     1      -1.011  45.115  48.854  1.00  0.00     0.031 C 
ATOM     24  C   UNL     1      -0.410  46.458  49.357  1.00  0.00     0.002 C 
ATOM     25  C   UNL     1       1.628  46.732  47.847  1.00  0.00     0.010 C 
ATOM     26  C   UNL     1       1.629  47.740  50.185  1.00  0.00     0.012 C 
ATOM     27  C   UNL     1      -1.096  47.654  48.641  1.00  0.00     0.036 C 
ATOM     28  C   UNL     1       0.998  47.962  47.172  1.00  0.00     0.032 C 
ATOM     29  C   UNL     1      -0.542  47.967  47.232  1.00  0.00     0.114 C 
BRANCH  29  30
ATOM     30  O   UNL     1      -1.125  47.139  46.254  1.00  0.00    -0.393 OA
ATOM     31  H   UNL     1      -1.589  46.386  46.702  1.00  0.00     0.210 HD
ENDBRANCH  29  30
ENDBRANCH   1  11
TORSDOF 6
ENDMDL
