MODEL 1
REMARK VINA RESULT:    -3.748      0.000      0.000
REMARK INTER + INTRA:          -7.340
REMARK INTER:                  -5.939
REMARK INTRA:                  -1.401
REMARK UNBOUND:                -1.401
REMARK SMILES CCCCCCCCCCCC(=O)[O-]
REMARK SMILES IDX 7 1 8 2 9 3 10 4 11 5 12 6 13 7 14 8 6 9 5 10 4 11 3 12 2 13
REMARK SMILES IDX 1 14
REMARK H PARENT
REMARK Flexibility Score: inf
ROOT
ATOM      1  C   UNL     1       7.147 -16.392  21.722  1.00  0.00     0.000 C 
ENDROOT
BRANCH   1   2
ATOM      2  C   UNL     1       7.302 -17.900  21.990  1.00  0.00     0.000 C 
BRANCH   2   3
ATOM      3  C   UNL     1       8.660 -18.253  22.618  1.00  0.00     0.000 C 
BRANCH   3   4
ATOM      4  C   UNL     1       8.523 -19.194  23.828  1.00  0.00     0.006 C 
BRANCH   4   5
ATOM      5  C   UNL     1       7.075 -19.282  24.330  1.00  0.00     0.053 C 
BRANCH   5   6
ATOM      6  C   UNL     1       6.926 -18.698  25.702  1.00  0.00     0.041 C 
ATOM      7  O   UNL     1       6.597 -19.432  26.672  1.00  0.00    -0.550 OA
ATOM      8  O   UNL     1       7.177 -17.349  25.914  1.00  0.00    -0.550 OA
ENDBRANCH   5   6
ENDBRANCH   4   5
ENDBRANCH   3   4
ENDBRANCH   2   3
ENDBRANCH   1   2
BRANCH   1   9
ATOM      9  C   UNL     1       6.735 -15.608  22.978  1.00  0.00     0.000 C 
BRANCH   9  10
ATOM     10  C   UNL     1       7.625 -14.382  23.228  1.00  0.00    -0.000 C 
BRANCH  10  11
ATOM     11  C   UNL     1       8.694 -14.687  24.287  1.00  0.00    -0.000 C 
BRANCH  11  12
ATOM     12  C   UNL     1      10.118 -14.741  23.704  1.00  0.00    -0.000 C 
BRANCH  12  13
ATOM     13  C   UNL     1      10.986 -15.901  24.226  1.00  0.00    -0.003 C 
ATOM     14  C   UNL     1      10.540 -16.414  25.593  1.00  0.00     0.004 C 
ENDBRANCH  12  13
ENDBRANCH  11  12
ENDBRANCH  10  11
ENDBRANCH   9  10
ENDBRANCH   1   9
TORSDOF 10
ENDMDL
MODEL 2
REMARK VINA RESULT:    -3.705      2.044      4.597
REMARK INTER + INTRA:          -7.271
REMARK INTER:                  -5.740
REMARK INTRA:                  -1.531
REMARK UNBOUND:                -1.401
REMARK SMILES CCCCCCCCCCCC(=O)[O-]
REMARK SMILES IDX 7 1 8 2 9 3 10 4 11 5 12 6 13 7 14 8 6 9 5 10 4 11 3 12 2 13
REMARK SMILES IDX 1 14
REMARK H PARENT
REMARK Flexibility Score: inf
ROOT
ATOM      1  C   UNL     1       8.571 -16.715  21.113  1.00  0.00     0.000 C 
ENDROOT
BRANCH   1   2
ATOM      2  C   UNL     1       7.131 -16.190  21.256  1.00  0.00     0.000 C 
BRANCH   2   3
ATOM      3  C   UNL     1       6.791 -15.778  22.697  1.00  0.00     0.000 C 
BRANCH   3   4
ATOM      4  C   UNL     1       7.755 -14.712  23.249  1.00  0.00     0.006 C 
BRANCH   4   5
ATOM      5  C   UNL     1       8.446 -15.171  24.539  1.00  0.00     0.053 C 
BRANCH   5   6
ATOM      6  C   UNL     1       9.932 -15.275  24.368  1.00  0.00     0.041 C 
ATOM      7  O   UNL     1      10.520 -14.580  23.497  1.00  0.00    -0.550 OA
ATOM      8  O   UNL     1      10.669 -16.116  25.190  1.00  0.00    -0.550 OA
ENDBRANCH   5   6
ENDBRANCH   4   5
ENDBRANCH   3   4
ENDBRANCH   2   3
ENDBRANCH   1   2
BRANCH   1   9
ATOM      9  C   UNL     1       8.626 -18.142  20.545  1.00  0.00     0.000 C 
BRANCH   9  10
ATOM     10  C   UNL     1       7.299 -18.898  20.718  1.00  0.00    -0.000 C 
BRANCH  10  11
ATOM     11  C   UNL     1       7.390 -19.904  21.874  1.00  0.00    -0.000 C 
BRANCH  11  12
ATOM     12  C   UNL     1       6.356 -19.639  22.983  1.00  0.00    -0.000 C 
BRANCH  12  13
ATOM     13  C   UNL     1       6.933 -19.028  24.272  1.00  0.00    -0.003 C 
ATOM     14  C   UNL     1       8.453 -18.879  24.235  1.00  0.00     0.004 C 
ENDBRANCH  12  13
ENDBRANCH  11  12
ENDBRANCH  10  11
ENDBRANCH   9  10
ENDBRANCH   1   9
TORSDOF 10
ENDMDL
MODEL 3
REMARK VINA RESULT:    -3.678      2.291      4.536
REMARK INTER + INTRA:          -7.229
REMARK INTER:                  -5.786
REMARK INTRA:                  -1.443
REMARK UNBOUND:                -1.401
REMARK SMILES CCCCCCCCCCCC(=O)[O-]
REMARK SMILES IDX 7 1 8 2 9 3 10 4 11 5 12 6 13 7 14 8 6 9 5 10 4 11 3 12 2 13
REMARK SMILES IDX 1 14
REMARK H PARENT
REMARK Flexibility Score: inf
ROOT
ATOM      1  C   UNL     1       6.813 -20.045  24.603  1.00  0.00     0.000 C 
ENDROOT
BRANCH   1   2
ATOM      2  C   UNL     1       7.019 -18.837  25.535  1.00  0.00     0.000 C 
BRANCH   2   3
ATOM      3  C   UNL     1       8.458 -18.296  25.494  1.00  0.00     0.000 C 
BRANCH   3   4
ATOM      4  C   UNL     1       8.548 -16.825  25.936  1.00  0.00     0.006 C 
BRANCH   4   5
ATOM      5  C   UNL     1       9.985 -16.292  25.879  1.00  0.00     0.053 C 
BRANCH   5   6
ATOM      6  C   UNL     1      10.319 -15.734  24.528  1.00  0.00     0.041 C 
ATOM      7  O   UNL     1       9.813 -14.644  24.150  1.00  0.00    -0.550 OA
ATOM      8  O   UNL     1      11.210 -16.403  23.701  1.00  0.00    -0.550 OA
ENDBRANCH   5   6
ENDBRANCH   4   5
ENDBRANCH   3   4
ENDBRANCH   2   3
ENDBRANCH   1   2
BRANCH   1   9
ATOM      9  C   UNL     1       6.319 -19.636  23.207  1.00  0.00     0.000 C 
BRANCH   9  10
ATOM     10  C   UNL     1       7.373 -19.872  22.115  1.00  0.00    -0.000 C 
BRANCH  10  11
ATOM     11  C   UNL     1       7.527 -18.631  21.224  1.00  0.00    -0.000 C 
BRANCH  11  12
ATOM     12  C   UNL     1       8.086 -17.413  21.983  1.00  0.00    -0.000 C 
BRANCH  12  13
ATOM     13  C   UNL     1       7.239 -16.134  21.864  1.00  0.00    -0.003 C 
ATOM     14  C   UNL     1       6.447 -15.821  23.132  1.00  0.00     0.004 C 
ENDBRANCH  12  13
ENDBRANCH  11  12
ENDBRANCH  10  11
ENDBRANCH   9  10
ENDBRANCH   1   9
TORSDOF 10
ENDMDL
MODEL 4
REMARK VINA RESULT:    -3.656      2.745      3.801
REMARK INTER + INTRA:          -7.195
REMARK INTER:                  -5.628
REMARK INTRA:                  -1.567
REMARK UNBOUND:                -1.401
REMARK SMILES CCCCCCCCCCCC(=O)[O-]
REMARK SMILES IDX 7 1 8 2 9 3 10 4 11 5 12 6 13 7 14 8 6 9 5 10 4 11 3 12 2 13
REMARK SMILES IDX 1 14
REMARK H PARENT
REMARK Flexibility Score: inf
ROOT
ATOM      1  C   UNL     1       6.724 -17.655  25.120  1.00  0.00     0.000 C 
ENDROOT
BRANCH   1   2
ATOM      2  C   UNL     1       6.354 -18.144  23.708  1.00  0.00     0.000 C 
BRANCH   2   3
ATOM      3  C   UNL     1       7.145 -17.423  22.605  1.00  0.00     0.000 C 
BRANCH   3   4
ATOM      4  C   UNL     1       8.297 -18.279  22.049  1.00  0.00     0.006 C 
BRANCH   4   5
ATOM      5  C   UNL     1       8.084 -19.775  22.316  1.00  0.00     0.053 C 
BRANCH   5   6
ATOM      6  C   UNL     1       7.894 -20.546  21.044  1.00  0.00     0.041 C 
ATOM      7  O   UNL     1       7.499 -21.741  21.079  1.00  0.00    -0.550 OA
ATOM      8  O   UNL     1       8.126 -19.934  19.819  1.00  0.00    -0.550 OA
ENDBRANCH   5   6
ENDBRANCH   4   5
ENDBRANCH   3   4
ENDBRANCH   2   3
ENDBRANCH   1   2
BRANCH   1   9
ATOM      9  C   UNL     1       7.602 -18.660  25.881  1.00  0.00     0.000 C 
BRANCH   9  10
ATOM     10  C   UNL     1       9.102 -18.368  25.729  1.00  0.00    -0.000 C 
BRANCH  10  11
ATOM     11  C   UNL     1       9.388 -16.869  25.896  1.00  0.00    -0.000 C 
BRANCH  11  12
ATOM     12  C   UNL     1      10.460 -16.350  24.921  1.00  0.00    -0.000 C 
BRANCH  12  13
ATOM     13  C   UNL     1      10.022 -15.154  24.057  1.00  0.00    -0.003 C 
ATOM     14  C   UNL     1       8.671 -14.577  24.474  1.00  0.00     0.004 C 
ENDBRANCH  12  13
ENDBRANCH  11  12
ENDBRANCH  10  11
ENDBRANCH   9  10
ENDBRANCH   1   9
TORSDOF 10
ENDMDL
MODEL 5
REMARK VINA RESULT:    -3.653      2.787      3.295
REMARK INTER + INTRA:          -7.190
REMARK INTER:                  -6.114
REMARK INTRA:                  -1.076
REMARK UNBOUND:                -1.401
REMARK SMILES CCCCCCCCCCCC(=O)[O-]
REMARK SMILES IDX 7 1 8 2 9 3 10 4 11 5 12 6 13 7 14 8 6 9 5 10 4 11 3 12 2 13
REMARK SMILES IDX 1 14
REMARK H PARENT
REMARK Flexibility Score: inf
ROOT
ATOM      1  C   UNL     1       7.113 -16.382  22.701  1.00  0.00     0.000 C 
ENDROOT
BRANCH   1   2
ATOM      2  C   UNL     1       6.582 -17.217  23.879  1.00  0.00     0.000 C 
BRANCH   2   3
ATOM      3  C   UNL     1       6.688 -18.730  23.628  1.00  0.00     0.000 C 
BRANCH   3   4
ATOM      4  C   UNL     1       7.375 -19.059  22.291  1.00  0.00     0.006 C 
BRANCH   4   5
ATOM      5  C   UNL     1       6.813 -20.336  21.652  1.00  0.00     0.053 C 
BRANCH   5   6
ATOM      6  C   UNL     1       7.896 -21.325  21.340  1.00  0.00     0.041 C 
ATOM      7  O   UNL     1       9.101 -21.038  21.568  1.00  0.00    -0.550 OA
ATOM      8  O   UNL     1       7.570 -22.573  20.826  1.00  0.00    -0.550 OA
ENDBRANCH   5   6
ENDBRANCH   4   5
ENDBRANCH   3   4
ENDBRANCH   2   3
ENDBRANCH   1   2
BRANCH   1   9
ATOM      9  C   UNL     1       7.440 -14.935  23.103  1.00  0.00     0.000 C 
BRANCH   9  10
ATOM     10  C   UNL     1       8.285 -14.855  24.384  1.00  0.00    -0.000 C 
BRANCH  10  11
ATOM     11  C   UNL     1       9.782 -14.809  24.050  1.00  0.00    -0.000 C 
BRANCH  11  12
ATOM     12  C   UNL     1      10.535 -16.079  24.488  1.00  0.00    -0.000 C 
BRANCH  12  13
ATOM     13  C   UNL     1      10.175 -16.590  25.895  1.00  0.00    -0.003 C 
ATOM     14  C   UNL     1       9.692 -18.038  25.900  1.00  0.00     0.004 C 
ENDBRANCH  12  13
ENDBRANCH  11  12
ENDBRANCH  10  11
ENDBRANCH   9  10
ENDBRANCH   1   9
TORSDOF 10
ENDMDL
MODEL 6
REMARK VINA RESULT:    -3.643      2.063      4.363
REMARK INTER + INTRA:          -7.173
REMARK INTER:                  -5.622
REMARK INTRA:                  -1.551
REMARK UNBOUND:                -1.401
REMARK SMILES CCCCCCCCCCCC(=O)[O-]
REMARK SMILES IDX 7 1 8 2 9 3 10 4 11 5 12 6 13 7 14 8 6 9 5 10 4 11 3 12 2 13
REMARK SMILES IDX 1 14
REMARK H PARENT
REMARK Flexibility Score: inf
ROOT
ATOM      1  C   UNL     1      10.048 -14.954  23.778  1.00  0.00     0.000 C 
ENDROOT
BRANCH   1   2
ATOM      2  C   UNL     1       8.642 -14.711  24.357  1.00  0.00     0.000 C 
BRANCH   2   3
ATOM      3  C   UNL     1       7.572 -14.551  23.266  1.00  0.00     0.000 C 
BRANCH   3   4
ATOM      4  C   UNL     1       6.980 -15.899  22.818  1.00  0.00     0.006 C 
BRANCH   4   5
ATOM      5  C   UNL     1       7.392 -16.263  21.386  1.00  0.00     0.053 C 
BRANCH   5   6
ATOM      6  C   UNL     1       8.002 -17.631  21.314  1.00  0.00     0.041 C 
ATOM      7  O   UNL     1       9.253 -17.765  21.255  1.00  0.00    -0.550 OA
ATOM      8  O   UNL     1       7.190 -18.757  21.342  1.00  0.00    -0.550 OA
ENDBRANCH   5   6
ENDBRANCH   4   5
ENDBRANCH   3   4
ENDBRANCH   2   3
ENDBRANCH   1   2
BRANCH   1   9
ATOM      9  C   UNL     1      10.734 -16.185  24.392  1.00  0.00     0.000 C 
BRANCH   9  10
ATOM     10  C   UNL     1      10.302 -16.440  25.843  1.00  0.00    -0.000 C 
BRANCH  10  11
ATOM     11  C   UNL     1       9.868 -17.900  26.038  1.00  0.00    -0.000 C 
BRANCH  11  12
ATOM     12  C   UNL     1       9.243 -18.514  24.772  1.00  0.00    -0.000 C 
BRANCH  12  13
ATOM     13  C   UNL     1       7.780 -18.965  24.928  1.00  0.00    -0.003 C 
ATOM     14  C   UNL     1       6.957 -18.033  25.815  1.00  0.00     0.004 C 
ENDBRANCH  12  13
ENDBRANCH  11  12
ENDBRANCH  10  11
ENDBRANCH   9  10
ENDBRANCH   1   9
TORSDOF 10
ENDMDL
MODEL 7
REMARK VINA RESULT:    -3.638      1.965      4.733
REMARK INTER + INTRA:          -7.165
REMARK INTER:                  -5.741
REMARK INTRA:                  -1.424
REMARK UNBOUND:                -1.401
REMARK SMILES CCCCCCCCCCCC(=O)[O-]
REMARK SMILES IDX 7 1 8 2 9 3 10 4 11 5 12 6 13 7 14 8 6 9 5 10 4 11 3 12 2 13
REMARK SMILES IDX 1 14
REMARK H PARENT
REMARK Flexibility Score: inf
ROOT
ATOM      1  C   UNL     1       7.273 -18.636  24.114  1.00  0.00     0.000 C 
ENDROOT
BRANCH   1   2
ATOM      2  C   UNL     1       6.225 -17.516  23.977  1.00  0.00     0.000 C 
BRANCH   2   3
ATOM      3  C   UNL     1       6.729 -16.334  23.134  1.00  0.00     0.000 C 
BRANCH   3   4
ATOM      4  C   UNL     1       8.266 -16.251  23.093  1.00  0.00     0.006 C 
BRANCH   4   5
ATOM      5  C   UNL     1       8.809 -15.133  23.993  1.00  0.00     0.053 C 
BRANCH   5   6
ATOM      6  C   UNL     1       9.130 -15.634  25.369  1.00  0.00     0.041 C 
ATOM      7  O   UNL     1      10.291 -16.041  25.640  1.00  0.00    -0.550 OA
ATOM      8  O   UNL     1       8.156 -15.622  26.358  1.00  0.00    -0.550 OA
ENDBRANCH   5   6
ENDBRANCH   4   5
ENDBRANCH   3   4
ENDBRANCH   2   3
ENDBRANCH   1   2
BRANCH   1   9
ATOM      9  C   UNL     1       6.752 -19.995  23.620  1.00  0.00     0.000 C 
BRANCH   9  10
ATOM     10  C   UNL     1       6.555 -20.034  22.097  1.00  0.00    -0.000 C 
BRANCH  10  11
ATOM     11  C   UNL     1       7.882 -20.325  21.381  1.00  0.00    -0.000 C 
BRANCH  11  12
ATOM     12  C   UNL     1       8.311 -19.195  20.428  1.00  0.00    -0.000 C 
BRANCH  12  13
ATOM     13  C   UNL     1       7.150 -18.405  19.798  1.00  0.00    -0.003 C 
ATOM     14  C   UNL     1       7.497 -16.941  19.533  1.00  0.00     0.004 C 
ENDBRANCH  12  13
ENDBRANCH  11  12
ENDBRANCH  10  11
ENDBRANCH   9  10
ENDBRANCH   1   9
TORSDOF 10
ENDMDL
MODEL 8
REMARK VINA RESULT:    -3.624      2.646      4.876
REMARK INTER + INTRA:          -7.144
REMARK INTER:                  -5.615
REMARK INTRA:                  -1.529
REMARK UNBOUND:                -1.401
REMARK SMILES CCCCCCCCCCCC(=O)[O-]
REMARK SMILES IDX 7 1 8 2 9 3 10 4 11 5 12 6 13 7 14 8 6 9 5 10 4 11 3 12 2 13
REMARK SMILES IDX 1 14
REMARK H PARENT
REMARK Flexibility Score: inf
ROOT
ATOM      1  C   UNL     1       7.121 -16.195  23.358  1.00  0.00     0.000 C 
ENDROOT
BRANCH   1   2
ATOM      2  C   UNL     1       7.467 -16.494  21.888  1.00  0.00     0.000 C 
BRANCH   2   3
ATOM      3  C   UNL     1       8.914 -16.982  21.708  1.00  0.00     0.000 C 
BRANCH   3   4
ATOM      4  C   UNL     1       9.663 -17.114  23.046  1.00  0.00     0.006 C 
BRANCH   4   5
ATOM      5  C   UNL     1      11.102 -16.588  22.957  1.00  0.00     0.053 C 
BRANCH   5   6
ATOM      6  C   UNL     1      11.157 -15.095  23.075  1.00  0.00     0.041 C 
ATOM      7  O   UNL     1      12.112 -14.453  22.564  1.00  0.00    -0.550 OA
ATOM      8  O   UNL     1      10.137 -14.411  23.724  1.00  0.00    -0.550 OA
ENDBRANCH   5   6
ENDBRANCH   4   5
ENDBRANCH   3   4
ENDBRANCH   2   3
ENDBRANCH   1   2
BRANCH   1   9
ATOM      9  C   UNL     1       6.140 -17.218  23.953  1.00  0.00     0.000 C 
BRANCH   9  10
ATOM     10  C   UNL     1       6.678 -17.879  25.231  1.00  0.00    -0.000 C 
BRANCH  10  11
ATOM     11  C   UNL     1       7.304 -19.246  24.918  1.00  0.00    -0.000 C 
BRANCH  11  12
ATOM     12  C   UNL     1       6.670 -19.930  23.693  1.00  0.00    -0.000 C 
BRANCH  12  13
ATOM     13  C   UNL     1       7.666 -20.324  22.587  1.00  0.00    -0.003 C 
ATOM     14  C   UNL     1       7.080 -20.195  21.182  1.00  0.00     0.004 C 
ENDBRANCH  12  13
ENDBRANCH  11  12
ENDBRANCH  10  11
ENDBRANCH   9  10
ENDBRANCH   1   9
TORSDOF 10
ENDMDL
MODEL 9
REMARK VINA RESULT:    -3.601      1.949      4.144
REMARK INTER + INTRA:          -7.107
REMARK INTER:                  -5.755
REMARK INTRA:                  -1.353
REMARK UNBOUND:                -1.401
REMARK SMILES CCCCCCCCCCCC(=O)[O-]
REMARK SMILES IDX 7 1 8 2 9 3 10 4 11 5 12 6 13 7 14 8 6 9 5 10 4 11 3 12 2 13
REMARK SMILES IDX 1 14
REMARK H PARENT
REMARK Flexibility Score: inf
ROOT
ATOM      1  C   UNL     1       7.357 -15.075  23.100  1.00  0.00     0.000 C 
ENDROOT
BRANCH   1   2
ATOM      2  C   UNL     1       8.296 -14.877  24.304  1.00  0.00     0.000 C 
BRANCH   2   3
ATOM      3  C   UNL     1       9.763 -14.683  23.886  1.00  0.00     0.000 C 
BRANCH   3   4
ATOM      4  C   UNL     1      10.665 -15.843  24.342  1.00  0.00     0.006 C 
BRANCH   4   5
ATOM      5  C   UNL     1      10.221 -16.424  25.691  1.00  0.00     0.053 C 
BRANCH   5   6
ATOM      6  C   UNL     1      10.816 -17.778  25.937  1.00  0.00     0.041 C 
ATOM      7  O   UNL     1      10.165 -18.650  26.571  1.00  0.00    -0.550 OA
ATOM      8  O   UNL     1      12.076 -18.084  25.441  1.00  0.00    -0.550 OA
ENDBRANCH   5   6
ENDBRANCH   4   5
ENDBRANCH   3   4
ENDBRANCH   2   3
ENDBRANCH   1   2
BRANCH   1   9
ATOM      9  C   UNL     1       6.760 -16.489  23.043  1.00  0.00     0.000 C 
BRANCH   9  10
ATOM     10  C   UNL     1       6.775 -17.192  24.409  1.00  0.00    -0.000 C 
BRANCH  10  11
ATOM     11  C   UNL     1       7.385 -18.596  24.297  1.00  0.00    -0.000 C 
BRANCH  11  12
ATOM     12  C   UNL     1       8.433 -18.707  23.175  1.00  0.00    -0.000 C 
BRANCH  12  13
ATOM     13  C   UNL     1       8.017 -19.594  21.988  1.00  0.00    -0.003 C 
ATOM     14  C   UNL     1       6.699 -20.328  22.222  1.00  0.00     0.004 C 
ENDBRANCH  12  13
ENDBRANCH  11  12
ENDBRANCH  10  11
ENDBRANCH   9  10
ENDBRANCH   1   9
TORSDOF 10
ENDMDL
