MODEL 1
REMARK VINA RESULT:    -4.470      0.000      0.000
REMARK INTER + INTRA:         -16.585
REMARK INTER:                 -11.787
REMARK INTRA:                  -4.798
REMARK UNBOUND:                -4.798
REMARK SMILES CCCCCCCCCCCCCCCCCCCCCCCCCCCCCC(=O)[O-]
REMARK SMILES IDX 16 1 17 2 18 3 19 4 20 5 21 6 22 7 23 8 24 9 25 10 26 11
REMARK SMILES IDX 27 12 28 13 29 14 30 15 31 16 32 17 15 18 14 19 13 20 12 21
REMARK SMILES IDX 11 22 10 23 9 24 8 25 7 26 6 27 5 28 4 29 3 30 2 31 1 32
REMARK H PARENT
REMARK Flexibility Score: inf
ROOT
ATOM      1  C   UNL     1      22.149  12.582  35.051  1.00  0.00     0.000 C 
ENDROOT
BRANCH   1   2
ATOM      2  C   UNL     1      22.264  11.905  33.670  1.00  0.00     0.000 C 
BRANCH   2   3
ATOM      3  C   UNL     1      23.487  12.329  32.834  1.00  0.00     0.000 C 
BRANCH   3   4
ATOM      4  C   UNL     1      23.406  11.989  31.332  1.00  0.00     0.000 C 
BRANCH   4   5
ATOM      5  C   UNL     1      23.886  13.099  30.379  1.00  0.00     0.000 C 
BRANCH   5   6
ATOM      6  C   UNL     1      25.373  12.972  30.012  1.00  0.00     0.000 C 
BRANCH   6   7
ATOM      7  C   UNL     1      25.865  11.513  30.014  1.00  0.00     0.000 C 
BRANCH   7   8
ATOM      8  C   UNL     1      27.298  11.306  30.539  1.00  0.00     0.000 C 
BRANCH   8   9
ATOM      9  C   UNL     1      27.980  12.619  30.949  1.00  0.00     0.000 C 
BRANCH   9  10
ATOM     10  C   UNL     1      28.104  12.719  32.477  1.00  0.00     0.000 C 
BRANCH  10  11
ATOM     11  C   UNL     1      27.121  13.730  33.096  1.00  0.00     0.000 C 
BRANCH  11  12
ATOM     12  C   UNL     1      27.483  14.205  34.515  1.00  0.00     0.000 C 
BRANCH  12  13
ATOM     13  C   UNL     1      27.259  13.125  35.587  1.00  0.00     0.006 C 
BRANCH  13  14
ATOM     14  C   UNL     1      25.781  12.735  35.717  1.00  0.00     0.053 C 
BRANCH  14  15
ATOM     15  C   UNL     1      25.566  11.275  35.457  1.00  0.00     0.041 C 
ATOM     16  O   UNL     1      24.757  10.618  36.164  1.00  0.00    -0.550 OA
ATOM     17  O   UNL     1      26.229  10.649  34.409  1.00  0.00    -0.550 OA
ENDBRANCH  14  15
ENDBRANCH  13  14
ENDBRANCH  12  13
ENDBRANCH  11  12
ENDBRANCH  10  11
ENDBRANCH   9  10
ENDBRANCH   8   9
ENDBRANCH   7   8
ENDBRANCH   6   7
ENDBRANCH   5   6
ENDBRANCH   4   5
ENDBRANCH   3   4
ENDBRANCH   2   3
ENDBRANCH   1   2
BRANCH   1  18
ATOM     18  C   UNL     1      20.918  13.487  35.230  1.00  0.00     0.000 C 
BRANCH  18  19
ATOM     19  C   UNL     1      20.436  14.106  33.905  1.00  0.00     0.000 C 
BRANCH  19  20
ATOM     20  C   UNL     1      18.947  13.829  33.639  1.00  0.00     0.000 C 
BRANCH  20  21
ATOM     21  C   UNL     1      18.631  13.720  32.137  1.00  0.00     0.000 C 
BRANCH  21  22
ATOM     22  C   UNL     1      19.849  13.291  31.300  1.00  0.00     0.000 C 
BRANCH  22  23
ATOM     23  C   UNL     1      19.864  11.809  30.886  1.00  0.00     0.000 C 
BRANCH  23  24
ATOM     24  C   UNL     1      18.454  11.219  30.726  1.00  0.00    -0.000 C 
BRANCH  24  25
ATOM     25  C   UNL     1      18.398   9.782  31.269  1.00  0.00    -0.000 C 
BRANCH  25  26
ATOM     26  C   UNL     1      19.671   9.390  32.036  1.00  0.00    -0.000 C 
BRANCH  26  27
ATOM     27  C   UNL     1      19.400   9.099  33.523  1.00  0.00    -0.000 C 
BRANCH  27  28
ATOM     28  C   UNL     1      19.124  10.384  34.334  1.00  0.00    -0.000 C 
BRANCH  28  29
ATOM     29  C   UNL     1      19.362  10.225  35.848  1.00  0.00    -0.000 C 
BRANCH  29  30
ATOM     30  C   UNL     1      20.097   8.936  36.263  1.00  0.00    -0.000 C 
BRANCH  30  31
ATOM     31  C   UNL     1      19.433   8.155  37.414  1.00  0.00    -0.003 C 
ATOM     32  C   UNL     1      19.464   6.641  37.205  1.00  0.00     0.004 C 
ENDBRANCH  30  31
ENDBRANCH  29  30
ENDBRANCH  28  29
ENDBRANCH  27  28
ENDBRANCH  26  27
ENDBRANCH  25  26
ENDBRANCH  24  25
ENDBRANCH  23  24
ENDBRANCH  22  23
ENDBRANCH  21  22
ENDBRANCH  20  21
ENDBRANCH  19  20
ENDBRANCH  18  19
ENDBRANCH   1  18
TORSDOF 28
ENDMDL
MODEL 2
REMARK VINA RESULT:    -4.334      1.162      2.793
REMARK INTER + INTRA:         -16.226
REMARK INTER:                 -12.164
REMARK INTRA:                  -4.062
REMARK UNBOUND:                -4.798
REMARK SMILES CCCCCCCCCCCCCCCCCCCCCCCCCCCCCC(=O)[O-]
REMARK SMILES IDX 16 1 17 2 18 3 19 4 20 5 21 6 22 7 23 8 24 9 25 10 26 11
REMARK SMILES IDX 27 12 28 13 29 14 30 15 31 16 32 17 15 18 14 19 13 20 12 21
REMARK SMILES IDX 11 22 10 23 9 24 8 25 7 26 6 27 5 28 4 29 3 30 2 31 1 32
REMARK H PARENT
REMARK Flexibility Score: inf
ROOT
ATOM      1  C   UNL     1      22.003  11.454  31.933  1.00  0.00     0.000 C 
ENDROOT
BRANCH   1   2
ATOM      2  C   UNL     1      22.447  11.647  30.470  1.00  0.00     0.000 C 
BRANCH   2   3
ATOM      3  C   UNL     1      23.242  12.937  30.192  1.00  0.00     0.000 C 
BRANCH   3   4
ATOM      4  C   UNL     1      24.729  12.893  30.598  1.00  0.00     0.000 C 
BRANCH   4   5
ATOM      5  C   UNL     1      25.579  11.832  29.876  1.00  0.00     0.000 C 
BRANCH   5   6
ATOM      6  C   UNL     1      26.885  11.502  30.617  1.00  0.00     0.000 C 
BRANCH   6   7
ATOM      7  C   UNL     1      27.697  12.758  30.981  1.00  0.00     0.000 C 
BRANCH   7   8
ATOM      8  C   UNL     1      28.241  12.792  32.421  1.00  0.00     0.000 C 
BRANCH   8   9
ATOM      9  C   UNL     1      27.993  11.483  33.185  1.00  0.00     0.000 C 
BRANCH   9  10
ATOM     10  C   UNL     1      27.662  11.764  34.659  1.00  0.00     0.000 C 
BRANCH  10  11
ATOM     11  C   UNL     1      27.649  13.266  34.997  1.00  0.00     0.000 C 
BRANCH  11  12
ATOM     12  C   UNL     1      26.279  13.826  35.424  1.00  0.00     0.000 C 
BRANCH  12  13
ATOM     13  C   UNL     1      25.516  12.887  36.375  1.00  0.00     0.006 C 
BRANCH  13  14
ATOM     14  C   UNL     1      24.051  12.705  35.956  1.00  0.00     0.053 C 
BRANCH  14  15
ATOM     15  C   UNL     1      23.840  11.423  35.210  1.00  0.00     0.041 C 
ATOM     16  O   UNL     1      23.038  10.558  35.651  1.00  0.00    -0.550 OA
ATOM     17  O   UNL     1      24.500  11.201  34.008  1.00  0.00    -0.550 OA
ENDBRANCH  14  15
ENDBRANCH  13  14
ENDBRANCH  12  13
ENDBRANCH  11  12
ENDBRANCH  10  11
ENDBRANCH   9  10
ENDBRANCH   8   9
ENDBRANCH   7   8
ENDBRANCH   6   7
ENDBRANCH   5   6
ENDBRANCH   4   5
ENDBRANCH   3   4
ENDBRANCH   2   3
ENDBRANCH   1   2
BRANCH   1  18
ATOM     18  C   UNL     1      20.797  10.520  32.128  1.00  0.00     0.000 C 
BRANCH  18  19
ATOM     19  C   UNL     1      19.797  10.586  30.960  1.00  0.00     0.000 C 
BRANCH  19  20
ATOM     20  C   UNL     1      18.679  11.612  31.206  1.00  0.00     0.000 C 
BRANCH  20  21
ATOM     21  C   UNL     1      18.979  12.972  30.551  1.00  0.00     0.000 C 
BRANCH  21  22
ATOM     22  C   UNL     1      18.706  14.161  31.489  1.00  0.00     0.000 C 
BRANCH  22  23
ATOM     23  C   UNL     1      18.961  13.883  32.981  1.00  0.00     0.000 C 
BRANCH  23  24
ATOM     24  C   UNL     1      20.354  14.337  33.445  1.00  0.00    -0.000 C 
BRANCH  24  25
ATOM     25  C   UNL     1      20.827  13.505  34.647  1.00  0.00    -0.000 C 
BRANCH  25  26
ATOM     26  C   UNL     1      19.697  13.219  35.650  1.00  0.00    -0.000 C 
BRANCH  26  27
ATOM     27  C   UNL     1      19.589  11.726  36.008  1.00  0.00    -0.000 C 
BRANCH  27  28
ATOM     28  C   UNL     1      18.891  10.903  34.904  1.00  0.00    -0.000 C 
BRANCH  28  29
ATOM     29  C   UNL     1      18.991   9.379  35.107  1.00  0.00    -0.000 C 
BRANCH  29  30
ATOM     30  C   UNL     1      19.908   8.932  36.263  1.00  0.00    -0.000 C 
BRANCH  30  31
ATOM     31  C   UNL     1      19.211   8.101  37.356  1.00  0.00    -0.003 C 
ATOM     32  C   UNL     1      19.673   6.645  37.388  1.00  0.00     0.004 C 
ENDBRANCH  30  31
ENDBRANCH  29  30
ENDBRANCH  28  29
ENDBRANCH  27  28
ENDBRANCH  26  27
ENDBRANCH  25  26
ENDBRANCH  24  25
ENDBRANCH  23  24
ENDBRANCH  22  23
ENDBRANCH  21  22
ENDBRANCH  20  21
ENDBRANCH  19  20
ENDBRANCH  18  19
ENDBRANCH   1  18
TORSDOF 28
ENDMDL
MODEL 3
REMARK VINA RESULT:    -4.298      2.054      7.209
REMARK INTER + INTRA:         -16.132
REMARK INTER:                 -11.502
REMARK INTRA:                  -4.630
REMARK UNBOUND:                -4.798
REMARK SMILES CCCCCCCCCCCCCCCCCCCCCCCCCCCCCC(=O)[O-]
REMARK SMILES IDX 16 1 17 2 18 3 19 4 20 5 21 6 22 7 23 8 24 9 25 10 26 11
REMARK SMILES IDX 27 12 28 13 29 14 30 15 31 16 32 17 15 18 14 19 13 20 12 21
REMARK SMILES IDX 11 22 10 23 9 24 8 25 7 26 6 27 5 28 4 29 3 30 2 31 1 32
REMARK H PARENT
REMARK Flexibility Score: inf
ROOT
ATOM      1  C   UNL     1      21.225  10.756  32.213  1.00  0.00     0.000 C 
ENDROOT
BRANCH   1   2
ATOM      2  C   UNL     1      20.289  10.156  31.145  1.00  0.00     0.000 C 
BRANCH   2   3
ATOM      3  C   UNL     1      18.785  10.253  31.464  1.00  0.00     0.000 C 
BRANCH   3   4
ATOM      4  C   UNL     1      18.046  11.429  30.795  1.00  0.00     0.000 C 
BRANCH   4   5
ATOM      5  C   UNL     1      18.932  12.384  29.975  1.00  0.00     0.000 C 
BRANCH   5   6
ATOM      6  C   UNL     1      19.201  13.717  30.691  1.00  0.00     0.000 C 
BRANCH   6   7
ATOM      7  C   UNL     1      18.116  14.066  31.727  1.00  0.00     0.000 C 
BRANCH   7   8
ATOM      8  C   UNL     1      18.597  14.108  33.189  1.00  0.00     0.000 C 
BRANCH   8   9
ATOM      9  C   UNL     1      20.127  14.139  33.315  1.00  0.00     0.000 C 
BRANCH   9  10
ATOM     10  C   UNL     1      20.556  14.146  34.790  1.00  0.00     0.000 C 
BRANCH  10  11
ATOM     11  C   UNL     1      20.738  12.731  35.371  1.00  0.00     0.000 C 
BRANCH  11  12
ATOM     12  C   UNL     1      19.448  12.071  35.891  1.00  0.00     0.000 C 
BRANCH  12  13
ATOM     13  C   UNL     1      19.101  10.765  35.155  1.00  0.00     0.006 C 
BRANCH  13  14
ATOM     14  C   UNL     1      20.047   9.617  35.533  1.00  0.00     0.053 C 
BRANCH  14  15
ATOM     15  C   UNL     1      19.334   8.532  36.281  1.00  0.00     0.041 C 
ATOM     16  O   UNL     1      19.611   8.309  37.490  1.00  0.00    -0.550 OA
ATOM     17  O   UNL     1      18.337   7.795  35.656  1.00  0.00    -0.550 OA
ENDBRANCH  14  15
ENDBRANCH  13  14
ENDBRANCH  12  13
ENDBRANCH  11  12
ENDBRANCH  10  11
ENDBRANCH   9  10
ENDBRANCH   8   9
ENDBRANCH   7   8
ENDBRANCH   6   7
ENDBRANCH   5   6
ENDBRANCH   4   5
ENDBRANCH   3   4
ENDBRANCH   2   3
ENDBRANCH   1   2
BRANCH   1  18
ATOM     18  C   UNL     1      22.232  11.793  31.684  1.00  0.00     0.000 C 
BRANCH  18  19
ATOM     19  C   UNL     1      22.626  11.546  30.217  1.00  0.00     0.000 C 
BRANCH  19  20
ATOM     20  C   UNL     1      24.061  12.008  29.913  1.00  0.00     0.000 C 
BRANCH  20  21
ATOM     21  C   UNL     1      24.471  13.233  30.750  1.00  0.00     0.000 C 
BRANCH  21  22
ATOM     22  C   UNL     1      25.971  13.250  31.090  1.00  0.00     0.000 C 
BRANCH  22  23
ATOM     23  C   UNL     1      26.772  12.048  30.558  1.00  0.00     0.000 C 
BRANCH  23  24
ATOM     24  C   UNL     1      28.183  11.955  31.159  1.00  0.00    -0.000 C 
BRANCH  24  25
ATOM     25  C   UNL     1      28.210  12.535  32.582  1.00  0.00    -0.000 C 
BRANCH  25  26
ATOM     26  C   UNL     1      28.369  11.450  33.659  1.00  0.00    -0.000 C 
BRANCH  26  27
ATOM     27  C   UNL     1      27.905  11.925  35.049  1.00  0.00    -0.000 C 
BRANCH  27  28
ATOM     28  C   UNL     1      27.610  13.439  35.087  1.00  0.00    -0.000 C 
BRANCH  28  29
ATOM     29  C   UNL     1      26.122  13.777  35.307  1.00  0.00    -0.000 C 
BRANCH  29  30
ATOM     30  C   UNL     1      25.271  12.632  35.889  1.00  0.00    -0.000 C 
BRANCH  30  31
ATOM     31  C   UNL     1      24.393  11.893  34.861  1.00  0.00    -0.003 C 
ATOM     32  C   UNL     1      23.463  10.862  35.500  1.00  0.00     0.004 C 
ENDBRANCH  30  31
ENDBRANCH  29  30
ENDBRANCH  28  29
ENDBRANCH  27  28
ENDBRANCH  26  27
ENDBRANCH  25  26
ENDBRANCH  24  25
ENDBRANCH  23  24
ENDBRANCH  22  23
ENDBRANCH  21  22
ENDBRANCH  20  21
ENDBRANCH  19  20
ENDBRANCH  18  19
ENDBRANCH   1  18
TORSDOF 28
ENDMDL
MODEL 4
REMARK VINA RESULT:    -4.066     16.222     19.018
REMARK INTER + INTRA:         -15.520
REMARK INTER:                 -11.243
REMARK INTRA:                  -4.277
REMARK UNBOUND:                -4.798
REMARK SMILES CCCCCCCCCCCCCCCCCCCCCCCCCCCCCC(=O)[O-]
REMARK SMILES IDX 16 1 17 2 18 3 19 4 20 5 21 6 22 7 23 8 24 9 25 10 26 11
REMARK SMILES IDX 27 12 28 13 29 14 30 15 31 16 32 17 15 18 14 19 13 20 12 21
REMARK SMILES IDX 11 22 10 23 9 24 8 25 7 26 6 27 5 28 4 29 3 30 2 31 1 32
REMARK H PARENT
REMARK Flexibility Score: inf
ROOT
ATOM      1  C   UNL     1      33.608   6.278  45.772  1.00  0.00     0.000 C 
ENDROOT
BRANCH   1   2
ATOM      2  C   UNL     1      34.002   7.751  45.545  1.00  0.00     0.000 C 
BRANCH   2   3
ATOM      3  C   UNL     1      34.271   8.137  44.079  1.00  0.00     0.000 C 
BRANCH   3   4
ATOM      4  C   UNL     1      34.791   9.573  43.862  1.00  0.00     0.000 C 
BRANCH   4   5
ATOM      5  C   UNL     1      34.558  10.542  45.035  1.00  0.00     0.000 C 
BRANCH   5   6
ATOM      6  C   UNL     1      35.863  11.129  45.597  1.00  0.00     0.000 C 
BRANCH   6   7
ATOM      7  C   UNL     1      35.625  12.084  46.781  1.00  0.00     0.000 C 
BRANCH   7   8
ATOM      8  C   UNL     1      36.692  12.029  47.891  1.00  0.00     0.000 C 
BRANCH   8   9
ATOM      9  C   UNL     1      36.249  12.733  49.181  1.00  0.00     0.000 C 
BRANCH   9  10
ATOM     10  C   UNL     1      34.797  13.224  49.067  1.00  0.00     0.000 C 
BRANCH  10  11
ATOM     11  C   UNL     1      34.676  14.759  49.112  1.00  0.00     0.000 C 
BRANCH  11  12
ATOM     12  C   UNL     1      35.921  15.525  48.628  1.00  0.00     0.000 C 
BRANCH  12  13
ATOM     13  C   UNL     1      35.632  16.452  47.434  1.00  0.00     0.006 C 
BRANCH  13  14
ATOM     14  C   UNL     1      35.866  15.753  46.088  1.00  0.00     0.053 C 
BRANCH  14  15
ATOM     15  C   UNL     1      36.966  16.404  45.308  1.00  0.00     0.041 C 
ATOM     16  O   UNL     1      37.188  17.638  45.434  1.00  0.00    -0.550 OA
ATOM     17  O   UNL     1      37.772  15.642  44.472  1.00  0.00    -0.550 OA
ENDBRANCH  14  15
ENDBRANCH  13  14
ENDBRANCH  12  13
ENDBRANCH  11  12
ENDBRANCH  10  11
ENDBRANCH   9  10
ENDBRANCH   8   9
ENDBRANCH   7   8
ENDBRANCH   6   7
ENDBRANCH   5   6
ENDBRANCH   4   5
ENDBRANCH   3   4
ENDBRANCH   2   3
ENDBRANCH   1   2
BRANCH   1  18
ATOM     18  C   UNL     1      34.749   5.263  45.584  1.00  0.00     0.000 C 
BRANCH  18  19
ATOM     19  C   UNL     1      35.294   4.725  46.920  1.00  0.00     0.000 C 
BRANCH  19  20
ATOM     20  C   UNL     1      34.426   5.148  48.117  1.00  0.00     0.000 C 
BRANCH  20  21
ATOM     21  C   UNL     1      35.232   5.914  49.181  1.00  0.00     0.000 C 
BRANCH  21  22
ATOM     22  C   UNL     1      34.408   7.010  49.881  1.00  0.00     0.000 C 
BRANCH  22  23
ATOM     23  C   UNL     1      35.061   8.403  49.895  1.00  0.00     0.000 C 
BRANCH  23  24
ATOM     24  C   UNL     1      34.039   9.545  49.783  1.00  0.00    -0.000 C 
BRANCH  24  25
ATOM     25  C   UNL     1      33.617   9.760  48.321  1.00  0.00    -0.000 C 
BRANCH  25  26
ATOM     26  C   UNL     1      32.105   9.992  48.170  1.00  0.00    -0.000 C 
BRANCH  26  27
ATOM     27  C   UNL     1      31.305   9.486  49.384  1.00  0.00    -0.000 C 
BRANCH  27  28
ATOM     28  C   UNL     1      30.490   8.214  49.066  1.00  0.00    -0.000 C 
BRANCH  28  29
ATOM     29  C   UNL     1      31.236   7.207  48.169  1.00  0.00    -0.000 C 
BRANCH  29  30
ATOM     30  C   UNL     1      30.387   6.020  47.672  1.00  0.00    -0.000 C 
BRANCH  30  31
ATOM     31  C   UNL     1      29.042   5.839  48.400  1.00  0.00    -0.003 C 
ATOM     32  C   UNL     1      27.904   5.436  47.463  1.00  0.00     0.004 C 
ENDBRANCH  30  31
ENDBRANCH  29  30
ENDBRANCH  28  29
ENDBRANCH  27  28
ENDBRANCH  26  27
ENDBRANCH  25  26
ENDBRANCH  24  25
ENDBRANCH  23  24
ENDBRANCH  22  23
ENDBRANCH  21  22
ENDBRANCH  20  21
ENDBRANCH  19  20
ENDBRANCH  18  19
ENDBRANCH   1  18
TORSDOF 28
ENDMDL
MODEL 5
REMARK VINA RESULT:    -4.038      2.138      6.094
REMARK INTER + INTRA:         -15.447
REMARK INTER:                 -11.607
REMARK INTRA:                  -3.840
REMARK UNBOUND:                -4.798
REMARK SMILES CCCCCCCCCCCCCCCCCCCCCCCCCCCCCC(=O)[O-]
REMARK SMILES IDX 16 1 17 2 18 3 19 4 20 5 21 6 22 7 23 8 24 9 25 10 26 11
REMARK SMILES IDX 27 12 28 13 29 14 30 15 31 16 32 17 15 18 14 19 13 20 12 21
REMARK SMILES IDX 11 22 10 23 9 24 8 25 7 26 6 27 5 28 4 29 3 30 2 31 1 32
REMARK H PARENT
REMARK Flexibility Score: inf
ROOT
ATOM      1  C   UNL     1      27.068  11.145  30.947  1.00  0.00     0.000 C 
ENDROOT
BRANCH   1   2
ATOM      2  C   UNL     1      26.856  12.455  30.162  1.00  0.00     0.000 C 
BRANCH   2   3
ATOM      3  C   UNL     1      25.407  12.975  30.137  1.00  0.00     0.000 C 
BRANCH   3   4
ATOM      4  C   UNL     1      24.645  12.863  31.472  1.00  0.00     0.000 C 
BRANCH   4   5
ATOM      5  C   UNL     1      23.299  12.119  31.403  1.00  0.00     0.000 C 
BRANCH   5   6
ATOM      6  C   UNL     1      22.802  11.911  29.963  1.00  0.00     0.000 C 
BRANCH   6   7
ATOM      7  C   UNL     1      21.634  10.910  29.875  1.00  0.00     0.000 C 
BRANCH   7   8
ATOM      8  C   UNL     1      20.849  10.704  31.184  1.00  0.00     0.000 C 
BRANCH   8   9
ATOM      9  C   UNL     1      19.555  11.528  31.240  1.00  0.00     0.000 C 
BRANCH   9  10
ATOM     10  C   UNL     1      19.637  12.743  30.304  1.00  0.00     0.000 C 
BRANCH  10  11
ATOM     11  C   UNL     1      19.955  14.054  31.046  1.00  0.00     0.000 C 
BRANCH  11  12
ATOM     12  C   UNL     1      20.426  13.881  32.502  1.00  0.00     0.000 C 
BRANCH  12  13
ATOM     13  C   UNL     1      19.287  14.038  33.525  1.00  0.00     0.006 C 
BRANCH  13  14
ATOM     14  C   UNL     1      19.755  13.761  34.960  1.00  0.00     0.053 C 
BRANCH  14  15
ATOM     15  C   UNL     1      18.899  12.732  35.635  1.00  0.00     0.041 C 
ATOM     16  O   UNL     1      18.869  12.660  36.892  1.00  0.00    -0.550 OA
ATOM     17  O   UNL     1      18.107  11.880  34.878  1.00  0.00    -0.550 OA
ENDBRANCH  14  15
ENDBRANCH  13  14
ENDBRANCH  12  13
ENDBRANCH  11  12
ENDBRANCH  10  11
ENDBRANCH   9  10
ENDBRANCH   8   9
ENDBRANCH   7   8
ENDBRANCH   6   7
ENDBRANCH   5   6
ENDBRANCH   4   5
ENDBRANCH   3   4
ENDBRANCH   2   3
ENDBRANCH   1   2
BRANCH   1  18
ATOM     18  C   UNL     1      27.423  11.329  32.433  1.00  0.00     0.000 C 
BRANCH  18  19
ATOM     19  C   UNL     1      28.185  12.639  32.706  1.00  0.00     0.000 C 
BRANCH  19  20
ATOM     20  C   UNL     1      27.490  13.507  33.768  1.00  0.00     0.000 C 
BRANCH  20  21
ATOM     21  C   UNL     1      27.030  12.685  34.985  1.00  0.00     0.000 C 
BRANCH  21  22
ATOM     22  C   UNL     1      26.007  13.432  35.858  1.00  0.00     0.000 C 
BRANCH  22  23
ATOM     23  C   UNL     1      24.729  12.638  36.184  1.00  0.00     0.000 C 
BRANCH  23  24
ATOM     24  C   UNL     1      24.260  11.754  35.018  1.00  0.00    -0.000 C 
BRANCH  24  25
ATOM     25  C   UNL     1      22.730  11.801  34.877  1.00  0.00    -0.000 C 
BRANCH  25  26
ATOM     26  C   UNL     1      22.038  10.603  35.548  1.00  0.00    -0.000 C 
BRANCH  26  27
ATOM     27  C   UNL     1      21.069   9.874  34.600  1.00  0.00    -0.000 C 
BRANCH  27  28
ATOM     28  C   UNL     1      20.254   8.778  35.319  1.00  0.00    -0.000 C 
BRANCH  28  29
ATOM     29  C   UNL     1      19.653   9.232  36.664  1.00  0.00    -0.000 C 
BRANCH  29  30
ATOM     30  C   UNL     1      19.234   8.090  37.611  1.00  0.00    -0.000 C 
BRANCH  30  31
ATOM     31  C   UNL     1      19.622   6.678  37.132  1.00  0.00    -0.003 C 
ATOM     32  C   UNL     1      18.411   5.784  36.864  1.00  0.00     0.004 C 
ENDBRANCH  30  31
ENDBRANCH  29  30
ENDBRANCH  28  29
ENDBRANCH  27  28
ENDBRANCH  26  27
ENDBRANCH  25  26
ENDBRANCH  24  25
ENDBRANCH  23  24
ENDBRANCH  22  23
ENDBRANCH  21  22
ENDBRANCH  20  21
ENDBRANCH  19  20
ENDBRANCH  18  19
ENDBRANCH   1  18
TORSDOF 28
ENDMDL
MODEL 6
REMARK VINA RESULT:    -3.824      1.863      3.700
REMARK INTER + INTRA:         -14.881
REMARK INTER:                 -10.361
REMARK INTRA:                  -4.521
REMARK UNBOUND:                -4.798
REMARK SMILES CCCCCCCCCCCCCCCCCCCCCCCCCCCCCC(=O)[O-]
REMARK SMILES IDX 16 1 17 2 18 3 19 4 20 5 21 6 22 7 23 8 24 9 25 10 26 11
REMARK SMILES IDX 27 12 28 13 29 14 30 15 31 16 32 17 15 18 14 19 13 20 12 21
REMARK SMILES IDX 11 22 10 23 9 24 8 25 7 26 6 27 5 28 4 29 3 30 2 31 1 32
REMARK H PARENT
REMARK Flexibility Score: inf
ROOT
ATOM      1  C   UNL     1      20.495  11.410  35.535  1.00  0.00     0.000 C 
ENDROOT
BRANCH   1   2
ATOM      2  C   UNL     1      21.822  10.711  35.177  1.00  0.00     0.000 C 
BRANCH   2   3
ATOM      3  C   UNL     1      23.000  11.658  34.877  1.00  0.00     0.000 C 
BRANCH   3   4
ATOM      4  C   UNL     1      24.132  11.650  35.924  1.00  0.00     0.000 C 
BRANCH   4   5
ATOM      5  C   UNL     1      24.837  13.000  36.142  1.00  0.00     0.000 C 
BRANCH   5   6
ATOM      6  C   UNL     1      26.369  12.877  36.196  1.00  0.00     0.000 C 
BRANCH   6   7
ATOM      7  C   UNL     1      27.076  13.804  35.190  1.00  0.00     0.000 C 
BRANCH   7   8
ATOM      8  C   UNL     1      27.742  13.091  33.998  1.00  0.00     0.000 C 
BRANCH   8   9
ATOM      9  C   UNL     1      27.430  11.588  33.951  1.00  0.00     0.000 C 
BRANCH   9  10
ATOM     10  C   UNL     1      26.200  11.311  33.072  1.00  0.00     0.000 C 
BRANCH  10  11
ATOM     11  C   UNL     1      25.594  12.590  32.465  1.00  0.00     0.000 C 
BRANCH  11  12
ATOM     12  C   UNL     1      24.951  12.411  31.077  1.00  0.00     0.000 C 
BRANCH  12  13
ATOM     13  C   UNL     1      25.938  12.656  29.922  1.00  0.00     0.006 C 
BRANCH  13  14
ATOM     14  C   UNL     1      27.260  13.264  30.408  1.00  0.00     0.053 C 
BRANCH  14  15
ATOM     15  C   UNL     1      28.370  12.257  30.403  1.00  0.00     0.041 C 
ATOM     16  O   UNL     1      29.568  12.636  30.490  1.00  0.00    -0.550 OA
ATOM     17  O   UNL     1      28.080  10.901  30.342  1.00  0.00    -0.550 OA
ENDBRANCH  14  15
ENDBRANCH  13  14
ENDBRANCH  12  13
ENDBRANCH  11  12
ENDBRANCH  10  11
ENDBRANCH   9  10
ENDBRANCH   8   9
ENDBRANCH   7   8
ENDBRANCH   6   7
ENDBRANCH   5   6
ENDBRANCH   4   5
ENDBRANCH   3   4
ENDBRANCH   2   3
ENDBRANCH   1   2
BRANCH   1  18
ATOM     18  C   UNL     1      20.618  12.908  35.862  1.00  0.00     0.000 C 
BRANCH  18  19
ATOM     19  C   UNL     1      20.217  13.811  34.681  1.00  0.00     0.000 C 
BRANCH  19  20
ATOM     20  C   UNL     1      18.714  13.725  34.366  1.00  0.00     0.000 C 
BRANCH  20  21
ATOM     21  C   UNL     1      18.445  13.279  32.918  1.00  0.00     0.000 C 
BRANCH  21  22
ATOM     22  C   UNL     1      19.277  14.062  31.887  1.00  0.00     0.000 C 
BRANCH  22  23
ATOM     23  C   UNL     1      20.202  13.200  31.010  1.00  0.00     0.000 C 
BRANCH  23  24
ATOM     24  C   UNL     1      21.359  12.569  31.801  1.00  0.00    -0.000 C 
BRANCH  24  25
ATOM     25  C   UNL     1      21.423  11.053  31.560  1.00  0.00    -0.000 C 
BRANCH  25  26
ATOM     26  C   UNL     1      20.184  10.519  30.822  1.00  0.00    -0.000 C 
BRANCH  26  27
ATOM     27  C   UNL     1      19.474   9.393  31.596  1.00  0.00    -0.000 C 
BRANCH  27  28
ATOM     28  C   UNL     1      18.120   9.845  32.183  1.00  0.00    -0.000 C 
BRANCH  28  29
ATOM     29  C   UNL     1      18.010   9.656  33.709  1.00  0.00    -0.000 C 
BRANCH  29  30
ATOM     30  C   UNL     1      18.827   8.482  34.283  1.00  0.00    -0.000 C 
BRANCH  30  31
ATOM     31  C   UNL     1      18.330   7.952  35.642  1.00  0.00    -0.003 C 
ATOM     32  C   UNL     1      19.338   8.163  36.771  1.00  0.00     0.004 C 
ENDBRANCH  30  31
ENDBRANCH  29  30
ENDBRANCH  28  29
ENDBRANCH  27  28
ENDBRANCH  26  27
ENDBRANCH  25  26
ENDBRANCH  24  25
ENDBRANCH  23  24
ENDBRANCH  22  23
ENDBRANCH  21  22
ENDBRANCH  20  21
ENDBRANCH  19  20
ENDBRANCH  18  19
ENDBRANCH   1  18
TORSDOF 28
ENDMDL
MODEL 7
REMARK VINA RESULT:    -3.785      2.529      7.380
REMARK INTER + INTRA:         -14.778
REMARK INTER:                 -10.761
REMARK INTRA:                  -4.017
REMARK UNBOUND:                -4.798
REMARK SMILES CCCCCCCCCCCCCCCCCCCCCCCCCCCCCC(=O)[O-]
REMARK SMILES IDX 16 1 17 2 18 3 19 4 20 5 21 6 22 7 23 8 24 9 25 10 26 11
REMARK SMILES IDX 27 12 28 13 29 14 30 15 31 16 32 17 15 18 14 19 13 20 12 21
REMARK SMILES IDX 11 22 10 23 9 24 8 25 7 26 6 27 5 28 4 29 3 30 2 31 1 32
REMARK H PARENT
REMARK Flexibility Score: inf
ROOT
ATOM      1  C   UNL     1      24.310  12.271  32.172  1.00  0.00     0.000 C 
ENDROOT
BRANCH   1   2
ATOM      2  C   UNL     1      22.771  12.210  32.244  1.00  0.00     0.000 C 
BRANCH   2   3
ATOM      3  C   UNL     1      22.094  11.423  31.106  1.00  0.00     0.000 C 
BRANCH   3   4
ATOM      4  C   UNL     1      21.208  12.261  30.163  1.00  0.00     0.000 C 
BRANCH   4   5
ATOM      5  C   UNL     1      21.202  13.776  30.437  1.00  0.00     0.000 C 
BRANCH   5   6
ATOM      6  C   UNL     1      19.808  14.315  30.798  1.00  0.00     0.000 C 
BRANCH   6   7
ATOM      7  C   UNL     1      19.316  13.820  32.171  1.00  0.00     0.000 C 
BRANCH   7   8
ATOM      8  C   UNL     1      19.957  14.517  33.386  1.00  0.00     0.000 C 
BRANCH   8   9
ATOM      9  C   UNL     1      20.894  13.595  34.179  1.00  0.00     0.000 C 
BRANCH   9  10
ATOM     10  C   UNL     1      20.365  13.370  35.604  1.00  0.00     0.000 C 
BRANCH  10  11
ATOM     11  C   UNL     1      18.828  13.323  35.675  1.00  0.00     0.000 C 
BRANCH  11  12
ATOM     12  C   UNL     1      18.190  12.029  35.135  1.00  0.00     0.000 C 
BRANCH  12  13
ATOM     13  C   UNL     1      19.095  10.797  35.305  1.00  0.00     0.006 C 
BRANCH  13  14
ATOM     14  C   UNL     1      19.484  10.173  33.958  1.00  0.00     0.053 C 
BRANCH  14  15
ATOM     15  C   UNL     1      18.670   8.951  33.656  1.00  0.00     0.041 C 
ATOM     16  O   UNL     1      18.506   8.580  32.463  1.00  0.00    -0.550 OA
ATOM     17  O   UNL     1      18.127   8.202  34.691  1.00  0.00    -0.550 OA
ENDBRANCH  14  15
ENDBRANCH  13  14
ENDBRANCH  12  13
ENDBRANCH  11  12
ENDBRANCH  10  11
ENDBRANCH   9  10
ENDBRANCH   8   9
ENDBRANCH   7   8
ENDBRANCH   6   7
ENDBRANCH   5   6
ENDBRANCH   4   5
ENDBRANCH   3   4
ENDBRANCH   2   3
ENDBRANCH   1   2
BRANCH   1  18
ATOM     18  C   UNL     1      24.898  12.171  30.754  1.00  0.00     0.000 C 
BRANCH  18  19
ATOM     19  C   UNL     1      25.040  13.543  30.070  1.00  0.00     0.000 C 
BRANCH  19  20
ATOM     20  C   UNL     1      26.510  13.963  29.904  1.00  0.00     0.000 C 
BRANCH  20  21
ATOM     21  C   UNL     1      27.465  12.756  29.893  1.00  0.00     0.000 C 
BRANCH  21  22
ATOM     22  C   UNL     1      28.567  12.857  30.962  1.00  0.00     0.000 C 
BRANCH  22  23
ATOM     23  C   UNL     1      28.066  12.823  32.417  1.00  0.00     0.000 C 
BRANCH  23  24
ATOM     24  C   UNL     1      28.300  11.466  33.099  1.00  0.00    -0.000 C 
BRANCH  24  25
ATOM     25  C   UNL     1      27.478  11.356  34.393  1.00  0.00    -0.000 C 
BRANCH  25  26
ATOM     26  C   UNL     1      27.979  12.304  35.494  1.00  0.00    -0.000 C 
BRANCH  26  27
ATOM     27  C   UNL     1      27.539  13.761  35.265  1.00  0.00    -0.000 C 
BRANCH  27  28
ATOM     28  C   UNL     1      26.003  13.917  35.239  1.00  0.00    -0.000 C 
BRANCH  28  29
ATOM     29  C   UNL     1      25.282  13.147  36.363  1.00  0.00    -0.000 C 
BRANCH  29  30
ATOM     30  C   UNL     1      23.955  12.480  35.951  1.00  0.00    -0.000 C 
BRANCH  30  31
ATOM     31  C   UNL     1      24.021  10.949  35.799  1.00  0.00    -0.003 C 
ATOM     32  C   UNL     1      22.667  10.321  35.472  1.00  0.00     0.004 C 
ENDBRANCH  30  31
ENDBRANCH  29  30
ENDBRANCH  28  29
ENDBRANCH  27  28
ENDBRANCH  26  27
ENDBRANCH  25  26
ENDBRANCH  24  25
ENDBRANCH  23  24
ENDBRANCH  22  23
ENDBRANCH  21  22
ENDBRANCH  20  21
ENDBRANCH  19  20
ENDBRANCH  18  19
ENDBRANCH   1  18
TORSDOF 28
ENDMDL
MODEL 8
REMARK VINA RESULT:    -3.781      1.584      4.194
REMARK INTER + INTRA:         -14.769
REMARK INTER:                 -10.440
REMARK INTRA:                  -4.329
REMARK UNBOUND:                -4.798
REMARK SMILES CCCCCCCCCCCCCCCCCCCCCCCCCCCCCC(=O)[O-]
REMARK SMILES IDX 16 1 17 2 18 3 19 4 20 5 21 6 22 7 23 8 24 9 25 10 26 11
REMARK SMILES IDX 27 12 28 13 29 14 30 15 31 16 32 17 15 18 14 19 13 20 12 21
REMARK SMILES IDX 11 22 10 23 9 24 8 25 7 26 6 27 5 28 4 29 3 30 2 31 1 32
REMARK H PARENT
REMARK Flexibility Score: inf
ROOT
ATOM      1  C   UNL     1      19.346   9.162  36.194  1.00  0.00     0.000 C 
ENDROOT
BRANCH   1   2
ATOM      2  C   UNL     1      20.866   9.126  35.940  1.00  0.00     0.000 C 
BRANCH   2   3
ATOM      3  C   UNL     1      21.428  10.330  35.160  1.00  0.00     0.000 C 
BRANCH   3   4
ATOM      4  C   UNL     1      22.765  10.889  35.686  1.00  0.00     0.000 C 
BRANCH   4   5
ATOM      5  C   UNL     1      23.174  12.261  35.123  1.00  0.00     0.000 C 
BRANCH   5   6
ATOM      6  C   UNL     1      23.042  12.346  33.593  1.00  0.00     0.000 C 
BRANCH   6   7
ATOM      7  C   UNL     1      24.391  12.187  32.869  1.00  0.00     0.000 C 
BRANCH   7   8
ATOM      8  C   UNL     1      24.376  12.543  31.371  1.00  0.00     0.000 C 
BRANCH   8   9
ATOM      9  C   UNL     1      25.597  13.369  30.941  1.00  0.00     0.000 C 
BRANCH   9  10
ATOM     10  C   UNL     1      26.650  12.479  30.264  1.00  0.00     0.000 C 
BRANCH  10  11
ATOM     11  C   UNL     1      27.549  11.739  31.271  1.00  0.00     0.000 C 
BRANCH  11  12
ATOM     12  C   UNL     1      28.145  12.621  32.384  1.00  0.00     0.000 C 
BRANCH  12  13
ATOM     13  C   UNL     1      28.454  11.838  33.672  1.00  0.00     0.006 C 
BRANCH  13  14
ATOM     14  C   UNL     1      27.317  11.937  34.697  1.00  0.00     0.053 C 
BRANCH  14  15
ATOM     15  C   UNL     1      27.151  13.334  35.212  1.00  0.00     0.041 C 
ATOM     16  O   UNL     1      26.008  13.764  35.519  1.00  0.00    -0.550 OA
ATOM     17  O   UNL     1      28.263  14.147  35.390  1.00  0.00    -0.550 OA
ENDBRANCH  14  15
ENDBRANCH  13  14
ENDBRANCH  12  13
ENDBRANCH  11  12
ENDBRANCH  10  11
ENDBRANCH   9  10
ENDBRANCH   8   9
ENDBRANCH   7   8
ENDBRANCH   6   7
ENDBRANCH   5   6
ENDBRANCH   4   5
ENDBRANCH   3   4
ENDBRANCH   2   3
ENDBRANCH   1   2
BRANCH   1  18
ATOM     18  C   UNL     1      18.639   7.799  36.094  1.00  0.00     0.000 C 
BRANCH  18  19
ATOM     19  C   UNL     1      17.877   7.619  34.768  1.00  0.00     0.000 C 
BRANCH  19  20
ATOM     20  C   UNL     1      17.997   8.850  33.855  1.00  0.00     0.000 C 
BRANCH  20  21
ATOM     21  C   UNL     1      18.818   8.558  32.587  1.00  0.00     0.000 C 
BRANCH  21  22
ATOM     22  C   UNL     1      18.130   9.052  31.302  1.00  0.00     0.000 C 
BRANCH  22  23
ATOM     23  C   UNL     1      18.908  10.126  30.520  1.00  0.00     0.000 C 
BRANCH  23  24
ATOM     24  C   UNL     1      20.432   9.962  30.633  1.00  0.00    -0.000 C 
BRANCH  24  25
ATOM     25  C   UNL     1      21.145  11.300  30.383  1.00  0.00    -0.000 C 
BRANCH  25  26
ATOM     26  C   UNL     1      20.169  12.485  30.304  1.00  0.00    -0.000 C 
BRANCH  26  27
ATOM     27  C   UNL     1      20.443  13.550  31.381  1.00  0.00    -0.000 C 
BRANCH  27  28
ATOM     28  C   UNL     1      19.149  14.055  32.054  1.00  0.00    -0.000 C 
BRANCH  28  29
ATOM     29  C   UNL     1      18.180  12.929  32.461  1.00  0.00    -0.000 C 
BRANCH  29  30
ATOM     30  C   UNL     1      18.290  12.470  33.929  1.00  0.00    -0.000 C 
BRANCH  30  31
ATOM     31  C   UNL     1      19.299  13.265  34.780  1.00  0.00    -0.003 C 
ATOM     32  C   UNL     1      19.159  12.999  36.278  1.00  0.00     0.004 C 
ENDBRANCH  30  31
ENDBRANCH  29  30
ENDBRANCH  28  29
ENDBRANCH  27  28
ENDBRANCH  26  27
ENDBRANCH  25  26
ENDBRANCH  24  25
ENDBRANCH  23  24
ENDBRANCH  22  23
ENDBRANCH  21  22
ENDBRANCH  20  21
ENDBRANCH  19  20
ENDBRANCH  18  19
ENDBRANCH   1  18
TORSDOF 28
ENDMDL
MODEL 9
REMARK VINA RESULT:    -3.733      2.153      4.501
REMARK INTER + INTRA:         -14.642
REMARK INTER:                 -10.286
REMARK INTRA:                  -4.356
REMARK UNBOUND:                -4.798
REMARK SMILES CCCCCCCCCCCCCCCCCCCCCCCCCCCCCC(=O)[O-]
REMARK SMILES IDX 16 1 17 2 18 3 19 4 20 5 21 6 22 7 23 8 24 9 25 10 26 11
REMARK SMILES IDX 27 12 28 13 29 14 30 15 31 16 32 17 15 18 14 19 13 20 12 21
REMARK SMILES IDX 11 22 10 23 9 24 8 25 7 26 6 27 5 28 4 29 3 30 2 31 1 32
REMARK H PARENT
REMARK Flexibility Score: inf
ROOT
ATOM      1  C   UNL     1      24.687  12.954  31.327  1.00  0.00     0.000 C 
ENDROOT
BRANCH   1   2
ATOM      2  C   UNL     1      25.954  13.362  30.549  1.00  0.00     0.000 C 
BRANCH   2   3
ATOM      3  C   UNL     1      27.286  12.977  31.219  1.00  0.00     0.000 C 
BRANCH   3   4
ATOM      4  C   UNL     1      27.424  11.489  31.600  1.00  0.00     0.000 C 
BRANCH   4   5
ATOM      5  C   UNL     1      27.245  11.172  33.095  1.00  0.00     0.000 C 
BRANCH   5   6
ATOM      6  C   UNL     1      28.345  11.787  33.976  1.00  0.00     0.000 C 
BRANCH   6   7
ATOM      7  C   UNL     1      27.798  12.827  34.971  1.00  0.00     0.000 C 
BRANCH   7   8
ATOM      8  C   UNL     1      26.335  13.247  34.741  1.00  0.00     0.000 C 
BRANCH   8   9
ATOM      9  C   UNL     1      25.404  12.821  35.885  1.00  0.00     0.000 C 
BRANCH   9  10
ATOM     10  C   UNL     1      24.423  11.734  35.418  1.00  0.00     0.000 C 
BRANCH  10  11
ATOM     11  C   UNL     1      23.089  12.307  34.905  1.00  0.00     0.000 C 
BRANCH  11  12
ATOM     12  C   UNL     1      21.854  11.429  35.181  1.00  0.00     0.000 C 
BRANCH  12  13
ATOM     13  C   UNL     1      20.686  12.212  35.804  1.00  0.00     0.006 C 
BRANCH  13  14
ATOM     14  C   UNL     1      19.494  12.335  34.846  1.00  0.00     0.053 C 
BRANCH  14  15
ATOM     15  C   UNL     1      19.323  13.738  34.349  1.00  0.00     0.041 C 
ATOM     16  O   UNL     1      20.331  14.464  34.143  1.00  0.00    -0.550 OA
ATOM     17  O   UNL     1      18.053  14.230  34.076  1.00  0.00    -0.550 OA
ENDBRANCH  14  15
ENDBRANCH  13  14
ENDBRANCH  12  13
ENDBRANCH  11  12
ENDBRANCH  10  11
ENDBRANCH   9  10
ENDBRANCH   8   9
ENDBRANCH   7   8
ENDBRANCH   6   7
ENDBRANCH   5   6
ENDBRANCH   4   5
ENDBRANCH   3   4
ENDBRANCH   2   3
ENDBRANCH   1   2
BRANCH   1  18
ATOM     18  C   UNL     1      23.666  12.133  30.521  1.00  0.00     0.000 C 
BRANCH  18  19
ATOM     19  C   UNL     1      22.528  12.996  29.947  1.00  0.00     0.000 C 
BRANCH  19  20
ATOM     20  C   UNL     1      21.554  13.475  31.037  1.00  0.00     0.000 C 
BRANCH  20  21
ATOM     21  C   UNL     1      20.526  14.486  30.499  1.00  0.00     0.000 C 
BRANCH  21  22
ATOM     22  C   UNL     1      19.213  13.822  30.050  1.00  0.00     0.000 C 
BRANCH  22  23
ATOM     23  C   UNL     1      18.714  12.686  30.961  1.00  0.00     0.000 C 
BRANCH  23  24
ATOM     24  C   UNL     1      18.530  11.356  30.214  1.00  0.00    -0.000 C 
BRANCH  24  25
ATOM     25  C   UNL     1      19.808  10.506  30.287  1.00  0.00    -0.000 C 
BRANCH  25  26
ATOM     26  C   UNL     1      20.301  10.302  31.728  1.00  0.00    -0.000 C 
BRANCH  26  27
ATOM     27  C   UNL     1      19.950   8.909  32.282  1.00  0.00    -0.000 C 
BRANCH  27  28
ATOM     28  C   UNL     1      18.472   8.800  32.712  1.00  0.00    -0.000 C 
BRANCH  28  29
ATOM     29  C   UNL     1      18.217   9.222  34.172  1.00  0.00    -0.000 C 
BRANCH  29  30
ATOM     30  C   UNL     1      18.614   8.177  35.234  1.00  0.00    -0.000 C 
BRANCH  30  31
ATOM     31  C   UNL     1      19.584   8.691  36.314  1.00  0.00    -0.003 C 
ATOM     32  C   UNL     1      19.337   8.066  37.687  1.00  0.00     0.004 C 
ENDBRANCH  30  31
ENDBRANCH  29  30
ENDBRANCH  28  29
ENDBRANCH  27  28
ENDBRANCH  26  27
ENDBRANCH  25  26
ENDBRANCH  24  25
ENDBRANCH  23  24
ENDBRANCH  22  23
ENDBRANCH  21  22
ENDBRANCH  20  21
ENDBRANCH  19  20
ENDBRANCH  18  19
ENDBRANCH   1  18
TORSDOF 28
ENDMDL
