MODEL 1
REMARK VINA RESULT:    -4.282      0.000      0.000
REMARK INTER + INTRA:         -12.677
REMARK INTER:                  -9.288
REMARK INTRA:                  -3.389
REMARK UNBOUND:                -3.389
REMARK SMILES CCCCCCCCCCCCCCCCCCCCCC(=O)[O-]
REMARK SMILES IDX 12 1 11 2 10 3 9 4 8 5 7 6 6 7 5 8 4 9 3 10 2 11 1 12 13 13
REMARK SMILES IDX 14 14 15 15 16 16 17 17 18 18 19 19 20 20 21 21 22 22 23 23
REMARK SMILES IDX 24 24
REMARK H PARENT
REMARK Flexibility Score: inf
ROOT
ATOM      1  C   UNL     1     -35.695  84.575 -17.256  1.00  0.00     0.000 C 
ENDROOT
BRANCH   1   2
ATOM      2  C   UNL     1     -36.802  83.662 -17.812  1.00  0.00     0.000 C 
BRANCH   2   3
ATOM      3  C   UNL     1     -36.449  82.162 -17.877  1.00  0.00     0.000 C 
BRANCH   3   4
ATOM      4  C   UNL     1     -37.042  81.395 -19.076  1.00  0.00    -0.000 C 
BRANCH   4   5
ATOM      5  C   UNL     1     -37.648  82.279 -20.180  1.00  0.00    -0.000 C 
BRANCH   5   6
ATOM      6  C   UNL     1     -37.253  81.818 -21.593  1.00  0.00    -0.000 C 
BRANCH   6   7
ATOM      7  C   UNL     1     -37.629  82.848 -22.673  1.00  0.00    -0.000 C 
BRANCH   7   8
ATOM      8  C   UNL     1     -37.828  84.259 -22.094  1.00  0.00    -0.000 C 
BRANCH   8   9
ATOM      9  C   UNL     1     -38.191  85.299 -23.169  1.00  0.00    -0.000 C 
BRANCH   9  10
ATOM     10  C   UNL     1     -37.048  86.256 -23.558  1.00  0.00    -0.000 C 
BRANCH  10  11
ATOM     11  C   UNL     1     -35.748  86.027 -22.757  1.00  0.00    -0.003 C 
ATOM     12  C   UNL     1     -34.617  85.479 -23.628  1.00  0.00     0.004 C 
ENDBRANCH  10  11
ENDBRANCH   9  10
ENDBRANCH   8   9
ENDBRANCH   7   8
ENDBRANCH   6   7
ENDBRANCH   5   6
ENDBRANCH   4   5
ENDBRANCH   3   4
ENDBRANCH   2   3
ENDBRANCH   1   2
BRANCH   1  13
ATOM     13  C   UNL     1     -34.931  85.332 -18.357  1.00  0.00     0.000 C 
BRANCH  13  14
ATOM     14  C   UNL     1     -34.818  84.532 -19.668  1.00  0.00     0.000 C 
BRANCH  14  15
ATOM     15  C   UNL     1     -33.638  83.545 -19.736  1.00  0.00     0.000 C 
BRANCH  15  16
ATOM     16  C   UNL     1     -33.747  82.556 -20.909  1.00  0.00     0.000 C 
BRANCH  16  17
ATOM     17  C   UNL     1     -33.736  81.084 -20.441  1.00  0.00     0.000 C 
BRANCH  17  18
ATOM     18  C   UNL     1     -33.031  80.860 -19.088  1.00  0.00     0.000 C 
BRANCH  18  19
ATOM     19  C   UNL     1     -31.608  80.279 -19.172  1.00  0.00     0.000 C 
BRANCH  19  20
ATOM     20  C   UNL     1     -30.494  81.301 -19.483  1.00  0.00     0.006 C 
BRANCH  20  21
ATOM     21  C   UNL     1     -29.908  81.181 -20.901  1.00  0.00     0.053 C 
BRANCH  21  22
ATOM     22  C   UNL     1     -29.715  82.512 -21.564  1.00  0.00     0.041 C 
ATOM     23  O   UNL     1     -30.268  83.542 -21.096  1.00  0.00    -0.550 OA
ATOM     24  O   UNL     1     -28.957  82.606 -22.726  1.00  0.00    -0.550 OA
ENDBRANCH  21  22
ENDBRANCH  20  21
ENDBRANCH  19  20
ENDBRANCH  18  19
ENDBRANCH  17  18
ENDBRANCH  16  17
ENDBRANCH  15  16
ENDBRANCH  14  15
ENDBRANCH  13  14
ENDBRANCH   1  13
TORSDOF 20
ENDMDL
MODEL 2
REMARK VINA RESULT:    -3.987      2.140      5.803
REMARK INTER + INTRA:         -12.037
REMARK INTER:                  -8.949
REMARK INTRA:                  -3.088
REMARK UNBOUND:                -3.389
REMARK SMILES CCCCCCCCCCCCCCCCCCCCCC(=O)[O-]
REMARK SMILES IDX 12 1 11 2 10 3 9 4 8 5 7 6 6 7 5 8 4 9 3 10 2 11 1 12 13 13
REMARK SMILES IDX 14 14 15 15 16 16 17 17 18 18 19 19 20 20 21 21 22 22 23 23
REMARK SMILES IDX 24 24
REMARK H PARENT
REMARK Flexibility Score: inf
ROOT
ATOM      1  C   UNL     1     -37.095  81.487 -21.347  1.00  0.00     0.000 C 
ENDROOT
BRANCH   1   2
ATOM      2  C   UNL     1     -37.538  82.035 -19.978  1.00  0.00     0.000 C 
BRANCH   2   3
ATOM      3  C   UNL     1     -36.776  81.468 -18.763  1.00  0.00     0.000 C 
BRANCH   3   4
ATOM      4  C   UNL     1     -36.567  82.454 -17.596  1.00  0.00    -0.000 C 
BRANCH   4   5
ATOM      5  C   UNL     1     -36.853  83.928 -17.930  1.00  0.00    -0.000 C 
BRANCH   5   6
ATOM      6  C   UNL     1     -35.757  84.877 -17.414  1.00  0.00    -0.000 C 
BRANCH   6   7
ATOM      7  C   UNL     1     -34.545  84.942 -18.359  1.00  0.00    -0.000 C 
BRANCH   7   8
ATOM      8  C   UNL     1     -34.899  84.530 -19.798  1.00  0.00    -0.000 C 
BRANCH   8   9
ATOM      9  C   UNL     1     -33.930  83.482 -20.375  1.00  0.00    -0.000 C 
BRANCH   9  10
ATOM     10  C   UNL     1     -32.924  82.903 -19.362  1.00  0.00    -0.000 C 
BRANCH  10  11
ATOM     11  C   UNL     1     -33.221  81.443 -18.958  1.00  0.00    -0.003 C 
ATOM     12  C   UNL     1     -33.444  80.538 -20.168  1.00  0.00     0.004 C 
ENDBRANCH  10  11
ENDBRANCH   9  10
ENDBRANCH   8   9
ENDBRANCH   7   8
ENDBRANCH   6   7
ENDBRANCH   5   6
ENDBRANCH   4   5
ENDBRANCH   3   4
ENDBRANCH   2   3
ENDBRANCH   1   2
BRANCH   1  13
ATOM     13  C   UNL     1     -37.055  82.567 -22.442  1.00  0.00     0.000 C 
BRANCH  13  14
ATOM     14  C   UNL     1     -37.536  83.943 -21.945  1.00  0.00     0.000 C 
BRANCH  14  15
ATOM     15  C   UNL     1     -38.313  84.782 -22.978  1.00  0.00     0.000 C 
BRANCH  15  16
ATOM     16  C   UNL     1     -37.475  85.922 -23.580  1.00  0.00     0.000 C 
BRANCH  16  17
ATOM     17  C   UNL     1     -36.222  86.242 -22.736  1.00  0.00     0.000 C 
BRANCH  17  18
ATOM     18  C   UNL     1     -34.918  86.326 -23.555  1.00  0.00     0.000 C 
BRANCH  18  19
ATOM     19  C   UNL     1     -34.912  87.372 -24.683  1.00  0.00     0.000 C 
BRANCH  19  20
ATOM     20  C   UNL     1     -33.644  87.388 -25.564  1.00  0.00     0.006 C 
BRANCH  20  21
ATOM     21  C   UNL     1     -32.446  86.637 -24.956  1.00  0.00     0.053 C 
BRANCH  21  22
ATOM     22  C   UNL     1     -31.294  87.542 -24.639  1.00  0.00     0.041 C 
ATOM     23  O   UNL     1     -31.427  88.469 -23.796  1.00  0.00    -0.550 OA
ATOM     24  O   UNL     1     -30.085  87.388 -25.307  1.00  0.00    -0.550 OA
ENDBRANCH  21  22
ENDBRANCH  20  21
ENDBRANCH  19  20
ENDBRANCH  18  19
ENDBRANCH  17  18
ENDBRANCH  16  17
ENDBRANCH  15  16
ENDBRANCH  14  15
ENDBRANCH  13  14
ENDBRANCH   1  13
TORSDOF 20
ENDMDL
MODEL 3
REMARK VINA RESULT:    -3.984     12.483     16.037
REMARK INTER + INTRA:         -12.031
REMARK INTER:                  -9.047
REMARK INTRA:                  -2.984
REMARK UNBOUND:                -3.389
REMARK SMILES CCCCCCCCCCCCCCCCCCCCCC(=O)[O-]
REMARK SMILES IDX 12 1 11 2 10 3 9 4 8 5 7 6 6 7 5 8 4 9 3 10 2 11 1 12 13 13
REMARK SMILES IDX 14 14 15 15 16 16 17 17 18 18 19 19 20 20 21 21 22 22 23 23
REMARK SMILES IDX 24 24
REMARK H PARENT
REMARK Flexibility Score: inf
ROOT
ATOM      1  C   UNL     1     -24.540  91.850 -31.803  1.00  0.00     0.000 C 
ENDROOT
BRANCH   1   2
ATOM      2  C   UNL     1     -23.488  92.973 -31.730  1.00  0.00     0.000 C 
BRANCH   2   3
ATOM      3  C   UNL     1     -23.728  94.163 -32.681  1.00  0.00     0.000 C 
BRANCH   3   4
ATOM      4  C   UNL     1     -24.346  95.415 -32.027  1.00  0.00    -0.000 C 
BRANCH   4   5
ATOM      5  C   UNL     1     -23.602  95.937 -30.786  1.00  0.00    -0.000 C 
BRANCH   5   6
ATOM      6  C   UNL     1     -24.547  96.238 -29.610  1.00  0.00    -0.000 C 
BRANCH   6   7
ATOM      7  C   UNL     1     -24.477  95.164 -28.511  1.00  0.00    -0.000 C 
BRANCH   7   8
ATOM      8  C   UNL     1     -25.455  94.004 -28.760  1.00  0.00    -0.000 C 
BRANCH   8   9
ATOM      9  C   UNL     1     -25.111  92.746 -27.943  1.00  0.00    -0.000 C 
BRANCH   9  10
ATOM     10  C   UNL     1     -26.128  91.595 -28.065  1.00  0.00    -0.000 C 
BRANCH  10  11
ATOM     11  C   UNL     1     -26.894  91.303 -26.757  1.00  0.00    -0.003 C 
ATOM     12  C   UNL     1     -27.389  89.859 -26.683  1.00  0.00     0.004 C 
ENDBRANCH  10  11
ENDBRANCH   9  10
ENDBRANCH   8   9
ENDBRANCH   7   8
ENDBRANCH   6   7
ENDBRANCH   5   6
ENDBRANCH   4   5
ENDBRANCH   3   4
ENDBRANCH   2   3
ENDBRANCH   1   2
BRANCH   1  13
ATOM     13  C   UNL     1     -24.117  90.581 -31.043  1.00  0.00     0.000 C 
BRANCH  13  14
ATOM     14  C   UNL     1     -22.775  90.743 -30.305  1.00  0.00     0.000 C 
BRANCH  14  15
ATOM     15  C   UNL     1     -22.714  90.111 -28.901  1.00  0.00     0.000 C 
BRANCH  15  16
ATOM     16  C   UNL     1     -23.613  88.871 -28.760  1.00  0.00     0.000 C 
BRANCH  16  17
ATOM     17  C   UNL     1     -23.897  88.515 -27.284  1.00  0.00     0.000 C 
BRANCH  17  18
ATOM     18  C   UNL     1     -23.574  89.650 -26.291  1.00  0.00     0.000 C 
BRANCH  18  19
ATOM     19  C   UNL     1     -22.994  89.200 -24.939  1.00  0.00     0.000 C 
BRANCH  19  20
ATOM     20  C   UNL     1     -23.259  87.726 -24.564  1.00  0.00     0.006 C 
BRANCH  20  21
ATOM     21  C   UNL     1     -21.984  86.905 -24.300  1.00  0.00     0.053 C 
BRANCH  21  22
ATOM     22  C   UNL     1     -22.256  85.633 -23.555  1.00  0.00     0.041 C 
ATOM     23  O   UNL     1     -23.440  85.245 -23.371  1.00  0.00    -0.550 OA
ATOM     24  O   UNL     1     -21.202  84.899 -23.026  1.00  0.00    -0.550 OA
ENDBRANCH  21  22
ENDBRANCH  20  21
ENDBRANCH  19  20
ENDBRANCH  18  19
ENDBRANCH  17  18
ENDBRANCH  16  17
ENDBRANCH  15  16
ENDBRANCH  14  15
ENDBRANCH  13  14
ENDBRANCH   1  13
TORSDOF 20
ENDMDL
MODEL 4
REMARK VINA RESULT:    -3.952      2.574      6.777
REMARK INTER + INTRA:         -11.962
REMARK INTER:                  -8.227
REMARK INTRA:                  -3.735
REMARK UNBOUND:                -3.389
REMARK SMILES CCCCCCCCCCCCCCCCCCCCCC(=O)[O-]
REMARK SMILES IDX 12 1 11 2 10 3 9 4 8 5 7 6 6 7 5 8 4 9 3 10 2 11 1 12 13 13
REMARK SMILES IDX 14 14 15 15 16 16 17 17 18 18 19 19 20 20 21 21 22 22 23 23
REMARK SMILES IDX 24 24
REMARK H PARENT
REMARK Flexibility Score: inf
ROOT
ATOM      1  C   UNL     1     -36.099  80.555 -21.632  1.00  0.00     0.000 C 
ENDROOT
BRANCH   1   2
ATOM      2  C   UNL     1     -35.064  80.135 -20.573  1.00  0.00     0.000 C 
BRANCH   2   3
ATOM      3  C   UNL     1     -33.923  81.144 -20.328  1.00  0.00     0.000 C 
BRANCH   3   4
ATOM      4  C   UNL     1     -33.300  81.107 -18.919  1.00  0.00    -0.000 C 
BRANCH   4   5
ATOM      5  C   UNL     1     -31.881  81.693 -18.818  1.00  0.00    -0.000 C 
BRANCH   5   6
ATOM      6  C   UNL     1     -31.671  82.904 -19.744  1.00  0.00    -0.000 C 
BRANCH   6   7
ATOM      7  C   UNL     1     -30.528  82.683 -20.749  1.00  0.00    -0.000 C 
BRANCH   7   8
ATOM      8  C   UNL     1     -29.909  81.279 -20.636  1.00  0.00    -0.000 C 
BRANCH   8   9
ATOM      9  C   UNL     1     -30.063  80.453 -21.926  1.00  0.00    -0.000 C 
BRANCH   9  10
ATOM     10  C   UNL     1     -30.192  78.933 -21.711  1.00  0.00    -0.000 C 
BRANCH  10  11
ATOM     11  C   UNL     1     -31.410  78.530 -20.853  1.00  0.00    -0.003 C 
ATOM     12  C   UNL     1     -31.008  78.059 -19.455  1.00  0.00     0.004 C 
ENDBRANCH  10  11
ENDBRANCH   9  10
ENDBRANCH   8   9
ENDBRANCH   7   8
ENDBRANCH   6   7
ENDBRANCH   5   6
ENDBRANCH   4   5
ENDBRANCH   3   4
ENDBRANCH   2   3
ENDBRANCH   1   2
BRANCH   1  13
ATOM     13  C   UNL     1     -37.469  80.906 -21.027  1.00  0.00     0.000 C 
BRANCH  13  14
ATOM     14  C   UNL     1     -37.436  81.018 -19.491  1.00  0.00     0.000 C 
BRANCH  14  15
ATOM     15  C   UNL     1     -37.475  82.453 -18.934  1.00  0.00     0.000 C 
BRANCH  15  16
ATOM     16  C   UNL     1     -36.528  82.662 -17.740  1.00  0.00     0.000 C 
BRANCH  16  17
ATOM     17  C   UNL     1     -35.943  84.091 -17.695  1.00  0.00     0.000 C 
BRANCH  17  18
ATOM     18  C   UNL     1     -34.845  84.353 -18.746  1.00  0.00     0.000 C 
BRANCH  18  19
ATOM     19  C   UNL     1     -35.278  85.193 -19.959  1.00  0.00     0.000 C 
BRANCH  19  20
ATOM     20  C   UNL     1     -35.354  84.430 -21.299  1.00  0.00     0.006 C 
BRANCH  20  21
ATOM     21  C   UNL     1     -36.757  84.411 -21.934  1.00  0.00     0.053 C 
BRANCH  21  22
ATOM     22  C   UNL     1     -36.984  85.556 -22.873  1.00  0.00     0.041 C 
ATOM     23  O   UNL     1     -37.943  85.529 -23.690  1.00  0.00    -0.550 OA
ATOM     24  O   UNL     1     -36.110  86.637 -22.876  1.00  0.00    -0.550 OA
ENDBRANCH  21  22
ENDBRANCH  20  21
ENDBRANCH  19  20
ENDBRANCH  18  19
ENDBRANCH  17  18
ENDBRANCH  16  17
ENDBRANCH  15  16
ENDBRANCH  14  15
ENDBRANCH  13  14
ENDBRANCH   1  13
TORSDOF 20
ENDMDL
MODEL 5
REMARK VINA RESULT:    -3.935     13.423     17.434
REMARK INTER + INTRA:         -11.926
REMARK INTER:                  -9.201
REMARK INTRA:                  -2.725
REMARK UNBOUND:                -3.389
REMARK SMILES CCCCCCCCCCCCCCCCCCCCCC(=O)[O-]
REMARK SMILES IDX 12 1 11 2 10 3 9 4 8 5 7 6 6 7 5 8 4 9 3 10 2 11 1 12 13 13
REMARK SMILES IDX 14 14 15 15 16 16 17 17 18 18 19 19 20 20 21 21 22 22 23 23
REMARK SMILES IDX 24 24
REMARK H PARENT
REMARK Flexibility Score: inf
ROOT
ATOM      1  C   UNL     1     -25.774  92.197 -32.917  1.00  0.00     0.000 C 
ENDROOT
BRANCH   1   2
ATOM      2  C   UNL     1     -25.581  91.234 -31.731  1.00  0.00     0.000 C 
BRANCH   2   3
ATOM      3  C   UNL     1     -24.512  91.658 -30.704  1.00  0.00     0.000 C 
BRANCH   3   4
ATOM      4  C   UNL     1     -23.143  90.965 -30.851  1.00  0.00    -0.000 C 
BRANCH   4   5
ATOM      5  C   UNL     1     -22.592  90.331 -29.562  1.00  0.00    -0.000 C 
BRANCH   5   6
ATOM      6  C   UNL     1     -23.338  90.802 -28.302  1.00  0.00    -0.000 C 
BRANCH   6   7
ATOM      7  C   UNL     1     -24.204  89.691 -27.683  1.00  0.00    -0.000 C 
BRANCH   7   8
ATOM      8  C   UNL     1     -23.648  88.285 -27.969  1.00  0.00    -0.000 C 
BRANCH   8   9
ATOM      9  C   UNL     1     -23.898  87.298 -26.815  1.00  0.00    -0.000 C 
BRANCH   9  10
ATOM     10  C   UNL     1     -23.831  87.917 -25.406  1.00  0.00    -0.000 C 
BRANCH  10  11
ATOM     11  C   UNL     1     -22.404  87.968 -24.818  1.00  0.00    -0.003 C 
ATOM     12  C   UNL     1     -22.091  86.754 -23.945  1.00  0.00     0.004 C 
ENDBRANCH  10  11
ENDBRANCH   9  10
ENDBRANCH   8   9
ENDBRANCH   7   8
ENDBRANCH   6   7
ENDBRANCH   5   6
ENDBRANCH   4   5
ENDBRANCH   3   4
ENDBRANCH   2   3
ENDBRANCH   1   2
BRANCH   1  13
ATOM     13  C   UNL     1     -26.509  93.491 -32.526  1.00  0.00     0.000 C 
BRANCH  13  14
ATOM     14  C   UNL     1     -25.696  94.761 -32.840  1.00  0.00     0.000 C 
BRANCH  14  15
ATOM     15  C   UNL     1     -24.186  94.541 -33.051  1.00  0.00     0.000 C 
BRANCH  15  16
ATOM     16  C   UNL     1     -23.333  95.062 -31.882  1.00  0.00     0.000 C 
BRANCH  16  17
ATOM     17  C   UNL     1     -23.812  96.438 -31.370  1.00  0.00     0.000 C 
BRANCH  17  18
ATOM     18  C   UNL     1     -24.278  96.433 -29.899  1.00  0.00     0.000 C 
BRANCH  18  19
ATOM     19  C   UNL     1     -24.346  95.049 -29.232  1.00  0.00     0.000 C 
BRANCH  19  20
ATOM     20  C   UNL     1     -25.769  94.504 -28.983  1.00  0.00     0.006 C 
BRANCH  20  21
ATOM     21  C   UNL     1     -25.939  93.775 -27.638  1.00  0.00     0.053 C 
BRANCH  21  22
ATOM     22  C   UNL     1     -26.879  94.481 -26.710  1.00  0.00     0.041 C 
ATOM     23  O   UNL     1     -26.434  95.248 -25.815  1.00  0.00    -0.550 OA
ATOM     24  O   UNL     1     -28.248  94.259 -26.805  1.00  0.00    -0.550 OA
ENDBRANCH  21  22
ENDBRANCH  20  21
ENDBRANCH  19  20
ENDBRANCH  18  19
ENDBRANCH  17  18
ENDBRANCH  16  17
ENDBRANCH  15  16
ENDBRANCH  14  15
ENDBRANCH  13  14
ENDBRANCH   1  13
TORSDOF 20
ENDMDL
MODEL 6
REMARK VINA RESULT:    -3.917     12.534     15.731
REMARK INTER + INTRA:         -11.886
REMARK INTER:                  -9.641
REMARK INTRA:                  -2.245
REMARK UNBOUND:                -3.389
REMARK SMILES CCCCCCCCCCCCCCCCCCCCCC(=O)[O-]
REMARK SMILES IDX 12 1 11 2 10 3 9 4 8 5 7 6 6 7 5 8 4 9 3 10 2 11 1 12 13 13
REMARK SMILES IDX 14 14 15 15 16 16 17 17 18 18 19 19 20 20 21 21 22 22 23 23
REMARK SMILES IDX 24 24
REMARK H PARENT
REMARK Flexibility Score: inf
ROOT
ATOM      1  C   UNL     1     -22.846  90.248 -29.912  1.00  0.00     0.000 C 
ENDROOT
BRANCH   1   2
ATOM      2  C   UNL     1     -23.248  90.757 -31.308  1.00  0.00     0.000 C 
BRANCH   2   3
ATOM      3  C   UNL     1     -24.641  91.414 -31.394  1.00  0.00     0.000 C 
BRANCH   3   4
ATOM      4  C   UNL     1     -24.648  92.890 -31.839  1.00  0.00    -0.000 C 
BRANCH   4   5
ATOM      5  C   UNL     1     -23.263  93.559 -31.902  1.00  0.00    -0.000 C 
BRANCH   5   6
ATOM      6  C   UNL     1     -23.331  95.084 -31.709  1.00  0.00    -0.000 C 
BRANCH   6   7
ATOM      7  C   UNL     1     -24.644  95.534 -31.047  1.00  0.00    -0.000 C 
BRANCH   7   8
ATOM      8  C   UNL     1     -24.405  96.377 -29.782  1.00  0.00    -0.000 C 
BRANCH   8   9
ATOM      9  C   UNL     1     -25.152  95.834 -28.552  1.00  0.00    -0.000 C 
BRANCH   9  10
ATOM     10  C   UNL     1     -25.877  94.492 -28.774  1.00  0.00    -0.000 C 
BRANCH  10  11
ATOM     11  C   UNL     1     -25.414  93.372 -27.818  1.00  0.00    -0.003 C 
ATOM     12  C   UNL     1     -23.982  92.919 -28.102  1.00  0.00     0.004 C 
ENDBRANCH  10  11
ENDBRANCH   9  10
ENDBRANCH   8   9
ENDBRANCH   7   8
ENDBRANCH   6   7
ENDBRANCH   5   6
ENDBRANCH   4   5
ENDBRANCH   3   4
ENDBRANCH   2   3
ENDBRANCH   1   2
BRANCH   1  13
ATOM     13  C   UNL     1     -23.946  89.411 -29.237  1.00  0.00     0.000 C 
BRANCH  13  14
ATOM     14  C   UNL     1     -23.616  89.054 -27.775  1.00  0.00     0.000 C 
BRANCH  14  15
ATOM     15  C   UNL     1     -24.817  89.055 -26.810  1.00  0.00     0.000 C 
BRANCH  15  16
ATOM     16  C   UNL     1     -24.403  88.934 -25.334  1.00  0.00     0.000 C 
BRANCH  16  17
ATOM     17  C   UNL     1     -22.873  89.022 -25.142  1.00  0.00     0.000 C 
BRANCH  17  18
ATOM     18  C   UNL     1     -22.211  87.683 -24.757  1.00  0.00     0.000 C 
BRANCH  18  19
ATOM     19  C   UNL     1     -23.123  86.678 -24.033  1.00  0.00     0.000 C 
BRANCH  19  20
ATOM     20  C   UNL     1     -22.491  85.300 -23.743  1.00  0.00     0.006 C 
BRANCH  20  21
ATOM     21  C   UNL     1     -21.821  85.193 -22.361  1.00  0.00     0.053 C 
BRANCH  21  22
ATOM     22  C   UNL     1     -22.000  83.844 -21.734  1.00  0.00     0.041 C 
ATOM     23  O   UNL     1     -21.373  82.846 -22.180  1.00  0.00    -0.550 OA
ATOM     24  O   UNL     1     -22.892  83.680 -20.681  1.00  0.00    -0.550 OA
ENDBRANCH  21  22
ENDBRANCH  20  21
ENDBRANCH  19  20
ENDBRANCH  18  19
ENDBRANCH  17  18
ENDBRANCH  16  17
ENDBRANCH  15  16
ENDBRANCH  14  15
ENDBRANCH  13  14
ENDBRANCH   1  13
TORSDOF 20
ENDMDL
MODEL 7
REMARK VINA RESULT:    -3.874     13.040     16.557
REMARK INTER + INTRA:         -11.793
REMARK INTER:                  -8.479
REMARK INTRA:                  -3.314
REMARK UNBOUND:                -3.389
REMARK SMILES CCCCCCCCCCCCCCCCCCCCCC(=O)[O-]
REMARK SMILES IDX 12 1 11 2 10 3 9 4 8 5 7 6 6 7 5 8 4 9 3 10 2 11 1 12 13 13
REMARK SMILES IDX 14 14 15 15 16 16 17 17 18 18 19 19 20 20 21 21 22 22 23 23
REMARK SMILES IDX 24 24
REMARK H PARENT
REMARK Flexibility Score: inf
ROOT
ATOM      1  C   UNL     1     -27.805  93.531 -27.584  1.00  0.00     0.000 C 
ENDROOT
BRANCH   1   2
ATOM      2  C   UNL     1     -27.688  92.024 -27.293  1.00  0.00     0.000 C 
BRANCH   2   3
ATOM      3  C   UNL     1     -26.272  91.530 -26.935  1.00  0.00     0.000 C 
BRANCH   3   4
ATOM      4  C   UNL     1     -25.424  91.039 -28.125  1.00  0.00    -0.000 C 
BRANCH   4   5
ATOM      5  C   UNL     1     -23.967  91.533 -28.135  1.00  0.00    -0.000 C 
BRANCH   5   6
ATOM      6  C   UNL     1     -22.952  90.389 -28.303  1.00  0.00    -0.000 C 
BRANCH   6   7
ATOM      7  C   UNL     1     -23.580  89.136 -28.938  1.00  0.00    -0.000 C 
BRANCH   7   8
ATOM      8  C   UNL     1     -23.323  87.866 -28.109  1.00  0.00    -0.000 C 
BRANCH   8   9
ATOM      9  C   UNL     1     -24.494  87.517 -27.174  1.00  0.00    -0.000 C 
BRANCH   9  10
ATOM     10  C   UNL     1     -24.147  87.512 -25.673  1.00  0.00    -0.000 C 
BRANCH  10  11
ATOM     11  C   UNL     1     -24.038  88.923 -25.057  1.00  0.00    -0.003 C 
ATOM     12  C   UNL     1     -22.597  89.302 -24.720  1.00  0.00     0.004 C 
ENDBRANCH  10  11
ENDBRANCH   9  10
ENDBRANCH   8   9
ENDBRANCH   7   8
ENDBRANCH   6   7
ENDBRANCH   5   6
ENDBRANCH   4   5
ENDBRANCH   3   4
ENDBRANCH   2   3
ENDBRANCH   1   2
BRANCH   1  13
ATOM     13  C   UNL     1     -26.982  94.397 -26.615  1.00  0.00     0.000 C 
BRANCH  13  14
ATOM     14  C   UNL     1     -25.891  95.220 -27.325  1.00  0.00     0.000 C 
BRANCH  14  15
ATOM     15  C   UNL     1     -25.771  94.984 -28.842  1.00  0.00     0.000 C 
BRANCH  15  16
ATOM     16  C   UNL     1     -24.315  94.992 -29.340  1.00  0.00     0.000 C 
BRANCH  16  17
ATOM     17  C   UNL     1     -24.017  96.189 -30.269  1.00  0.00     0.000 C 
BRANCH  17  18
ATOM     18  C   UNL     1     -23.799  95.799 -31.745  1.00  0.00     0.000 C 
BRANCH  18  19
ATOM     19  C   UNL     1     -23.260  94.377 -31.981  1.00  0.00     0.000 C 
BRANCH  19  20
ATOM     20  C   UNL     1     -24.248  93.398 -32.651  1.00  0.00     0.006 C 
BRANCH  20  21
ATOM     21  C   UNL     1     -24.657  92.210 -31.762  1.00  0.00     0.053 C 
BRANCH  21  22
ATOM     22  C   UNL     1     -23.912  90.953 -32.095  1.00  0.00     0.041 C 
ATOM     23  O   UNL     1     -24.518  89.967 -32.593  1.00  0.00    -0.550 OA
ATOM     24  O   UNL     1     -22.554  90.855 -31.816  1.00  0.00    -0.550 OA
ENDBRANCH  21  22
ENDBRANCH  20  21
ENDBRANCH  19  20
ENDBRANCH  18  19
ENDBRANCH  17  18
ENDBRANCH  16  17
ENDBRANCH  15  16
ENDBRANCH  14  15
ENDBRANCH  13  14
ENDBRANCH   1  13
TORSDOF 20
ENDMDL
MODEL 8
REMARK VINA RESULT:    -3.869     10.982     13.082
REMARK INTER + INTRA:         -11.783
REMARK INTER:                  -8.447
REMARK INTRA:                  -3.335
REMARK UNBOUND:                -3.389
REMARK SMILES CCCCCCCCCCCCCCCCCCCCCC(=O)[O-]
REMARK SMILES IDX 12 1 11 2 10 3 9 4 8 5 7 6 6 7 5 8 4 9 3 10 2 11 1 12 13 13
REMARK SMILES IDX 14 14 15 15 16 16 17 17 18 18 19 19 20 20 21 21 22 22 23 23
REMARK SMILES IDX 24 24
REMARK H PARENT
REMARK Flexibility Score: inf
ROOT
ATOM      1  C   UNL     1     -20.712  80.647 -23.885  1.00  0.00     0.000 C 
ENDROOT
BRANCH   1   2
ATOM      2  C   UNL     1     -21.685  81.604 -23.172  1.00  0.00     0.000 C 
BRANCH   2   3
ATOM      3  C   UNL     1     -21.994  81.255 -21.702  1.00  0.00     0.000 C 
BRANCH   3   4
ATOM      4  C   UNL     1     -23.257  81.918 -21.117  1.00  0.00    -0.000 C 
BRANCH   4   5
ATOM      5  C   UNL     1     -23.014  82.819 -19.895  1.00  0.00    -0.000 C 
BRANCH   5   6
ATOM      6  C   UNL     1     -21.817  83.767 -20.084  1.00  0.00    -0.000 C 
BRANCH   6   7
ATOM      7  C   UNL     1     -22.220  85.098 -20.742  1.00  0.00    -0.000 C 
BRANCH   7   8
ATOM      8  C   UNL     1     -21.890  85.133 -22.245  1.00  0.00    -0.000 C 
BRANCH   8   9
ATOM      9  C   UNL     1     -23.143  85.044 -23.133  1.00  0.00    -0.000 C 
BRANCH   9  10
ATOM     10  C   UNL     1     -23.133  85.971 -24.364  1.00  0.00    -0.000 C 
BRANCH  10  11
ATOM     11  C   UNL     1     -22.007  87.027 -24.336  1.00  0.00    -0.003 C 
ATOM     12  C   UNL     1     -22.539  88.450 -24.502  1.00  0.00     0.004 C 
ENDBRANCH  10  11
ENDBRANCH   9  10
ENDBRANCH   8   9
ENDBRANCH   7   8
ENDBRANCH   6   7
ENDBRANCH   5   6
ENDBRANCH   4   5
ENDBRANCH   3   4
ENDBRANCH   2   3
ENDBRANCH   1   2
BRANCH   1  13
ATOM     13  C   UNL     1     -20.671  79.247 -23.247  1.00  0.00     0.000 C 
BRANCH  13  14
ATOM     14  C   UNL     1     -21.115  78.134 -24.215  1.00  0.00     0.000 C 
BRANCH  14  15
ATOM     15  C   UNL     1     -22.316  77.293 -23.744  1.00  0.00     0.000 C 
BRANCH  15  16
ATOM     16  C   UNL     1     -23.153  77.992 -22.659  1.00  0.00     0.000 C 
BRANCH  16  17
ATOM     17  C   UNL     1     -24.626  77.530 -22.663  1.00  0.00     0.000 C 
BRANCH  17  18
ATOM     18  C   UNL     1     -25.601  78.543 -23.297  1.00  0.00     0.000 C 
BRANCH  18  19
ATOM     19  C   UNL     1     -25.017  79.940 -23.570  1.00  0.00     0.000 C 
BRANCH  19  20
ATOM     20  C   UNL     1     -25.080  80.407 -25.040  1.00  0.00     0.006 C 
BRANCH  20  21
ATOM     21  C   UNL     1     -23.803  80.114 -25.849  1.00  0.00     0.053 C 
BRANCH  21  22
ATOM     22  C   UNL     1     -23.302  81.312 -26.597  1.00  0.00     0.041 C 
ATOM     23  O   UNL     1     -22.685  81.171 -27.686  1.00  0.00    -0.550 OA
ATOM     24  O   UNL     1     -23.480  82.585 -26.068  1.00  0.00    -0.550 OA
ENDBRANCH  21  22
ENDBRANCH  20  21
ENDBRANCH  19  20
ENDBRANCH  18  19
ENDBRANCH  17  18
ENDBRANCH  16  17
ENDBRANCH  15  16
ENDBRANCH  14  15
ENDBRANCH  13  14
ENDBRANCH   1  13
TORSDOF 20
ENDMDL
MODEL 9
REMARK VINA RESULT:    -3.863     11.657     14.616
REMARK INTER + INTRA:         -11.769
REMARK INTER:                  -9.043
REMARK INTRA:                  -2.727
REMARK UNBOUND:                -3.389
REMARK SMILES CCCCCCCCCCCCCCCCCCCCCC(=O)[O-]
REMARK SMILES IDX 12 1 11 2 10 3 9 4 8 5 7 6 6 7 5 8 4 9 3 10 2 11 1 12 13 13
REMARK SMILES IDX 14 14 15 15 16 16 17 17 18 18 19 19 20 20 21 21 22 22 23 23
REMARK SMILES IDX 24 24
REMARK H PARENT
REMARK Flexibility Score: inf
ROOT
ATOM      1  C   UNL     1     -24.064  90.437 -28.094  1.00  0.00     0.000 C 
ENDROOT
BRANCH   1   2
ATOM      2  C   UNL     1     -25.563  90.756 -28.237  1.00  0.00     0.000 C 
BRANCH   2   3
ATOM      3  C   UNL     1     -26.264  91.223 -26.945  1.00  0.00     0.000 C 
BRANCH   3   4
ATOM      4  C   UNL     1     -27.639  91.891 -27.145  1.00  0.00    -0.000 C 
BRANCH   4   5
ATOM      5  C   UNL     1     -27.591  93.362 -27.591  1.00  0.00    -0.000 C 
BRANCH   5   6
ATOM      6  C   UNL     1     -26.789  94.250 -26.624  1.00  0.00    -0.000 C 
BRANCH   6   7
ATOM      7  C   UNL     1     -25.814  95.186 -27.358  1.00  0.00    -0.000 C 
BRANCH   7   8
ATOM      8  C   UNL     1     -24.873  94.426 -28.308  1.00  0.00    -0.000 C 
BRANCH   8   9
ATOM      9  C   UNL     1     -24.521  95.232 -29.571  1.00  0.00    -0.000 C 
BRANCH   9  10
ATOM     10  C   UNL     1     -24.064  94.385 -30.774  1.00  0.00    -0.000 C 
BRANCH  10  11
ATOM     11  C   UNL     1     -23.382  95.208 -31.889  1.00  0.00    -0.003 C 
ATOM     12  C   UNL     1     -23.782  96.683 -31.850  1.00  0.00     0.004 C 
ENDBRANCH  10  11
ENDBRANCH   9  10
ENDBRANCH   8   9
ENDBRANCH   7   8
ENDBRANCH   6   7
ENDBRANCH   5   6
ENDBRANCH   4   5
ENDBRANCH   3   4
ENDBRANCH   2   3
ENDBRANCH   1   2
BRANCH   1  13
ATOM     13  C   UNL     1     -23.718  88.989 -28.483  1.00  0.00     0.000 C 
BRANCH  13  14
ATOM     14  C   UNL     1     -24.932  88.044 -28.419  1.00  0.00     0.000 C 
BRANCH  14  15
ATOM     15  C   UNL     1     -24.955  87.082 -27.217  1.00  0.00     0.000 C 
BRANCH  15  16
ATOM     16  C   UNL     1     -25.867  87.565 -26.076  1.00  0.00     0.000 C 
BRANCH  16  17
ATOM     17  C   UNL     1     -25.106  87.724 -24.742  1.00  0.00     0.000 C 
BRANCH  17  18
ATOM     18  C   UNL     1     -24.263  89.012 -24.649  1.00  0.00     0.000 C 
BRANCH  18  19
ATOM     19  C   UNL     1     -22.738  88.806 -24.663  1.00  0.00     0.000 C 
BRANCH  19  20
ATOM     20  C   UNL     1     -22.270  87.345 -24.830  1.00  0.00     0.006 C 
BRANCH  20  21
ATOM     21  C   UNL     1     -21.742  86.701 -23.535  1.00  0.00     0.053 C 
BRANCH  21  22
ATOM     22  C   UNL     1     -22.422  85.406 -23.212  1.00  0.00     0.041 C 
ATOM     23  O   UNL     1     -22.228  84.844 -22.101  1.00  0.00    -0.550 OA
ATOM     24  O   UNL     1     -23.239  84.795 -24.157  1.00  0.00    -0.550 OA
ENDBRANCH  21  22
ENDBRANCH  20  21
ENDBRANCH  19  20
ENDBRANCH  18  19
ENDBRANCH  17  18
ENDBRANCH  16  17
ENDBRANCH  15  16
ENDBRANCH  14  15
ENDBRANCH  13  14
ENDBRANCH   1  13
TORSDOF 20
ENDMDL
