MODEL 1
REMARK VINA RESULT:    -4.888      0.000      0.000
REMARK INTER + INTRA:         -13.107
REMARK INTER:                 -10.603
REMARK INTRA:                  -2.504
REMARK UNBOUND:                -2.504
REMARK SMILES CCCCCCCCCCCCCCCCCCCCCC(=O)[O-]
REMARK SMILES IDX 12 1 11 2 10 3 9 4 8 5 7 6 6 7 5 8 4 9 3 10 2 11 1 12 13 13
REMARK SMILES IDX 14 14 15 15 16 16 17 17 18 18 19 19 20 20 21 21 22 22 23 23
REMARK SMILES IDX 24 24
REMARK H PARENT
REMARK Flexibility Score: inf
ROOT
ATOM      1  C   UNL     1       1.155  44.085   8.945  1.00  0.00     0.000 C 
ENDROOT
BRANCH   1   2
ATOM      2  C   UNL     1       2.281  43.046   8.794  1.00  0.00     0.000 C 
BRANCH   2   3
ATOM      3  C   UNL     1       3.679  43.681   8.883  1.00  0.00     0.000 C 
BRANCH   3   4
ATOM      4  C   UNL     1       4.336  43.467  10.259  1.00  0.00    -0.000 C 
BRANCH   4   5
ATOM      5  C   UNL     1       3.924  44.537  11.283  1.00  0.00    -0.000 C 
BRANCH   5   6
ATOM      6  C   UNL     1       3.264  43.938  12.539  1.00  0.00    -0.000 C 
BRANCH   6   7
ATOM      7  C   UNL     1       1.934  43.219  12.229  1.00  0.00    -0.000 C 
BRANCH   7   8
ATOM      8  C   UNL     1       1.957  41.706  12.522  1.00  0.00    -0.000 C 
BRANCH   8   9
ATOM      9  C   UNL     1       3.005  40.901  11.731  1.00  0.00    -0.000 C 
BRANCH   9  10
ATOM     10  C   UNL     1       4.148  40.302  12.576  1.00  0.00    -0.000 C 
BRANCH  10  11
ATOM     11  C   UNL     1       4.240  38.765  12.546  1.00  0.00    -0.003 C 
ATOM     12  C   UNL     1       2.878  38.090  12.391  1.00  0.00     0.004 C 
ENDBRANCH  10  11
ENDBRANCH   9  10
ENDBRANCH   8   9
ENDBRANCH   7   8
ENDBRANCH   6   7
ENDBRANCH   5   6
ENDBRANCH   4   5
ENDBRANCH   3   4
ENDBRANCH   2   3
ENDBRANCH   1   2
BRANCH   1  13
ATOM     13  C   UNL     1       0.475  44.417   7.607  1.00  0.00     0.000 C 
BRANCH  13  14
ATOM     14  C   UNL     1      -0.345  45.719   7.665  1.00  0.00     0.000 C 
BRANCH  14  15
ATOM     15  C   UNL     1      -0.561  46.212   9.104  1.00  0.00     0.000 C 
BRANCH  15  16
ATOM     16  C   UNL     1       0.283  47.455   9.436  1.00  0.00     0.000 C 
BRANCH  16  17
ATOM     17  C   UNL     1       0.650  48.266   8.176  1.00  0.00     0.000 C 
BRANCH  17  18
ATOM     18  C   UNL     1       2.143  48.191   7.804  1.00  0.00     0.000 C 
BRANCH  18  19
ATOM     19  C   UNL     1       2.995  47.303   8.727  1.00  0.00     0.000 C 
BRANCH  19  20
ATOM     20  C   UNL     1       4.481  47.289   8.335  1.00  0.00     0.006 C 
BRANCH  20  21
ATOM     21  C   UNL     1       5.374  47.295   9.581  1.00  0.00     0.053 C 
BRANCH  21  22
ATOM     22  C   UNL     1       6.663  48.010   9.313  1.00  0.00     0.041 C 
ATOM     23  O   UNL     1       6.653  49.173   8.828  1.00  0.00    -0.550 OA
ATOM     24  O   UNL     1       7.876  47.383   9.571  1.00  0.00    -0.550 OA
ENDBRANCH  21  22
ENDBRANCH  20  21
ENDBRANCH  19  20
ENDBRANCH  18  19
ENDBRANCH  17  18
ENDBRANCH  16  17
ENDBRANCH  15  16
ENDBRANCH  14  15
ENDBRANCH  13  14
ENDBRANCH   1  13
TORSDOF 20
ENDMDL
MODEL 2
REMARK VINA RESULT:    -4.819      2.987      7.264
REMARK INTER + INTRA:         -12.959
REMARK INTER:                 -10.750
REMARK INTRA:                  -2.208
REMARK UNBOUND:                -2.504
REMARK SMILES CCCCCCCCCCCCCCCCCCCCCC(=O)[O-]
REMARK SMILES IDX 12 1 11 2 10 3 9 4 8 5 7 6 6 7 5 8 4 9 3 10 2 11 1 12 13 13
REMARK SMILES IDX 14 14 15 15 16 16 17 17 18 18 19 19 20 20 21 21 22 22 23 23
REMARK SMILES IDX 24 24
REMARK H PARENT
REMARK Flexibility Score: inf
ROOT
ATOM      1  C   UNL     1       1.176  44.401   8.694  1.00  0.00     0.000 C 
ENDROOT
BRANCH   1   2
ATOM      2  C   UNL     1       0.349  44.408   7.396  1.00  0.00     0.000 C 
BRANCH   2   3
ATOM      3  C   UNL     1      -0.530  45.663   7.267  1.00  0.00     0.000 C 
BRANCH   3   4
ATOM      4  C   UNL     1      -0.822  46.319   8.629  1.00  0.00    -0.000 C 
BRANCH   4   5
ATOM      5  C   UNL     1      -0.389  47.793   8.680  1.00  0.00    -0.000 C 
BRANCH   5   6
ATOM      6  C   UNL     1       1.087  47.967   9.085  1.00  0.00    -0.000 C 
BRANCH   6   7
ATOM      7  C   UNL     1       1.983  48.396   7.903  1.00  0.00    -0.000 C 
BRANCH   7   8
ATOM      8  C   UNL     1       3.369  47.723   7.893  1.00  0.00    -0.000 C 
BRANCH   8   9
ATOM      9  C   UNL     1       4.541  48.640   7.496  1.00  0.00    -0.000 C 
BRANCH   9  10
ATOM     10  C   UNL     1       5.600  48.865   8.595  1.00  0.00    -0.000 C 
BRANCH  10  11
ATOM     11  C   UNL     1       6.084  47.585   9.300  1.00  0.00    -0.003 C 
ATOM     12  C   UNL     1       7.606  47.497   9.399  1.00  0.00     0.004 C 
ENDBRANCH  10  11
ENDBRANCH   9  10
ENDBRANCH   8   9
ENDBRANCH   7   8
ENDBRANCH   6   7
ENDBRANCH   5   6
ENDBRANCH   4   5
ENDBRANCH   3   4
ENDBRANCH   2   3
ENDBRANCH   1   2
BRANCH   1  13
ATOM     13  C   UNL     1       1.992  43.110   8.868  1.00  0.00     0.000 C 
BRANCH  13  14
ATOM     14  C   UNL     1       3.479  43.384   9.162  1.00  0.00     0.000 C 
BRANCH  14  15
ATOM     15  C   UNL     1       3.758  44.869   9.439  1.00  0.00     0.000 C 
BRANCH  15  16
ATOM     16  C   UNL     1       3.803  45.190  10.943  1.00  0.00     0.000 C 
BRANCH  16  17
ATOM     17  C   UNL     1       3.894  43.917  11.811  1.00  0.00     0.000 C 
BRANCH  17  18
ATOM     18  C   UNL     1       2.586  43.581  12.555  1.00  0.00     0.000 C 
BRANCH  18  19
ATOM     19  C   UNL     1       1.993  42.200  12.228  1.00  0.00     0.000 C 
BRANCH  19  20
ATOM     20  C   UNL     1       3.065  41.168  11.843  1.00  0.00     0.006 C 
BRANCH  20  21
ATOM     21  C   UNL     1       2.844  39.847  12.587  1.00  0.00     0.053 C 
BRANCH  21  22
ATOM     22  C   UNL     1       4.132  39.099  12.746  1.00  0.00     0.041 C 
ATOM     23  O   UNL     1       4.285  37.976  12.196  1.00  0.00    -0.550 OA
ATOM     24  O   UNL     1       5.154  39.629  13.525  1.00  0.00    -0.550 OA
ENDBRANCH  21  22
ENDBRANCH  20  21
ENDBRANCH  19  20
ENDBRANCH  18  19
ENDBRANCH  17  18
ENDBRANCH  16  17
ENDBRANCH  15  16
ENDBRANCH  14  15
ENDBRANCH  13  14
ENDBRANCH   1  13
TORSDOF 20
ENDMDL
MODEL 3
REMARK VINA RESULT:    -4.682      3.352      7.331
REMARK INTER + INTRA:         -12.660
REMARK INTER:                 -10.651
REMARK INTRA:                  -2.009
REMARK UNBOUND:                -2.504
REMARK SMILES CCCCCCCCCCCCCCCCCCCCCC(=O)[O-]
REMARK SMILES IDX 12 1 11 2 10 3 9 4 8 5 7 6 6 7 5 8 4 9 3 10 2 11 1 12 13 13
REMARK SMILES IDX 14 14 15 15 16 16 17 17 18 18 19 19 20 20 21 21 22 22 23 23
REMARK SMILES IDX 24 24
REMARK H PARENT
REMARK Flexibility Score: inf
ROOT
ATOM      1  C   UNL     1      -1.102  45.707  10.943  1.00  0.00     0.000 C 
ENDROOT
BRANCH   1   2
ATOM      2  C   UNL     1      -0.659  46.951  10.151  1.00  0.00     0.000 C 
BRANCH   2   3
ATOM      3  C   UNL     1      -1.035  46.861   8.662  1.00  0.00     0.000 C 
BRANCH   3   4
ATOM      4  C   UNL     1       0.093  47.355   7.739  1.00  0.00    -0.000 C 
BRANCH   4   5
ATOM      5  C   UNL     1       1.201  48.096   8.505  1.00  0.00    -0.000 C 
BRANCH   5   6
ATOM      6  C   UNL     1       2.402  48.461   7.613  1.00  0.00    -0.000 C 
BRANCH   6   7
ATOM      7  C   UNL     1       3.657  47.618   7.928  1.00  0.00    -0.000 C 
BRANCH   7   8
ATOM      8  C   UNL     1       3.674  47.029   9.351  1.00  0.00    -0.000 C 
BRANCH   8   9
ATOM      9  C   UNL     1       5.074  46.780   9.942  1.00  0.00    -0.000 C 
BRANCH   9  10
ATOM     10  C   UNL     1       6.244  47.376   9.133  1.00  0.00    -0.000 C 
BRANCH  10  11
ATOM     11  C   UNL     1       6.745  48.745   9.630  1.00  0.00    -0.003 C 
ATOM     12  C   UNL     1       6.359  49.894   8.701  1.00  0.00     0.004 C 
ENDBRANCH  10  11
ENDBRANCH   9  10
ENDBRANCH   8   9
ENDBRANCH   7   8
ENDBRANCH   6   7
ENDBRANCH   5   6
ENDBRANCH   4   5
ENDBRANCH   3   4
ENDBRANCH   2   3
ENDBRANCH   1   2
BRANCH   1  13
ATOM     13  C   UNL     1       0.057  44.733  11.210  1.00  0.00     0.000 C 
BRANCH  13  14
ATOM     14  C   UNL     1       1.278  45.006  10.313  1.00  0.00     0.000 C 
BRANCH  14  15
ATOM     15  C   UNL     1       1.309  44.099   9.073  1.00  0.00     0.000 C 
BRANCH  15  16
ATOM     16  C   UNL     1       2.286  42.921   9.227  1.00  0.00     0.000 C 
BRANCH  16  17
ATOM     17  C   UNL     1       3.742  43.391   9.428  1.00  0.00     0.000 C 
BRANCH  17  18
ATOM     18  C   UNL     1       4.304  43.087  10.830  1.00  0.00     0.000 C 
BRANCH  18  19
ATOM     19  C   UNL     1       3.254  42.645  11.864  1.00  0.00     0.000 C 
BRANCH  19  20
ATOM     20  C   UNL     1       2.909  41.151  11.763  1.00  0.00     0.006 C 
BRANCH  20  21
ATOM     21  C   UNL     1       3.990  40.294  12.430  1.00  0.00     0.053 C 
BRANCH  21  22
ATOM     22  C   UNL     1       3.615  38.844  12.405  1.00  0.00     0.041 C 
ATOM     23  O   UNL     1       4.450  37.980  12.025  1.00  0.00    -0.550 OA
ATOM     24  O   UNL     1       2.335  38.447  12.775  1.00  0.00    -0.550 OA
ENDBRANCH  21  22
ENDBRANCH  20  21
ENDBRANCH  19  20
ENDBRANCH  18  19
ENDBRANCH  17  18
ENDBRANCH  16  17
ENDBRANCH  15  16
ENDBRANCH  14  15
ENDBRANCH  13  14
ENDBRANCH   1  13
TORSDOF 20
ENDMDL
MODEL 4
REMARK VINA RESULT:    -4.651      4.023      8.475
REMARK INTER + INTRA:         -12.594
REMARK INTER:                 -10.832
REMARK INTRA:                  -1.762
REMARK UNBOUND:                -2.504
REMARK SMILES CCCCCCCCCCCCCCCCCCCCCC(=O)[O-]
REMARK SMILES IDX 12 1 11 2 10 3 9 4 8 5 7 6 6 7 5 8 4 9 3 10 2 11 1 12 13 13
REMARK SMILES IDX 14 14 15 15 16 16 17 17 18 18 19 19 20 20 21 21 22 22 23 23
REMARK SMILES IDX 24 24
REMARK H PARENT
REMARK Flexibility Score: inf
ROOT
ATOM      1  C   UNL     1       0.755  44.730   9.659  1.00  0.00     0.000 C 
ENDROOT
BRANCH   1   2
ATOM      2  C   UNL     1       0.692  44.440   8.148  1.00  0.00     0.000 C 
BRANCH   2   3
ATOM      3  C   UNL     1       0.200  45.651   7.339  1.00  0.00     0.000 C 
BRANCH   3   4
ATOM      4  C   UNL     1      -0.376  46.763   8.235  1.00  0.00    -0.000 C 
BRANCH   4   5
ATOM      5  C   UNL     1       0.533  48.001   8.298  1.00  0.00    -0.000 C 
BRANCH   5   6
ATOM      6  C   UNL     1       1.995  47.688   7.930  1.00  0.00    -0.000 C 
BRANCH   6   7
ATOM      7  C   UNL     1       2.866  47.371   9.164  1.00  0.00    -0.000 C 
BRANCH   7   8
ATOM      8  C   UNL     1       4.161  46.604   8.836  1.00  0.00    -0.000 C 
BRANCH   8   9
ATOM      9  C   UNL     1       5.301  46.774   9.858  1.00  0.00    -0.000 C 
BRANCH   9  10
ATOM     10  C   UNL     1       6.564  47.478   9.321  1.00  0.00    -0.000 C 
BRANCH  10  11
ATOM     11  C   UNL     1       6.351  48.935   8.869  1.00  0.00    -0.003 C 
ATOM     12  C   UNL     1       6.695  49.952   9.955  1.00  0.00     0.004 C 
ENDBRANCH  10  11
ENDBRANCH   9  10
ENDBRANCH   8   9
ENDBRANCH   7   8
ENDBRANCH   6   7
ENDBRANCH   5   6
ENDBRANCH   4   5
ENDBRANCH   3   4
ENDBRANCH   2   3
ENDBRANCH   1   2
BRANCH   1  13
ATOM     13  C   UNL     1       1.517  43.645  10.437  1.00  0.00     0.000 C 
BRANCH  13  14
ATOM     14  C   UNL     1       2.633  42.990   9.602  1.00  0.00     0.000 C 
BRANCH  14  15
ATOM     15  C   UNL     1       4.024  43.187  10.225  1.00  0.00     0.000 C 
BRANCH  15  16
ATOM     16  C   UNL     1       4.109  42.646  11.663  1.00  0.00     0.000 C 
BRANCH  16  17
ATOM     17  C   UNL     1       3.643  41.179  11.764  1.00  0.00     0.000 C 
BRANCH  17  18
ATOM     18  C   UNL     1       4.509  40.317  12.703  1.00  0.00     0.000 C 
BRANCH  18  19
ATOM     19  C   UNL     1       4.234  38.806  12.630  1.00  0.00     0.000 C 
BRANCH  19  20
ATOM     20  C   UNL     1       2.742  38.479  12.454  1.00  0.00     0.006 C 
BRANCH  20  21
ATOM     21  C   UNL     1       2.557  37.098  11.816  1.00  0.00     0.053 C 
BRANCH  21  22
ATOM     22  C   UNL     1       1.135  36.641  11.933  1.00  0.00     0.041 C 
ATOM     23  O   UNL     1       0.297  37.334  12.569  1.00  0.00    -0.550 OA
ATOM     24  O   UNL     1       0.740  35.436  11.364  1.00  0.00    -0.550 OA
ENDBRANCH  21  22
ENDBRANCH  20  21
ENDBRANCH  19  20
ENDBRANCH  18  19
ENDBRANCH  17  18
ENDBRANCH  16  17
ENDBRANCH  15  16
ENDBRANCH  14  15
ENDBRANCH  13  14
ENDBRANCH   1  13
TORSDOF 20
ENDMDL
MODEL 5
REMARK VINA RESULT:    -4.633      1.499      2.624
REMARK INTER + INTRA:         -12.555
REMARK INTER:                 -10.271
REMARK INTRA:                  -2.284
REMARK UNBOUND:                -2.504
REMARK SMILES CCCCCCCCCCCCCCCCCCCCCC(=O)[O-]
REMARK SMILES IDX 12 1 11 2 10 3 9 4 8 5 7 6 6 7 5 8 4 9 3 10 2 11 1 12 13 13
REMARK SMILES IDX 14 14 15 15 16 16 17 17 18 18 19 19 20 20 21 21 22 22 23 23
REMARK SMILES IDX 24 24
REMARK H PARENT
REMARK Flexibility Score: inf
ROOT
ATOM      1  C   UNL     1       1.846  44.128   9.463  1.00  0.00     0.000 C 
ENDROOT
BRANCH   1   2
ATOM      2  C   UNL     1       3.247  43.534   9.695  1.00  0.00     0.000 C 
BRANCH   2   3
ATOM      3  C   UNL     1       3.959  44.168  10.902  1.00  0.00     0.000 C 
BRANCH   3   4
ATOM      4  C   UNL     1       4.223  43.154  12.030  1.00  0.00    -0.000 C 
BRANCH   4   5
ATOM      5  C   UNL     1       3.817  41.723  11.643  1.00  0.00    -0.000 C 
BRANCH   5   6
ATOM      6  C   UNL     1       4.722  40.653  12.282  1.00  0.00    -0.000 C 
BRANCH   6   7
ATOM      7  C   UNL     1       3.920  39.505  12.933  1.00  0.00    -0.000 C 
BRANCH   7   8
ATOM      8  C   UNL     1       2.444  39.447  12.496  1.00  0.00    -0.000 C 
BRANCH   8   9
ATOM      9  C   UNL     1       1.418  39.740  13.607  1.00  0.00    -0.000 C 
BRANCH   9  10
ATOM     10  C   UNL     1       0.784  41.145  13.562  1.00  0.00    -0.000 C 
BRANCH  10  11
ATOM     11  C   UNL     1      -0.540  41.283  14.334  1.00  0.00    -0.003 C 
ATOM     12  C   UNL     1      -0.339  41.439  15.841  1.00  0.00     0.004 C 
ENDBRANCH  10  11
ENDBRANCH   9  10
ENDBRANCH   8   9
ENDBRANCH   7   8
ENDBRANCH   6   7
ENDBRANCH   5   6
ENDBRANCH   4   5
ENDBRANCH   3   4
ENDBRANCH   2   3
ENDBRANCH   1   2
BRANCH   1  13
ATOM     13  C   UNL     1       1.090  44.388  10.776  1.00  0.00     0.000 C 
BRANCH  13  14
ATOM     14  C   UNL     1      -0.022  45.443  10.621  1.00  0.00     0.000 C 
BRANCH  14  15
ATOM     15  C   UNL     1      -0.052  46.060   9.214  1.00  0.00     0.000 C 
BRANCH  15  16
ATOM     16  C   UNL     1      -0.225  47.589   9.244  1.00  0.00     0.000 C 
BRANCH  16  17
ATOM     17  C   UNL     1       0.899  48.320   8.481  1.00  0.00     0.000 C 
BRANCH  17  18
ATOM     18  C   UNL     1       1.858  47.373   7.735  1.00  0.00     0.000 C 
BRANCH  18  19
ATOM     19  C   UNL     1       3.345  47.757   7.825  1.00  0.00     0.000 C 
BRANCH  19  20
ATOM     20  C   UNL     1       3.983  47.360   9.166  1.00  0.00     0.006 C 
BRANCH  20  21
ATOM     21  C   UNL     1       5.389  46.789   8.955  1.00  0.00     0.053 C 
BRANCH  21  22
ATOM     22  C   UNL     1       6.436  47.810   9.277  1.00  0.00     0.041 C 
ATOM     23  O   UNL     1       6.183  49.038   9.155  1.00  0.00    -0.550 OA
ATOM     24  O   UNL     1       7.702  47.406   9.686  1.00  0.00    -0.550 OA
ENDBRANCH  21  22
ENDBRANCH  20  21
ENDBRANCH  19  20
ENDBRANCH  18  19
ENDBRANCH  17  18
ENDBRANCH  16  17
ENDBRANCH  15  16
ENDBRANCH  14  15
ENDBRANCH  13  14
ENDBRANCH   1  13
TORSDOF 20
ENDMDL
MODEL 6
REMARK VINA RESULT:    -4.511      3.244      7.944
REMARK INTER + INTRA:         -12.289
REMARK INTER:                  -9.690
REMARK INTRA:                  -2.598
REMARK UNBOUND:                -2.504
REMARK SMILES CCCCCCCCCCCCCCCCCCCCCC(=O)[O-]
REMARK SMILES IDX 12 1 11 2 10 3 9 4 8 5 7 6 6 7 5 8 4 9 3 10 2 11 1 12 13 13
REMARK SMILES IDX 14 14 15 15 16 16 17 17 18 18 19 19 20 20 21 21 22 22 23 23
REMARK SMILES IDX 24 24
REMARK H PARENT
REMARK Flexibility Score: inf
ROOT
ATOM      1  C   UNL     1       2.761  44.956   9.321  1.00  0.00     0.000 C 
ENDROOT
BRANCH   1   2
ATOM      2  C   UNL     1       1.274  44.585   9.179  1.00  0.00     0.000 C 
BRANCH   2   3
ATOM      3  C   UNL     1       0.401  45.237  10.264  1.00  0.00     0.000 C 
BRANCH   3   4
ATOM      4  C   UNL     1      -0.637  46.212   9.678  1.00  0.00    -0.000 C 
BRANCH   4   5
ATOM      5  C   UNL     1      -0.055  47.612   9.425  1.00  0.00    -0.000 C 
BRANCH   5   6
ATOM      6  C   UNL     1       0.431  47.805   7.976  1.00  0.00    -0.000 C 
BRANCH   6   7
ATOM      7  C   UNL     1       1.757  48.590   7.891  1.00  0.00    -0.000 C 
BRANCH   7   8
ATOM      8  C   UNL     1       3.003  47.698   7.728  1.00  0.00    -0.000 C 
BRANCH   8   9
ATOM      9  C   UNL     1       4.354  48.428   7.852  1.00  0.00    -0.000 C 
BRANCH   9  10
ATOM     10  C   UNL     1       5.361  47.785   8.826  1.00  0.00    -0.000 C 
BRANCH  10  11
ATOM     11  C   UNL     1       6.424  48.748   9.387  1.00  0.00    -0.003 C 
ATOM     12  C   UNL     1       6.390  50.125   8.726  1.00  0.00     0.004 C 
ENDBRANCH  10  11
ENDBRANCH   9  10
ENDBRANCH   8   9
ENDBRANCH   7   8
ENDBRANCH   6   7
ENDBRANCH   5   6
ENDBRANCH   4   5
ENDBRANCH   3   4
ENDBRANCH   2   3
ENDBRANCH   1   2
BRANCH   1  13
ATOM     13  C   UNL     1       3.091  45.556  10.698  1.00  0.00     0.000 C 
BRANCH  13  14
ATOM     14  C   UNL     1       4.436  45.056  11.256  1.00  0.00     0.000 C 
BRANCH  14  15
ATOM     15  C   UNL     1       4.267  43.878  12.227  1.00  0.00     0.000 C 
BRANCH  15  16
ATOM     16  C   UNL     1       4.310  42.515  11.514  1.00  0.00     0.000 C 
BRANCH  16  17
ATOM     17  C   UNL     1       2.901  41.931  11.281  1.00  0.00     0.000 C 
BRANCH  17  18
ATOM     18  C   UNL     1       1.842  42.460  12.268  1.00  0.00     0.000 C 
BRANCH  18  19
ATOM     19  C   UNL     1       0.994  41.372  12.949  1.00  0.00     0.000 C 
BRANCH  19  20
ATOM     20  C   UNL     1       1.848  40.296  13.640  1.00  0.00     0.006 C 
BRANCH  20  21
ATOM     21  C   UNL     1       1.705  38.946  12.930  1.00  0.00     0.053 C 
BRANCH  21  22
ATOM     22  C   UNL     1       3.042  38.422  12.502  1.00  0.00     0.041 C 
ATOM     23  O   UNL     1       3.120  37.365  11.821  1.00  0.00    -0.550 OA
ATOM     24  O   UNL     1       4.204  39.085  12.879  1.00  0.00    -0.550 OA
ENDBRANCH  21  22
ENDBRANCH  20  21
ENDBRANCH  19  20
ENDBRANCH  18  19
ENDBRANCH  17  18
ENDBRANCH  16  17
ENDBRANCH  15  16
ENDBRANCH  14  15
ENDBRANCH  13  14
ENDBRANCH   1  13
TORSDOF 20
ENDMDL
MODEL 7
REMARK VINA RESULT:    -4.505      1.195      2.517
REMARK INTER + INTRA:         -12.276
REMARK INTER:                  -9.428
REMARK INTRA:                  -2.848
REMARK UNBOUND:                -2.504
REMARK SMILES CCCCCCCCCCCCCCCCCCCCCC(=O)[O-]
REMARK SMILES IDX 12 1 11 2 10 3 9 4 8 5 7 6 6 7 5 8 4 9 3 10 2 11 1 12 13 13
REMARK SMILES IDX 14 14 15 15 16 16 17 17 18 18 19 19 20 20 21 21 22 22 23 23
REMARK SMILES IDX 24 24
REMARK H PARENT
REMARK Flexibility Score: inf
ROOT
ATOM      1  C   UNL     1       3.884  42.859  10.249  1.00  0.00     0.000 C 
ENDROOT
BRANCH   1   2
ATOM      2  C   UNL     1       4.011  43.956  11.321  1.00  0.00     0.000 C 
BRANCH   2   3
ATOM      3  C   UNL     1       2.889  43.883  12.369  1.00  0.00     0.000 C 
BRANCH   3   4
ATOM      4  C   UNL     1       1.910  42.725  12.104  1.00  0.00    -0.000 C 
BRANCH   4   5
ATOM      5  C   UNL     1       0.487  43.029  12.602  1.00  0.00    -0.000 C 
BRANCH   5   6
ATOM      6  C   UNL     1      -0.183  41.816  13.274  1.00  0.00    -0.000 C 
BRANCH   6   7
ATOM      7  C   UNL     1       0.828  40.908  14.007  1.00  0.00    -0.000 C 
BRANCH   7   8
ATOM      8  C   UNL     1       0.917  39.481  13.433  1.00  0.00    -0.000 C 
BRANCH   8   9
ATOM      9  C   UNL     1       2.344  38.970  13.162  1.00  0.00    -0.000 C 
BRANCH   9  10
ATOM     10  C   UNL     1       3.142  39.774  12.116  1.00  0.00    -0.000 C 
BRANCH  10  11
ATOM     11  C   UNL     1       4.565  40.171  12.552  1.00  0.00    -0.003 C 
ATOM     12  C   UNL     1       5.102  39.307  13.692  1.00  0.00     0.004 C 
ENDBRANCH  10  11
ENDBRANCH   9  10
ENDBRANCH   8   9
ENDBRANCH   7   8
ENDBRANCH   6   7
ENDBRANCH   5   6
ENDBRANCH   4   5
ENDBRANCH   3   4
ENDBRANCH   2   3
ENDBRANCH   1   2
BRANCH   1  13
ATOM     13  C   UNL     1       3.304  43.389   8.927  1.00  0.00     0.000 C 
BRANCH  13  14
ATOM     14  C   UNL     1       1.771  43.266   8.861  1.00  0.00     0.000 C 
BRANCH  14  15
ATOM     15  C   UNL     1       1.089  44.600   8.519  1.00  0.00     0.000 C 
BRANCH  15  16
ATOM     16  C   UNL     1       0.835  45.468   9.763  1.00  0.00     0.000 C 
BRANCH  16  17
ATOM     17  C   UNL     1       1.641  46.783   9.734  1.00  0.00     0.000 C 
BRANCH  17  18
ATOM     18  C   UNL     1       2.046  47.230   8.316  1.00  0.00     0.000 C 
BRANCH  18  19
ATOM     19  C   UNL     1       3.515  47.663   8.170  1.00  0.00     0.000 C 
BRANCH  19  20
ATOM     20  C   UNL     1       4.495  46.680   8.831  1.00  0.00     0.006 C 
BRANCH  20  21
ATOM     21  C   UNL     1       5.278  47.363   9.957  1.00  0.00     0.053 C 
BRANCH  21  22
ATOM     22  C   UNL     1       6.507  48.034   9.424  1.00  0.00     0.041 C 
ATOM     23  O   UNL     1       6.461  49.238   9.055  1.00  0.00    -0.550 OA
ATOM     24  O   UNL     1       7.696  47.324   9.309  1.00  0.00    -0.550 OA
ENDBRANCH  21  22
ENDBRANCH  20  21
ENDBRANCH  19  20
ENDBRANCH  18  19
ENDBRANCH  17  18
ENDBRANCH  16  17
ENDBRANCH  15  16
ENDBRANCH  14  15
ENDBRANCH  13  14
ENDBRANCH   1  13
TORSDOF 20
ENDMDL
MODEL 8
REMARK VINA RESULT:    -4.494      3.162      7.292
REMARK INTER + INTRA:         -12.253
REMARK INTER:                  -9.631
REMARK INTRA:                  -2.621
REMARK UNBOUND:                -2.504
REMARK SMILES CCCCCCCCCCCCCCCCCCCCCC(=O)[O-]
REMARK SMILES IDX 12 1 11 2 10 3 9 4 8 5 7 6 6 7 5 8 4 9 3 10 2 11 1 12 13 13
REMARK SMILES IDX 14 14 15 15 16 16 17 17 18 18 19 19 20 20 21 21 22 22 23 23
REMARK SMILES IDX 24 24
REMARK H PARENT
REMARK Flexibility Score: inf
ROOT
ATOM      1  C   UNL     1       5.265  46.663  10.274  1.00  0.00     0.000 C 
ENDROOT
BRANCH   1   2
ATOM      2  C   UNL     1       5.271  46.900   8.753  1.00  0.00     0.000 C 
BRANCH   2   3
ATOM      3  C   UNL     1       5.368  48.391   8.392  1.00  0.00     0.000 C 
BRANCH   3   4
ATOM      4  C   UNL     1       4.215  48.853   7.482  1.00  0.00    -0.000 C 
BRANCH   4   5
ATOM      5  C   UNL     1       2.958  47.981   7.632  1.00  0.00    -0.000 C 
BRANCH   5   6
ATOM      6  C   UNL     1       1.661  48.809   7.693  1.00  0.00    -0.000 C 
BRANCH   6   7
ATOM      7  C   UNL     1       0.733  48.379   8.850  1.00  0.00    -0.000 C 
BRANCH   7   8
ATOM      8  C   UNL     1       1.159  47.069   9.540  1.00  0.00    -0.000 C 
BRANCH   8   9
ATOM      9  C   UNL     1       0.194  45.884   9.350  1.00  0.00    -0.000 C 
BRANCH   9  10
ATOM     10  C   UNL     1      -1.016  46.161   8.436  1.00  0.00    -0.000 C 
BRANCH  10  11
ATOM     11  C   UNL     1      -0.853  45.682   6.982  1.00  0.00    -0.003 C 
ATOM     12  C   UNL     1       0.057  44.462   6.855  1.00  0.00     0.004 C 
ENDBRANCH  10  11
ENDBRANCH   9  10
ENDBRANCH   8   9
ENDBRANCH   7   8
ENDBRANCH   6   7
ENDBRANCH   5   6
ENDBRANCH   4   5
ENDBRANCH   3   4
ENDBRANCH   2   3
ENDBRANCH   1   2
BRANCH   1  13
ATOM     13  C   UNL     1       4.433  45.436  10.678  1.00  0.00     0.000 C 
BRANCH  13  14
ATOM     14  C   UNL     1       3.821  44.709   9.465  1.00  0.00     0.000 C 
BRANCH  14  15
ATOM     15  C   UNL     1       3.764  43.187   9.661  1.00  0.00     0.000 C 
BRANCH  15  16
ATOM     16  C   UNL     1       2.323  42.652   9.716  1.00  0.00     0.000 C 
BRANCH  16  17
ATOM     17  C   UNL     1       1.524  43.242  10.897  1.00  0.00     0.000 C 
BRANCH  17  18
ATOM     18  C   UNL     1       2.033  42.786  12.278  1.00  0.00     0.000 C 
BRANCH  18  19
ATOM     19  C   UNL     1       1.147  41.743  12.981  1.00  0.00     0.000 C 
BRANCH  19  20
ATOM     20  C   UNL     1       1.785  40.346  13.015  1.00  0.00     0.006 C 
BRANCH  20  21
ATOM     21  C   UNL     1       3.137  40.344  12.293  1.00  0.00     0.053 C 
BRANCH  21  22
ATOM     22  C   UNL     1       3.945  39.141  12.672  1.00  0.00     0.041 C 
ATOM     23  O   UNL     1       4.904  39.253  13.482  1.00  0.00    -0.550 OA
ATOM     24  O   UNL     1       3.659  37.902  12.111  1.00  0.00    -0.550 OA
ENDBRANCH  21  22
ENDBRANCH  20  21
ENDBRANCH  19  20
ENDBRANCH  18  19
ENDBRANCH  17  18
ENDBRANCH  16  17
ENDBRANCH  15  16
ENDBRANCH  14  15
ENDBRANCH  13  14
ENDBRANCH   1  13
TORSDOF 20
ENDMDL
MODEL 9
REMARK VINA RESULT:    -4.467      3.220      7.150
REMARK INTER + INTRA:         -12.194
REMARK INTER:                  -9.788
REMARK INTRA:                  -2.405
REMARK UNBOUND:                -2.504
REMARK SMILES CCCCCCCCCCCCCCCCCCCCCC(=O)[O-]
REMARK SMILES IDX 12 1 11 2 10 3 9 4 8 5 7 6 6 7 5 8 4 9 3 10 2 11 1 12 13 13
REMARK SMILES IDX 14 14 15 15 16 16 17 17 18 18 19 19 20 20 21 21 22 22 23 23
REMARK SMILES IDX 24 24
REMARK H PARENT
REMARK Flexibility Score: inf
ROOT
ATOM      1  C   UNL     1       4.507  43.523  10.613  1.00  0.00     0.000 C 
ENDROOT
BRANCH   1   2
ATOM      2  C   UNL     1       4.803  44.859  11.320  1.00  0.00     0.000 C 
BRANCH   2   3
ATOM      3  C   UNL     1       4.104  46.048  10.642  1.00  0.00     0.000 C 
BRANCH   3   4
ATOM      4  C   UNL     1       5.101  47.024   9.990  1.00  0.00    -0.000 C 
BRANCH   4   5
ATOM      5  C   UNL     1       4.895  47.152   8.472  1.00  0.00    -0.000 C 
BRANCH   5   6
ATOM      6  C   UNL     1       3.731  48.092   8.105  1.00  0.00    -0.000 C 
BRANCH   6   7
ATOM      7  C   UNL     1       2.394  47.343   7.920  1.00  0.00    -0.000 C 
BRANCH   7   8
ATOM      8  C   UNL     1       1.151  48.246   8.029  1.00  0.00    -0.000 C 
BRANCH   8   9
ATOM      9  C   UNL     1       0.083  47.775   9.034  1.00  0.00    -0.000 C 
BRANCH   9  10
ATOM     10  C   UNL     1      -1.003  46.847   8.453  1.00  0.00    -0.000 C 
BRANCH  10  11
ATOM     11  C   UNL     1      -0.870  46.559   6.946  1.00  0.00    -0.003 C 
ATOM     12  C   UNL     1      -0.594  45.087   6.642  1.00  0.00     0.004 C 
ENDBRANCH  10  11
ENDBRANCH   9  10
ENDBRANCH   8   9
ENDBRANCH   7   8
ENDBRANCH   6   7
ENDBRANCH   5   6
ENDBRANCH   4   5
ENDBRANCH   3   4
ENDBRANCH   2   3
ENDBRANCH   1   2
BRANCH   1  13
ATOM     13  C   UNL     1       3.758  43.713   9.284  1.00  0.00     0.000 C 
BRANCH  13  14
ATOM     14  C   UNL     1       2.308  43.200   9.343  1.00  0.00     0.000 C 
BRANCH  14  15
ATOM     15  C   UNL     1       1.303  44.317   9.662  1.00  0.00     0.000 C 
BRANCH  15  16
ATOM     16  C   UNL     1       0.659  44.153  11.050  1.00  0.00     0.000 C 
BRANCH  16  17
ATOM     17  C   UNL     1       1.574  43.394  12.034  1.00  0.00     0.000 C 
BRANCH  17  18
ATOM     18  C   UNL     1       0.853  42.279  12.816  1.00  0.00     0.000 C 
BRANCH  18  19
ATOM     19  C   UNL     1       1.649  40.971  12.959  1.00  0.00     0.000 C 
BRANCH  19  20
ATOM     20  C   UNL     1       2.744  40.820  11.891  1.00  0.00     0.006 C 
BRANCH  20  21
ATOM     21  C   UNL     1       4.123  40.655  12.541  1.00  0.00     0.053 C 
BRANCH  21  22
ATOM     22  C   UNL     1       4.367  39.228  12.924  1.00  0.00     0.041 C 
ATOM     23  O   UNL     1       5.289  38.938  13.731  1.00  0.00    -0.550 OA
ATOM     24  O   UNL     1       3.595  38.214  12.369  1.00  0.00    -0.550 OA
ENDBRANCH  21  22
ENDBRANCH  20  21
ENDBRANCH  19  20
ENDBRANCH  18  19
ENDBRANCH  17  18
ENDBRANCH  16  17
ENDBRANCH  15  16
ENDBRANCH  14  15
ENDBRANCH  13  14
ENDBRANCH   1  13
TORSDOF 20
ENDMDL
