MODEL 1
REMARK VINA RESULT:    -4.351      0.000      0.000
REMARK INTER + INTRA:          -9.282
REMARK INTER:                  -7.913
REMARK INTRA:                  -1.369
REMARK UNBOUND:                -1.369
REMARK SMILES CCCCCCCCCCCCCCCC(=O)[O-]
REMARK SMILES IDX 9 1 10 2 11 3 12 4 13 5 14 6 15 7 16 8 17 9 18 10 8 11 7 12
REMARK SMILES IDX 6 13 5 14 4 15 3 16 2 17 1 18
REMARK H PARENT
REMARK Flexibility Score: inf
ROOT
ATOM      1  C   UNL     1      98.375 -68.256   4.278  1.00  0.00     0.000 C 
ENDROOT
BRANCH   1   2
ATOM      2  C   UNL     1      98.050 -66.795   3.920  1.00  0.00     0.000 C 
BRANCH   2   3
ATOM      3  C   UNL     1      99.309 -65.945   3.666  1.00  0.00     0.000 C 
BRANCH   3   4
ATOM      4  C   UNL     1      99.509 -65.486   2.210  1.00  0.00     0.000 C 
BRANCH   4   5
ATOM      5  C   UNL     1      98.464 -66.073   1.247  1.00  0.00     0.000 C 
BRANCH   5   6
ATOM      6  C   UNL     1      99.103 -66.881   0.106  1.00  0.00     0.006 C 
BRANCH   6   7
ATOM      7  C   UNL     1      99.587 -68.264   0.559  1.00  0.00     0.053 C 
BRANCH   7   8
ATOM      8  C   UNL     1      98.771 -69.340  -0.086  1.00  0.00     0.041 C 
ATOM      9  O   UNL     1      98.440 -70.363   0.569  1.00  0.00    -0.550 OA
ATOM     10  O   UNL     1      98.334 -69.190  -1.396  1.00  0.00    -0.550 OA
ENDBRANCH   7   8
ENDBRANCH   6   7
ENDBRANCH   5   6
ENDBRANCH   4   5
ENDBRANCH   3   4
ENDBRANCH   2   3
ENDBRANCH   1   2
BRANCH   1  11
ATOM     11  C   UNL     1      99.883 -68.497   4.447  1.00  0.00     0.000 C 
BRANCH  11  12
ATOM     12  C   UNL     1     100.193 -69.669   5.395  1.00  0.00    -0.000 C 
BRANCH  12  13
ATOM     13  C   UNL     1     101.056 -69.240   6.602  1.00  0.00    -0.000 C 
BRANCH  13  14
ATOM     14  C   UNL     1     100.968 -67.735   6.922  1.00  0.00    -0.000 C 
BRANCH  14  15
ATOM     15  C   UNL     1     100.912 -67.396   8.423  1.00  0.00    -0.000 C 
BRANCH  15  16
ATOM     16  C   UNL     1     100.826 -68.613   9.367  1.00  0.00    -0.000 C 
BRANCH  16  17
ATOM     17  C   UNL     1     100.309 -68.304  10.782  1.00  0.00    -0.003 C 
ATOM     18  C   UNL     1     100.056 -66.815  11.014  1.00  0.00     0.004 C 
ENDBRANCH  16  17
ENDBRANCH  15  16
ENDBRANCH  14  15
ENDBRANCH  13  14
ENDBRANCH  12  13
ENDBRANCH  11  12
ENDBRANCH   1  11
TORSDOF 14
ENDMDL
MODEL 2
REMARK VINA RESULT:    -4.198      0.723      1.144
REMARK INTER + INTRA:          -9.003
REMARK INTER:                  -7.529
REMARK INTRA:                  -1.475
REMARK UNBOUND:                -1.369
REMARK SMILES CCCCCCCCCCCCCCCC(=O)[O-]
REMARK SMILES IDX 9 1 10 2 11 3 12 4 13 5 14 6 15 7 16 8 17 9 18 10 8 11 7 12
REMARK SMILES IDX 6 13 5 14 4 15 3 16 2 17 1 18
REMARK H PARENT
REMARK Flexibility Score: inf
ROOT
ATOM      1  C   UNL     1      99.355 -68.672   4.213  1.00  0.00     0.000 C 
ENDROOT
BRANCH   1   2
ATOM      2  C   UNL     1      98.972 -67.239   4.622  1.00  0.00     0.000 C 
BRANCH   2   3
ATOM      3  C   UNL     1      99.889 -66.171   3.999  1.00  0.00     0.000 C 
BRANCH   3   4
ATOM      4  C   UNL     1     100.559 -66.573   2.673  1.00  0.00     0.000 C 
BRANCH   4   5
ATOM      5  C   UNL     1      99.860 -65.974   1.440  1.00  0.00     0.000 C 
BRANCH   5   6
ATOM      6  C   UNL     1      98.979 -66.997   0.707  1.00  0.00     0.006 C 
BRANCH   6   7
ATOM      7  C   UNL     1      99.741 -68.276   0.335  1.00  0.00     0.053 C 
BRANCH   7   8
ATOM      8  C   UNL     1      98.806 -69.293  -0.238  1.00  0.00     0.041 C 
ATOM      9  O   UNL     1      98.354 -69.153  -1.405  1.00  0.00    -0.550 OA
ATOM     10  O   UNL     1      98.472 -70.423   0.499  1.00  0.00    -0.550 OA
ENDBRANCH   7   8
ENDBRANCH   6   7
ENDBRANCH   5   6
ENDBRANCH   4   5
ENDBRANCH   3   4
ENDBRANCH   2   3
ENDBRANCH   1   2
BRANCH   1  11
ATOM     11  C   UNL     1      99.853 -69.507   5.403  1.00  0.00     0.000 C 
BRANCH  11  12
ATOM     12  C   UNL     1     101.389 -69.587   5.468  1.00  0.00    -0.000 C 
BRANCH  12  13
ATOM     13  C   UNL     1     101.946 -69.146   6.839  1.00  0.00    -0.000 C 
BRANCH  13  14
ATOM     14  C   UNL     1     101.674 -67.666   7.171  1.00  0.00    -0.000 C 
BRANCH  14  15
ATOM     15  C   UNL     1     100.974 -67.425   8.522  1.00  0.00    -0.000 C 
BRANCH  15  16
ATOM     16  C   UNL     1     100.725 -68.692   9.366  1.00  0.00    -0.000 C 
BRANCH  16  17
ATOM     17  C   UNL     1     100.293 -68.431  10.819  1.00  0.00    -0.003 C 
ATOM     18  C   UNL     1      99.978 -66.962  11.094  1.00  0.00     0.004 C 
ENDBRANCH  16  17
ENDBRANCH  15  16
ENDBRANCH  14  15
ENDBRANCH  13  14
ENDBRANCH  12  13
ENDBRANCH  11  12
ENDBRANCH   1  11
TORSDOF 14
ENDMDL
MODEL 3
REMARK VINA RESULT:    -4.065      1.911      2.447
REMARK INTER + INTRA:          -8.761
REMARK INTER:                  -8.059
REMARK INTRA:                  -0.701
REMARK UNBOUND:                -1.369
REMARK SMILES CCCCCCCCCCCCCCCC(=O)[O-]
REMARK SMILES IDX 9 1 10 2 11 3 12 4 13 5 14 6 15 7 16 8 17 9 18 10 8 11 7 12
REMARK SMILES IDX 6 13 5 14 4 15 3 16 2 17 1 18
REMARK H PARENT
REMARK Flexibility Score: inf
ROOT
ATOM      1  C   UNL     1      98.652 -68.431   4.234  1.00  0.00     0.000 C 
ENDROOT
BRANCH   1   2
ATOM      2  C   UNL     1      98.472 -68.277   2.713  1.00  0.00     0.000 C 
BRANCH   2   3
ATOM      3  C   UNL     1      99.788 -67.952   1.983  1.00  0.00     0.000 C 
BRANCH   3   4
ATOM      4  C   UNL     1      99.760 -68.154   0.456  1.00  0.00     0.000 C 
BRANCH   4   5
ATOM      5  C   UNL     1      98.839 -69.308   0.021  1.00  0.00     0.000 C 
BRANCH   5   6
ATOM      6  C   UNL     1      98.235 -69.084  -1.374  1.00  0.00     0.006 C 
BRANCH   6   7
ATOM      7  C   UNL     1      99.062 -68.115  -2.229  1.00  0.00     0.053 C 
BRANCH   7   8
ATOM      8  C   UNL     1      98.211 -67.504  -3.297  1.00  0.00     0.041 C 
ATOM      9  O   UNL     1      97.315 -66.673  -2.995  1.00  0.00    -0.550 OA
ATOM     10  O   UNL     1      98.441 -67.814  -4.632  1.00  0.00    -0.550 OA
ENDBRANCH   7   8
ENDBRANCH   6   7
ENDBRANCH   5   6
ENDBRANCH   4   5
ENDBRANCH   3   4
ENDBRANCH   2   3
ENDBRANCH   1   2
BRANCH   1  11
ATOM     11  C   UNL     1     100.073 -68.875   4.614  1.00  0.00     0.000 C 
BRANCH  11  12
ATOM     12  C   UNL     1     100.130 -69.560   5.991  1.00  0.00    -0.000 C 
BRANCH  12  13
ATOM     13  C   UNL     1     101.402 -69.187   6.783  1.00  0.00    -0.000 C 
BRANCH  13  14
ATOM     14  C   UNL     1     101.215 -67.980   7.722  1.00  0.00    -0.000 C 
BRANCH  14  15
ATOM     15  C   UNL     1     101.615 -68.232   9.188  1.00  0.00    -0.000 C 
BRANCH  15  16
ATOM     16  C   UNL     1     100.485 -68.770  10.090  1.00  0.00    -0.000 C 
BRANCH  16  17
ATOM     17  C   UNL     1     100.157 -67.896  11.313  1.00  0.00    -0.003 C 
ATOM     18  C   UNL     1      99.955 -66.423  10.957  1.00  0.00     0.004 C 
ENDBRANCH  16  17
ENDBRANCH  15  16
ENDBRANCH  14  15
ENDBRANCH  13  14
ENDBRANCH  12  13
ENDBRANCH  11  12
ENDBRANCH   1  11
TORSDOF 14
ENDMDL
MODEL 4
REMARK VINA RESULT:    -3.893      3.983      7.338
REMARK INTER + INTRA:          -8.448
REMARK INTER:                  -6.032
REMARK INTRA:                  -2.417
REMARK UNBOUND:                -1.369
REMARK SMILES CCCCCCCCCCCCCCCC(=O)[O-]
REMARK SMILES IDX 9 1 10 2 11 3 12 4 13 5 14 6 15 7 16 8 17 9 18 10 8 11 7 12
REMARK SMILES IDX 6 13 5 14 4 15 3 16 2 17 1 18
REMARK H PARENT
REMARK Flexibility Score: inf
ROOT
ATOM      1  C   UNL     1      98.847 -68.627   3.720  1.00  0.00     0.000 C 
ENDROOT
BRANCH   1   2
ATOM      2  C   UNL     1      99.494 -69.054   5.050  1.00  0.00     0.000 C 
BRANCH   2   3
ATOM      3  C   UNL     1     101.030 -69.123   4.976  1.00  0.00     0.000 C 
BRANCH   3   4
ATOM      4  C   UNL     1     101.772 -67.949   5.642  1.00  0.00     0.000 C 
BRANCH   4   5
ATOM      5  C   UNL     1     100.928 -67.234   6.711  1.00  0.00     0.000 C 
BRANCH   5   6
ATOM      6  C   UNL     1     101.479 -67.440   8.131  1.00  0.00     0.006 C 
BRANCH   6   7
ATOM      7  C   UNL     1     100.902 -68.686   8.814  1.00  0.00     0.053 C 
BRANCH   7   8
ATOM      8  C   UNL     1     100.426 -68.352  10.193  1.00  0.00     0.041 C 
ATOM      9  O   UNL     1     100.455 -69.223  11.102  1.00  0.00    -0.550 OA
ATOM     10  O   UNL     1      99.996 -67.064  10.487  1.00  0.00    -0.550 OA
ENDBRANCH   7   8
ENDBRANCH   6   7
ENDBRANCH   5   6
ENDBRANCH   4   5
ENDBRANCH   3   4
ENDBRANCH   2   3
ENDBRANCH   1   2
BRANCH   1  11
ATOM     11  C   UNL     1      97.625 -67.720   3.928  1.00  0.00     0.000 C 
BRANCH  11  12
ATOM     12  C   UNL     1      97.824 -66.314   3.335  1.00  0.00    -0.000 C 
BRANCH  12  13
ATOM     13  C   UNL     1      98.556 -65.361   4.304  1.00  0.00    -0.000 C 
BRANCH  13  14
ATOM     14  C   UNL     1     100.018 -65.079   3.909  1.00  0.00    -0.000 C 
BRANCH  14  15
ATOM     15  C   UNL     1     100.376 -65.438   2.454  1.00  0.00    -0.000 C 
BRANCH  15  16
ATOM     16  C   UNL     1     101.564 -66.408   2.293  1.00  0.00    -0.000 C 
BRANCH  16  17
ATOM     17  C   UNL     1     101.376 -67.493   1.219  1.00  0.00    -0.003 C 
ATOM     18  C   UNL     1     100.050 -67.370   0.470  1.00  0.00     0.004 C 
ENDBRANCH  16  17
ENDBRANCH  15  16
ENDBRANCH  14  15
ENDBRANCH  13  14
ENDBRANCH  12  13
ENDBRANCH  11  12
ENDBRANCH   1  11
TORSDOF 14
ENDMDL
MODEL 5
REMARK VINA RESULT:    -3.846      4.090      8.021
REMARK INTER + INTRA:          -8.362
REMARK INTER:                  -6.718
REMARK INTRA:                  -1.644
REMARK UNBOUND:                -1.369
REMARK SMILES CCCCCCCCCCCCCCCC(=O)[O-]
REMARK SMILES IDX 9 1 10 2 11 3 12 4 13 5 14 6 15 7 16 8 17 9 18 10 8 11 7 12
REMARK SMILES IDX 6 13 5 14 4 15 3 16 2 17 1 18
REMARK H PARENT
REMARK Flexibility Score: inf
ROOT
ATOM      1  C   UNL     1      98.595 -68.587   3.632  1.00  0.00     0.000 C 
ENDROOT
BRANCH   1   2
ATOM      2  C   UNL     1      99.925 -68.451   4.392  1.00  0.00     0.000 C 
BRANCH   2   3
ATOM      3  C   UNL     1     100.083 -69.490   5.518  1.00  0.00     0.000 C 
BRANCH   3   4
ATOM      4  C   UNL     1     101.103 -69.125   6.611  1.00  0.00     0.000 C 
BRANCH   4   5
ATOM      5  C   UNL     1     100.974 -67.669   7.091  1.00  0.00     0.000 C 
BRANCH   5   6
ATOM      6  C   UNL     1     101.095 -67.539   8.618  1.00  0.00     0.006 C 
BRANCH   6   7
ATOM      7  C   UNL     1     100.617 -68.794   9.358  1.00  0.00     0.053 C 
BRANCH   7   8
ATOM      8  C   UNL     1     100.468 -68.513  10.821  1.00  0.00     0.041 C 
ATOM      9  O   UNL     1     100.959 -69.300  11.671  1.00  0.00    -0.550 OA
ATOM     10  O   UNL     1      99.829 -67.354  11.243  1.00  0.00    -0.550 OA
ENDBRANCH   7   8
ENDBRANCH   6   7
ENDBRANCH   5   6
ENDBRANCH   4   5
ENDBRANCH   3   4
ENDBRANCH   2   3
ENDBRANCH   1   2
BRANCH   1  11
ATOM     11  C   UNL     1      97.672 -67.377   3.846  1.00  0.00     0.000 C 
BRANCH  11  12
ATOM     12  C   UNL     1      98.451 -66.087   4.161  1.00  0.00    -0.000 C 
BRANCH  12  13
ATOM     13  C   UNL     1      98.449 -65.092   2.980  1.00  0.00    -0.000 C 
BRANCH  13  14
ATOM     14  C   UNL     1      97.708 -65.612   1.733  1.00  0.00    -0.000 C 
BRANCH  14  15
ATOM     15  C   UNL     1      98.607 -65.880   0.511  1.00  0.00    -0.000 C 
BRANCH  15  16
ATOM     16  C   UNL     1     100.057 -66.288   0.843  1.00  0.00    -0.000 C 
BRANCH  16  17
ATOM     17  C   UNL     1     100.396 -67.764   0.572  1.00  0.00    -0.003 C 
ATOM     18  C   UNL     1      99.229 -68.543  -0.033  1.00  0.00     0.004 C 
ENDBRANCH  16  17
ENDBRANCH  15  16
ENDBRANCH  14  15
ENDBRANCH  13  14
ENDBRANCH  12  13
ENDBRANCH  11  12
ENDBRANCH   1  11
TORSDOF 14
ENDMDL
MODEL 6
REMARK VINA RESULT:    -3.582      2.334      3.554
REMARK INTER + INTRA:          -7.882
REMARK INTER:                  -5.870
REMARK INTRA:                  -2.012
REMARK UNBOUND:                -1.369
REMARK SMILES CCCCCCCCCCCCCCCC(=O)[O-]
REMARK SMILES IDX 9 1 10 2 11 3 12 4 13 5 14 6 15 7 16 8 17 9 18 10 8 11 7 12
REMARK SMILES IDX 6 13 5 14 4 15 3 16 2 17 1 18
REMARK H PARENT
REMARK Flexibility Score: inf
ROOT
ATOM      1  C   UNL     1      97.799 -67.675   3.824  1.00  0.00     0.000 C 
ENDROOT
BRANCH   1   2
ATOM      2  C   UNL     1      98.416 -68.596   2.757  1.00  0.00     0.000 C 
BRANCH   2   3
ATOM      3  C   UNL     1      99.782 -68.098   2.251  1.00  0.00     0.000 C 
BRANCH   3   4
ATOM      4  C   UNL     1      99.891 -67.914   0.726  1.00  0.00     0.000 C 
BRANCH   4   5
ATOM      5  C   UNL     1      99.762 -66.444   0.289  1.00  0.00     0.000 C 
BRANCH   5   6
ATOM      6  C   UNL     1      98.443 -66.163  -0.448  1.00  0.00     0.006 C 
BRANCH   6   7
ATOM      7  C   UNL     1      98.599 -66.193  -1.974  1.00  0.00     0.053 C 
BRANCH   7   8
ATOM      8  C   UNL     1      97.838 -67.343  -2.554  1.00  0.00     0.041 C 
ATOM      9  O   UNL     1      96.950 -67.143  -3.424  1.00  0.00    -0.550 OA
ATOM     10  O   UNL     1      98.143 -68.643  -2.169  1.00  0.00    -0.550 OA
ENDBRANCH   7   8
ENDBRANCH   6   7
ENDBRANCH   5   6
ENDBRANCH   4   5
ENDBRANCH   3   4
ENDBRANCH   2   3
ENDBRANCH   1   2
BRANCH   1  11
ATOM     11  C   UNL     1      97.954 -66.187   3.474  1.00  0.00     0.000 C 
BRANCH  11  12
ATOM     12  C   UNL     1      98.575 -65.371   4.621  1.00  0.00    -0.000 C 
BRANCH  12  13
ATOM     13  C   UNL     1     100.025 -64.936   4.319  1.00  0.00    -0.000 C 
BRANCH  13  14
ATOM     14  C   UNL     1     101.083 -65.977   4.731  1.00  0.00    -0.000 C 
BRANCH  14  15
ATOM     15  C   UNL     1     100.706 -66.834   5.954  1.00  0.00    -0.000 C 
BRANCH  15  16
ATOM     16  C   UNL     1     101.665 -68.004   6.255  1.00  0.00    -0.000 C 
BRANCH  16  17
ATOM     17  C   UNL     1     101.430 -69.270   5.414  1.00  0.00    -0.003 C 
ATOM     18  C   UNL     1     100.086 -69.937   5.703  1.00  0.00     0.004 C 
ENDBRANCH  16  17
ENDBRANCH  15  16
ENDBRANCH  14  15
ENDBRANCH  13  14
ENDBRANCH  12  13
ENDBRANCH  11  12
ENDBRANCH   1  11
TORSDOF 14
ENDMDL
MODEL 7
REMARK VINA RESULT:    -3.537      1.740      2.703
REMARK INTER + INTRA:          -7.800
REMARK INTER:                  -7.014
REMARK INTRA:                  -0.786
REMARK UNBOUND:                -1.369
REMARK SMILES CCCCCCCCCCCCCCCC(=O)[O-]
REMARK SMILES IDX 9 1 10 2 11 3 12 4 13 5 14 6 15 7 16 8 17 9 18 10 8 11 7 12
REMARK SMILES IDX 6 13 5 14 4 15 3 16 2 17 1 18
REMARK H PARENT
REMARK Flexibility Score: inf
ROOT
ATOM      1  C   UNL     1      98.740 -68.311   2.184  1.00  0.00     0.000 C 
ENDROOT
BRANCH   1   2
ATOM      2  C   UNL     1     100.039 -67.528   1.928  1.00  0.00     0.000 C 
BRANCH   2   3
ATOM      3  C   UNL     1     100.689 -67.868   0.575  1.00  0.00     0.000 C 
BRANCH   3   4
ATOM      4  C   UNL     1     101.512 -66.734  -0.063  1.00  0.00     0.000 C 
BRANCH   4   5
ATOM      5  C   UNL     1     101.466 -66.749  -1.600  1.00  0.00     0.000 C 
BRANCH   5   6
ATOM      6  C   UNL     1     100.036 -66.619  -2.148  1.00  0.00     0.006 C 
BRANCH   6   7
ATOM      7  C   UNL     1      99.512 -67.928  -2.752  1.00  0.00     0.053 C 
BRANCH   7   8
ATOM      8  C   UNL     1      98.159 -68.252  -2.201  1.00  0.00     0.041 C 
ATOM      9  O   UNL     1      97.182 -67.491  -2.429  1.00  0.00    -0.550 OA
ATOM     10  O   UNL     1      97.966 -69.422  -1.477  1.00  0.00    -0.550 OA
ENDBRANCH   7   8
ENDBRANCH   6   7
ENDBRANCH   5   6
ENDBRANCH   4   5
ENDBRANCH   3   4
ENDBRANCH   2   3
ENDBRANCH   1   2
BRANCH   1  11
ATOM     11  C   UNL     1      98.304 -68.258   3.657  1.00  0.00     0.000 C 
BRANCH  11  12
ATOM     12  C   UNL     1      99.493 -68.087   4.619  1.00  0.00    -0.000 C 
BRANCH  12  13
ATOM     13  C   UNL     1      99.854 -69.399   5.350  1.00  0.00    -0.000 C 
BRANCH  13  14
ATOM     14  C   UNL     1     101.371 -69.635   5.485  1.00  0.00    -0.000 C 
BRANCH  14  15
ATOM     15  C   UNL     1     101.963 -69.267   6.858  1.00  0.00    -0.000 C 
BRANCH  15  16
ATOM     16  C   UNL     1     100.967 -68.639   7.854  1.00  0.00    -0.000 C 
BRANCH  16  17
ATOM     17  C   UNL     1     101.511 -68.435   9.278  1.00  0.00    -0.003 C 
ATOM     18  C   UNL     1     100.469 -68.714  10.361  1.00  0.00     0.004 C 
ENDBRANCH  16  17
ENDBRANCH  15  16
ENDBRANCH  14  15
ENDBRANCH  13  14
ENDBRANCH  12  13
ENDBRANCH  11  12
ENDBRANCH   1  11
TORSDOF 14
ENDMDL
MODEL 8
REMARK VINA RESULT:    -3.517      4.081      9.026
REMARK INTER + INTRA:          -7.765
REMARK INTER:                  -6.894
REMARK INTRA:                  -0.870
REMARK UNBOUND:                -1.369
REMARK SMILES CCCCCCCCCCCCCCCC(=O)[O-]
REMARK SMILES IDX 9 1 10 2 11 3 12 4 13 5 14 6 15 7 16 8 17 9 18 10 8 11 7 12
REMARK SMILES IDX 6 13 5 14 4 15 3 16 2 17 1 18
REMARK H PARENT
REMARK Flexibility Score: inf
ROOT
ATOM      1  C   UNL     1     100.148 -67.694   4.151  1.00  0.00     0.000 C 
ENDROOT
BRANCH   1   2
ATOM      2  C   UNL     1      99.464 -68.988   4.624  1.00  0.00     0.000 C 
BRANCH   2   3
ATOM      3  C   UNL     1     100.165 -69.630   5.836  1.00  0.00     0.000 C 
BRANCH   3   4
ATOM      4  C   UNL     1     101.665 -69.311   5.972  1.00  0.00     0.000 C 
BRANCH   4   5
ATOM      5  C   UNL     1     102.029 -68.705   7.339  1.00  0.00     0.000 C 
BRANCH   5   6
ATOM      6  C   UNL     1     100.830 -68.659   8.300  1.00  0.00     0.006 C 
BRANCH   6   7
ATOM      7  C   UNL     1     100.816 -67.393   9.167  1.00  0.00     0.053 C 
BRANCH   7   8
ATOM      8  C   UNL     1     100.304 -67.706  10.538  1.00  0.00     0.041 C 
ATOM      9  O   UNL     1      99.907 -66.780  11.293  1.00  0.00    -0.550 OA
ATOM     10  O   UNL     1     100.220 -69.026  10.964  1.00  0.00    -0.550 OA
ENDBRANCH   7   8
ENDBRANCH   6   7
ENDBRANCH   5   6
ENDBRANCH   4   5
ENDBRANCH   3   4
ENDBRANCH   2   3
ENDBRANCH   1   2
BRANCH   1  11
ATOM     11  C   UNL     1     100.736 -67.825   2.738  1.00  0.00     0.000 C 
BRANCH  11  12
ATOM     12  C   UNL     1      99.728 -67.443   1.639  1.00  0.00    -0.000 C 
BRANCH  12  13
ATOM     13  C   UNL     1      99.116 -68.678   0.944  1.00  0.00    -0.000 C 
BRANCH  13  14
ATOM     14  C   UNL     1      98.967 -68.520  -0.581  1.00  0.00    -0.000 C 
BRANCH  14  15
ATOM     15  C   UNL     1     100.044 -67.643  -1.249  1.00  0.00    -0.000 C 
BRANCH  15  16
ATOM     16  C   UNL     1      99.865 -67.429  -2.766  1.00  0.00    -0.000 C 
BRANCH  16  17
ATOM     17  C   UNL     1      98.613 -68.086  -3.373  1.00  0.00    -0.003 C 
ATOM     18  C   UNL     1      97.541 -67.072  -3.770  1.00  0.00     0.004 C 
ENDBRANCH  16  17
ENDBRANCH  15  16
ENDBRANCH  14  15
ENDBRANCH  13  14
ENDBRANCH  12  13
ENDBRANCH  11  12
ENDBRANCH   1  11
TORSDOF 14
ENDMDL
MODEL 9
REMARK VINA RESULT:    -3.511      2.253      3.884
REMARK INTER + INTRA:          -7.754
REMARK INTER:                  -6.215
REMARK INTRA:                  -1.539
REMARK UNBOUND:                -1.369
REMARK SMILES CCCCCCCCCCCCCCCC(=O)[O-]
REMARK SMILES IDX 9 1 10 2 11 3 12 4 13 5 14 6 15 7 16 8 17 9 18 10 8 11 7 12
REMARK SMILES IDX 6 13 5 14 4 15 3 16 2 17 1 18
REMARK H PARENT
REMARK Flexibility Score: inf
ROOT
ATOM      1  C   UNL     1      98.364 -68.524   2.711  1.00  0.00     0.000 C 
ENDROOT
BRANCH   1   2
ATOM      2  C   UNL     1      99.546 -67.943   1.916  1.00  0.00     0.000 C 
BRANCH   2   3
ATOM      3  C   UNL     1      99.174 -67.578   0.467  1.00  0.00     0.000 C 
BRANCH   3   4
ATOM      4  C   UNL     1      99.980 -68.309  -0.622  1.00  0.00     0.000 C 
BRANCH   4   5
ATOM      5  C   UNL     1     100.638 -67.349  -1.629  1.00  0.00     0.000 C 
BRANCH   5   6
ATOM      6  C   UNL     1      99.624 -66.399  -2.285  1.00  0.00     0.006 C 
BRANCH   6   7
ATOM      7  C   UNL     1      98.998 -66.988  -3.556  1.00  0.00     0.053 C 
BRANCH   7   8
ATOM      8  C   UNL     1      97.511 -67.078  -3.413  1.00  0.00     0.041 C 
ATOM      9  O   UNL     1      97.004 -67.641  -2.407  1.00  0.00    -0.550 OA
ATOM     10  O   UNL     1      96.685 -66.496  -4.366  1.00  0.00    -0.550 OA
ENDBRANCH   7   8
ENDBRANCH   6   7
ENDBRANCH   5   6
ENDBRANCH   4   5
ENDBRANCH   3   4
ENDBRANCH   2   3
ENDBRANCH   1   2
BRANCH   1  11
ATOM     11  C   UNL     1      97.930 -67.610   3.868  1.00  0.00     0.000 C 
BRANCH  11  12
ATOM     12  C   UNL     1      98.145 -66.119   3.556  1.00  0.00    -0.000 C 
BRANCH  12  13
ATOM     13  C   UNL     1      98.934 -65.391   4.666  1.00  0.00    -0.000 C 
BRANCH  13  14
ATOM     14  C   UNL     1     100.376 -65.904   4.840  1.00  0.00    -0.000 C 
BRANCH  14  15
ATOM     15  C   UNL     1     100.795 -66.175   6.297  1.00  0.00    -0.000 C 
BRANCH  15  16
ATOM     16  C   UNL     1     100.922 -67.665   6.675  1.00  0.00    -0.000 C 
BRANCH  16  17
ATOM     17  C   UNL     1     101.075 -68.628   5.484  1.00  0.00    -0.003 C 
ATOM     18  C   UNL     1     100.257 -69.909   5.643  1.00  0.00     0.004 C 
ENDBRANCH  16  17
ENDBRANCH  15  16
ENDBRANCH  14  15
ENDBRANCH  13  14
ENDBRANCH  12  13
ENDBRANCH  11  12
ENDBRANCH   1  11
TORSDOF 14
ENDMDL
