MODEL 1
REMARK VINA RESULT:    87.474      0.000      0.000
REMARK INTER + INTRA:          95.678
REMARK INTER:                  95.144
REMARK INTRA:                   0.534
REMARK UNBOUND:                 0.534
REMARK SMILES C[C@@H]1[C@H](C)CC[C@]2(C(=O)[O-])CC[C@]3(C)C(=CC[C@H]4[C@]5(C)CC[C@@H](O)C(C)(C)[C@@H]5CC[C@]43C)[C@H]12
REMARK SMILES IDX 7 1 6 2 11 3 33 4 5 5 12 6 15 7 2 8 3 9 13 10 16 11 1 12
REMARK SMILES IDX 4 13 14 14 31 15 17 16 18 17 30 18 32 19 19 20 29 21 28 22
REMARK SMILES IDX 21 23 20 24 25 25 22 26 23 27 26 28 27 29 8 30 9 31 10 32
REMARK SMILES IDX 24 33
REMARK H PARENT 24 34
REMARK Flexibility Score: inf
ROOT
ATOM      1  C   UNL     1      60.416 -12.119  41.254  1.00  0.00     0.017 C 
ATOM      2  C   UNL     1      59.102 -12.255  40.429  1.00  0.00     0.014 C 
ATOM      3  C   UNL     1      61.400 -11.231  40.462  1.00  0.00     0.014 C 
ATOM      4  C   UNL     1      61.050 -13.539  41.525  1.00  0.00     0.030 C 
ATOM      5  C   UNL     1      58.253 -13.440  40.891  1.00  0.00     0.004 C 
ATOM      6  C   UNL     1      62.787 -11.146  41.127  1.00  0.00     0.013 C 
ATOM      7  C   UNL     1      62.569 -13.525  41.842  1.00  0.00    -0.063 C 
ATOM      8  C   UNL     1      60.540 -14.709  40.621  1.00  0.00    -0.003 C 
ATOM      9  C   UNL     1      58.971 -14.808  40.709  1.00  0.00    -0.011 C 
ATOM     10  C   UNL     1      63.562 -12.508  41.219  1.00  0.00    -0.006 C 
ATOM     11  C   UNL     1      62.929 -14.294  42.877  1.00  0.00    -0.027 C 
ATOM     12  C   UNL     1      61.106 -14.705  39.191  1.00  0.00     0.008 C 
ATOM     13  C   UNL     1      58.318 -15.632  39.587  1.00  0.00     0.008 C 
ATOM     14  C   UNL     1      63.906 -12.964  39.770  1.00  0.00     0.017 C 
ATOM     15  C   UNL     1      64.968 -12.350  42.056  1.00  0.00    -0.020 C 
ATOM     16  C   UNL     1      64.044 -13.973  43.800  1.00  0.00     0.032 C 
ATOM     17  C   UNL     1      64.725 -12.574  43.604  1.00  0.00     0.006 C 
ATOM     18  C   UNL     1      66.050 -13.401  41.650  1.00  0.00     0.008 C 
ATOM     19  C   UNL     1      65.561 -10.942  41.713  1.00  0.00     0.012 C 
ATOM     20  C   UNL     1      66.008 -12.483  44.577  1.00  0.00    -0.025 C 
ATOM     21  C   UNL     1      67.343 -13.345  42.491  1.00  0.00     0.005 C 
ATOM     22  C   UNL     1      67.179 -13.416  44.042  1.00  0.00     0.003 C 
ATOM     23  C   UNL     1      66.495 -11.009  44.789  1.00  0.00     0.010 C 
ATOM     24  C   UNL     1      65.539 -12.956  45.999  1.00  0.00     0.012 C 
ATOM     25  C   UNL     1      68.578 -13.229  44.790  1.00  0.00    -0.006 C 
ATOM     26  C   UNL     1      67.826 -10.876  45.544  1.00  0.00     0.033 C 
ATOM     27  C   UNL     1      68.941 -11.715  44.902  1.00  0.00     0.120 C 
ATOM     28  C   UNL     1      69.727 -13.939  44.012  1.00  0.00     0.014 C 
ATOM     29  C   UNL     1      68.568 -13.904  46.196  1.00  0.00     0.014 C 
ENDROOT
BRANCH   1  30
ATOM     30  C   UNL     1      60.073 -11.388  42.564  1.00  0.00     0.048 C 
ATOM     31  O   UNL     1      60.994 -10.881  43.261  1.00  0.00    -0.550 OA
ATOM     32  O   UNL     1      58.757 -11.220  42.992  1.00  0.00    -0.550 OA
ENDBRANCH   1  30
BRANCH  27  33
ATOM     33  O   UNL     1      70.125 -11.559  45.645  1.00  0.00    -0.393 OA
ATOM     34  H   UNL     1      70.550 -10.713  45.342  1.00  0.00     0.210 HD
ENDBRANCH  27  33
TORSDOF 2
ENDMDL
MODEL 2
REMARK VINA RESULT:    87.526      3.524      9.454
REMARK INTER + INTRA:          95.736
REMARK INTER:                  95.592
REMARK INTRA:                   0.144
REMARK UNBOUND:                 0.534
REMARK SMILES C[C@@H]1[C@H](C)CC[C@]2(C(=O)[O-])CC[C@]3(C)C(=CC[C@H]4[C@]5(C)CC[C@@H](O)C(C)(C)[C@@H]5CC[C@]43C)[C@H]12
REMARK SMILES IDX 7 1 6 2 11 3 33 4 5 5 12 6 15 7 2 8 3 9 13 10 16 11 1 12
REMARK SMILES IDX 4 13 14 14 31 15 17 16 18 17 30 18 32 19 19 20 29 21 28 22
REMARK SMILES IDX 21 23 20 24 25 25 22 26 23 27 26 28 27 29 8 30 9 31 10 32
REMARK SMILES IDX 24 33
REMARK H PARENT 24 34
REMARK Flexibility Score: inf
ROOT
ATOM      1  C   UNL     1      62.184 -12.753  39.963  1.00  0.00     0.017 C 
ATOM      2  C   UNL     1      63.374 -11.747  39.971  1.00  0.00     0.014 C 
ATOM      3  C   UNL     1      60.992 -12.095  39.237  1.00  0.00     0.014 C 
ATOM      4  C   UNL     1      61.782 -13.148  41.438  1.00  0.00     0.030 C 
ATOM      5  C   UNL     1      64.424 -12.106  41.022  1.00  0.00     0.004 C 
ATOM      6  C   UNL     1      59.715 -12.954  39.295  1.00  0.00     0.013 C 
ATOM      7  C   UNL     1      60.335 -13.684  41.597  1.00  0.00    -0.063 C 
ATOM      8  C   UNL     1      62.303 -12.206  42.573  1.00  0.00    -0.003 C 
ATOM      9  C   UNL     1      63.868 -12.064  42.475  1.00  0.00    -0.011 C 
ATOM     10  C   UNL     1      59.141 -13.192  40.737  1.00  0.00    -0.006 C 
ATOM     11  C   UNL     1      60.228 -14.779  42.361  1.00  0.00    -0.027 C 
ATOM     12  C   UNL     1      61.542 -10.875  42.698  1.00  0.00     0.008 C 
ATOM     13  C   UNL     1      64.454 -10.878  43.258  1.00  0.00     0.008 C 
ATOM     14  C   UNL     1      58.655 -11.820  41.292  1.00  0.00     0.017 C 
ATOM     15  C   UNL     1      57.862 -14.223  40.718  1.00  0.00    -0.020 C 
ATOM     16  C   UNL     1      59.225 -15.849  42.141  1.00  0.00     0.032 C 
ATOM     17  C   UNL     1      58.350 -15.723  40.846  1.00  0.00     0.006 C 
ATOM     18  C   UNL     1      56.876 -14.005  41.911  1.00  0.00     0.008 C 
ATOM     19  C   UNL     1      57.051 -13.937  39.410  1.00  0.00     0.012 C 
ATOM     20  C   UNL     1      57.219 -16.871  40.873  1.00  0.00    -0.025 C 
ATOM     21  C   UNL     1      55.720 -15.025  41.979  1.00  0.00     0.005 C 
ATOM     22  C   UNL     1      56.112 -16.537  41.965  1.00  0.00     0.003 C 
ATOM     23  C   UNL     1      56.583 -17.118  39.462  1.00  0.00     0.010 C 
ATOM     24  C   UNL     1      57.943 -18.220  41.225  1.00  0.00     0.012 C 
ATOM     25  C   UNL     1      54.822 -17.477  41.920  1.00  0.00    -0.006 C 
ATOM     26  C   UNL     1      55.368 -18.058  39.462  1.00  0.00     0.033 C 
ATOM     27  C   UNL     1      54.289 -17.607  40.459  1.00  0.00     0.120 C 
ATOM     28  C   UNL     1      53.674 -16.894  42.797  1.00  0.00     0.014 C 
ATOM     29  C   UNL     1      55.119 -18.882  42.530  1.00  0.00     0.014 C 
ENDROOT
BRANCH   1  30
ATOM     30  C   UNL     1      62.615 -13.981  39.141  1.00  0.00     0.048 C 
ATOM     31  O   UNL     1      63.695 -13.954  38.489  1.00  0.00    -0.550 OA
ATOM     32  O   UNL     1      61.869 -15.159  39.128  1.00  0.00    -0.550 OA
ENDBRANCH   1  30
BRANCH  27  33
ATOM     33  O   UNL     1      53.213 -18.512  40.418  1.00  0.00    -0.393 OA
ATOM     34  H   UNL     1      52.445 -18.034  40.006  1.00  0.00     0.210 HD
ENDBRANCH  27  33
TORSDOF 2
ENDMDL
