MODEL 1
REMARK VINA RESULT:    -2.663      0.000      0.000
REMARK INTER + INTRA:          -5.968
REMARK INTER:                  -4.842
REMARK INTRA:                  -1.125
REMARK UNBOUND:                -1.125
REMARK SMILES CCCCCCCCCCCCCCCC(=O)[O-]
REMARK SMILES IDX 9 1 10 2 11 3 12 4 13 5 14 6 15 7 16 8 17 9 18 10 8 11 7 12
REMARK SMILES IDX 6 13 5 14 4 15 3 16 2 17 1 18
REMARK H PARENT
REMARK Flexibility Score: inf
ROOT
ATOM      1  C   UNL     1       8.476  -6.250  -6.538  1.00  0.00     0.000 C 
ENDROOT
BRANCH   1   2
ATOM      2  C   UNL     1       8.244  -6.123  -8.055  1.00  0.00     0.000 C 
BRANCH   2   3
ATOM      3  C   UNL     1       9.035  -4.969  -8.686  1.00  0.00     0.000 C 
BRANCH   3   4
ATOM      4  C   UNL     1       8.477  -4.615 -10.073  1.00  0.00     0.000 C 
BRANCH   4   5
ATOM      5  C   UNL     1       6.939  -4.641 -10.125  1.00  0.00     0.000 C 
BRANCH   5   6
ATOM      6  C   UNL     1       6.250  -3.327  -9.704  1.00  0.00     0.006 C 
BRANCH   6   7
ATOM      7  C   UNL     1       5.257  -3.471  -8.541  1.00  0.00     0.053 C 
BRANCH   7   8
ATOM      8  C   UNL     1       3.856  -3.140  -8.954  1.00  0.00     0.041 C 
ATOM      9  O   UNL     1       3.191  -3.954  -9.647  1.00  0.00    -0.550 OA
ATOM     10  O   UNL     1       3.274  -1.947  -8.545  1.00  0.00    -0.550 OA
ENDBRANCH   7   8
ENDBRANCH   6   7
ENDBRANCH   5   6
ENDBRANCH   4   5
ENDBRANCH   3   4
ENDBRANCH   2   3
ENDBRANCH   1   2
BRANCH   1  11
ATOM     11  C   UNL     1       9.055  -7.603  -6.080  1.00  0.00     0.000 C 
BRANCH  11  12
ATOM     12  C   UNL     1      10.326  -8.054  -6.826  1.00  0.00    -0.000 C 
BRANCH  12  13
ATOM     13  C   UNL     1      11.646  -7.474  -6.279  1.00  0.00    -0.000 C 
BRANCH  13  14
ATOM     14  C   UNL     1      12.091  -6.145  -6.918  1.00  0.00    -0.000 C 
BRANCH  14  15
ATOM     15  C   UNL     1      12.100  -4.976  -5.919  1.00  0.00    -0.000 C 
BRANCH  15  16
ATOM     16  C   UNL     1      10.912  -5.026  -4.943  1.00  0.00    -0.000 C 
BRANCH  16  17
ATOM     17  C   UNL     1      11.219  -4.342  -3.603  1.00  0.00    -0.003 C 
ATOM     18  C   UNL     1      11.551  -5.372  -2.526  1.00  0.00     0.004 C 
ENDBRANCH  16  17
ENDBRANCH  15  16
ENDBRANCH  14  15
ENDBRANCH  13  14
ENDBRANCH  12  13
ENDBRANCH  11  12
ENDBRANCH   1  11
TORSDOF 14
ENDMDL
MODEL 2
REMARK VINA RESULT:    -2.534      1.293      2.018
REMARK INTER + INTRA:          -5.734
REMARK INTER:                  -5.581
REMARK INTRA:                  -0.154
REMARK UNBOUND:                -1.125
REMARK SMILES CCCCCCCCCCCCCCCC(=O)[O-]
REMARK SMILES IDX 9 1 10 2 11 3 12 4 13 5 14 6 15 7 16 8 17 9 18 10 8 11 7 12
REMARK SMILES IDX 6 13 5 14 4 15 3 16 2 17 1 18
REMARK H PARENT
REMARK Flexibility Score: inf
ROOT
ATOM      1  C   UNL     1      11.213  -5.744  -7.711  1.00  0.00     0.000 C 
ENDROOT
BRANCH   1   2
ATOM      2  C   UNL     1      11.151  -6.192  -9.182  1.00  0.00     0.000 C 
BRANCH   2   3
ATOM      3  C   UNL     1      10.052  -5.475  -9.979  1.00  0.00     0.000 C 
BRANCH   3   4
ATOM      4  C   UNL     1       8.832  -5.185  -9.093  1.00  0.00     0.000 C 
BRANCH   4   5
ATOM      5  C   UNL     1       8.273  -3.763  -9.287  1.00  0.00     0.000 C 
BRANCH   5   6
ATOM      6  C   UNL     1       6.835  -3.698  -9.838  1.00  0.00     0.006 C 
BRANCH   6   7
ATOM      7  C   UNL     1       5.749  -4.130  -8.840  1.00  0.00     0.053 C 
BRANCH   7   8
ATOM      8  C   UNL     1       4.377  -3.739  -9.299  1.00  0.00     0.041 C 
ATOM      9  O   UNL     1       3.891  -2.627  -8.963  1.00  0.00    -0.550 OA
ATOM     10  O   UNL     1       3.652  -4.588 -10.125  1.00  0.00    -0.550 OA
ENDBRANCH   7   8
ENDBRANCH   6   7
ENDBRANCH   5   6
ENDBRANCH   4   5
ENDBRANCH   3   4
ENDBRANCH   2   3
ENDBRANCH   1   2
BRANCH   1  11
ATOM     11  C   UNL     1      10.005  -6.163  -6.851  1.00  0.00     0.000 C 
BRANCH  11  12
ATOM     12  C   UNL     1       9.927  -7.667  -6.525  1.00  0.00    -0.000 C 
BRANCH  12  13
ATOM     13  C   UNL     1      10.554  -8.076  -5.177  1.00  0.00    -0.000 C 
BRANCH  13  14
ATOM     14  C   UNL     1      11.953  -7.493  -4.903  1.00  0.00    -0.000 C 
BRANCH  14  15
ATOM     15  C   UNL     1      12.091  -6.913  -3.486  1.00  0.00    -0.000 C 
BRANCH  15  16
ATOM     16  C   UNL     1      11.032  -5.840  -3.182  1.00  0.00    -0.000 C 
BRANCH  16  17
ATOM     17  C   UNL     1      11.651  -4.471  -2.866  1.00  0.00    -0.003 C 
ATOM     18  C   UNL     1      11.875  -3.662  -4.141  1.00  0.00     0.004 C 
ENDBRANCH  16  17
ENDBRANCH  15  16
ENDBRANCH  14  15
ENDBRANCH  13  14
ENDBRANCH  12  13
ENDBRANCH  11  12
ENDBRANCH   1  11
TORSDOF 14
ENDMDL
MODEL 3
REMARK VINA RESULT:    -2.365      3.779      7.313
REMARK INTER + INTRA:          -5.427
REMARK INTER:                  -5.747
REMARK INTRA:                   0.320
REMARK UNBOUND:                -1.125
REMARK SMILES CCCCCCCCCCCCCCCC(=O)[O-]
REMARK SMILES IDX 9 1 10 2 11 3 12 4 13 5 14 6 15 7 16 8 17 9 18 10 8 11 7 12
REMARK SMILES IDX 6 13 5 14 4 15 3 16 2 17 1 18
REMARK H PARENT
REMARK Flexibility Score: inf
ROOT
ATOM      1  C   UNL     1       9.065  -6.292  -7.453  1.00  0.00     0.000 C 
ENDROOT
BRANCH   1   2
ATOM      2  C   UNL     1       9.470  -6.578  -5.996  1.00  0.00     0.000 C 
BRANCH   2   3
ATOM      3  C   UNL     1      10.846  -7.248  -5.878  1.00  0.00     0.000 C 
BRANCH   3   4
ATOM      4  C   UNL     1      11.865  -6.299  -5.230  1.00  0.00     0.000 C 
BRANCH   4   5
ATOM      5  C   UNL     1      11.714  -4.842  -5.705  1.00  0.00     0.000 C 
BRANCH   5   6
ATOM      6  C   UNL     1      11.439  -3.817  -4.586  1.00  0.00     0.006 C 
BRANCH   6   7
ATOM      7  C   UNL     1      12.125  -4.134  -3.247  1.00  0.00     0.053 C 
BRANCH   7   8
ATOM      8  C   UNL     1      11.443  -5.252  -2.519  1.00  0.00     0.041 C 
ATOM      9  O   UNL     1      12.125  -6.128  -1.925  1.00  0.00    -0.550 OA
ATOM     10  O   UNL     1      10.056  -5.306  -2.469  1.00  0.00    -0.550 OA
ENDBRANCH   7   8
ENDBRANCH   6   7
ENDBRANCH   5   6
ENDBRANCH   4   5
ENDBRANCH   3   4
ENDBRANCH   2   3
ENDBRANCH   1   2
BRANCH   1  11
ATOM     11  C   UNL     1      10.204  -6.428  -8.483  1.00  0.00     0.000 C 
BRANCH  11  12
ATOM     12  C   UNL     1      10.034  -5.579  -9.759  1.00  0.00    -0.000 C 
BRANCH  12  13
ATOM     13  C   UNL     1       8.587  -5.147 -10.067  1.00  0.00    -0.000 C 
BRANCH  13  14
ATOM     14  C   UNL     1       7.993  -4.109  -9.095  1.00  0.00    -0.000 C 
BRANCH  14  15
ATOM     15  C   UNL     1       6.506  -4.355  -8.795  1.00  0.00    -0.000 C 
BRANCH  15  16
ATOM     16  C   UNL     1       5.608  -4.101 -10.018  1.00  0.00    -0.000 C 
BRANCH  16  17
ATOM     17  C   UNL     1       4.235  -3.530  -9.636  1.00  0.00    -0.003 C 
ATOM     18  C   UNL     1       3.109  -4.447 -10.106  1.00  0.00     0.004 C 
ENDBRANCH  16  17
ENDBRANCH  15  16
ENDBRANCH  14  15
ENDBRANCH  13  14
ENDBRANCH  12  13
ENDBRANCH  11  12
ENDBRANCH   1  11
TORSDOF 14
ENDMDL
MODEL 4
REMARK VINA RESULT:    -2.315      3.582      6.392
REMARK INTER + INTRA:          -5.335
REMARK INTER:                  -3.950
REMARK INTRA:                  -1.385
REMARK UNBOUND:                -1.125
REMARK SMILES CCCCCCCCCCCCCCCC(=O)[O-]
REMARK SMILES IDX 9 1 10 2 11 3 12 4 13 5 14 6 15 7 16 8 17 9 18 10 8 11 7 12
REMARK SMILES IDX 6 13 5 14 4 15 3 16 2 17 1 18
REMARK H PARENT
REMARK Flexibility Score: inf
ROOT
ATOM      1  C   UNL     1       6.865  -4.759  -8.124  1.00  0.00     0.000 C 
ENDROOT
BRANCH   1   2
ATOM      2  C   UNL     1       8.133  -4.868  -7.259  1.00  0.00     0.000 C 
BRANCH   2   3
ATOM      3  C   UNL     1       8.177  -6.155  -6.423  1.00  0.00     0.000 C 
BRANCH   3   4
ATOM      4  C   UNL     1       9.381  -7.024  -6.815  1.00  0.00     0.000 C 
BRANCH   4   5
ATOM      5  C   UNL     1      10.001  -7.766  -5.617  1.00  0.00     0.000 C 
BRANCH   5   6
ATOM      6  C   UNL     1      11.537  -7.674  -5.518  1.00  0.00     0.006 C 
BRANCH   6   7
ATOM      7  C   UNL     1      12.051  -6.877  -4.309  1.00  0.00     0.053 C 
BRANCH   7   8
ATOM      8  C   UNL     1      11.281  -5.609  -4.104  1.00  0.00     0.041 C 
ATOM      9  O   UNL     1      11.267  -4.725  -5.001  1.00  0.00    -0.550 OA
ATOM     10  O   UNL     1      10.551  -5.419  -2.938  1.00  0.00    -0.550 OA
ENDBRANCH   7   8
ENDBRANCH   6   7
ENDBRANCH   5   6
ENDBRANCH   4   5
ENDBRANCH   3   4
ENDBRANCH   2   3
ENDBRANCH   1   2
BRANCH   1  11
ATOM     11  C   UNL     1       7.110  -4.336  -9.586  1.00  0.00     0.000 C 
BRANCH  11  12
ATOM     12  C   UNL     1       7.699  -2.923  -9.767  1.00  0.00    -0.000 C 
BRANCH  12  13
ATOM     13  C   UNL     1       9.207  -2.880 -10.088  1.00  0.00    -0.000 C 
BRANCH  13  14
ATOM     14  C   UNL     1       9.906  -4.252 -10.125  1.00  0.00    -0.000 C 
BRANCH  14  15
ATOM     15  C   UNL     1      11.391  -4.176  -9.731  1.00  0.00    -0.000 C 
BRANCH  15  16
ATOM     16  C   UNL     1      11.845  -5.390  -8.904  1.00  0.00    -0.000 C 
BRANCH  16  17
ATOM     17  C   UNL     1      12.124  -6.626  -9.772  1.00  0.00    -0.003 C 
ATOM     18  C   UNL     1      11.974  -7.910  -8.960  1.00  0.00     0.004 C 
ENDBRANCH  16  17
ENDBRANCH  15  16
ENDBRANCH  14  15
ENDBRANCH  13  14
ENDBRANCH  12  13
ENDBRANCH  11  12
ENDBRANCH   1  11
TORSDOF 14
ENDMDL
MODEL 5
REMARK VINA RESULT:    -2.129      3.398      4.555
REMARK INTER + INTRA:          -4.997
REMARK INTER:                  -3.943
REMARK INTRA:                  -1.054
REMARK UNBOUND:                -1.125
REMARK SMILES CCCCCCCCCCCCCCCC(=O)[O-]
REMARK SMILES IDX 9 1 10 2 11 3 12 4 13 5 14 6 15 7 16 8 17 9 18 10 8 11 7 12
REMARK SMILES IDX 6 13 5 14 4 15 3 16 2 17 1 18
REMARK H PARENT
REMARK Flexibility Score: inf
ROOT
ATOM      1  C   UNL     1       8.836  -4.546  -6.684  1.00  0.00     0.000 C 
ENDROOT
BRANCH   1   2
ATOM      2  C   UNL     1       7.794  -5.219  -7.596  1.00  0.00     0.000 C 
BRANCH   2   3
ATOM      3  C   UNL     1       7.806  -4.664  -9.028  1.00  0.00     0.000 C 
BRANCH   3   4
ATOM      4  C   UNL     1       8.712  -5.509  -9.935  1.00  0.00     0.000 C 
BRANCH   4   5
ATOM      5  C   UNL     1       9.130  -6.843  -9.291  1.00  0.00     0.000 C 
BRANCH   5   6
ATOM      6  C   UNL     1      10.612  -7.225  -9.486  1.00  0.00     0.006 C 
BRANCH   6   7
ATOM      7  C   UNL     1      11.475  -6.126 -10.125  1.00  0.00     0.053 C 
BRANCH   7   8
ATOM      8  C   UNL     1      11.745  -5.000  -9.174  1.00  0.00     0.041 C 
ATOM      9  O   UNL     1      11.600  -3.807  -9.549  1.00  0.00    -0.550 OA
ATOM     10  O   UNL     1      12.125  -5.271  -7.866  1.00  0.00    -0.550 OA
ENDBRANCH   7   8
ENDBRANCH   6   7
ENDBRANCH   5   6
ENDBRANCH   4   5
ENDBRANCH   3   4
ENDBRANCH   2   3
ENDBRANCH   1   2
BRANCH   1  11
ATOM     11  C   UNL     1       9.957  -5.475  -6.181  1.00  0.00     0.000 C 
BRANCH  11  12
ATOM     12  C   UNL     1       9.488  -6.865  -5.706  1.00  0.00    -0.000 C 
BRANCH  12  13
ATOM     13  C   UNL     1      10.533  -7.990  -5.844  1.00  0.00    -0.000 C 
BRANCH  13  14
ATOM     14  C   UNL     1      11.784  -7.831  -4.958  1.00  0.00    -0.000 C 
BRANCH  14  15
ATOM     15  C   UNL     1      11.505  -8.119  -3.474  1.00  0.00    -0.000 C 
BRANCH  15  16
ATOM     16  C   UNL     1      12.019  -7.002  -2.550  1.00  0.00    -0.000 C 
BRANCH  16  17
ATOM     17  C   UNL     1      11.971  -5.617  -3.212  1.00  0.00    -0.003 C 
ATOM     18  C   UNL     1      10.893  -4.743  -2.576  1.00  0.00     0.004 C 
ENDBRANCH  16  17
ENDBRANCH  15  16
ENDBRANCH  14  15
ENDBRANCH  13  14
ENDBRANCH  12  13
ENDBRANCH  11  12
ENDBRANCH   1  11
TORSDOF 14
ENDMDL
MODEL 6
REMARK VINA RESULT:    -2.029     14.069     16.345
REMARK INTER + INTRA:          -4.815
REMARK INTER:                  -3.542
REMARK INTRA:                  -1.272
REMARK UNBOUND:                -1.125
REMARK SMILES CCCCCCCCCCCCCCCC(=O)[O-]
REMARK SMILES IDX 9 1 10 2 11 3 12 4 13 5 14 6 15 7 16 8 17 9 18 10 8 11 7 12
REMARK SMILES IDX 6 13 5 14 4 15 3 16 2 17 1 18
REMARK H PARENT
REMARK Flexibility Score: inf
ROOT
ATOM      1  C   UNL     1      -6.665  -3.951  -5.811  1.00  0.00     0.000 C 
ENDROOT
BRANCH   1   2
ATOM      2  C   UNL     1      -6.321  -5.070  -4.812  1.00  0.00     0.000 C 
BRANCH   2   3
ATOM      3  C   UNL     1      -5.027  -5.815  -5.171  1.00  0.00     0.000 C 
BRANCH   3   4
ATOM      4  C   UNL     1      -5.036  -6.250  -6.644  1.00  0.00     0.000 C 
BRANCH   4   5
ATOM      5  C   UNL     1      -5.616  -7.661  -6.849  1.00  0.00     0.000 C 
BRANCH   5   6
ATOM      6  C   UNL     1      -7.101  -7.818  -6.463  1.00  0.00     0.006 C 
BRANCH   6   7
ATOM      7  C   UNL     1      -8.049  -8.038  -7.652  1.00  0.00     0.053 C 
BRANCH   7   8
ATOM      8  C   UNL     1      -7.871  -6.996  -8.713  1.00  0.00     0.041 C 
ATOM      9  O   UNL     1      -7.554  -7.332  -9.884  1.00  0.00    -0.550 OA
ATOM     10  O   UNL     1      -8.089  -5.656  -8.415  1.00  0.00    -0.550 OA
ENDBRANCH   7   8
ENDBRANCH   6   7
ENDBRANCH   5   6
ENDBRANCH   4   5
ENDBRANCH   3   4
ENDBRANCH   2   3
ENDBRANCH   1   2
BRANCH   1  11
ATOM     11  C   UNL     1      -7.690  -2.917  -5.303  1.00  0.00     0.000 C 
BRANCH  11  12
ATOM     12  C   UNL     1      -7.957  -1.740  -6.261  1.00  0.00    -0.000 C 
BRANCH  12  13
ATOM     13  C   UNL     1      -8.125  -2.129  -7.744  1.00  0.00    -0.000 C 
BRANCH  13  14
ATOM     14  C   UNL     1      -8.075  -0.953  -8.738  1.00  0.00    -0.000 C 
BRANCH  14  15
ATOM     15  C   UNL     1      -7.556  -1.366 -10.125  1.00  0.00    -0.000 C 
BRANCH  15  16
ATOM     16  C   UNL     1      -6.910  -2.762 -10.121  1.00  0.00    -0.000 C 
BRANCH  16  17
ATOM     17  C   UNL     1      -5.376  -2.703 -10.059  1.00  0.00    -0.003 C 
ATOM     18  C   UNL     1      -4.846  -3.473  -8.852  1.00  0.00     0.004 C 
ENDBRANCH  16  17
ENDBRANCH  15  16
ENDBRANCH  14  15
ENDBRANCH  13  14
ENDBRANCH  12  13
ENDBRANCH  11  12
ENDBRANCH   1  11
TORSDOF 14
ENDMDL
MODEL 7
REMARK VINA RESULT:    -1.619     14.492     16.111
REMARK INTER + INTRA:          -4.070
REMARK INTER:                  -2.551
REMARK INTRA:                  -1.519
REMARK UNBOUND:                -1.125
REMARK SMILES CCCCCCCCCCCCCCCC(=O)[O-]
REMARK SMILES IDX 9 1 10 2 11 3 12 4 13 5 14 6 15 7 16 8 17 9 18 10 8 11 7 12
REMARK SMILES IDX 6 13 5 14 4 15 3 16 2 17 1 18
REMARK H PARENT
REMARK Flexibility Score: inf
ROOT
ATOM      1  C   UNL     1      -5.435  -4.610  -3.878  1.00  0.00     0.000 C 
ENDROOT
BRANCH   1   2
ATOM      2  C   UNL     1      -6.838  -4.082  -3.531  1.00  0.00     0.000 C 
BRANCH   2   3
ATOM      3  C   UNL     1      -7.763  -3.994  -4.754  1.00  0.00     0.000 C 
BRANCH   3   4
ATOM      4  C   UNL     1      -8.072  -2.530  -5.103  1.00  0.00     0.000 C 
BRANCH   4   5
ATOM      5  C   UNL     1      -8.124  -2.273  -6.620  1.00  0.00     0.000 C 
BRANCH   5   6
ATOM      6  C   UNL     1      -7.798  -3.497  -7.500  1.00  0.00     0.006 C 
BRANCH   6   7
ATOM      7  C   UNL     1      -8.031  -3.281  -9.004  1.00  0.00     0.053 C 
BRANCH   7   8
ATOM      8  C   UNL     1      -7.374  -2.031  -9.500  1.00  0.00     0.041 C 
ATOM      9  O   UNL     1      -7.951  -0.919  -9.374  1.00  0.00    -0.550 OA
ATOM     10  O   UNL     1      -6.108  -2.090 -10.071  1.00  0.00    -0.550 OA
ENDBRANCH   7   8
ENDBRANCH   6   7
ENDBRANCH   5   6
ENDBRANCH   4   5
ENDBRANCH   3   4
ENDBRANCH   2   3
ENDBRANCH   1   2
BRANCH   1  11
ATOM     11  C   UNL     1      -5.395  -5.656  -5.010  1.00  0.00     0.000 C 
BRANCH  11  12
ATOM     12  C   UNL     1      -5.873  -7.066  -4.612  1.00  0.00    -0.000 C 
BRANCH  12  13
ATOM     13  C   UNL     1      -7.232  -7.487  -5.208  1.00  0.00    -0.000 C 
BRANCH  13  14
ATOM     14  C   UNL     1      -7.513  -6.961  -6.629  1.00  0.00    -0.000 C 
BRANCH  14  15
ATOM     15  C   UNL     1      -7.567  -8.082  -7.680  1.00  0.00    -0.000 C 
BRANCH  15  16
ATOM     16  C   UNL     1      -6.528  -7.893  -8.798  1.00  0.00    -0.000 C 
BRANCH  16  17
ATOM     17  C   UNL     1      -5.870  -6.505  -8.765  1.00  0.00    -0.003 C 
ATOM     18  C   UNL     1      -5.972  -5.818 -10.125  1.00  0.00     0.004 C 
ENDBRANCH  16  17
ENDBRANCH  15  16
ENDBRANCH  14  15
ENDBRANCH  13  14
ENDBRANCH  12  13
ENDBRANCH  11  12
ENDBRANCH   1  11
TORSDOF 14
ENDMDL
