MODEL 1
REMARK VINA RESULT:    -4.116      0.000      0.000
REMARK INTER + INTRA:          -7.523
REMARK INTER:                  -7.004
REMARK INTRA:                  -0.519
REMARK UNBOUND:                -0.519
REMARK SMILES CCCCCCCCCCCCCC(=O)[O-]
REMARK SMILES IDX 8 1 9 2 10 3 11 4 12 5 13 6 14 7 15 8 16 9 7 10 6 11 5 12
REMARK SMILES IDX 4 13 3 14 2 15 1 16
REMARK H PARENT
REMARK Flexibility Score: inf
ROOT
ATOM      1  C   UNL     1     151.479 132.799 164.182  1.00  0.00     0.000 C 
ENDROOT
BRANCH   1   2
ATOM      2  C   UNL     1     150.312 132.270 163.327  1.00  0.00     0.000 C 
BRANCH   2   3
ATOM      3  C   UNL     1     148.935 132.690 163.869  1.00  0.00     0.000 C 
BRANCH   3   4
ATOM      4  C   UNL     1     148.490 134.076 163.372  1.00  0.00     0.000 C 
BRANCH   4   5
ATOM      5  C   UNL     1     147.231 134.090 162.483  1.00  0.00     0.006 C 
BRANCH   5   6
ATOM      6  C   UNL     1     147.094 132.859 161.567  1.00  0.00     0.053 C 
BRANCH   6   7
ATOM      7  C   UNL     1     145.829 132.877 160.761  1.00  0.00     0.041 C 
ATOM      8  O   UNL     1     145.801 133.439 159.635  1.00  0.00    -0.550 OA
ATOM      9  O   UNL     1     144.669 132.309 161.273  1.00  0.00    -0.550 OA
ENDBRANCH   6   7
ENDBRANCH   5   6
ENDBRANCH   4   5
ENDBRANCH   3   4
ENDBRANCH   2   3
ENDBRANCH   1   2
BRANCH   1  10
ATOM     10  C   UNL     1     152.871 132.261 163.802  1.00  0.00     0.000 C 
BRANCH  10  11
ATOM     11  C   UNL     1     153.989 132.792 164.716  1.00  0.00    -0.000 C 
BRANCH  11  12
ATOM     12  C   UNL     1     154.246 131.875 165.924  1.00  0.00    -0.000 C 
BRANCH  12  13
ATOM     13  C   UNL     1     154.079 132.602 167.267  1.00  0.00    -0.000 C 
BRANCH  13  14
ATOM     14  C   UNL     1     155.353 132.492 168.113  1.00  0.00    -0.000 C 
BRANCH  14  15
ATOM     15  C   UNL     1     156.525 133.214 167.440  1.00  0.00    -0.003 C 
ATOM     16  C   UNL     1     157.796 132.371 167.492  1.00  0.00     0.004 C 
ENDBRANCH  14  15
ENDBRANCH  13  14
ENDBRANCH  12  13
ENDBRANCH  11  12
ENDBRANCH  10  11
ENDBRANCH   1  10
TORSDOF 12
ENDMDL
MODEL 2
REMARK VINA RESULT:    -4.097      5.137      9.569
REMARK INTER + INTRA:          -7.490
REMARK INTER:                  -6.922
REMARK INTRA:                  -0.567
REMARK UNBOUND:                -0.519
REMARK SMILES CCCCCCCCCCCCCC(=O)[O-]
REMARK SMILES IDX 8 1 9 2 10 3 11 4 12 5 13 6 14 7 15 8 16 9 7 10 6 11 5 12
REMARK SMILES IDX 4 13 3 14 2 15 1 16
REMARK H PARENT
REMARK Flexibility Score: inf
ROOT
ATOM      1  C   UNL     1     150.982 132.589 164.992  1.00  0.00     0.000 C 
ENDROOT
BRANCH   1   2
ATOM      2  C   UNL     1     152.145 133.598 165.025  1.00  0.00     0.000 C 
BRANCH   2   3
ATOM      3  C   UNL     1     153.487 132.979 164.600  1.00  0.00     0.000 C 
BRANCH   3   4
ATOM      4  C   UNL     1     153.970 131.875 165.556  1.00  0.00     0.000 C 
BRANCH   4   5
ATOM      5  C   UNL     1     155.344 132.120 166.213  1.00  0.00     0.006 C 
BRANCH   5   6
ATOM      6  C   UNL     1     155.310 133.112 167.390  1.00  0.00     0.053 C 
BRANCH   6   7
ATOM      7  C   UNL     1     156.681 133.456 167.895  1.00  0.00     0.041 C 
ATOM      8  O   UNL     1     157.226 134.542 167.564  1.00  0.00    -0.550 OA
ATOM      9  O   UNL     1     157.373 132.556 168.696  1.00  0.00    -0.550 OA
ENDBRANCH   6   7
ENDBRANCH   5   6
ENDBRANCH   4   5
ENDBRANCH   3   4
ENDBRANCH   2   3
ENDBRANCH   1   2
BRANCH   1  10
ATOM     10  C   UNL     1     150.508 132.176 163.586  1.00  0.00     0.000 C 
BRANCH  10  11
ATOM     11  C   UNL     1     149.318 133.014 163.086  1.00  0.00    -0.000 C 
BRANCH  11  12
ATOM     12  C   UNL     1     147.983 132.570 163.707  1.00  0.00    -0.000 C 
BRANCH  12  13
ATOM     13  C   UNL     1     146.883 132.352 162.657  1.00  0.00    -0.000 C 
BRANCH  13  14
ATOM     14  C   UNL     1     147.265 133.000 161.320  1.00  0.00    -0.000 C 
BRANCH  14  15
ATOM     15  C   UNL     1     146.020 133.296 160.477  1.00  0.00    -0.003 C 
ATOM     16  C   UNL     1     145.268 132.014 160.133  1.00  0.00     0.004 C 
ENDBRANCH  14  15
ENDBRANCH  13  14
ENDBRANCH  12  13
ENDBRANCH  11  12
ENDBRANCH  10  11
ENDBRANCH   1  10
TORSDOF 12
ENDMDL
MODEL 3
REMARK VINA RESULT:    -4.091      3.610      6.018
REMARK INTER + INTRA:          -7.480
REMARK INTER:                  -6.663
REMARK INTRA:                  -0.817
REMARK UNBOUND:                -0.519
REMARK SMILES CCCCCCCCCCCCCC(=O)[O-]
REMARK SMILES IDX 8 1 9 2 10 3 11 4 12 5 13 6 14 7 15 8 16 9 7 10 6 11 5 12
REMARK SMILES IDX 4 13 3 14 2 15 1 16
REMARK H PARENT
REMARK Flexibility Score: inf
ROOT
ATOM      1  C   UNL     1     157.079 132.378 167.185  1.00  0.00     0.000 C 
ENDROOT
BRANCH   1   2
ATOM      2  C   UNL     1     155.543 132.403 167.070  1.00  0.00     0.000 C 
BRANCH   2   3
ATOM      3  C   UNL     1     155.043 132.055 165.658  1.00  0.00     0.000 C 
BRANCH   3   4
ATOM      4  C   UNL     1     153.565 132.420 165.436  1.00  0.00     0.000 C 
BRANCH   4   5
ATOM      5  C   UNL     1     153.013 132.128 164.027  1.00  0.00     0.006 C 
BRANCH   5   6
ATOM      6  C   UNL     1     151.494 131.875 163.986  1.00  0.00     0.053 C 
BRANCH   6   7
ATOM      7  C   UNL     1     150.712 132.938 164.700  1.00  0.00     0.041 C 
ATOM      8  O   UNL     1     150.615 134.094 164.208  1.00  0.00    -0.550 OA
ATOM      9  O   UNL     1     150.127 132.664 165.929  1.00  0.00    -0.550 OA
ENDBRANCH   6   7
ENDBRANCH   5   6
ENDBRANCH   4   5
ENDBRANCH   3   4
ENDBRANCH   2   3
ENDBRANCH   1   2
BRANCH   1  10
ATOM     10  C   UNL     1     157.714 133.641 167.796  1.00  0.00     0.000 C 
BRANCH  10  11
ATOM     11  C   UNL     1     156.897 134.216 168.966  1.00  0.00    -0.000 C 
BRANCH  11  12
ATOM     12  C   UNL     1     156.391 135.641 168.687  1.00  0.00    -0.000 C 
BRANCH  12  13
ATOM     13  C   UNL     1     156.568 136.057 167.219  1.00  0.00    -0.000 C 
BRANCH  13  14
ATOM     14  C   UNL     1     156.565 137.584 167.077  1.00  0.00    -0.000 C 
BRANCH  14  15
ATOM     15  C   UNL     1     157.385 138.242 168.192  1.00  0.00    -0.003 C 
ATOM     16  C   UNL     1     156.650 139.442 168.783  1.00  0.00     0.004 C 
ENDBRANCH  14  15
ENDBRANCH  13  14
ENDBRANCH  12  13
ENDBRANCH  11  12
ENDBRANCH  10  11
ENDBRANCH   1  10
TORSDOF 12
ENDMDL
MODEL 4
REMARK VINA RESULT:    -4.074      2.650      4.905
REMARK INTER + INTRA:          -7.450
REMARK INTER:                  -6.359
REMARK INTRA:                  -1.091
REMARK UNBOUND:                -0.519
REMARK SMILES CCCCCCCCCCCCCC(=O)[O-]
REMARK SMILES IDX 8 1 9 2 10 3 11 4 12 5 13 6 14 7 15 8 16 9 7 10 6 11 5 12
REMARK SMILES IDX 4 13 3 14 2 15 1 16
REMARK H PARENT
REMARK Flexibility Score: inf
ROOT
ATOM      1  C   UNL     1     155.558 132.314 167.004  1.00  0.00     0.000 C 
ENDROOT
BRANCH   1   2
ATOM      2  C   UNL     1     154.950 131.886 165.655  1.00  0.00     0.000 C 
BRANCH   2   3
ATOM      3  C   UNL     1     154.075 132.980 165.019  1.00  0.00     0.000 C 
BRANCH   3   4
ATOM      4  C   UNL     1     152.980 132.414 164.098  1.00  0.00     0.000 C 
BRANCH   4   5
ATOM      5  C   UNL     1     151.602 132.204 164.756  1.00  0.00     0.006 C 
BRANCH   5   6
ATOM      6  C   UNL     1     150.456 131.965 163.754  1.00  0.00     0.053 C 
BRANCH   6   7
ATOM      7  C   UNL     1     149.774 133.236 163.343  1.00  0.00     0.041 C 
ATOM      8  O   UNL     1     149.064 133.269 162.303  1.00  0.00    -0.550 OA
ATOM      9  O   UNL     1     149.958 134.396 164.085  1.00  0.00    -0.550 OA
ENDBRANCH   6   7
ENDBRANCH   5   6
ENDBRANCH   4   5
ENDBRANCH   3   4
ENDBRANCH   2   3
ENDBRANCH   1   2
BRANCH   1  10
ATOM     10  C   UNL     1     157.095 132.252 167.083  1.00  0.00     0.000 C 
BRANCH  10  11
ATOM     11  C   UNL     1     157.703 133.437 167.853  1.00  0.00    -0.000 C 
BRANCH  11  12
ATOM     12  C   UNL     1     156.635 134.424 168.352  1.00  0.00    -0.000 C 
BRANCH  12  13
ATOM     13  C   UNL     1     156.714 135.789 167.651  1.00  0.00    -0.000 C 
BRANCH  13  14
ATOM     14  C   UNL     1     155.552 135.968 166.667  1.00  0.00    -0.000 C 
BRANCH  14  15
ATOM     15  C   UNL     1     154.201 135.859 167.383  1.00  0.00    -0.003 C 
ATOM     16  C   UNL     1     153.459 137.192 167.366  1.00  0.00     0.004 C 
ENDBRANCH  14  15
ENDBRANCH  13  14
ENDBRANCH  12  13
ENDBRANCH  11  12
ENDBRANCH  10  11
ENDBRANCH   1  10
TORSDOF 12
ENDMDL
MODEL 5
REMARK VINA RESULT:    -4.046      1.611      2.453
REMARK INTER + INTRA:          -7.402
REMARK INTER:                  -6.483
REMARK INTRA:                  -0.920
REMARK UNBOUND:                -0.519
REMARK SMILES CCCCCCCCCCCCCC(=O)[O-]
REMARK SMILES IDX 8 1 9 2 10 3 11 4 12 5 13 6 14 7 15 8 16 9 7 10 6 11 5 12
REMARK SMILES IDX 4 13 3 14 2 15 1 16
REMARK H PARENT
REMARK Flexibility Score: inf
ROOT
ATOM      1  C   UNL     1     152.628 133.414 166.062  1.00  0.00     0.000 C 
ENDROOT
BRANCH   1   2
ATOM      2  C   UNL     1     151.487 132.453 165.676  1.00  0.00     0.000 C 
BRANCH   2   3
ATOM      3  C   UNL     1     151.569 131.983 164.214  1.00  0.00     0.000 C 
BRANCH   3   4
ATOM      4  C   UNL     1     150.459 132.577 163.329  1.00  0.00     0.000 C 
BRANCH   4   5
ATOM      5  C   UNL     1     149.123 132.863 164.042  1.00  0.00     0.006 C 
BRANCH   5   6
ATOM      6  C   UNL     1     147.882 132.368 163.275  1.00  0.00     0.053 C 
BRANCH   6   7
ATOM      7  C   UNL     1     147.408 133.353 162.248  1.00  0.00     0.041 C 
ATOM      8  O   UNL     1     147.011 132.954 161.121  1.00  0.00    -0.550 OA
ATOM      9  O   UNL     1     147.445 134.715 162.520  1.00  0.00    -0.550 OA
ENDBRANCH   6   7
ENDBRANCH   5   6
ENDBRANCH   4   5
ENDBRANCH   3   4
ENDBRANCH   2   3
ENDBRANCH   1   2
BRANCH   1  10
ATOM     10  C   UNL     1     153.967 133.170 165.340  1.00  0.00     0.000 C 
BRANCH  10  11
ATOM     11  C   UNL     1     154.756 131.986 165.925  1.00  0.00    -0.000 C 
BRANCH  11  12
ATOM     12  C   UNL     1     155.915 132.439 166.827  1.00  0.00    -0.000 C 
BRANCH  12  13
ATOM     13  C   UNL     1     155.477 132.688 168.278  1.00  0.00    -0.000 C 
BRANCH  13  14
ATOM     14  C   UNL     1     156.067 133.999 168.812  1.00  0.00    -0.000 C 
BRANCH  14  15
ATOM     15  C   UNL     1     156.946 134.678 167.756  1.00  0.00    -0.003 C 
ATOM     16  C   UNL     1     156.403 136.057 167.390  1.00  0.00     0.004 C 
ENDBRANCH  14  15
ENDBRANCH  13  14
ENDBRANCH  12  13
ENDBRANCH  11  12
ENDBRANCH  10  11
ENDBRANCH   1  10
TORSDOF 12
ENDMDL
MODEL 6
REMARK VINA RESULT:    -3.938      4.208      5.337
REMARK INTER + INTRA:          -7.219
REMARK INTER:                  -6.024
REMARK INTRA:                  -1.195
REMARK UNBOUND:                -0.519
REMARK SMILES CCCCCCCCCCCCCC(=O)[O-]
REMARK SMILES IDX 8 1 9 2 10 3 11 4 12 5 13 6 14 7 15 8 16 9 7 10 6 11 5 12
REMARK SMILES IDX 4 13 3 14 2 15 1 16
REMARK H PARENT
REMARK Flexibility Score: inf
ROOT
ATOM      1  C   UNL     1     154.600 133.356 166.350  1.00  0.00     0.000 C 
ENDROOT
BRANCH   1   2
ATOM      2  C   UNL     1     154.275 133.149 164.859  1.00  0.00     0.000 C 
BRANCH   2   3
ATOM      3  C   UNL     1     153.454 131.875 164.597  1.00  0.00     0.000 C 
BRANCH   3   4
ATOM      4  C   UNL     1     152.164 132.145 163.803  1.00  0.00     0.000 C 
BRANCH   4   5
ATOM      5  C   UNL     1     151.319 133.337 164.293  1.00  0.00     0.006 C 
BRANCH   5   6
ATOM      6  C   UNL     1     150.349 132.992 165.438  1.00  0.00     0.053 C 
BRANCH   6   7
ATOM      7  C   UNL     1     150.958 133.196 166.794  1.00  0.00     0.041 C 
ATOM      8  O   UNL     1     151.296 132.205 167.494  1.00  0.00    -0.550 OA
ATOM      9  O   UNL     1     151.114 134.480 167.301  1.00  0.00    -0.550 OA
ENDBRANCH   6   7
ENDBRANCH   5   6
ENDBRANCH   4   5
ENDBRANCH   3   4
ENDBRANCH   2   3
ENDBRANCH   1   2
BRANCH   1  10
ATOM     10  C   UNL     1     155.412 132.226 167.011  1.00  0.00     0.000 C 
BRANCH  10  11
ATOM     11  C   UNL     1     156.895 132.237 166.602  1.00  0.00    -0.000 C 
BRANCH  11  12
ATOM     12  C   UNL     1     157.741 133.173 167.480  1.00  0.00    -0.000 C 
BRANCH  12  13
ATOM     13  C   UNL     1     157.789 132.728 168.949  1.00  0.00    -0.000 C 
BRANCH  13  14
ATOM     14  C   UNL     1     157.059 133.731 169.851  1.00  0.00    -0.000 C 
BRANCH  14  15
ATOM     15  C   UNL     1     156.675 134.994 169.072  1.00  0.00    -0.003 C 
ATOM     16  C   UNL     1     156.119 136.068 170.002  1.00  0.00     0.004 C 
ENDBRANCH  14  15
ENDBRANCH  13  14
ENDBRANCH  12  13
ENDBRANCH  11  12
ENDBRANCH  10  11
ENDBRANCH   1  10
TORSDOF 12
ENDMDL
MODEL 7
REMARK VINA RESULT:    -3.926      1.836      2.933
REMARK INTER + INTRA:          -7.200
REMARK INTER:                  -6.556
REMARK INTRA:                  -0.643
REMARK UNBOUND:                -0.519
REMARK SMILES CCCCCCCCCCCCCC(=O)[O-]
REMARK SMILES IDX 8 1 9 2 10 3 11 4 12 5 13 6 14 7 15 8 16 9 7 10 6 11 5 12
REMARK SMILES IDX 4 13 3 14 2 15 1 16
REMARK H PARENT
REMARK Flexibility Score: inf
ROOT
ATOM      1  C   UNL     1     153.381 132.019 165.064  1.00  0.00     0.000 C 
ENDROOT
BRANCH   1   2
ATOM      2  C   UNL     1     152.856 131.875 163.623  1.00  0.00     0.000 C 
BRANCH   2   3
ATOM      3  C   UNL     1     151.320 131.875 163.543  1.00  0.00     0.000 C 
BRANCH   3   4
ATOM      4  C   UNL     1     150.693 133.193 164.030  1.00  0.00     0.000 C 
BRANCH   4   5
ATOM      5  C   UNL     1     149.613 133.050 165.121  1.00  0.00     0.006 C 
BRANCH   5   6
ATOM      6  C   UNL     1     148.339 133.874 164.857  1.00  0.00     0.053 C 
BRANCH   6   7
ATOM      7  C   UNL     1     147.631 133.456 163.601  1.00  0.00     0.041 C 
ATOM      8  O   UNL     1     147.477 132.235 163.335  1.00  0.00    -0.550 OA
ATOM      9  O   UNL     1     147.180 134.417 162.704  1.00  0.00    -0.550 OA
ENDBRANCH   6   7
ENDBRANCH   5   6
ENDBRANCH   4   5
ENDBRANCH   3   4
ENDBRANCH   2   3
ENDBRANCH   1   2
BRANCH   1  10
ATOM     10  C   UNL     1     154.405 133.148 165.283  1.00  0.00     0.000 C 
BRANCH  10  11
ATOM     11  C   UNL     1     154.636 133.467 166.770  1.00  0.00    -0.000 C 
BRANCH  11  12
ATOM     12  C   UNL     1     155.447 132.374 167.487  1.00  0.00    -0.000 C 
BRANCH  12  13
ATOM     13  C   UNL     1     156.877 132.242 166.941  1.00  0.00    -0.000 C 
BRANCH  13  14
ATOM     14  C   UNL     1     157.865 133.050 167.792  1.00  0.00    -0.000 C 
BRANCH  14  15
ATOM     15  C   UNL     1     157.894 132.540 169.237  1.00  0.00    -0.003 C 
ATOM     16  C   UNL     1     157.284 133.560 170.194  1.00  0.00     0.004 C 
ENDBRANCH  14  15
ENDBRANCH  13  14
ENDBRANCH  12  13
ENDBRANCH  11  12
ENDBRANCH  10  11
ENDBRANCH   1  10
TORSDOF 12
ENDMDL
MODEL 8
REMARK VINA RESULT:    -3.478      4.856      7.771
REMARK INTER + INTRA:          -6.436
REMARK INTER:                  -5.546
REMARK INTRA:                  -0.890
REMARK UNBOUND:                -0.519
REMARK SMILES CCCCCCCCCCCCCC(=O)[O-]
REMARK SMILES IDX 8 1 9 2 10 3 11 4 12 5 13 6 14 7 15 8 16 9 7 10 6 11 5 12
REMARK SMILES IDX 4 13 3 14 2 15 1 16
REMARK H PARENT
REMARK Flexibility Score: inf
ROOT
ATOM      1  C   UNL     1     156.636 134.056 168.909  1.00  0.00     0.000 C 
ENDROOT
BRANCH   1   2
ATOM      2  C   UNL     1     157.763 133.241 168.247  1.00  0.00     0.000 C 
BRANCH   2   3
ATOM      3  C   UNL     1     157.254 132.315 167.129  1.00  0.00     0.000 C 
BRANCH   3   4
ATOM      4  C   UNL     1     155.719 132.249 167.055  1.00  0.00     0.000 C 
BRANCH   4   5
ATOM      5  C   UNL     1     155.123 132.258 165.633  1.00  0.00     0.006 C 
BRANCH   5   6
ATOM      6  C   UNL     1     153.632 131.875 165.574  1.00  0.00     0.053 C 
BRANCH   6   7
ATOM      7  C   UNL     1     152.731 133.072 165.495  1.00  0.00     0.041 C 
ATOM      8  O   UNL     1     153.219 134.232 165.445  1.00  0.00    -0.550 OA
ATOM      9  O   UNL     1     151.352 132.908 165.520  1.00  0.00    -0.550 OA
ENDBRANCH   6   7
ENDBRANCH   5   6
ENDBRANCH   4   5
ENDBRANCH   3   4
ENDBRANCH   2   3
ENDBRANCH   1   2
BRANCH   1  10
ATOM     10  C   UNL     1     156.678 135.573 168.647  1.00  0.00     0.000 C 
BRANCH  10  11
ATOM     11  C   UNL     1     155.935 135.979 167.362  1.00  0.00    -0.000 C 
BRANCH  11  12
ATOM     12  C   UNL     1     156.483 137.280 166.752  1.00  0.00    -0.000 C 
BRANCH  12  13
ATOM     13  C   UNL     1     157.183 138.173 167.787  1.00  0.00    -0.000 C 
BRANCH  13  14
ATOM     14  C   UNL     1     156.671 139.616 167.703  1.00  0.00    -0.000 C 
BRANCH  14  15
ATOM     15  C   UNL     1     157.740 140.547 167.122  1.00  0.00    -0.003 C 
ATOM     16  C   UNL     1     157.519 140.779 165.631  1.00  0.00     0.004 C 
ENDBRANCH  14  15
ENDBRANCH  13  14
ENDBRANCH  12  13
ENDBRANCH  11  12
ENDBRANCH  10  11
ENDBRANCH   1  10
TORSDOF 12
ENDMDL
