MODEL 1
REMARK VINA RESULT:    -7.007      0.000      0.000
REMARK INTER + INTRA:         -13.657
REMARK INTER:                 -11.512
REMARK INTRA:                  -2.145
REMARK UNBOUND:                -2.145
REMARK SMILES C[C@@H]1O[C@@H](OC[C@@H]2O[C@@H](Oc3c(-c4ccc(O)c(O)c4)oc4cc(O)cc(O)c4c3=O)[C@@H](O)[C@H](O)[C@H]2O)[C@H](O)[C@H](O)[C@H]1O
REMARK SMILES IDX 7 1 36 2 34 3 32 4 9 5 8 6 6 7 5 8 4 9 1 10 2 11 42 12 3 13
REMARK SMILES IDX 40 14 38 15 43 16 41 18 39 20 37 22 35 24 10 26 11 27 12 28
REMARK SMILES IDX 30 29 21 30 29 31 31 32 22 33 27 34 23 35 26 36 24 37 13 38
REMARK SMILES IDX 20 39 14 40 18 41 15 42 16 43 19 44 17 46 28 48 25 50 33 52
REMARK H PARENT 43 17 41 19 39 21 37 23 35 25 19 45 17 47 28 49 25 51 33 53
REMARK Flexibility Score: inf
ROOT
ATOM      1  C   UNL     1      -6.899  84.105  -9.242  1.00  0.00     0.180 C 
ATOM      2  C   UNL     1      -5.845  83.077  -8.674  1.00  0.00     0.177 C 
ATOM      3  C   UNL     1      -4.431  83.488  -9.088  1.00  0.00     0.180 C 
ATOM      4  C   UNL     1      -4.274  85.039  -9.073  1.00  0.00     0.214 C 
ATOM      5  C   UNL     1      -5.375  85.718  -9.910  1.00  0.00     0.339 C 
ATOM      6  O   UNL     1      -6.355  84.792 -10.350  1.00  0.00    -0.332 OA
ENDROOT
BRANCH   1   7
ATOM      7  C   UNL     1      -8.243  83.410  -9.612  1.00  0.00     0.198 C 
BRANCH   7   8
ATOM      8  O   UNL     1      -9.246  83.752  -8.673  1.00  0.00    -0.347 OA
BRANCH   8   9
ATOM      9  C   UNL     1     -10.577  83.760  -9.182  1.00  0.00     0.281 C 
ATOM     10  C   UNL     1     -12.954  86.133  -9.917  1.00  0.00     0.041 C 
ATOM     11  C   UNL     1     -12.697  84.880  -9.059  1.00  0.00     0.150 C 
ATOM     12  C   UNL     1     -13.175  83.595  -9.795  1.00  0.00     0.174 C 
ATOM     13  O   UNL     1     -11.327  84.835  -8.622  1.00  0.00    -0.344 OA
ATOM     14  C   UNL     1     -12.758  82.454  -8.879  1.00  0.00     0.179 C 
ATOM     15  C   UNL     1     -11.240  82.325  -9.122  1.00  0.00     0.202 C 
BRANCH  12  16
ATOM     16  O   UNL     1     -14.587  83.629  -9.971  1.00  0.00    -0.388 OA
ATOM     17  H   UNL     1     -14.883  82.680 -10.008  1.00  0.00     0.211 HD
ENDBRANCH  12  16
BRANCH  14  18
ATOM     18  O   UNL     1     -13.462  81.262  -9.140  1.00  0.00    -0.387 OA
ATOM     19  H   UNL     1     -13.379  81.068 -10.116  1.00  0.00     0.211 HD
ENDBRANCH  14  18
BRANCH  15  20
ATOM     20  O   UNL     1     -10.962  81.660 -10.335  1.00  0.00    -0.385 OA
ATOM     21  H   UNL     1     -10.848  82.294 -11.058  1.00  0.00     0.211 HD
ENDBRANCH  15  20
ENDBRANCH   8   9
ENDBRANCH   7   8
ENDBRANCH   1   7
BRANCH   2  22
ATOM     22  O   UNL     1      -5.958  83.002  -7.276  1.00  0.00    -0.387 OA
ATOM     23  H   UNL     1      -5.082  82.766  -6.851  1.00  0.00     0.211 HD
ENDBRANCH   2  22
BRANCH   3  24
ATOM     24  O   UNL     1      -4.103  82.955 -10.350  1.00  0.00    -0.387 OA
ATOM     25  H   UNL     1      -3.160  82.599 -10.375  1.00  0.00     0.211 HD
ENDBRANCH   3  24
BRANCH   5  26
ATOM     26  O   UNL     1      -6.067  86.763  -9.195  1.00  0.00    -0.454 OA
BRANCH  26  27
ATOM     27  C   UNL     1      -5.867  88.153  -9.221  1.00  0.00     0.214 A 
ATOM     28  C   UNL     1      -6.587  88.903 -10.168  1.00  0.00     0.180 A 
ATOM     29  C   UNL     1      -4.979  88.861  -8.345  1.00  0.00     0.239 A 
ATOM     30  O   UNL     1      -6.396  90.217 -10.283  1.00  0.00    -0.452 OA
ATOM     31  C   UNL     1      -4.838  90.264  -8.469  1.00  0.00     0.111 A 
ATOM     32  O   UNL     1      -4.313  88.224  -7.490  1.00  0.00    -0.285 OA
ATOM     33  C   UNL     1      -5.569  90.915  -9.508  1.00  0.00     0.146 A 
ATOM     34  C   UNL     1      -4.040  91.068  -7.595  1.00  0.00     0.134 A 
ATOM     35  C   UNL     1      -5.482  92.302  -9.686  1.00  0.00     0.094 A 
ATOM     36  C   UNL     1      -4.010  92.465  -7.775  1.00  0.00     0.093 A 
ATOM     37  C   UNL     1      -4.707  93.071  -8.828  1.00  0.00     0.123 A 
BRANCH  28  38
ATOM     38  C   UNL     1      -7.658  88.365 -11.012  1.00  0.00     0.025 A 
ATOM     39  C   UNL     1      -8.990  88.590 -10.604  1.00  0.00     0.062 A 
ATOM     40  C   UNL     1      -7.340  88.335 -12.386  1.00  0.00     0.016 A 
ATOM     41  C   UNL     1      -9.934  89.024 -11.556  1.00  0.00     0.158 A 
ATOM     42  C   UNL     1      -8.291  88.738 -13.332  1.00  0.00     0.051 A 
ATOM     43  C   UNL     1      -9.550  89.196 -12.901  1.00  0.00     0.157 A 
BRANCH  41  44
ATOM     44  O   UNL     1     -11.237  89.383 -11.167  1.00  0.00    -0.504 OA
ATOM     45  H   UNL     1     -11.421  89.923 -10.342  1.00  0.00     0.293 HD
ENDBRANCH  41  44
BRANCH  43  46
ATOM     46  O   UNL     1     -10.353  89.919 -13.792  1.00  0.00    -0.504 OA
ATOM     47  H   UNL     1     -10.261  90.906 -13.922  1.00  0.00     0.293 HD
ENDBRANCH  43  46
ENDBRANCH  28  38
BRANCH  34  48
ATOM     48  O   UNL     1      -3.284  90.567  -6.535  1.00  0.00    -0.507 OA
ATOM     49  H   UNL     1      -3.665  90.413  -5.608  1.00  0.00     0.293 HD
ENDBRANCH  34  48
BRANCH  37  50
ATOM     50  O   UNL     1      -4.602  94.422  -9.059  1.00  0.00    -0.508 OA
ATOM     51  H   UNL     1      -4.199  94.747  -9.935  1.00  0.00     0.293 HD
ENDBRANCH  37  50
ENDBRANCH  26  27
ENDBRANCH   5  26
BRANCH   4  52
ATOM     52  O   UNL     1      -4.328  85.485  -7.723  1.00  0.00    -0.384 OA
ATOM     53  H   UNL     1      -3.657  84.967  -7.226  1.00  0.00     0.211 HD
ENDBRANCH   4  52
TORSDOF 16
ENDMDL
MODEL 2
REMARK VINA RESULT:    -6.827      3.991      8.991
REMARK INTER + INTRA:         -13.362
REMARK INTER:                 -10.652
REMARK INTRA:                  -2.710
REMARK UNBOUND:                -2.145
REMARK SMILES C[C@@H]1O[C@@H](OC[C@@H]2O[C@@H](Oc3c(-c4ccc(O)c(O)c4)oc4cc(O)cc(O)c4c3=O)[C@@H](O)[C@H](O)[C@H]2O)[C@H](O)[C@H](O)[C@H]1O
REMARK SMILES IDX 7 1 36 2 34 3 32 4 9 5 8 6 6 7 5 8 4 9 1 10 2 11 42 12 3 13
REMARK SMILES IDX 40 14 38 15 43 16 41 18 39 20 37 22 35 24 10 26 11 27 12 28
REMARK SMILES IDX 30 29 21 30 29 31 31 32 22 33 27 34 23 35 26 36 24 37 13 38
REMARK SMILES IDX 20 39 14 40 18 41 15 42 16 43 19 44 17 46 28 48 25 50 33 52
REMARK H PARENT 43 17 41 19 39 21 37 23 35 25 19 45 17 47 28 49 25 51 33 53
REMARK Flexibility Score: inf
ROOT
ATOM      1  C   UNL     1      -5.674  94.129 -11.964  1.00  0.00     0.180 C 
ATOM      2  C   UNL     1      -5.067  95.502 -11.478  1.00  0.00     0.177 C 
ATOM      3  C   UNL     1      -5.281  95.670  -9.972  1.00  0.00     0.180 C 
ATOM      4  C   UNL     1      -5.129  94.306  -9.232  1.00  0.00     0.214 C 
ATOM      5  C   UNL     1      -6.034  93.229  -9.860  1.00  0.00     0.339 C 
ATOM      6  O   UNL     1      -6.655  93.684 -11.051  1.00  0.00    -0.332 OA
ENDROOT
BRANCH   1   7
ATOM      7  C   UNL     1      -6.250  94.232 -13.408  1.00  0.00     0.198 C 
BRANCH   7   8
ATOM      8  O   UNL     1      -6.534  92.940 -13.914  1.00  0.00    -0.347 OA
BRANCH   8   9
ATOM      9  C   UNL     1      -5.688  92.504 -14.975  1.00  0.00     0.281 C 
ATOM     10  C   UNL     1      -5.997  91.986 -18.359  1.00  0.00     0.041 C 
ATOM     11  C   UNL     1      -5.637  91.280 -17.040  1.00  0.00     0.150 C 
ATOM     12  C   UNL     1      -4.102  91.331 -16.782  1.00  0.00     0.174 C 
ATOM     13  O   UNL     1      -6.435  91.789 -15.956  1.00  0.00    -0.344 OA
ATOM     14  C   UNL     1      -3.926  90.699 -15.409  1.00  0.00     0.179 C 
ATOM     15  C   UNL     1      -4.376  91.806 -14.434  1.00  0.00     0.202 C 
BRANCH  12  16
ATOM     16  O   UNL     1      -3.414  90.595 -17.785  1.00  0.00    -0.388 OA
ATOM     17  H   UNL     1      -2.530  90.356 -17.394  1.00  0.00     0.211 HD
ENDBRANCH  12  16
BRANCH  14  18
ATOM     18  O   UNL     1      -2.606  90.263 -15.178  1.00  0.00    -0.387 OA
ATOM     19  H   UNL     1      -2.623  89.267 -15.118  1.00  0.00     0.211 HD
ENDBRANCH  14  18
BRANCH  15  20
ATOM     20  O   UNL     1      -3.383  92.797 -14.278  1.00  0.00    -0.385 OA
ATOM     21  H   UNL     1      -3.724  93.670 -14.523  1.00  0.00     0.211 HD
ENDBRANCH  15  20
ENDBRANCH   8   9
ENDBRANCH   7   8
ENDBRANCH   1   7
BRANCH   2  22
ATOM     22  O   UNL     1      -3.702  95.563 -11.801  1.00  0.00    -0.387 OA
ATOM     23  H   UNL     1      -3.553  96.047 -12.665  1.00  0.00     0.211 HD
ENDBRANCH   2  22
BRANCH   3  24
ATOM     24  O   UNL     1      -6.534  96.257  -9.706  1.00  0.00    -0.387 OA
ATOM     25  H   UNL     1      -7.277  95.575  -9.715  1.00  0.00     0.211 HD
ENDBRANCH   3  24
BRANCH   5  26
ATOM     26  O   UNL     1      -5.326  92.014 -10.186  1.00  0.00    -0.454 OA
BRANCH  26  27
ATOM     27  C   UNL     1      -5.431  90.734  -9.618  1.00  0.00     0.214 A 
ATOM     28  C   UNL     1      -6.378  89.848 -10.164  1.00  0.00     0.180 A 
ATOM     29  C   UNL     1      -4.637  90.266  -8.520  1.00  0.00     0.239 A 
ATOM     30  O   UNL     1      -6.568  88.641  -9.632  1.00  0.00    -0.452 OA
ATOM     31  C   UNL     1      -4.837  88.960  -8.012  1.00  0.00     0.111 A 
ATOM     32  O   UNL     1      -3.785  91.031  -8.000  1.00  0.00    -0.285 OA
ATOM     33  C   UNL     1      -5.870  88.170  -8.600  1.00  0.00     0.146 A 
ATOM     34  C   UNL     1      -4.045  88.376  -6.973  1.00  0.00     0.134 A 
ATOM     35  C   UNL     1      -6.122  86.866  -8.152  1.00  0.00     0.094 A 
ATOM     36  C   UNL     1      -4.296  87.047  -6.577  1.00  0.00     0.093 A 
ATOM     37  C   UNL     1      -5.343  86.310  -7.146  1.00  0.00     0.123 A 
BRANCH  28  38
ATOM     38  C   UNL     1      -7.139  90.101 -11.392  1.00  0.00     0.025 A 
ATOM     39  C   UNL     1      -6.498  89.858 -12.624  1.00  0.00     0.062 A 
ATOM     40  C   UNL     1      -8.524  89.864 -11.261  1.00  0.00     0.016 A 
ATOM     41  C   UNL     1      -7.188  89.152 -13.629  1.00  0.00     0.158 A 
ATOM     42  C   UNL     1      -9.215  89.189 -12.276  1.00  0.00     0.051 A 
ATOM     43  C   UNL     1      -8.515  88.729 -13.407  1.00  0.00     0.157 A 
BRANCH  41  44
ATOM     44  O   UNL     1      -6.543  88.777 -14.820  1.00  0.00    -0.504 OA
ATOM     45  H   UNL     1      -6.390  87.817 -15.068  1.00  0.00     0.293 HD
ENDBRANCH  41  44
BRANCH  43  46
ATOM     46  O   UNL     1      -9.111  87.767 -14.232  1.00  0.00    -0.504 OA
ATOM     47  H   UNL     1      -8.977  86.785 -14.100  1.00  0.00     0.293 HD
ENDBRANCH  43  46
ENDBRANCH  28  38
BRANCH  34  48
ATOM     48  O   UNL     1      -3.001  89.027  -6.318  1.00  0.00    -0.507 OA
ATOM     49  H   UNL     1      -3.124  89.895  -5.806  1.00  0.00     0.293 HD
ENDBRANCH  34  48
BRANCH  37  50
ATOM     50  O   UNL     1      -5.646  85.047  -6.694  1.00  0.00    -0.508 OA
ATOM     51  H   UNL     1      -6.516  84.609  -6.988  1.00  0.00     0.293 HD
ENDBRANCH  37  50
ENDBRANCH  26  27
ENDBRANCH   5  26
BRANCH   4  52
ATOM     52  O   UNL     1      -3.764  93.909  -9.295  1.00  0.00    -0.384 OA
ATOM     53  H   UNL     1      -3.246  94.709  -9.536  1.00  0.00     0.211 HD
ENDBRANCH   4  52
TORSDOF 16
ENDMDL
MODEL 3
REMARK VINA RESULT:    -6.504      4.168      9.446
REMARK INTER + INTRA:         -12.832
REMARK INTER:                 -10.084
REMARK INTRA:                  -2.748
REMARK UNBOUND:                -2.145
REMARK SMILES C[C@@H]1O[C@@H](OC[C@@H]2O[C@@H](Oc3c(-c4ccc(O)c(O)c4)oc4cc(O)cc(O)c4c3=O)[C@@H](O)[C@H](O)[C@H]2O)[C@H](O)[C@H](O)[C@H]1O
REMARK SMILES IDX 7 1 36 2 34 3 32 4 9 5 8 6 6 7 5 8 4 9 1 10 2 11 42 12 3 13
REMARK SMILES IDX 40 14 38 15 43 16 41 18 39 20 37 22 35 24 10 26 11 27 12 28
REMARK SMILES IDX 30 29 21 30 29 31 31 32 22 33 27 34 23 35 26 36 24 37 13 38
REMARK SMILES IDX 20 39 14 40 18 41 15 42 16 43 19 44 17 46 28 48 25 50 33 52
REMARK H PARENT 43 17 41 19 39 21 37 23 35 25 19 45 17 47 28 49 25 51 33 53
REMARK Flexibility Score: inf
ROOT
ATOM      1  C   UNL     1      -5.558  94.425 -11.953  1.00  0.00     0.180 C 
ATOM      2  C   UNL     1      -4.990  95.778 -11.372  1.00  0.00     0.177 C 
ATOM      3  C   UNL     1      -5.249  95.856  -9.866  1.00  0.00     0.180 C 
ATOM      4  C   UNL     1      -5.092  94.455  -9.201  1.00  0.00     0.214 C 
ATOM      5  C   UNL     1      -5.960  93.401  -9.914  1.00  0.00     0.339 C 
ATOM      6  O   UNL     1      -6.556  93.913 -11.095  1.00  0.00    -0.332 OA
ENDROOT
BRANCH   1   7
ATOM      7  C   UNL     1      -6.095  94.600 -13.405  1.00  0.00     0.198 C 
BRANCH   7   8
ATOM      8  O   UNL     1      -6.518  93.353 -13.924  1.00  0.00    -0.347 OA
BRANCH   8   9
ATOM      9  C   UNL     1      -5.727  92.840 -14.993  1.00  0.00     0.281 C 
ATOM     10  C   UNL     1      -3.088  90.660 -15.321  1.00  0.00     0.041 C 
ATOM     11  C   UNL     1      -3.522  92.110 -15.601  1.00  0.00     0.150 C 
ATOM     12  C   UNL     1      -4.107  92.248 -17.037  1.00  0.00     0.174 C 
ATOM     13  O   UNL     1      -4.392  92.592 -14.561  1.00  0.00    -0.344 OA
ATOM     14  C   UNL     1      -4.582  93.691 -17.118  1.00  0.00     0.179 C 
ATOM     15  C   UNL     1      -5.899  93.689 -16.315  1.00  0.00     0.202 C 
BRANCH  12  16
ATOM     16  O   UNL     1      -3.098  91.980 -18.003  1.00  0.00    -0.388 OA
ATOM     17  H   UNL     1      -3.447  92.324 -18.869  1.00  0.00     0.211 HD
ENDBRANCH  12  16
BRANCH  14  18
ATOM     18  O   UNL     1      -4.745  94.136 -18.445  1.00  0.00    -0.387 OA
ATOM     19  H   UNL     1      -4.447  95.088 -18.483  1.00  0.00     0.211 HD
ENDBRANCH  14  18
BRANCH  15  20
ATOM     20  O   UNL     1      -6.961  93.133 -17.060  1.00  0.00    -0.385 OA
ATOM     21  H   UNL     1      -6.783  92.207 -17.279  1.00  0.00     0.211 HD
ENDBRANCH  15  20
ENDBRANCH   8   9
ENDBRANCH   7   8
ENDBRANCH   1   7
BRANCH   2  22
ATOM     22  O   UNL     1      -3.617  95.879 -11.652  1.00  0.00    -0.387 OA
ATOM     23  H   UNL     1      -3.149  96.453 -10.978  1.00  0.00     0.211 HD
ENDBRANCH   2  22
BRANCH   3  24
ATOM     24  O   UNL     1      -6.519  96.407  -9.604  1.00  0.00    -0.387 OA
ATOM     25  H   UNL     1      -6.812  96.240  -8.654  1.00  0.00     0.211 HD
ENDBRANCH   3  24
BRANCH   5  26
ATOM     26  O   UNL     1      -5.221  92.218 -10.288  1.00  0.00    -0.454 OA
BRANCH  26  27
ATOM     27  C   UNL     1      -5.269  90.922  -9.749  1.00  0.00     0.214 A 
ATOM     28  C   UNL     1      -6.099  89.978 -10.381  1.00  0.00     0.180 A 
ATOM     29  C   UNL     1      -4.529  90.494  -8.598  1.00  0.00     0.239 A 
ATOM     30  O   UNL     1      -6.234  88.750  -9.883  1.00  0.00    -0.452 OA
ATOM     31  C   UNL     1      -4.665  89.167  -8.126  1.00  0.00     0.111 A 
ATOM     32  O   UNL     1      -3.783  91.312  -8.002  1.00  0.00    -0.285 OA
ATOM     33  C   UNL     1      -5.584  88.312  -8.806  1.00  0.00     0.146 A 
ATOM     34  C   UNL     1      -3.912  88.624  -7.037  1.00  0.00     0.134 A 
ATOM     35  C   UNL     1      -5.767  86.984  -8.398  1.00  0.00     0.094 A 
ATOM     36  C   UNL     1      -4.088  87.272  -6.681  1.00  0.00     0.093 A 
ATOM     37  C   UNL     1      -5.026  86.468  -7.342  1.00  0.00     0.123 A 
BRANCH  28  38
ATOM     38  C   UNL     1      -6.780  90.197 -11.660  1.00  0.00     0.025 A 
ATOM     39  C   UNL     1      -6.073  89.892 -12.841  1.00  0.00     0.062 A 
ATOM     40  C   UNL     1      -8.175  89.992 -11.604  1.00  0.00     0.016 A 
ATOM     41  C   UNL     1      -6.718  89.160 -13.858  1.00  0.00     0.158 A 
ATOM     42  C   UNL     1      -8.820  89.292 -12.632  1.00  0.00     0.051 A 
ATOM     43  C   UNL     1      -8.064  88.773 -13.700  1.00  0.00     0.157 A 
BRANCH  41  44
ATOM     44  O   UNL     1      -6.012  88.725 -14.993  1.00  0.00    -0.504 OA
ATOM     45  H   UNL     1      -5.996  89.249 -15.848  1.00  0.00     0.293 HD
ENDBRANCH  41  44
BRANCH  43  46
ATOM     46  O   UNL     1      -8.632  87.791 -14.522  1.00  0.00    -0.504 OA
ATOM     47  H   UNL     1      -9.612  87.592 -14.527  1.00  0.00     0.293 HD
ENDBRANCH  43  46
ENDBRANCH  28  38
BRANCH  34  48
ATOM     48  O   UNL     1      -2.976  89.340  -6.292  1.00  0.00    -0.507 OA
ATOM     49  H   UNL     1      -2.941  90.354  -6.275  1.00  0.00     0.293 HD
ENDBRANCH  34  48
BRANCH  37  50
ATOM     50  O   UNL     1      -5.264  85.177  -6.933  1.00  0.00    -0.508 OA
ATOM     51  H   UNL     1      -4.477  84.545  -6.803  1.00  0.00     0.293 HD
ENDBRANCH  37  50
ENDBRANCH  26  27
ENDBRANCH   5  26
BRANCH   4  52
ATOM     52  O   UNL     1      -3.720  94.085  -9.246  1.00  0.00    -0.384 OA
ATOM     53  H   UNL     1      -3.540  93.774 -10.160  1.00  0.00     0.211 HD
ENDBRANCH   4  52
TORSDOF 16
ENDMDL
MODEL 4
REMARK VINA RESULT:    -6.498      2.093      4.760
REMARK INTER + INTRA:         -12.822
REMARK INTER:                 -10.761
REMARK INTRA:                  -2.060
REMARK UNBOUND:                -2.145
REMARK SMILES C[C@@H]1O[C@@H](OC[C@@H]2O[C@@H](Oc3c(-c4ccc(O)c(O)c4)oc4cc(O)cc(O)c4c3=O)[C@@H](O)[C@H](O)[C@H]2O)[C@H](O)[C@H](O)[C@H]1O
REMARK SMILES IDX 7 1 36 2 34 3 32 4 9 5 8 6 6 7 5 8 4 9 1 10 2 11 42 12 3 13
REMARK SMILES IDX 40 14 38 15 43 16 41 18 39 20 37 22 35 24 10 26 11 27 12 28
REMARK SMILES IDX 30 29 21 30 29 31 31 32 22 33 27 34 23 35 26 36 24 37 13 38
REMARK SMILES IDX 20 39 14 40 18 41 15 42 16 43 19 44 17 46 28 48 25 50 33 52
REMARK H PARENT 43 17 41 19 39 21 37 23 35 25 19 45 17 47 28 49 25 51 33 53
REMARK Flexibility Score: inf
ROOT
ATOM      1  C   UNL     1      -7.780  85.700  -8.199  1.00  0.00     0.180 C 
ATOM      2  C   UNL     1      -6.360  85.268  -7.666  1.00  0.00     0.177 C 
ATOM      3  C   UNL     1      -5.308  85.445  -8.764  1.00  0.00     0.180 C 
ATOM      4  C   UNL     1      -5.602  86.718  -9.616  1.00  0.00     0.214 C 
ATOM      5  C   UNL     1      -7.046  86.707 -10.152  1.00  0.00     0.339 C 
ATOM      6  O   UNL     1      -7.807  85.640  -9.610  1.00  0.00    -0.332 OA
ENDROOT
BRANCH   1   7
ATOM      7  C   UNL     1      -8.918  84.837  -7.575  1.00  0.00     0.198 C 
BRANCH   7   8
ATOM      8  O   UNL     1      -9.111  83.658  -8.334  1.00  0.00    -0.347 OA
BRANCH   8   9
ATOM      9  C   UNL     1     -10.382  83.544  -8.967  1.00  0.00     0.281 C 
ATOM     10  C   UNL     1     -13.042  85.624  -9.615  1.00  0.00     0.041 C 
ATOM     11  C   UNL     1     -12.657  84.311  -8.909  1.00  0.00     0.150 C 
ATOM     12  C   UNL     1     -12.865  83.091  -9.853  1.00  0.00     0.174 C 
ATOM     13  O   UNL     1     -11.335  84.404  -8.348  1.00  0.00    -0.344 OA
ATOM     14  C   UNL     1     -12.344  81.902  -9.060  1.00  0.00     0.179 C 
ATOM     15  C   UNL     1     -10.811  82.035  -9.164  1.00  0.00     0.202 C 
BRANCH  12  16
ATOM     16  O   UNL     1     -14.246  82.943 -10.162  1.00  0.00    -0.388 OA
ATOM     17  H   UNL     1     -14.341  83.186 -11.123  1.00  0.00     0.211 HD
ENDBRANCH  12  16
BRANCH  14  18
ATOM     18  O   UNL     1     -12.826  80.671  -9.545  1.00  0.00    -0.387 OA
ATOM     19  H   UNL     1     -12.525  80.579 -10.492  1.00  0.00     0.211 HD
ENDBRANCH  14  18
BRANCH  15  20
ATOM     20  O   UNL     1     -10.336  81.602 -10.421  1.00  0.00    -0.385 OA
ATOM     21  H   UNL     1     -10.823  82.031 -11.140  1.00  0.00     0.211 HD
ENDBRANCH  15  20
ENDBRANCH   8   9
ENDBRANCH   7   8
ENDBRANCH   1   7
BRANCH   2  22
ATOM     22  O   UNL     1      -6.028  86.018  -6.527  1.00  0.00    -0.387 OA
ATOM     23  H   UNL     1      -6.557  86.867  -6.482  1.00  0.00     0.211 HD
ENDBRANCH   2  22
BRANCH   3  24
ATOM     24  O   UNL     1      -5.231  84.295  -9.575  1.00  0.00    -0.387 OA
ATOM     25  H   UNL     1      -4.490  84.364 -10.254  1.00  0.00     0.211 HD
ENDBRANCH   3  24
BRANCH   5  26
ATOM     26  O   UNL     1      -7.764  87.928  -9.870  1.00  0.00    -0.454 OA
BRANCH  26  27
ATOM     27  C   UNL     1      -8.515  88.746 -10.729  1.00  0.00     0.214 A 
ATOM     28  C   UNL     1      -7.818  89.652 -11.550  1.00  0.00     0.180 A 
ATOM     29  C   UNL     1      -9.945  88.720 -10.830  1.00  0.00     0.239 A 
ATOM     30  O   UNL     1      -8.476  90.497 -12.343  1.00  0.00    -0.452 OA
ATOM     31  C   UNL     1     -10.605  89.603 -11.718  1.00  0.00     0.111 A 
ATOM     32  O   UNL     1     -10.603  87.930 -10.107  1.00  0.00    -0.285 OA
ATOM     33  C   UNL     1      -9.803  90.525 -12.455  1.00  0.00     0.146 A 
ATOM     34  C   UNL     1     -12.017  89.600 -11.946  1.00  0.00     0.134 A 
ATOM     35  C   UNL     1     -10.387  91.425 -13.357  1.00  0.00     0.094 A 
ATOM     36  C   UNL     1     -12.567  90.488 -12.892  1.00  0.00     0.093 A 
ATOM     37  C   UNL     1     -11.759  91.408 -13.572  1.00  0.00     0.123 A 
BRANCH  28  38
ATOM     38  C   UNL     1      -6.360  89.682 -11.701  1.00  0.00     0.025 A 
ATOM     39  C   UNL     1      -5.816  89.224 -12.918  1.00  0.00     0.062 A 
ATOM     40  C   UNL     1      -5.739  90.744 -11.009  1.00  0.00     0.016 A 
ATOM     41  C   UNL     1      -4.813  89.984 -13.552  1.00  0.00     0.158 A 
ATOM     42  C   UNL     1      -4.721  91.479 -11.629  1.00  0.00     0.051 A 
ATOM     43  C   UNL     1      -4.344  91.169 -12.950  1.00  0.00     0.157 A 
BRANCH  41  44
ATOM     44  O   UNL     1      -4.337  89.632 -14.826  1.00  0.00    -0.504 OA
ATOM     45  H   UNL     1      -3.462  89.967 -15.184  1.00  0.00     0.293 HD
ENDBRANCH  41  44
BRANCH  43  46
ATOM     46  O   UNL     1      -3.600  92.103 -13.682  1.00  0.00    -0.504 OA
ATOM     47  H   UNL     1      -2.872  92.654 -13.273  1.00  0.00     0.293 HD
ENDBRANCH  43  46
ENDBRANCH  28  38
BRANCH  34  48
ATOM     48  O   UNL     1     -12.918  88.750 -11.304  1.00  0.00    -0.507 OA
ATOM     49  H   UNL     1     -12.827  88.483 -10.330  1.00  0.00     0.293 HD
ENDBRANCH  34  48
BRANCH  37  50
ATOM     50  O   UNL     1     -12.308  92.336 -14.425  1.00  0.00    -0.508 OA
ATOM     51  H   UNL     1     -13.321  92.406 -14.498  1.00  0.00     0.293 HD
ENDBRANCH  37  50
ENDBRANCH  26  27
ENDBRANCH   5  26
BRANCH   4  52
ATOM     52  O   UNL     1      -5.379  87.865  -8.804  1.00  0.00    -0.384 OA
ATOM     53  H   UNL     1      -5.294  87.546  -7.879  1.00  0.00     0.211 HD
ENDBRANCH   4  52
TORSDOF 16
ENDMDL
MODEL 5
REMARK VINA RESULT:    -6.494      2.569      6.146
REMARK INTER + INTRA:         -12.815
REMARK INTER:                 -10.449
REMARK INTRA:                  -2.366
REMARK UNBOUND:                -2.145
REMARK SMILES C[C@@H]1O[C@@H](OC[C@@H]2O[C@@H](Oc3c(-c4ccc(O)c(O)c4)oc4cc(O)cc(O)c4c3=O)[C@@H](O)[C@H](O)[C@H]2O)[C@H](O)[C@H](O)[C@H]1O
REMARK SMILES IDX 7 1 36 2 34 3 32 4 9 5 8 6 6 7 5 8 4 9 1 10 2 11 42 12 3 13
REMARK SMILES IDX 40 14 38 15 43 16 41 18 39 20 37 22 35 24 10 26 11 27 12 28
REMARK SMILES IDX 30 29 21 30 29 31 31 32 22 33 27 34 23 35 26 36 24 37 13 38
REMARK SMILES IDX 20 39 14 40 18 41 15 42 16 43 19 44 17 46 28 48 25 50 33 52
REMARK H PARENT 43 17 41 19 39 21 37 23 35 25 19 45 17 47 28 49 25 51 33 53
REMARK Flexibility Score: inf
ROOT
ATOM      1  C   UNL     1     -11.243  87.830  -9.921  1.00  0.00     0.180 C 
ATOM      2  C   UNL     1     -12.630  88.578 -10.008  1.00  0.00     0.177 C 
ATOM      3  C   UNL     1     -12.410  90.091 -10.066  1.00  0.00     0.180 C 
ATOM      4  C   UNL     1     -11.146  90.438 -10.909  1.00  0.00     0.214 C 
ATOM      5  C   UNL     1      -9.912  89.663 -10.407  1.00  0.00     0.339 C 
ATOM      6  O   UNL     1     -10.253  88.703  -9.420  1.00  0.00    -0.332 OA
ENDROOT
BRANCH   1   7
ATOM      7  C   UNL     1     -11.339  86.532  -9.063  1.00  0.00     0.198 C 
BRANCH   7   8
ATOM      8  O   UNL     1     -12.356  85.686  -9.568  1.00  0.00    -0.347 OA
BRANCH   8   9
ATOM      9  C   UNL     1     -12.399  84.381  -8.997  1.00  0.00     0.281 C 
ATOM     10  C   UNL     1     -11.157  82.847  -6.182  1.00  0.00     0.041 C 
ATOM     11  C   UNL     1     -11.149  82.777  -7.720  1.00  0.00     0.150 C 
ATOM     12  C   UNL     1     -12.260  81.819  -8.240  1.00  0.00     0.174 C 
ATOM     13  O   UNL     1     -11.195  84.099  -8.289  1.00  0.00    -0.344 OA
ATOM     14  C   UNL     1     -12.193  81.944  -9.754  1.00  0.00     0.179 C 
ATOM     15  C   UNL     1     -12.879  83.295 -10.042  1.00  0.00     0.202 C 
BRANCH  12  16
ATOM     16  O   UNL     1     -11.993  80.488  -7.817  1.00  0.00    -0.388 OA
ATOM     17  H   UNL     1     -11.003  80.409  -7.763  1.00  0.00     0.211 HD
ENDBRANCH  12  16
BRANCH  14  18
ATOM     18  O   UNL     1     -12.805  80.862 -10.417  1.00  0.00    -0.387 OA
ATOM     19  H   UNL     1     -12.836  80.095  -9.779  1.00  0.00     0.211 HD
ENDBRANCH  14  18
BRANCH  15  20
ATOM     20  O   UNL     1     -14.284  83.193  -9.956  1.00  0.00    -0.385 OA
ATOM     21  H   UNL     1     -14.695  83.351 -10.818  1.00  0.00     0.211 HD
ENDBRANCH  15  20
ENDBRANCH   8   9
ENDBRANCH   7   8
ENDBRANCH   1   7
BRANCH   2  22
ATOM     22  O   UNL     1     -13.345  88.130 -11.130  1.00  0.00    -0.387 OA
ATOM     23  H   UNL     1     -13.483  88.867 -11.793  1.00  0.00     0.211 HD
ENDBRANCH   2  22
BRANCH   3  24
ATOM     24  O   UNL     1     -12.324  90.635  -8.769  1.00  0.00    -0.387 OA
ATOM     25  H   UNL     1     -12.705  91.567  -8.727  1.00  0.00     0.211 HD
ENDBRANCH   3  24
BRANCH   5  26
ATOM     26  O   UNL     1      -9.217  88.962 -11.460  1.00  0.00    -0.454 OA
BRANCH  26  27
ATOM     27  C   UNL     1      -7.998  89.266 -12.088  1.00  0.00     0.214 A 
ATOM     28  C   UNL     1      -6.826  88.694 -11.559  1.00  0.00     0.180 A 
ATOM     29  C   UNL     1      -7.865  90.118 -13.233  1.00  0.00     0.239 A 
ATOM     30  O   UNL     1      -5.633  88.991 -12.072  1.00  0.00    -0.452 OA
ATOM     31  C   UNL     1      -6.584  90.373 -13.777  1.00  0.00     0.111 A 
ATOM     32  O   UNL     1      -8.889  90.654 -13.729  1.00  0.00    -0.285 OA
ATOM     33  C   UNL     1      -5.457  89.792 -13.122  1.00  0.00     0.146 A 
ATOM     34  C   UNL     1      -6.356  91.144 -14.961  1.00  0.00     0.134 A 
ATOM     35  C   UNL     1      -4.158  89.997 -13.607  1.00  0.00     0.094 A 
ATOM     36  C   UNL     1      -5.042  91.294 -15.447  1.00  0.00     0.093 A 
ATOM     37  C   UNL     1      -3.952  90.744 -14.759  1.00  0.00     0.123 A 
BRANCH  28  38
ATOM     38  C   UNL     1      -6.803  87.668 -10.512  1.00  0.00     0.025 A 
ATOM     39  C   UNL     1      -6.421  86.362 -10.881  1.00  0.00     0.062 A 
ATOM     40  C   UNL     1      -6.463  88.166  -9.236  1.00  0.00     0.016 A 
ATOM     41  C   UNL     1      -5.499  85.663 -10.076  1.00  0.00     0.158 A 
ATOM     42  C   UNL     1      -5.570  87.454  -8.425  1.00  0.00     0.051 A 
ATOM     43  C   UNL     1      -4.997  86.260  -8.901  1.00  0.00     0.157 A 
BRANCH  41  44
ATOM     44  O   UNL     1      -4.994  84.413 -10.475  1.00  0.00    -0.504 OA
ATOM     45  H   UNL     1      -4.277  84.322 -11.170  1.00  0.00     0.293 HD
ENDBRANCH  41  44
BRANCH  43  46
ATOM     46  O   UNL     1      -3.863  85.746  -8.261  1.00  0.00    -0.504 OA
ATOM     47  H   UNL     1      -3.813  84.808  -7.921  1.00  0.00     0.293 HD
ENDBRANCH  43  46
ENDBRANCH  28  38
BRANCH  34  48
ATOM     48  O   UNL     1      -7.362  91.760 -15.706  1.00  0.00    -0.507 OA
ATOM     49  H   UNL     1      -7.719  92.685 -15.494  1.00  0.00     0.293 HD
ENDBRANCH  34  48
BRANCH  37  50
ATOM     50  O   UNL     1      -2.664  90.969 -15.183  1.00  0.00    -0.508 OA
ATOM     51  H   UNL     1      -2.402  90.719 -16.135  1.00  0.00     0.293 HD
ENDBRANCH  37  50
ENDBRANCH  26  27
ENDBRANCH   5  26
BRANCH   4  52
ATOM     52  O   UNL     1     -11.411  90.125 -12.271  1.00  0.00    -0.384 OA
ATOM     53  H   UNL     1     -11.920  90.880 -12.642  1.00  0.00     0.211 HD
ENDBRANCH   4  52
TORSDOF 16
ENDMDL
MODEL 6
REMARK VINA RESULT:    -6.492      3.211      8.522
REMARK INTER + INTRA:         -12.812
REMARK INTER:                 -10.209
REMARK INTRA:                  -2.602
REMARK UNBOUND:                -2.145
REMARK SMILES C[C@@H]1O[C@@H](OC[C@@H]2O[C@@H](Oc3c(-c4ccc(O)c(O)c4)oc4cc(O)cc(O)c4c3=O)[C@@H](O)[C@H](O)[C@H]2O)[C@H](O)[C@H](O)[C@H]1O
REMARK SMILES IDX 7 1 36 2 34 3 32 4 9 5 8 6 6 7 5 8 4 9 1 10 2 11 42 12 3 13
REMARK SMILES IDX 40 14 38 15 43 16 41 18 39 20 37 22 35 24 10 26 11 27 12 28
REMARK SMILES IDX 30 29 21 30 29 31 31 32 22 33 27 34 23 35 26 36 24 37 13 38
REMARK SMILES IDX 20 39 14 40 18 41 15 42 16 43 19 44 17 46 28 48 25 50 33 52
REMARK H PARENT 43 17 41 19 39 21 37 23 35 25 19 45 17 47 28 49 25 51 33 53
REMARK Flexibility Score: inf
ROOT
ATOM      1  C   UNL     1      -4.715  93.059 -10.740  1.00  0.00     0.180 C 
ATOM      2  C   UNL     1      -4.199  94.244  -9.835  1.00  0.00     0.177 C 
ATOM      3  C   UNL     1      -4.913  94.223  -8.482  1.00  0.00     0.180 C 
ATOM      4  C   UNL     1      -5.152  92.760  -8.000  1.00  0.00     0.214 C 
ATOM      5  C   UNL     1      -5.870  91.929  -9.080  1.00  0.00     0.339 C 
ATOM      6  O   UNL     1      -5.989  92.636 -10.304  1.00  0.00    -0.332 OA
ENDROOT
BRANCH   1   7
ATOM      7  C   UNL     1      -4.734  93.450 -12.249  1.00  0.00     0.198 C 
BRANCH   7   8
ATOM      8  O   UNL     1      -3.649  92.844 -12.926  1.00  0.00    -0.347 OA
BRANCH   8   9
ATOM      9  C   UNL     1      -3.971  92.252 -14.182  1.00  0.00     0.281 C 
ATOM     10  C   UNL     1      -4.753  93.368 -17.338  1.00  0.00     0.041 C 
ATOM     11  C   UNL     1      -5.287  92.515 -16.173  1.00  0.00     0.150 C 
ATOM     12  C   UNL     1      -4.909  91.017 -16.361  1.00  0.00     0.174 C 
ATOM     13  O   UNL     1      -4.882  93.071 -14.909  1.00  0.00    -0.344 OA
ATOM     14  C   UNL     1      -5.404  90.337 -15.094  1.00  0.00     0.179 C 
ATOM     15  C   UNL     1      -4.352  90.725 -14.034  1.00  0.00     0.202 C 
BRANCH  12  16
ATOM     16  O   UNL     1      -5.552  90.493 -17.517  1.00  0.00    -0.388 OA
ATOM     17  H   UNL     1      -6.518  90.423 -17.286  1.00  0.00     0.211 HD
ENDBRANCH  12  16
BRANCH  14  18
ATOM     18  O   UNL     1      -5.548  88.944 -15.245  1.00  0.00    -0.387 OA
ATOM     19  H   UNL     1      -5.860  88.575 -14.372  1.00  0.00     0.211 HD
ENDBRANCH  14  18
BRANCH  15  20
ATOM     20  O   UNL     1      -3.173  89.961 -14.169  1.00  0.00    -0.385 OA
ATOM     21  H   UNL     1      -2.512  90.436 -14.694  1.00  0.00     0.211 HD
ENDBRANCH  15  20
ENDBRANCH   8   9
ENDBRANCH   7   8
ENDBRANCH   1   7
BRANCH   2  22
ATOM     22  O   UNL     1      -2.808  94.149  -9.671  1.00  0.00    -0.387 OA
ATOM     23  H   UNL     1      -2.570  93.513  -8.935  1.00  0.00     0.211 HD
ENDBRANCH   2  22
BRANCH   3  24
ATOM     24  O   UNL     1      -6.123  94.944  -8.543  1.00  0.00    -0.387 OA
ATOM     25  H   UNL     1      -6.917  94.363  -8.323  1.00  0.00     0.211 HD
ENDBRANCH   3  24
BRANCH   5  26
ATOM     26  O   UNL     1      -5.202  90.683  -9.372  1.00  0.00    -0.454 OA
BRANCH  26  27
ATOM     27  C   UNL     1      -5.588  89.366  -9.072  1.00  0.00     0.214 A 
ATOM     28  C   UNL     1      -6.682  88.825  -9.773  1.00  0.00     0.180 A 
ATOM     29  C   UNL     1      -4.942  88.533  -8.100  1.00  0.00     0.239 A 
ATOM     30  O   UNL     1      -7.134  87.604  -9.491  1.00  0.00    -0.452 OA
ATOM     31  C   UNL     1      -5.424  87.224  -7.861  1.00  0.00     0.111 A 
ATOM     32  O   UNL     1      -3.966  88.984  -7.447  1.00  0.00    -0.285 OA
ATOM     33  C   UNL     1      -6.580  86.801  -8.584  1.00  0.00     0.146 A 
ATOM     34  C   UNL     1      -4.803  86.292  -6.971  1.00  0.00     0.134 A 
ATOM     35  C   UNL     1      -7.111  85.517  -8.403  1.00  0.00     0.094 A 
ATOM     36  C   UNL     1      -5.336  84.994  -6.846  1.00  0.00     0.093 A 
ATOM     37  C   UNL     1      -6.495  84.621  -7.539  1.00  0.00     0.123 A 
BRANCH  28  38
ATOM     38  C   UNL     1      -7.336  89.471 -10.914  1.00  0.00     0.025 A 
ATOM     39  C   UNL     1      -7.226  88.845 -12.174  1.00  0.00     0.062 A 
ATOM     40  C   UNL     1      -8.517  90.165 -10.575  1.00  0.00     0.016 A 
ATOM     41  C   UNL     1      -8.378  88.709 -12.975  1.00  0.00     0.158 A 
ATOM     42  C   UNL     1      -9.651  90.053 -11.390  1.00  0.00     0.051 A 
ATOM     43  C   UNL     1      -9.611  89.225 -12.528  1.00  0.00     0.157 A 
BRANCH  41  44
ATOM     44  O   UNL     1      -8.338  87.981 -14.177  1.00  0.00    -0.504 OA
ATOM     45  H   UNL     1      -7.492  87.852 -14.698  1.00  0.00     0.293 HD
ENDBRANCH  41  44
BRANCH  43  46
ATOM     46  O   UNL     1     -10.814  88.836 -13.129  1.00  0.00    -0.504 OA
ATOM     47  H   UNL     1     -11.660  88.708 -12.611  1.00  0.00     0.293 HD
ENDBRANCH  43  46
ENDBRANCH  28  38
BRANCH  34  48
ATOM     48  O   UNL     1      -3.666  86.567  -6.211  1.00  0.00    -0.507 OA
ATOM     49  H   UNL     1      -3.308  85.935  -5.503  1.00  0.00     0.293 HD
ENDBRANCH  34  48
BRANCH  37  50
ATOM     50  O   UNL     1      -7.067  83.386  -7.345  1.00  0.00    -0.508 OA
ATOM     51  H   UNL     1      -7.265  83.073  -6.397  1.00  0.00     0.293 HD
ENDBRANCH  37  50
ENDBRANCH  26  27
ENDBRANCH   5  26
BRANCH   4  52
ATOM     52  O   UNL     1      -3.893  92.180  -7.679  1.00  0.00    -0.384 OA
ATOM     53  H   UNL     1      -3.228  92.602  -8.266  1.00  0.00     0.211 HD
ENDBRANCH   4  52
TORSDOF 16
ENDMDL
MODEL 7
REMARK VINA RESULT:    -6.463      4.148      9.684
REMARK INTER + INTRA:         -12.764
REMARK INTER:                 -10.110
REMARK INTRA:                  -2.654
REMARK UNBOUND:                -2.145
REMARK SMILES C[C@@H]1O[C@@H](OC[C@@H]2O[C@@H](Oc3c(-c4ccc(O)c(O)c4)oc4cc(O)cc(O)c4c3=O)[C@@H](O)[C@H](O)[C@H]2O)[C@H](O)[C@H](O)[C@H]1O
REMARK SMILES IDX 7 1 36 2 34 3 32 4 9 5 8 6 6 7 5 8 4 9 1 10 2 11 42 12 3 13
REMARK SMILES IDX 40 14 38 15 43 16 41 18 39 20 37 22 35 24 10 26 11 27 12 28
REMARK SMILES IDX 30 29 21 30 29 31 31 32 22 33 27 34 23 35 26 36 24 37 13 38
REMARK SMILES IDX 20 39 14 40 18 41 15 42 16 43 19 44 17 46 28 48 25 50 33 52
REMARK H PARENT 43 17 41 19 39 21 37 23 35 25 19 45 17 47 28 49 25 51 33 53
REMARK Flexibility Score: inf
ROOT
ATOM      1  C   UNL     1      -5.894  94.327 -11.709  1.00  0.00     0.180 C 
ATOM      2  C   UNL     1      -5.301  95.733 -11.307  1.00  0.00     0.177 C 
ATOM      3  C   UNL     1      -5.221  95.855  -9.784  1.00  0.00     0.180 C 
ATOM      4  C   UNL     1      -4.828  94.493  -9.135  1.00  0.00     0.214 C 
ATOM      5  C   UNL     1      -5.762  93.362  -9.607  1.00  0.00     0.339 C 
ATOM      6  O   UNL     1      -6.639  93.791 -10.636  1.00  0.00    -0.332 OA
ENDROOT
BRANCH   1   7
ATOM      7  C   UNL     1      -6.753  94.412 -13.007  1.00  0.00     0.198 C 
BRANCH   7   8
ATOM      8  O   UNL     1      -6.064  95.145 -14.003  1.00  0.00    -0.347 OA
BRANCH   8   9
ATOM      9  C   UNL     1      -6.530  94.946 -15.335  1.00  0.00     0.281 C 
ATOM     10  C   UNL     1      -9.324  95.788 -17.152  1.00  0.00     0.041 C 
ATOM     11  C   UNL     1      -8.490  94.586 -16.674  1.00  0.00     0.150 C 
ATOM     12  C   UNL     1      -7.426  94.188 -17.738  1.00  0.00     0.174 C 
ATOM     13  O   UNL     1      -7.949  94.831 -15.363  1.00  0.00    -0.344 OA
ATOM     14  C   UNL     1      -6.625  93.075 -17.079  1.00  0.00     0.179 C 
ATOM     15  C   UNL     1      -5.711  93.820 -16.085  1.00  0.00     0.202 C 
BRANCH  12  16
ATOM     16  O   UNL     1      -8.068  93.734 -18.924  1.00  0.00    -0.388 OA
ATOM     17  H   UNL     1      -7.496  93.002 -19.283  1.00  0.00     0.211 HD
ENDBRANCH  12  16
BRANCH  14  18
ATOM     18  O   UNL     1      -5.910  92.296 -18.009  1.00  0.00    -0.387 OA
ATOM     19  H   UNL     1      -6.547  91.637 -18.406  1.00  0.00     0.211 HD
ENDBRANCH  14  18
BRANCH  15  20
ATOM     20  O   UNL     1      -4.620  94.430 -16.739  1.00  0.00    -0.385 OA
ATOM     21  H   UNL     1      -4.871  94.730 -17.624  1.00  0.00     0.211 HD
ENDBRANCH  15  20
ENDBRANCH   8   9
ENDBRANCH   7   8
ENDBRANCH   1   7
BRANCH   2  22
ATOM     22  O   UNL     1      -4.036  95.903 -11.892  1.00  0.00    -0.387 OA
ATOM     23  H   UNL     1      -4.111  96.229 -12.836  1.00  0.00     0.211 HD
ENDBRANCH   2  22
BRANCH   3  24
ATOM     24  O   UNL     1      -6.435  96.340  -9.256  1.00  0.00    -0.387 OA
ATOM     25  H   UNL     1      -6.939  95.624  -8.756  1.00  0.00     0.211 HD
ENDBRANCH   3  24
BRANCH   5  26
ATOM     26  O   UNL     1      -5.049  92.211 -10.108  1.00  0.00    -0.454 OA
BRANCH  26  27
ATOM     27  C   UNL     1      -5.413  90.855 -10.094  1.00  0.00     0.214 A 
ATOM     28  C   UNL     1      -5.759  90.255 -11.319  1.00  0.00     0.180 A 
ATOM     29  C   UNL     1      -5.453  90.037  -8.917  1.00  0.00     0.239 A 
ATOM     30  O   UNL     1      -6.171  88.988 -11.364  1.00  0.00    -0.452 OA
ATOM     31  C   UNL     1      -5.852  88.683  -9.013  1.00  0.00     0.111 A 
ATOM     32  O   UNL     1      -5.158  90.539  -7.803  1.00  0.00    -0.285 OA
ATOM     33  C   UNL     1      -6.245  88.196 -10.296  1.00  0.00     0.146 A 
ATOM     34  C   UNL     1      -5.850  87.768  -7.912  1.00  0.00     0.134 A 
ATOM     35  C   UNL     1      -6.646  86.864 -10.467  1.00  0.00     0.094 A 
ATOM     36  C   UNL     1      -6.218  86.425  -8.128  1.00  0.00     0.093 A 
ATOM     37  C   UNL     1      -6.636  85.986  -9.391  1.00  0.00     0.123 A 
BRANCH  28  38
ATOM     38  C   UNL     1      -5.601  90.893 -12.629  1.00  0.00     0.025 A 
ATOM     39  C   UNL     1      -4.294  91.010 -13.148  1.00  0.00     0.062 A 
ATOM     40  C   UNL     1      -6.687  90.676 -13.503  1.00  0.00     0.016 A 
ATOM     41  C   UNL     1      -4.058  90.665 -14.494  1.00  0.00     0.158 A 
ATOM     42  C   UNL     1      -6.450  90.363 -14.847  1.00  0.00     0.051 A 
ATOM     43  C   UNL     1      -5.126  90.241 -15.310  1.00  0.00     0.157 A 
BRANCH  41  44
ATOM     44  O   UNL     1      -2.752  90.643 -15.014  1.00  0.00    -0.504 OA
ATOM     45  H   UNL     1      -2.500  90.086 -15.809  1.00  0.00     0.293 HD
ENDBRANCH  41  44
BRANCH  43  46
ATOM     46  O   UNL     1      -4.888  89.595 -16.529  1.00  0.00    -0.504 OA
ATOM     47  H   UNL     1      -4.363  90.014 -17.269  1.00  0.00     0.293 HD
ENDBRANCH  43  46
ENDBRANCH  28  38
BRANCH  34  48
ATOM     48  O   UNL     1      -5.483  88.104  -6.609  1.00  0.00    -0.507 OA
ATOM     49  H   UNL     1      -6.106  88.577  -5.963  1.00  0.00     0.293 HD
ENDBRANCH  34  48
BRANCH  37  50
ATOM     50  O   UNL     1      -7.082  84.700  -9.580  1.00  0.00    -0.508 OA
ATOM     51  H   UNL     1      -7.475  84.437 -10.482  1.00  0.00     0.293 HD
ENDBRANCH  37  50
ENDBRANCH  26  27
ENDBRANCH   5  26
BRANCH   4  52
ATOM     52  O   UNL     1      -3.479  94.203  -9.480  1.00  0.00    -0.384 OA
ATOM     53  H   UNL     1      -2.912  94.655  -8.816  1.00  0.00     0.211 HD
ENDBRANCH   4  52
TORSDOF 16
ENDMDL
MODEL 8
REMARK VINA RESULT:    -6.305      3.699      8.123
REMARK INTER + INTRA:         -12.505
REMARK INTER:                  -9.995
REMARK INTRA:                  -2.510
REMARK UNBOUND:                -2.145
REMARK SMILES C[C@@H]1O[C@@H](OC[C@@H]2O[C@@H](Oc3c(-c4ccc(O)c(O)c4)oc4cc(O)cc(O)c4c3=O)[C@@H](O)[C@H](O)[C@H]2O)[C@H](O)[C@H](O)[C@H]1O
REMARK SMILES IDX 7 1 36 2 34 3 32 4 9 5 8 6 6 7 5 8 4 9 1 10 2 11 42 12 3 13
REMARK SMILES IDX 40 14 38 15 43 16 41 18 39 20 37 22 35 24 10 26 11 27 12 28
REMARK SMILES IDX 30 29 21 30 29 31 31 32 22 33 27 34 23 35 26 36 24 37 13 38
REMARK SMILES IDX 20 39 14 40 18 41 15 42 16 43 19 44 17 46 28 48 25 50 33 52
REMARK H PARENT 43 17 41 19 39 21 37 23 35 25 19 45 17 47 28 49 25 51 33 53
REMARK Flexibility Score: inf
ROOT
ATOM      1  C   UNL     1      -6.958  94.118 -11.945  1.00  0.00     0.180 C 
ATOM      2  C   UNL     1      -6.663  95.615 -12.348  1.00  0.00     0.177 C 
ATOM      3  C   UNL     1      -5.762  96.275 -11.303  1.00  0.00     0.180 C 
ATOM      4  C   UNL     1      -4.707  95.265 -10.758  1.00  0.00     0.214 C 
ATOM      5  C   UNL     1      -5.381  93.975 -10.254  1.00  0.00     0.339 C 
ATOM      6  O   UNL     1      -6.766  93.945 -10.556  1.00  0.00    -0.332 OA
ENDROOT
BRANCH   1   7
ATOM      7  C   UNL     1      -8.387  93.674 -12.378  1.00  0.00     0.198 C 
BRANCH   7   8
ATOM      8  O   UNL     1      -8.909  92.736 -11.455  1.00  0.00    -0.347 OA
BRANCH   8   9
ATOM      9  C   UNL     1      -9.679  91.682 -12.029  1.00  0.00     0.281 C 
ATOM     10  C   UNL     1      -9.036  88.771 -13.742  1.00  0.00     0.041 C 
ATOM     11  C   UNL     1      -9.777  90.116 -13.847  1.00  0.00     0.150 C 
ATOM     12  C   UNL     1     -11.251  89.979 -13.364  1.00  0.00     0.174 C 
ATOM     13  O   UNL     1      -9.035  91.159 -13.187  1.00  0.00    -0.344 OA
ATOM     14  C   UNL     1     -11.805  91.394 -13.425  1.00  0.00     0.179 C 
ATOM     15  C   UNL     1     -11.202  92.078 -12.181  1.00  0.00     0.202 C 
BRANCH  12  16
ATOM     16  O   UNL     1     -11.967  89.104 -14.227  1.00  0.00    -0.388 OA
ATOM     17  H   UNL     1     -12.382  88.416 -13.639  1.00  0.00     0.211 HD
ENDBRANCH  12  16
BRANCH  14  18
ATOM     18  O   UNL     1     -13.213  91.426 -13.444  1.00  0.00    -0.387 OA
ATOM     19  H   UNL     1     -13.503  92.278 -13.012  1.00  0.00     0.211 HD
ENDBRANCH  14  18
BRANCH  15  20
ATOM     20  O   UNL     1     -11.876  91.698 -11.000  1.00  0.00    -0.385 OA
ATOM     21  H   UNL     1     -11.383  91.978 -10.216  1.00  0.00     0.211 HD
ENDBRANCH  15  20
ENDBRANCH   8   9
ENDBRANCH   7   8
ENDBRANCH   1   7
BRANCH   2  22
ATOM     22  O   UNL     1      -6.072  95.659 -13.621  1.00  0.00    -0.387 OA
ATOM     23  H   UNL     1      -5.879  94.739 -13.966  1.00  0.00     0.211 HD
ENDBRANCH   2  22
BRANCH   3  24
ATOM     24  O   UNL     1      -6.529  96.825 -10.256  1.00  0.00    -0.387 OA
ATOM     25  H   UNL     1      -6.407  96.317  -9.394  1.00  0.00     0.211 HD
ENDBRANCH   3  24
BRANCH   5  26
ATOM     26  O   UNL     1      -4.798  92.777 -10.809  1.00  0.00    -0.454 OA
BRANCH  26  27
ATOM     27  C   UNL     1      -5.271  91.455 -10.787  1.00  0.00     0.214 A 
ATOM     28  C   UNL     1      -5.551  90.836 -12.020  1.00  0.00     0.180 A 
ATOM     29  C   UNL     1      -5.488  90.690  -9.594  1.00  0.00     0.239 A 
ATOM     30  O   UNL     1      -6.059  89.606 -12.064  1.00  0.00    -0.452 OA
ATOM     31  C   UNL     1      -5.987  89.368  -9.685  1.00  0.00     0.111 A 
ATOM     32  O   UNL     1      -5.257  91.211  -8.473  1.00  0.00    -0.285 OA
ATOM     33  C   UNL     1      -6.297  88.864 -10.983  1.00  0.00     0.146 A 
ATOM     34  C   UNL     1      -6.162  88.501  -8.561  1.00  0.00     0.134 A 
ATOM     35  C   UNL     1      -6.789  87.563 -11.150  1.00  0.00     0.094 A 
ATOM     36  C   UNL     1      -6.617  87.183  -8.768  1.00  0.00     0.093 A 
ATOM     37  C   UNL     1      -6.951  86.729 -10.051  1.00  0.00     0.123 A 
BRANCH  28  38
ATOM     38  C   UNL     1      -5.219  91.408 -13.328  1.00  0.00     0.025 A 
ATOM     39  C   UNL     1      -3.876  91.340 -13.753  1.00  0.00     0.062 A 
ATOM     40  C   UNL     1      -6.261  91.305 -14.274  1.00  0.00     0.016 A 
ATOM     41  C   UNL     1      -3.593  90.926 -15.070  1.00  0.00     0.158 A 
ATOM     42  C   UNL     1      -5.973  90.923 -15.591  1.00  0.00     0.051 A 
ATOM     43  C   UNL     1      -4.647  90.618 -15.953  1.00  0.00     0.157 A 
BRANCH  41  44
ATOM     44  O   UNL     1      -2.268  90.722 -15.492  1.00  0.00    -0.504 OA
ATOM     45  H   UNL     1      -1.796  89.845 -15.372  1.00  0.00     0.293 HD
ENDBRANCH  41  44
BRANCH  43  46
ATOM     46  O   UNL     1      -4.411  89.909 -17.137  1.00  0.00    -0.504 OA
ATOM     47  H   UNL     1      -4.018  88.990 -17.146  1.00  0.00     0.293 HD
ENDBRANCH  43  46
ENDBRANCH  28  38
BRANCH  34  48
ATOM     48  O   UNL     1      -5.891  88.858  -7.240  1.00  0.00    -0.507 OA
ATOM     49  H   UNL     1      -6.472  88.571  -6.459  1.00  0.00     0.293 HD
ENDBRANCH  34  48
BRANCH  37  50
ATOM     50  O   UNL     1      -7.482  85.476 -10.241  1.00  0.00    -0.508 OA
ATOM     51  H   UNL     1      -7.891  85.241 -11.143  1.00  0.00     0.293 HD
ENDBRANCH  37  50
ENDBRANCH  26  27
ENDBRANCH   5  26
BRANCH   4  52
ATOM     52  O   UNL     1      -3.784  94.971 -11.800  1.00  0.00    -0.384 OA
ATOM     53  H   UNL     1      -4.087  94.136 -12.221  1.00  0.00     0.211 HD
ENDBRANCH   4  52
TORSDOF 16
ENDMDL
MODEL 9
REMARK VINA RESULT:    -6.274      3.164      8.693
REMARK INTER + INTRA:         -12.453
REMARK INTER:                  -9.692
REMARK INTRA:                  -2.762
REMARK UNBOUND:                -2.145
REMARK SMILES C[C@@H]1O[C@@H](OC[C@@H]2O[C@@H](Oc3c(-c4ccc(O)c(O)c4)oc4cc(O)cc(O)c4c3=O)[C@@H](O)[C@H](O)[C@H]2O)[C@H](O)[C@H](O)[C@H]1O
REMARK SMILES IDX 7 1 36 2 34 3 32 4 9 5 8 6 6 7 5 8 4 9 1 10 2 11 42 12 3 13
REMARK SMILES IDX 40 14 38 15 43 16 41 18 39 20 37 22 35 24 10 26 11 27 12 28
REMARK SMILES IDX 30 29 21 30 29 31 31 32 22 33 27 34 23 35 26 36 24 37 13 38
REMARK SMILES IDX 20 39 14 40 18 41 15 42 16 43 19 44 17 46 28 48 25 50 33 52
REMARK H PARENT 43 17 41 19 39 21 37 23 35 25 19 45 17 47 28 49 25 51 33 53
REMARK Flexibility Score: inf
ROOT
ATOM      1  C   UNL     1      -7.128  89.629 -11.267  1.00  0.00     0.180 C 
ATOM      2  C   UNL     1      -8.142  90.824 -11.449  1.00  0.00     0.177 C 
ATOM      3  C   UNL     1      -9.548  90.392 -11.028  1.00  0.00     0.180 C 
ATOM      4  C   UNL     1      -9.492  89.437  -9.797  1.00  0.00     0.214 C 
ATOM      5  C   UNL     1      -8.542  88.252 -10.054  1.00  0.00     0.339 C 
ATOM      6  O   UNL     1      -7.824  88.400 -11.268  1.00  0.00    -0.332 OA
ENDROOT
BRANCH   1   7
ATOM      7  C   UNL     1      -6.012  89.648 -12.355  1.00  0.00     0.198 C 
BRANCH   7   8
ATOM      8  O   UNL     1      -5.380  90.915 -12.386  1.00  0.00    -0.347 OA
BRANCH   8   9
ATOM      9  C   UNL     1      -5.133  91.438 -13.689  1.00  0.00     0.281 C 
ATOM     10  C   UNL     1      -5.896  94.316 -15.407  1.00  0.00     0.041 C 
ATOM     11  C   UNL     1      -6.056  92.786 -15.449  1.00  0.00     0.150 C 
ATOM     12  C   UNL     1      -4.903  92.128 -16.263  1.00  0.00     0.174 C 
ATOM     13  O   UNL     1      -6.217  92.255 -14.120  1.00  0.00    -0.344 OA
ATOM     14  C   UNL     1      -5.140  90.632 -16.118  1.00  0.00     0.179 C 
ATOM     15  C   UNL     1      -4.644  90.318 -14.692  1.00  0.00     0.202 C 
BRANCH  12  16
ATOM     16  O   UNL     1      -4.974  92.535 -17.624  1.00  0.00    -0.388 OA
ATOM     17  H   UNL     1      -4.185  92.128 -18.074  1.00  0.00     0.211 HD
ENDBRANCH  12  16
BRANCH  14  18
ATOM     18  O   UNL     1      -4.483  89.879 -17.111  1.00  0.00    -0.387 OA
ATOM     19  H   UNL     1      -4.043  90.521 -17.736  1.00  0.00     0.211 HD
ENDBRANCH  14  18
BRANCH  15  20
ATOM     20  O   UNL     1      -3.235  90.259 -14.634  1.00  0.00    -0.385 OA
ATOM     21  H   UNL     1      -2.923  90.349 -13.722  1.00  0.00     0.211 HD
ENDBRANCH  15  20
ENDBRANCH   8   9
ENDBRANCH   7   8
ENDBRANCH   1   7
BRANCH   2  22
ATOM     22  O   UNL     1      -7.712  91.933 -10.702  1.00  0.00    -0.387 OA
ATOM     23  H   UNL     1      -6.955  91.692 -10.093  1.00  0.00     0.211 HD
ENDBRANCH   2  22
BRANCH   3  24
ATOM     24  O   UNL     1     -10.232  89.794 -12.106  1.00  0.00    -0.387 OA
ATOM     25  H   UNL     1     -11.068  90.303 -12.349  1.00  0.00     0.211 HD
ENDBRANCH   3  24
BRANCH   5  26
ATOM     26  O   UNL     1      -7.569  88.069  -9.003  1.00  0.00    -0.454 OA
BRANCH  26  27
ATOM     27  C   UNL     1      -6.559  87.101  -8.875  1.00  0.00     0.214 A 
ATOM     28  C   UNL     1      -5.310  87.517  -8.378  1.00  0.00     0.180 A 
ATOM     29  C   UNL     1      -6.713  85.717  -9.214  1.00  0.00     0.239 A 
ATOM     30  O   UNL     1      -4.293  86.661  -8.289  1.00  0.00    -0.452 OA
ATOM     31  C   UNL     1      -5.622  84.828  -9.062  1.00  0.00     0.111 A 
ATOM     32  O   UNL     1      -7.812  85.309  -9.668  1.00  0.00    -0.285 OA
ATOM     33  C   UNL     1      -4.382  85.371  -8.611  1.00  0.00     0.146 A 
ATOM     34  C   UNL     1      -5.699  83.419  -9.299  1.00  0.00     0.134 A 
ATOM     35  C   UNL     1      -3.260  84.550  -8.432  1.00  0.00     0.094 A 
ATOM     36  C   UNL     1      -4.565  82.616  -9.067  1.00  0.00     0.093 A 
ATOM     37  C   UNL     1      -3.350  83.183  -8.661  1.00  0.00     0.123 A 
BRANCH  28  38
ATOM     38  C   UNL     1      -5.039  88.846  -7.822  1.00  0.00     0.025 A 
ATOM     39  C   UNL     1      -4.614  89.856  -8.710  1.00  0.00     0.062 A 
ATOM     40  C   UNL     1      -5.856  89.179  -6.720  1.00  0.00     0.016 A 
ATOM     41  C   UNL     1      -5.205  91.132  -8.632  1.00  0.00     0.158 A 
ATOM     42  C   UNL     1      -6.418  90.458  -6.629  1.00  0.00     0.051 A 
ATOM     43  C   UNL     1      -6.184  91.396  -7.653  1.00  0.00     0.157 A 
BRANCH  41  44
ATOM     44  O   UNL     1      -4.903  92.126  -9.579  1.00  0.00    -0.504 OA
ATOM     45  H   UNL     1      -4.949  93.105  -9.363  1.00  0.00     0.293 HD
ENDBRANCH  41  44
BRANCH  43  46
ATOM     46  O   UNL     1      -7.010  92.522  -7.746  1.00  0.00    -0.504 OA
ATOM     47  H   UNL     1      -7.986  92.496  -7.526  1.00  0.00     0.293 HD
ENDBRANCH  43  46
ENDBRANCH  28  38
BRANCH  34  48
ATOM     48  O   UNL     1      -6.847  82.754  -9.732  1.00  0.00    -0.507 OA
ATOM     49  H   UNL     1      -7.131  81.849  -9.372  1.00  0.00     0.293 HD
ENDBRANCH  34  48
BRANCH  37  50
ATOM     50  O   UNL     1      -2.220  82.412  -8.526  1.00  0.00    -0.508 OA
ATOM     51  H   UNL     1      -2.066  81.639  -9.171  1.00  0.00     0.293 HD
ENDBRANCH  37  50
ENDBRANCH  26  27
ENDBRANCH   5  26
BRANCH   4  52
ATOM     52  O   UNL     1      -9.062  90.186  -8.666  1.00  0.00    -0.384 OA
ATOM     53  H   UNL     1      -9.873  90.489  -8.201  1.00  0.00     0.211 HD
ENDBRANCH   4  52
TORSDOF 16
ENDMDL
