MODEL 1
REMARK VINA RESULT:    -4.125      0.000      0.000
REMARK INTER + INTRA:         -15.991
REMARK INTER:                 -10.394
REMARK INTRA:                  -5.597
REMARK UNBOUND:                -5.597
REMARK SMILES CCCCCCCCCCCCCCCCCCCCCCCCCCCC(=O)[O-]
REMARK SMILES IDX 15 1 16 2 17 3 18 4 19 5 20 6 21 7 22 8 23 9 24 10 25 11
REMARK SMILES IDX 26 12 27 13 28 14 29 15 30 16 14 17 13 18 12 19 11 20 10 21
REMARK SMILES IDX 9 22 8 23 7 24 6 25 5 26 4 27 3 28 2 29 1 30
REMARK H PARENT
REMARK Flexibility Score: inf
ROOT
ATOM      1  C   UNL     1      27.890   2.524   7.737  1.00  0.00     0.000 C 
ENDROOT
BRANCH   1   2
ATOM      2  C   UNL     1      27.335   3.903   8.127  1.00  0.00     0.000 C 
BRANCH   2   3
ATOM      3  C   UNL     1      26.506   3.877   9.428  1.00  0.00     0.000 C 
BRANCH   3   4
ATOM      4  C   UNL     1      26.541   5.177  10.254  1.00  0.00     0.000 C 
BRANCH   4   5
ATOM      5  C   UNL     1      27.036   6.389   9.446  1.00  0.00     0.000 C 
BRANCH   5   6
ATOM      6  C   UNL     1      26.027   7.556   9.455  1.00  0.00     0.000 C 
BRANCH   6   7
ATOM      7  C   UNL     1      25.749   8.156   8.066  1.00  0.00     0.000 C 
BRANCH   7   8
ATOM      8  C   UNL     1      26.761   7.711   7.000  1.00  0.00     0.000 C 
BRANCH   8   9
ATOM      9  C   UNL     1      26.174   6.706   5.992  1.00  0.00     0.000 C 
BRANCH   9  10
ATOM     10  C   UNL     1      24.644   6.516   6.099  1.00  0.00     0.000 C 
BRANCH  10  11
ATOM     11  C   UNL     1      24.198   5.137   6.618  1.00  0.00     0.000 C 
BRANCH  11  12
ATOM     12  C   UNL     1      23.507   5.203   7.994  1.00  0.00     0.006 C 
BRANCH  12  13
ATOM     13  C   UNL     1      22.044   5.654   7.881  1.00  0.00     0.053 C 
BRANCH  13  14
ATOM     14  C   UNL     1      21.693   6.676   8.921  1.00  0.00     0.041 C 
ATOM     15  O   UNL     1      22.370   7.734   9.022  1.00  0.00    -0.550 OA
ATOM     16  O   UNL     1      20.648   6.439   9.808  1.00  0.00    -0.550 OA
ENDBRANCH  13  14
ENDBRANCH  12  13
ENDBRANCH  11  12
ENDBRANCH  10  11
ENDBRANCH   9  10
ENDBRANCH   8   9
ENDBRANCH   7   8
ENDBRANCH   6   7
ENDBRANCH   5   6
ENDBRANCH   4   5
ENDBRANCH   3   4
ENDBRANCH   2   3
ENDBRANCH   1   2
BRANCH   1  17
ATOM     17  C   UNL     1      28.018   1.605   8.961  1.00  0.00     0.000 C 
BRANCH  17  18
ATOM     18  C   UNL     1      28.512   0.193   8.592  1.00  0.00     0.000 C 
BRANCH  18  19
ATOM     19  C   UNL     1      27.569  -0.953   9.012  1.00  0.00     0.000 C 
BRANCH  19  20
ATOM     20  C   UNL     1      27.199  -1.939   7.886  1.00  0.00     0.000 C 
BRANCH  20  21
ATOM     21  C   UNL     1      27.599  -1.494   6.467  1.00  0.00     0.000 C 
BRANCH  21  22
ATOM     22  C   UNL     1      26.387  -1.131   5.593  1.00  0.00    -0.000 C 
BRANCH  22  23
ATOM     23  C   UNL     1      26.429   0.319   5.085  1.00  0.00    -0.000 C 
BRANCH  23  24
ATOM     24  C   UNL     1      25.357   1.227   5.723  1.00  0.00    -0.000 C 
BRANCH  24  25
ATOM     25  C   UNL     1      24.497   0.470   6.745  1.00  0.00    -0.000 C 
BRANCH  25  26
ATOM     26  C   UNL     1      24.353   1.271   8.048  1.00  0.00    -0.000 C 
BRANCH  26  27
ATOM     27  C   UNL     1      22.904   1.734   8.283  1.00  0.00    -0.000 C 
BRANCH  27  28
ATOM     28  C   UNL     1      21.937   1.283   7.165  1.00  0.00    -0.000 C 
BRANCH  28  29
ATOM     29  C   UNL     1      21.530   2.423   6.217  1.00  0.00    -0.003 C 
ATOM     30  C   UNL     1      21.530   1.997   4.751  1.00  0.00     0.004 C 
ENDBRANCH  28  29
ENDBRANCH  27  28
ENDBRANCH  26  27
ENDBRANCH  25  26
ENDBRANCH  24  25
ENDBRANCH  23  24
ENDBRANCH  22  23
ENDBRANCH  21  22
ENDBRANCH  20  21
ENDBRANCH  19  20
ENDBRANCH  18  19
ENDBRANCH  17  18
ENDBRANCH   1  17
TORSDOF 26
ENDMDL
MODEL 2
REMARK VINA RESULT:    -4.083      1.421      3.698
REMARK INTER + INTRA:         -15.886
REMARK INTER:                 -10.965
REMARK INTRA:                  -4.922
REMARK UNBOUND:                -5.597
REMARK SMILES CCCCCCCCCCCCCCCCCCCCCCCCCCCC(=O)[O-]
REMARK SMILES IDX 15 1 16 2 17 3 18 4 19 5 20 6 21 7 22 8 23 9 24 10 25 11
REMARK SMILES IDX 26 12 27 13 28 14 29 15 30 16 14 17 13 18 12 19 11 20 10 21
REMARK SMILES IDX 9 22 8 23 7 24 6 25 5 26 4 27 3 28 2 29 1 30
REMARK H PARENT
REMARK Flexibility Score: inf
ROOT
ATOM      1  C   UNL     1      26.510   5.424  10.390  1.00  0.00     0.000 C 
ENDROOT
BRANCH   1   2
ATOM      2  C   UNL     1      27.161   6.509   9.518  1.00  0.00     0.000 C 
BRANCH   2   3
ATOM      3  C   UNL     1      26.134   7.348   8.728  1.00  0.00     0.000 C 
BRANCH   3   4
ATOM      4  C   UNL     1      26.592   7.797   7.327  1.00  0.00     0.000 C 
BRANCH   4   5
ATOM      5  C   UNL     1      26.279   6.763   6.233  1.00  0.00     0.000 C 
BRANCH   5   6
ATOM      6  C   UNL     1      24.947   6.025   6.484  1.00  0.00     0.000 C 
BRANCH   6   7
ATOM      7  C   UNL     1      25.092   4.500   6.626  1.00  0.00     0.000 C 
BRANCH   7   8
ATOM      8  C   UNL     1      23.806   3.811   7.108  1.00  0.00     0.000 C 
BRANCH   8   9
ATOM      9  C   UNL     1      23.991   3.048   8.433  1.00  0.00     0.000 C 
BRANCH   9  10
ATOM     10  C   UNL     1      23.360   3.742   9.660  1.00  0.00     0.000 C 
BRANCH  10  11
ATOM     11  C   UNL     1      22.835   5.166   9.401  1.00  0.00     0.000 C 
BRANCH  11  12
ATOM     12  C   UNL     1      22.803   6.040  10.669  1.00  0.00     0.006 C 
BRANCH  12  13
ATOM     13  C   UNL     1      22.862   7.538  10.337  1.00  0.00     0.053 C 
BRANCH  13  14
ATOM     14  C   UNL     1      21.525   8.068   9.912  1.00  0.00     0.041 C 
ATOM     15  O   UNL     1      21.454   9.011   9.079  1.00  0.00    -0.550 OA
ATOM     16  O   UNL     1      20.360   7.551  10.468  1.00  0.00    -0.550 OA
ENDBRANCH  13  14
ENDBRANCH  12  13
ENDBRANCH  11  12
ENDBRANCH  10  11
ENDBRANCH   9  10
ENDBRANCH   8   9
ENDBRANCH   7   8
ENDBRANCH   6   7
ENDBRANCH   5   6
ENDBRANCH   4   5
ENDBRANCH   3   4
ENDBRANCH   2   3
ENDBRANCH   1   2
BRANCH   1  17
ATOM     17  C   UNL     1      27.159   4.052  10.154  1.00  0.00     0.000 C 
BRANCH  17  18
ATOM     18  C   UNL     1      28.110   4.047   8.942  1.00  0.00     0.000 C 
BRANCH  18  19
ATOM     19  C   UNL     1      27.920   2.862   7.975  1.00  0.00     0.000 C 
BRANCH  19  20
ATOM     20  C   UNL     1      27.412   1.561   8.628  1.00  0.00     0.000 C 
BRANCH  20  21
ATOM     21  C   UNL     1      28.506   0.546   9.004  1.00  0.00     0.000 C 
BRANCH  21  22
ATOM     22  C   UNL     1      27.935  -0.825   9.403  1.00  0.00    -0.000 C 
BRANCH  22  23
ATOM     23  C   UNL     1      26.989  -1.410   8.341  1.00  0.00    -0.000 C 
BRANCH  23  24
ATOM     24  C   UNL     1      27.718  -1.934   7.086  1.00  0.00    -0.000 C 
BRANCH  24  25
ATOM     25  C   UNL     1      27.040  -1.468   5.791  1.00  0.00    -0.000 C 
BRANCH  25  26
ATOM     26  C   UNL     1      25.828  -0.572   6.093  1.00  0.00    -0.000 C 
BRANCH  26  27
ATOM     27  C   UNL     1      25.993   0.839   5.499  1.00  0.00    -0.000 C 
BRANCH  27  28
ATOM     28  C   UNL     1      24.768   1.294   4.673  1.00  0.00    -0.000 C 
BRANCH  28  29
ATOM     29  C   UNL     1      24.573   0.486   3.380  1.00  0.00    -0.003 C 
ATOM     30  C   UNL     1      25.811   0.495   2.487  1.00  0.00     0.004 C 
ENDBRANCH  28  29
ENDBRANCH  27  28
ENDBRANCH  26  27
ENDBRANCH  25  26
ENDBRANCH  24  25
ENDBRANCH  23  24
ENDBRANCH  22  23
ENDBRANCH  21  22
ENDBRANCH  20  21
ENDBRANCH  19  20
ENDBRANCH  18  19
ENDBRANCH  17  18
ENDBRANCH   1  17
TORSDOF 26
ENDMDL
MODEL 3
REMARK VINA RESULT:    -4.078      3.626      7.302
REMARK INTER + INTRA:         -15.875
REMARK INTER:                 -10.580
REMARK INTRA:                  -5.294
REMARK UNBOUND:                -5.597
REMARK SMILES CCCCCCCCCCCCCCCCCCCCCCCCCCCC(=O)[O-]
REMARK SMILES IDX 15 1 16 2 17 3 18 4 19 5 20 6 21 7 22 8 23 9 24 10 25 11
REMARK SMILES IDX 26 12 27 13 28 14 29 15 30 16 14 17 13 18 12 19 11 20 10 21
REMARK SMILES IDX 9 22 8 23 7 24 6 25 5 26 4 27 3 28 2 29 1 30
REMARK H PARENT
REMARK Flexibility Score: inf
ROOT
ATOM      1  C   UNL     1      28.120   3.813   8.756  1.00  0.00     0.000 C 
ENDROOT
BRANCH   1   2
ATOM      2  C   UNL     1      27.519   2.677   7.914  1.00  0.00     0.000 C 
BRANCH   2   3
ATOM      3  C   UNL     1      27.836   1.275   8.474  1.00  0.00     0.000 C 
BRANCH   3   4
ATOM      4  C   UNL     1      27.366   0.097   7.598  1.00  0.00     0.000 C 
BRANCH   4   5
ATOM      5  C   UNL     1      26.010  -0.476   8.043  1.00  0.00     0.000 C 
BRANCH   5   6
ATOM      6  C   UNL     1      24.911   0.604   8.121  1.00  0.00     0.000 C 
BRANCH   6   7
ATOM      7  C   UNL     1      24.028   0.693   6.864  1.00  0.00     0.000 C 
BRANCH   7   8
ATOM      8  C   UNL     1      24.436   1.831   5.917  1.00  0.00     0.000 C 
BRANCH   8   9
ATOM      9  C   UNL     1      24.740   1.347   4.487  1.00  0.00     0.000 C 
BRANCH   9  10
ATOM     10  C   UNL     1      26.143   0.727   4.309  1.00  0.00     0.000 C 
BRANCH  10  11
ATOM     11  C   UNL     1      26.264  -0.283   3.152  1.00  0.00     0.000 C 
BRANCH  11  12
ATOM     12  C   UNL     1      25.377  -1.528   3.342  1.00  0.00     0.006 C 
BRANCH  12  13
ATOM     13  C   UNL     1      25.660  -2.237   4.675  1.00  0.00     0.053 C 
BRANCH  13  14
ATOM     14  C   UNL     1      27.008  -2.893   4.682  1.00  0.00     0.041 C 
ATOM     15  O   UNL     1      27.411  -3.524   3.669  1.00  0.00    -0.550 OA
ATOM     16  O   UNL     1      27.801  -2.846   5.824  1.00  0.00    -0.550 OA
ENDBRANCH  13  14
ENDBRANCH  12  13
ENDBRANCH  11  12
ENDBRANCH  10  11
ENDBRANCH   9  10
ENDBRANCH   8   9
ENDBRANCH   7   8
ENDBRANCH   6   7
ENDBRANCH   5   6
ENDBRANCH   4   5
ENDBRANCH   3   4
ENDBRANCH   2   3
ENDBRANCH   1   2
BRANCH   1  17
ATOM     17  C   UNL     1      27.490   3.866  10.156  1.00  0.00     0.000 C 
BRANCH  17  18
ATOM     18  C   UNL     1      27.347   5.306  10.687  1.00  0.00     0.000 C 
BRANCH  18  19
ATOM     19  C   UNL     1      27.367   6.401   9.603  1.00  0.00     0.000 C 
BRANCH  19  20
ATOM     20  C   UNL     1      26.149   7.347   9.608  1.00  0.00     0.000 C 
BRANCH  20  21
ATOM     21  C   UNL     1      25.884   8.080   8.281  1.00  0.00     0.000 C 
BRANCH  21  22
ATOM     22  C   UNL     1      26.798   7.599   7.141  1.00  0.00    -0.000 C 
BRANCH  22  23
ATOM     23  C   UNL     1      26.045   6.790   6.073  1.00  0.00    -0.000 C 
BRANCH  23  24
ATOM     24  C   UNL     1      25.460   5.464   6.603  1.00  0.00    -0.000 C 
BRANCH  24  25
ATOM     25  C   UNL     1      23.926   5.469   6.594  1.00  0.00    -0.000 C 
BRANCH  25  26
ATOM     26  C   UNL     1      23.365   5.258   8.009  1.00  0.00    -0.000 C 
BRANCH  26  27
ATOM     27  C   UNL     1      24.163   4.201   8.794  1.00  0.00    -0.000 C 
BRANCH  27  28
ATOM     28  C   UNL     1      23.872   4.228  10.312  1.00  0.00    -0.000 C 
BRANCH  28  29
ATOM     29  C   UNL     1      23.257   5.553  10.790  1.00  0.00    -0.003 C 
ATOM     30  C   UNL     1      23.806   6.002  12.142  1.00  0.00     0.004 C 
ENDBRANCH  28  29
ENDBRANCH  27  28
ENDBRANCH  26  27
ENDBRANCH  25  26
ENDBRANCH  24  25
ENDBRANCH  23  24
ENDBRANCH  22  23
ENDBRANCH  21  22
ENDBRANCH  20  21
ENDBRANCH  19  20
ENDBRANCH  18  19
ENDBRANCH  17  18
ENDBRANCH   1  17
TORSDOF 26
ENDMDL
MODEL 4
REMARK VINA RESULT:    -4.067      3.281      7.664
REMARK INTER + INTRA:         -15.846
REMARK INTER:                 -10.888
REMARK INTRA:                  -4.958
REMARK UNBOUND:                -5.597
REMARK SMILES CCCCCCCCCCCCCCCCCCCCCCCCCCCC(=O)[O-]
REMARK SMILES IDX 15 1 16 2 17 3 18 4 19 5 20 6 21 7 22 8 23 9 24 10 25 11
REMARK SMILES IDX 26 12 27 13 28 14 29 15 30 16 14 17 13 18 12 19 11 20 10 21
REMARK SMILES IDX 9 22 8 23 7 24 6 25 5 26 4 27 3 28 2 29 1 30
REMARK H PARENT
REMARK Flexibility Score: inf
ROOT
ATOM      1  C   UNL     1      25.276   7.949   7.606  1.00  0.00     0.000 C 
ENDROOT
BRANCH   1   2
ATOM      2  C   UNL     1      26.519   7.255   7.026  1.00  0.00     0.000 C 
BRANCH   2   3
ATOM      3  C   UNL     1      26.256   5.794   6.606  1.00  0.00     0.000 C 
BRANCH   3   4
ATOM      4  C   UNL     1      24.863   5.246   6.970  1.00  0.00     0.000 C 
BRANCH   4   5
ATOM      5  C   UNL     1      24.698   3.754   6.634  1.00  0.00     0.000 C 
BRANCH   5   6
ATOM      6  C   UNL     1      23.238   3.276   6.776  1.00  0.00     0.000 C 
BRANCH   6   7
ATOM      7  C   UNL     1      22.997   2.344   7.976  1.00  0.00     0.000 C 
BRANCH   7   8
ATOM      8  C   UNL     1      24.137   1.339   8.202  1.00  0.00     0.000 C 
BRANCH   8   9
ATOM      9  C   UNL     1      24.083   0.139   7.239  1.00  0.00     0.000 C 
BRANCH   9  10
ATOM     10  C   UNL     1      25.295  -0.814   7.342  1.00  0.00     0.000 C 
BRANCH  10  11
ATOM     11  C   UNL     1      25.860  -1.292   5.991  1.00  0.00     0.000 C 
BRANCH  11  12
ATOM     12  C   UNL     1      26.482  -0.153   5.159  1.00  0.00     0.006 C 
BRANCH  12  13
ATOM     13  C   UNL     1      25.518   0.362   4.080  1.00  0.00     0.053 C 
BRANCH  13  14
ATOM     14  C   UNL     1      25.949  -0.053   2.705  1.00  0.00     0.041 C 
ATOM     15  O   UNL     1      25.638   0.649   1.706  1.00  0.00    -0.550 OA
ATOM     16  O   UNL     1      26.654  -1.237   2.522  1.00  0.00    -0.550 OA
ENDBRANCH  13  14
ENDBRANCH  12  13
ENDBRANCH  11  12
ENDBRANCH  10  11
ENDBRANCH   9  10
ENDBRANCH   8   9
ENDBRANCH   7   8
ENDBRANCH   6   7
ENDBRANCH   5   6
ENDBRANCH   4   5
ENDBRANCH   3   4
ENDBRANCH   2   3
ENDBRANCH   1   2
BRANCH   1  17
ATOM     17  C   UNL     1      25.564   8.546   8.991  1.00  0.00     0.000 C 
BRANCH  17  18
ATOM     18  C   UNL     1      24.305   9.140   9.653  1.00  0.00     0.000 C 
BRANCH  18  19
ATOM     19  C   UNL     1      22.981   8.461   9.252  1.00  0.00     0.000 C 
BRANCH  19  20
ATOM     20  C   UNL     1      22.660   7.157  10.011  1.00  0.00     0.000 C 
BRANCH  20  21
ATOM     21  C   UNL     1      23.089   7.138  11.490  1.00  0.00     0.000 C 
BRANCH  21  22
ATOM     22  C   UNL     1      24.009   5.953  11.828  1.00  0.00    -0.000 C 
BRANCH  22  23
ATOM     23  C   UNL     1      24.084   4.914  10.697  1.00  0.00    -0.000 C 
BRANCH  23  24
ATOM     24  C   UNL     1      25.510   4.379  10.446  1.00  0.00    -0.000 C 
BRANCH  24  25
ATOM     25  C   UNL     1      26.563   5.493  10.514  1.00  0.00    -0.000 C 
BRANCH  25  26
ATOM     26  C   UNL     1      27.901   5.027   9.918  1.00  0.00    -0.000 C 
BRANCH  26  27
ATOM     27  C   UNL     1      27.923   3.508   9.670  1.00  0.00    -0.000 C 
BRANCH  27  28
ATOM     28  C   UNL     1      27.997   3.141   8.171  1.00  0.00    -0.000 C 
BRANCH  28  29
ATOM     29  C   UNL     1      27.786   1.643   7.901  1.00  0.00    -0.003 C 
ATOM     30  C   UNL     1      28.311   0.761   9.031  1.00  0.00     0.004 C 
ENDBRANCH  28  29
ENDBRANCH  27  28
ENDBRANCH  26  27
ENDBRANCH  25  26
ENDBRANCH  24  25
ENDBRANCH  23  24
ENDBRANCH  22  23
ENDBRANCH  21  22
ENDBRANCH  20  21
ENDBRANCH  19  20
ENDBRANCH  18  19
ENDBRANCH  17  18
ENDBRANCH   1  17
TORSDOF 26
ENDMDL
MODEL 5
REMARK VINA RESULT:    -4.055      1.384      3.685
REMARK INTER + INTRA:         -15.816
REMARK INTER:                 -10.850
REMARK INTRA:                  -4.966
REMARK UNBOUND:                -5.597
REMARK SMILES CCCCCCCCCCCCCCCCCCCCCCCCCCCC(=O)[O-]
REMARK SMILES IDX 15 1 16 2 17 3 18 4 19 5 20 6 21 7 22 8 23 9 24 10 25 11
REMARK SMILES IDX 26 12 27 13 28 14 29 15 30 16 14 17 13 18 12 19 11 20 10 21
REMARK SMILES IDX 9 22 8 23 7 24 6 25 5 26 4 27 3 28 2 29 1 30
REMARK H PARENT
REMARK Flexibility Score: inf
ROOT
ATOM      1  C   UNL     1      26.039   4.860  10.390  1.00  0.00     0.000 C 
ENDROOT
BRANCH   1   2
ATOM      2  C   UNL     1      25.320   6.193  10.129  1.00  0.00     0.000 C 
BRANCH   2   3
ATOM      3  C   UNL     1      26.250   7.280   9.552  1.00  0.00     0.000 C 
BRANCH   3   4
ATOM      4  C   UNL     1      25.718   8.002   8.299  1.00  0.00     0.000 C 
BRANCH   4   5
ATOM      5  C   UNL     1      26.638   7.838   7.077  1.00  0.00     0.000 C 
BRANCH   5   6
ATOM      6  C   UNL     1      26.290   6.587   6.242  1.00  0.00     0.000 C 
BRANCH   6   7
ATOM      7  C   UNL     1      24.786   6.273   6.178  1.00  0.00     0.000 C 
BRANCH   7   8
ATOM      8  C   UNL     1      24.439   4.863   6.678  1.00  0.00     0.000 C 
BRANCH   8   9
ATOM      9  C   UNL     1      23.189   4.830   7.577  1.00  0.00     0.000 C 
BRANCH   9  10
ATOM     10  C   UNL     1      22.161   5.944   7.278  1.00  0.00     0.000 C 
BRANCH  10  11
ATOM     11  C   UNL     1      22.130   7.090   8.307  1.00  0.00     0.000 C 
BRANCH  11  12
ATOM     12  C   UNL     1      21.726   6.623   9.719  1.00  0.00     0.006 C 
BRANCH  12  13
ATOM     13  C   UNL     1      22.131   7.639  10.797  1.00  0.00     0.053 C 
BRANCH  13  14
ATOM     14  C   UNL     1      22.029   7.059  12.176  1.00  0.00     0.041 C 
ATOM     15  O   UNL     1      20.905   6.942  12.732  1.00  0.00    -0.550 OA
ATOM     16  O   UNL     1      23.180   6.689  12.864  1.00  0.00    -0.550 OA
ENDBRANCH  13  14
ENDBRANCH  12  13
ENDBRANCH  11  12
ENDBRANCH  10  11
ENDBRANCH   9  10
ENDBRANCH   8   9
ENDBRANCH   7   8
ENDBRANCH   6   7
ENDBRANCH   5   6
ENDBRANCH   4   5
ENDBRANCH   3   4
ENDBRANCH   2   3
ENDBRANCH   1   2
BRANCH   1  17
ATOM     17  C   UNL     1      27.555   5.060  10.533  1.00  0.00     0.000 C 
BRANCH  17  18
ATOM     18  C   UNL     1      28.357   4.280   9.472  1.00  0.00     0.000 C 
BRANCH  18  19
ATOM     19  C   UNL     1      27.528   3.777   8.274  1.00  0.00     0.000 C 
BRANCH  19  20
ATOM     20  C   UNL     1      27.873   2.353   7.793  1.00  0.00     0.000 C 
BRANCH  20  21
ATOM     21  C   UNL     1      28.139   1.330   8.913  1.00  0.00     0.000 C 
BRANCH  21  22
ATOM     22  C   UNL     1      28.341  -0.098   8.380  1.00  0.00    -0.000 C 
BRANCH  22  23
ATOM     23  C   UNL     1      27.160  -1.028   8.701  1.00  0.00    -0.000 C 
BRANCH  23  24
ATOM     24  C   UNL     1      26.548  -1.701   7.454  1.00  0.00    -0.000 C 
BRANCH  24  25
ATOM     25  C   UNL     1      27.271  -1.287   6.165  1.00  0.00    -0.000 C 
BRANCH  25  26
ATOM     26  C   UNL     1      26.276  -0.771   5.114  1.00  0.00    -0.000 C 
BRANCH  26  27
ATOM     27  C   UNL     1      26.399   0.748   4.901  1.00  0.00    -0.000 C 
BRANCH  27  28
ATOM     28  C   UNL     1      25.117   1.519   5.288  1.00  0.00    -0.000 C 
BRANCH  28  29
ATOM     29  C   UNL     1      24.654   1.245   6.728  1.00  0.00    -0.003 C 
ATOM     30  C   UNL     1      23.251   0.646   6.791  1.00  0.00     0.004 C 
ENDBRANCH  28  29
ENDBRANCH  27  28
ENDBRANCH  26  27
ENDBRANCH  25  26
ENDBRANCH  24  25
ENDBRANCH  23  24
ENDBRANCH  22  23
ENDBRANCH  21  22
ENDBRANCH  20  21
ENDBRANCH  19  20
ENDBRANCH  18  19
ENDBRANCH  17  18
ENDBRANCH   1  17
TORSDOF 26
ENDMDL
MODEL 6
REMARK VINA RESULT:    -4.030      2.673      6.376
REMARK INTER + INTRA:         -15.752
REMARK INTER:                 -10.657
REMARK INTRA:                  -5.095
REMARK UNBOUND:                -5.597
REMARK SMILES CCCCCCCCCCCCCCCCCCCCCCCCCCCC(=O)[O-]
REMARK SMILES IDX 15 1 16 2 17 3 18 4 19 5 20 6 21 7 22 8 23 9 24 10 25 11
REMARK SMILES IDX 26 12 27 13 28 14 29 15 30 16 14 17 13 18 12 19 11 20 10 21
REMARK SMILES IDX 9 22 8 23 7 24 6 25 5 26 4 27 3 28 2 29 1 30
REMARK H PARENT
REMARK Flexibility Score: inf
ROOT
ATOM      1  C   UNL     1      26.826   6.704   9.535  1.00  0.00     0.000 C 
ENDROOT
BRANCH   1   2
ATOM      2  C   UNL     1      26.341   5.636  10.528  1.00  0.00     0.000 C 
BRANCH   2   3
ATOM      3  C   UNL     1      27.027   4.268  10.331  1.00  0.00     0.000 C 
BRANCH   3   4
ATOM      4  C   UNL     1      28.039   4.203   9.170  1.00  0.00     0.000 C 
BRANCH   4   5
ATOM      5  C   UNL     1      27.910   2.917   8.335  1.00  0.00     0.000 C 
BRANCH   5   6
ATOM      6  C   UNL     1      27.972   1.643   9.203  1.00  0.00     0.000 C 
BRANCH   6   7
ATOM      7  C   UNL     1      28.195   0.348   8.403  1.00  0.00     0.000 C 
BRANCH   7   8
ATOM      8  C   UNL     1      27.109  -0.710   8.647  1.00  0.00     0.000 C 
BRANCH   8   9
ATOM      9  C   UNL     1      25.785  -0.395   7.927  1.00  0.00     0.000 C 
BRANCH   9  10
ATOM     10  C   UNL     1      25.542  -1.228   6.649  1.00  0.00     0.000 C 
BRANCH  10  11
ATOM     11  C   UNL     1      26.424  -0.842   5.447  1.00  0.00     0.000 C 
BRANCH  11  12
ATOM     12  C   UNL     1      26.423   0.671   5.157  1.00  0.00     0.006 C 
BRANCH  12  13
ATOM     13  C   UNL     1      25.861   0.988   3.763  1.00  0.00     0.053 C 
BRANCH  13  14
ATOM     14  C   UNL     1      24.410   0.627   3.652  1.00  0.00     0.041 C 
ATOM     15  O   UNL     1      24.051  -0.334   2.920  1.00  0.00    -0.550 OA
ATOM     16  O   UNL     1      23.451   1.379   4.321  1.00  0.00    -0.550 OA
ENDBRANCH  13  14
ENDBRANCH  12  13
ENDBRANCH  11  12
ENDBRANCH  10  11
ENDBRANCH   9  10
ENDBRANCH   8   9
ENDBRANCH   7   8
ENDBRANCH   6   7
ENDBRANCH   5   6
ENDBRANCH   4   5
ENDBRANCH   3   4
ENDBRANCH   2   3
ENDBRANCH   1   2
BRANCH   1  17
ATOM     17  C   UNL     1      25.729   7.739   9.246  1.00  0.00     0.000 C 
BRANCH  17  18
ATOM     18  C   UNL     1      25.413   7.862   7.743  1.00  0.00     0.000 C 
BRANCH  18  19
ATOM     19  C   UNL     1      26.525   7.356   6.803  1.00  0.00     0.000 C 
BRANCH  19  20
ATOM     20  C   UNL     1      26.252   5.987   6.146  1.00  0.00     0.000 C 
BRANCH  20  21
ATOM     21  C   UNL     1      24.954   5.292   6.597  1.00  0.00     0.000 C 
BRANCH  21  22
ATOM     22  C   UNL     1      25.083   3.761   6.639  1.00  0.00    -0.000 C 
BRANCH  22  23
ATOM     23  C   UNL     1      23.878   3.079   7.309  1.00  0.00    -0.000 C 
BRANCH  23  24
ATOM     24  C   UNL     1      23.987   3.005   8.846  1.00  0.00    -0.000 C 
BRANCH  24  25
ATOM     25  C   UNL     1      22.828   3.732   9.540  1.00  0.00    -0.000 C 
BRANCH  25  26
ATOM     26  C   UNL     1      23.056   5.252   9.551  1.00  0.00    -0.000 C 
BRANCH  26  27
ATOM     27  C   UNL     1      21.730   6.033   9.540  1.00  0.00    -0.000 C 
BRANCH  27  28
ATOM     28  C   UNL     1      21.549   6.899   8.273  1.00  0.00    -0.000 C 
BRANCH  28  29
ATOM     29  C   UNL     1      21.262   6.074   7.008  1.00  0.00    -0.003 C 
ATOM     30  C   UNL     1      21.787   6.740   5.739  1.00  0.00     0.004 C 
ENDBRANCH  28  29
ENDBRANCH  27  28
ENDBRANCH  26  27
ENDBRANCH  25  26
ENDBRANCH  24  25
ENDBRANCH  23  24
ENDBRANCH  22  23
ENDBRANCH  21  22
ENDBRANCH  20  21
ENDBRANCH  19  20
ENDBRANCH  18  19
ENDBRANCH  17  18
ENDBRANCH   1  17
TORSDOF 26
ENDMDL
MODEL 7
REMARK VINA RESULT:    -4.029      1.420      3.197
REMARK INTER + INTRA:         -15.751
REMARK INTER:                 -10.622
REMARK INTRA:                  -5.129
REMARK UNBOUND:                -5.597
REMARK SMILES CCCCCCCCCCCCCCCCCCCCCCCCCCCC(=O)[O-]
REMARK SMILES IDX 15 1 16 2 17 3 18 4 19 5 20 6 21 7 22 8 23 9 24 10 25 11
REMARK SMILES IDX 26 12 27 13 28 14 29 15 30 16 14 17 13 18 12 19 11 20 10 21
REMARK SMILES IDX 9 22 8 23 7 24 6 25 5 26 4 27 3 28 2 29 1 30
REMARK H PARENT
REMARK Flexibility Score: inf
ROOT
ATOM      1  C   UNL     1      25.453   3.674   7.377  1.00  0.00     0.000 C 
ENDROOT
BRANCH   1   2
ATOM      2  C   UNL     1      24.641   4.584   6.443  1.00  0.00     0.000 C 
BRANCH   2   3
ATOM      3  C   UNL     1      24.738   6.077   6.818  1.00  0.00     0.000 C 
BRANCH   3   4
ATOM      4  C   UNL     1      26.004   6.799   6.317  1.00  0.00     0.000 C 
BRANCH   4   5
ATOM      5  C   UNL     1      26.598   7.762   7.360  1.00  0.00     0.000 C 
BRANCH   5   6
ATOM      6  C   UNL     1      26.258   7.345   8.806  1.00  0.00     0.000 C 
BRANCH   6   7
ATOM      7  C   UNL     1      27.290   6.401   9.446  1.00  0.00     0.000 C 
BRANCH   7   8
ATOM      8  C   UNL     1      26.652   5.293  10.298  1.00  0.00     0.000 C 
BRANCH   8   9
ATOM      9  C   UNL     1      25.214   5.624  10.739  1.00  0.00     0.000 C 
BRANCH   9  10
ATOM     10  C   UNL     1      24.257   4.412  10.750  1.00  0.00     0.000 C 
BRANCH  10  11
ATOM     11  C   UNL     1      22.975   4.591   9.916  1.00  0.00     0.000 C 
BRANCH  11  12
ATOM     12  C   UNL     1      22.589   6.068   9.709  1.00  0.00     0.006 C 
BRANCH  12  13
ATOM     13  C   UNL     1      21.169   6.218   9.145  1.00  0.00     0.053 C 
BRANCH  13  14
ATOM     14  C   UNL     1      21.155   6.157   7.647  1.00  0.00     0.041 C 
ATOM     15  O   UNL     1      21.317   7.206   6.969  1.00  0.00    -0.550 OA
ATOM     16  O   UNL     1      20.918   4.948   7.000  1.00  0.00    -0.550 OA
ENDBRANCH  13  14
ENDBRANCH  12  13
ENDBRANCH  11  12
ENDBRANCH  10  11
ENDBRANCH   9  10
ENDBRANCH   8   9
ENDBRANCH   7   8
ENDBRANCH   6   7
ENDBRANCH   5   6
ENDBRANCH   4   5
ENDBRANCH   3   4
ENDBRANCH   2   3
ENDBRANCH   1   2
BRANCH   1  17
ATOM     17  C   UNL     1      26.762   3.217   6.716  1.00  0.00     0.000 C 
BRANCH  17  18
ATOM     18  C   UNL     1      27.854   2.864   7.745  1.00  0.00     0.000 C 
BRANCH  18  19
ATOM     19  C   UNL     1      27.511   1.683   8.674  1.00  0.00     0.000 C 
BRANCH  19  20
ATOM     20  C   UNL     1      28.548   0.542   8.688  1.00  0.00     0.000 C 
BRANCH  20  21
ATOM     21  C   UNL     1      28.146  -0.698   9.508  1.00  0.00     0.000 C 
BRANCH  21  22
ATOM     22  C   UNL     1      26.891  -1.395   8.957  1.00  0.00    -0.000 C 
BRANCH  22  23
ATOM     23  C   UNL     1      26.990  -1.704   7.454  1.00  0.00    -0.000 C 
BRANCH  23  24
ATOM     24  C   UNL     1      25.789  -1.184   6.637  1.00  0.00    -0.000 C 
BRANCH  24  25
ATOM     25  C   UNL     1      24.632  -0.732   7.540  1.00  0.00    -0.000 C 
BRANCH  25  26
ATOM     26  C   UNL     1      24.088   0.635   7.097  1.00  0.00    -0.000 C 
BRANCH  26  27
ATOM     27  C   UNL     1      23.255   0.533   5.807  1.00  0.00    -0.000 C 
BRANCH  27  28
ATOM     28  C   UNL     1      23.805   1.411   4.661  1.00  0.00    -0.000 C 
BRANCH  28  29
ATOM     29  C   UNL     1      24.655   0.626   3.648  1.00  0.00    -0.003 C 
ATOM     30  C   UNL     1      26.138   0.983   3.722  1.00  0.00     0.004 C 
ENDBRANCH  28  29
ENDBRANCH  27  28
ENDBRANCH  26  27
ENDBRANCH  25  26
ENDBRANCH  24  25
ENDBRANCH  23  24
ENDBRANCH  22  23
ENDBRANCH  21  22
ENDBRANCH  20  21
ENDBRANCH  19  20
ENDBRANCH  18  19
ENDBRANCH  17  18
ENDBRANCH   1  17
TORSDOF 26
ENDMDL
MODEL 8
REMARK VINA RESULT:    -3.997      1.701      4.448
REMARK INTER + INTRA:         -15.671
REMARK INTER:                 -10.424
REMARK INTRA:                  -5.246
REMARK UNBOUND:                -5.597
REMARK SMILES CCCCCCCCCCCCCCCCCCCCCCCCCCCC(=O)[O-]
REMARK SMILES IDX 15 1 16 2 17 3 18 4 19 5 20 6 21 7 22 8 23 9 24 10 25 11
REMARK SMILES IDX 26 12 27 13 28 14 29 15 30 16 14 17 13 18 12 19 11 20 10 21
REMARK SMILES IDX 9 22 8 23 7 24 6 25 5 26 4 27 3 28 2 29 1 30
REMARK H PARENT
REMARK Flexibility Score: inf
ROOT
ATOM      1  C   UNL     1      26.194   7.634   8.975  1.00  0.00     0.000 C 
ENDROOT
BRANCH   1   2
ATOM      2  C   UNL     1      27.066   6.404   9.267  1.00  0.00     0.000 C 
BRANCH   2   3
ATOM      3  C   UNL     1      26.568   5.580  10.473  1.00  0.00     0.000 C 
BRANCH   3   4
ATOM      4  C   UNL     1      25.119   5.067  10.364  1.00  0.00     0.000 C 
BRANCH   4   5
ATOM      5  C   UNL     1      24.199   5.630  11.461  1.00  0.00     0.000 C 
BRANCH   5   6
ATOM      6  C   UNL     1      23.199   6.670  10.915  1.00  0.00     0.000 C 
BRANCH   6   7
ATOM      7  C   UNL     1      22.739   6.401   9.472  1.00  0.00     0.000 C 
BRANCH   7   8
ATOM      8  C   UNL     1      22.244   7.662   8.748  1.00  0.00     0.000 C 
BRANCH   8   9
ATOM      9  C   UNL     1      21.077   7.385   7.783  1.00  0.00     0.000 C 
BRANCH   9  10
ATOM     10  C   UNL     1      21.492   6.699   6.462  1.00  0.00     0.000 C 
BRANCH  10  11
ATOM     11  C   UNL     1      20.557   5.565   6.000  1.00  0.00     0.000 C 
BRANCH  11  12
ATOM     12  C   UNL     1      21.225   4.177   6.040  1.00  0.00     0.006 C 
BRANCH  12  13
ATOM     13  C   UNL     1      21.364   3.648   7.475  1.00  0.00     0.053 C 
BRANCH  13  14
ATOM     14  C   UNL     1      20.042   3.586   8.178  1.00  0.00     0.041 C 
ATOM     15  O   UNL     1      19.138   2.815   7.760  1.00  0.00    -0.550 OA
ATOM     16  O   UNL     1      19.791   4.415   9.267  1.00  0.00    -0.550 OA
ENDBRANCH  13  14
ENDBRANCH  12  13
ENDBRANCH  11  12
ENDBRANCH  10  11
ENDBRANCH   9  10
ENDBRANCH   8   9
ENDBRANCH   7   8
ENDBRANCH   6   7
ENDBRANCH   5   6
ENDBRANCH   4   5
ENDBRANCH   3   4
ENDBRANCH   2   3
ENDBRANCH   1   2
BRANCH   1  17
ATOM     17  C   UNL     1      25.776   7.686   7.498  1.00  0.00     0.000 C 
BRANCH  17  18
ATOM     18  C   UNL     1      26.040   6.358   6.761  1.00  0.00     0.000 C 
BRANCH  18  19
ATOM     19  C   UNL     1      24.802   5.454   6.594  1.00  0.00     0.000 C 
BRANCH  19  20
ATOM     20  C   UNL     1      25.055   3.951   6.828  1.00  0.00     0.000 C 
BRANCH  20  21
ATOM     21  C   UNL     1      26.526   3.510   6.718  1.00  0.00     0.000 C 
BRANCH  21  22
ATOM     22  C   UNL     1      27.055   2.868   8.011  1.00  0.00    -0.000 C 
BRANCH  22  23
ATOM     23  C   UNL     1      28.168   1.839   7.756  1.00  0.00    -0.000 C 
BRANCH  23  24
ATOM     24  C   UNL     1      28.185   0.683   8.777  1.00  0.00    -0.000 C 
BRANCH  24  25
ATOM     25  C   UNL     1      27.637  -0.620   8.180  1.00  0.00    -0.000 C 
BRANCH  25  26
ATOM     26  C   UNL     1      26.133  -0.766   8.458  1.00  0.00    -0.000 C 
BRANCH  26  27
ATOM     27  C   UNL     1      25.311  -0.843   7.159  1.00  0.00    -0.000 C 
BRANCH  27  28
ATOM     28  C   UNL     1      26.125  -0.450   5.905  1.00  0.00    -0.000 C 
BRANCH  28  29
ATOM     29  C   UNL     1      25.353   0.466   4.941  1.00  0.00    -0.003 C 
ATOM     30  C   UNL     1      26.245   1.066   3.858  1.00  0.00     0.004 C 
ENDBRANCH  28  29
ENDBRANCH  27  28
ENDBRANCH  26  27
ENDBRANCH  25  26
ENDBRANCH  24  25
ENDBRANCH  23  24
ENDBRANCH  22  23
ENDBRANCH  21  22
ENDBRANCH  20  21
ENDBRANCH  19  20
ENDBRANCH  18  19
ENDBRANCH  17  18
ENDBRANCH   1  17
TORSDOF 26
ENDMDL
MODEL 9
REMARK VINA RESULT:    -3.996      2.714      6.253
REMARK INTER + INTRA:         -15.666
REMARK INTER:                 -10.636
REMARK INTRA:                  -5.029
REMARK UNBOUND:                -5.597
REMARK SMILES CCCCCCCCCCCCCCCCCCCCCCCCCCCC(=O)[O-]
REMARK SMILES IDX 15 1 16 2 17 3 18 4 19 5 20 6 21 7 22 8 23 9 24 10 25 11
REMARK SMILES IDX 26 12 27 13 28 14 29 15 30 16 14 17 13 18 12 19 11 20 10 21
REMARK SMILES IDX 9 22 8 23 7 24 6 25 5 26 4 27 3 28 2 29 1 30
REMARK H PARENT
REMARK Flexibility Score: inf
ROOT
ATOM      1  C   UNL     1      23.190   7.491   9.153  1.00  0.00     0.000 C 
ENDROOT
BRANCH   1   2
ATOM      2  C   UNL     1      22.483   6.540  10.132  1.00  0.00     0.000 C 
BRANCH   2   3
ATOM      3  C   UNL     1      23.227   5.201  10.319  1.00  0.00     0.000 C 
BRANCH   3   4
ATOM      4  C   UNL     1      24.521   5.280  11.153  1.00  0.00     0.000 C 
BRANCH   4   5
ATOM      5  C   UNL     1      25.687   4.499  10.525  1.00  0.00     0.000 C 
BRANCH   5   6
ATOM      6  C   UNL     1      26.987   5.329  10.467  1.00  0.00     0.000 C 
BRANCH   6   7
ATOM      7  C   UNL     1      28.218   4.534   9.999  1.00  0.00     0.000 C 
BRANCH   7   8
ATOM      8  C   UNL     1      27.945   3.030   9.841  1.00  0.00     0.000 C 
BRANCH   8   9
ATOM      9  C   UNL     1      27.990   2.558   8.376  1.00  0.00     0.000 C 
BRANCH   9  10
ATOM     10  C   UNL     1      27.972   1.024   8.201  1.00  0.00     0.000 C 
BRANCH  10  11
ATOM     11  C   UNL     1      26.567   0.395   8.144  1.00  0.00     0.000 C 
BRANCH  11  12
ATOM     12  C   UNL     1      26.524  -0.920   7.342  1.00  0.00     0.006 C 
BRANCH  12  13
ATOM     13  C   UNL     1      26.859  -0.699   5.859  1.00  0.00     0.053 C 
BRANCH  13  14
ATOM     14  C   UNL     1      26.014   0.380   5.252  1.00  0.00     0.041 C 
ATOM     15  O   UNL     1      24.770   0.217   5.130  1.00  0.00    -0.550 OA
ATOM     16  O   UNL     1      26.605   1.546   4.778  1.00  0.00    -0.550 OA
ENDBRANCH  13  14
ENDBRANCH  12  13
ENDBRANCH  11  12
ENDBRANCH  10  11
ENDBRANCH   9  10
ENDBRANCH   8   9
ENDBRANCH   7   8
ENDBRANCH   6   7
ENDBRANCH   5   6
ENDBRANCH   4   5
ENDBRANCH   3   4
ENDBRANCH   2   3
ENDBRANCH   1   2
BRANCH   1  17
ATOM     17  C   UNL     1      24.108   8.475   9.893  1.00  0.00     0.000 C 
BRANCH  17  18
ATOM     18  C   UNL     1      25.351   8.861   9.067  1.00  0.00     0.000 C 
BRANCH  18  19
ATOM     19  C   UNL     1      26.021   7.691   8.320  1.00  0.00     0.000 C 
BRANCH  19  20
ATOM     20  C   UNL     1      26.156   7.881   6.796  1.00  0.00     0.000 C 
BRANCH  20  21
ATOM     21  C   UNL     1      26.245   6.579   5.979  1.00  0.00     0.000 C 
BRANCH  21  22
ATOM     22  C   UNL     1      26.111   5.319   6.850  1.00  0.00    -0.000 C 
BRANCH  22  23
ATOM     23  C   UNL     1      24.675   4.769   6.887  1.00  0.00    -0.000 C 
BRANCH  23  24
ATOM     24  C   UNL     1      24.604   3.250   7.149  1.00  0.00    -0.000 C 
BRANCH  24  25
ATOM     25  C   UNL     1      23.190   2.801   7.545  1.00  0.00    -0.000 C 
BRANCH  25  26
ATOM     26  C   UNL     1      22.125   3.532   6.712  1.00  0.00    -0.000 C 
BRANCH  26  27
ATOM     27  C   UNL     1      20.949   4.017   7.579  1.00  0.00    -0.000 C 
BRANCH  27  28
ATOM     28  C   UNL     1      20.251   5.271   7.006  1.00  0.00    -0.000 C 
BRANCH  28  29
ATOM     29  C   UNL     1      20.803   5.702   5.637  1.00  0.00    -0.003 C 
ATOM     30  C   UNL     1      21.763   6.885   5.736  1.00  0.00     0.004 C 
ENDBRANCH  28  29
ENDBRANCH  27  28
ENDBRANCH  26  27
ENDBRANCH  25  26
ENDBRANCH  24  25
ENDBRANCH  23  24
ENDBRANCH  22  23
ENDBRANCH  21  22
ENDBRANCH  20  21
ENDBRANCH  19  20
ENDBRANCH  18  19
ENDBRANCH  17  18
ENDBRANCH   1  17
TORSDOF 26
ENDMDL
