MODEL 1
REMARK VINA RESULT:     0.686      0.000      0.000
REMARK INTER + INTRA:           3.671
REMARK INTER:                   1.489
REMARK INTRA:                   2.182
REMARK UNBOUND:                 2.182
REMARK SMILES CCCCCCCCCCCCCCCCCCCCCC(=O)[O-]
REMARK SMILES IDX 12 1 11 2 10 3 9 4 8 5 7 6 6 7 5 8 4 9 3 10 2 11 1 12 13 13
REMARK SMILES IDX 14 14 15 15 16 16 17 17 18 18 19 19 20 20 21 21 22 22 23 23
REMARK SMILES IDX 24 24
REMARK H PARENT
REMARK Flexibility Score: inf
ROOT
ATOM      1  C   UNL     1       5.069 -36.301  24.369  1.00  0.00     0.000 C 
ENDROOT
BRANCH   1   2
ATOM      2  C   UNL     1       4.768 -34.830  24.025  1.00  0.00     0.000 C 
BRANCH   2   3
ATOM      3  C   UNL     1       5.124 -34.400  22.590  1.00  0.00     0.000 C 
BRANCH   3   4
ATOM      4  C   UNL     1       4.089 -34.860  21.549  1.00  0.00    -0.000 C 
BRANCH   4   5
ATOM      5  C   UNL     1       4.725 -35.256  20.203  1.00  0.00    -0.000 C 
BRANCH   5   6
ATOM      6  C   UNL     1       4.420 -34.307  19.029  1.00  0.00    -0.000 C 
BRANCH   6   7
ATOM      7  C   UNL     1       4.625 -34.966  17.656  1.00  0.00    -0.000 C 
BRANCH   7   8
ATOM      8  C   UNL     1       3.354 -35.691  17.199  1.00  0.00    -0.000 C 
BRANCH   8   9
ATOM      9  C   UNL     1       2.924 -35.223  15.802  1.00  0.00    -0.000 C 
BRANCH   9  10
ATOM     10  C   UNL     1       2.801 -36.379  14.793  1.00  0.00    -0.000 C 
BRANCH  10  11
ATOM     11  C   UNL     1       3.471 -37.693  15.232  1.00  0.00    -0.003 C 
ATOM     12  C   UNL     1       4.613 -38.119  14.311  1.00  0.00     0.004 C 
ENDBRANCH  10  11
ENDBRANCH   9  10
ENDBRANCH   8   9
ENDBRANCH   7   8
ENDBRANCH   6   7
ENDBRANCH   5   6
ENDBRANCH   4   5
ENDBRANCH   3   4
ENDBRANCH   2   3
ENDBRANCH   1   2
BRANCH   1  13
ATOM     13  C   UNL     1       4.562 -36.708  25.763  1.00  0.00     0.000 C 
BRANCH  13  14
ATOM     14  C   UNL     1       4.498 -38.234  25.958  1.00  0.00     0.000 C 
BRANCH  14  15
ATOM     15  C   UNL     1       5.122 -39.068  24.824  1.00  0.00     0.000 C 
BRANCH  15  16
ATOM     16  C   UNL     1       4.478 -38.793  23.453  1.00  0.00     0.000 C 
BRANCH  16  17
ATOM     17  C   UNL     1       5.118 -39.615  22.324  1.00  0.00     0.000 C 
BRANCH  17  18
ATOM     18  C   UNL     1       4.867 -39.006  20.933  1.00  0.00     0.000 C 
BRANCH  18  19
ATOM     19  C   UNL     1       4.236 -37.601  21.018  1.00  0.00     0.000 C 
BRANCH  19  20
ATOM     20  C   UNL     1       2.765 -37.557  20.571  1.00  0.00     0.006 C 
BRANCH  20  21
ATOM     21  C   UNL     1       2.601 -37.639  19.049  1.00  0.00     0.053 C 
BRANCH  21  22
ATOM     22  C   UNL     1       1.220 -38.095  18.696  1.00  0.00     0.041 C 
ATOM     23  O   UNL     1       0.859 -39.275  18.950  1.00  0.00    -0.550 OA
ATOM     24  O   UNL     1       0.315 -37.203  18.135  1.00  0.00    -0.550 OA
ENDBRANCH  21  22
ENDBRANCH  20  21
ENDBRANCH  19  20
ENDBRANCH  18  19
ENDBRANCH  17  18
ENDBRANCH  16  17
ENDBRANCH  15  16
ENDBRANCH  14  15
ENDBRANCH  13  14
ENDBRANCH   1  13
TORSDOF 20
ENDMDL
MODEL 2
REMARK VINA RESULT:     1.040      4.097      5.736
REMARK INTER + INTRA:           4.438
REMARK INTER:                   5.168
REMARK INTRA:                  -0.731
REMARK UNBOUND:                 2.182
REMARK SMILES CCCCCCCCCCCCCCCCCCCCCC(=O)[O-]
REMARK SMILES IDX 12 1 11 2 10 3 9 4 8 5 7 6 6 7 5 8 4 9 3 10 2 11 1 12 13 13
REMARK SMILES IDX 14 14 15 15 16 16 17 17 18 18 19 19 20 20 21 21 22 22 23 23
REMARK SMILES IDX 24 24
REMARK H PARENT
REMARK Flexibility Score: inf
ROOT
ATOM      1  C   UNL     1       3.707 -38.578  22.289  1.00  0.00     0.000 C 
ENDROOT
BRANCH   1   2
ATOM      2  C   UNL     1       4.621 -37.827  21.303  1.00  0.00     0.000 C 
BRANCH   2   3
ATOM      3  C   UNL     1       5.039 -36.409  21.734  1.00  0.00     0.000 C 
BRANCH   3   4
ATOM      4  C   UNL     1       5.004 -35.394  20.578  1.00  0.00    -0.000 C 
BRANCH   4   5
ATOM      5  C   UNL     1       5.034 -36.063  19.191  1.00  0.00    -0.000 C 
BRANCH   5   6
ATOM      6  C   UNL     1       3.763 -35.876  18.343  1.00  0.00    -0.000 C 
BRANCH   6   7
ATOM      7  C   UNL     1       2.932 -37.162  18.214  1.00  0.00    -0.000 C 
BRANCH   7   8
ATOM      8  C   UNL     1       2.261 -37.247  16.837  1.00  0.00    -0.000 C 
BRANCH   8   9
ATOM      9  C   UNL     1       2.633 -36.038  15.967  1.00  0.00    -0.000 C 
BRANCH   9  10
ATOM     10  C   UNL     1       2.781 -36.395  14.477  1.00  0.00    -0.000 C 
BRANCH  10  11
ATOM     11  C   UNL     1       4.180 -36.885  14.066  1.00  0.00    -0.003 C 
ATOM     12  C   UNL     1       4.357 -38.394  14.227  1.00  0.00     0.004 C 
ENDBRANCH  10  11
ENDBRANCH   9  10
ENDBRANCH   8   9
ENDBRANCH   7   8
ENDBRANCH   6   7
ENDBRANCH   5   6
ENDBRANCH   4   5
ENDBRANCH   3   4
ENDBRANCH   2   3
ENDBRANCH   1   2
BRANCH   1  13
ATOM     13  C   UNL     1       4.460 -39.617  23.137  1.00  0.00     0.000 C 
BRANCH  13  14
ATOM     14  C   UNL     1       4.990 -39.042  24.463  1.00  0.00     0.000 C 
BRANCH  14  15
ATOM     15  C   UNL     1       4.948 -37.506  24.576  1.00  0.00     0.000 C 
BRANCH  15  16
ATOM     16  C   UNL     1       5.050 -37.008  26.029  1.00  0.00     0.000 C 
BRANCH  16  17
ATOM     17  C   UNL     1       4.064 -37.719  26.968  1.00  0.00     0.000 C 
BRANCH  17  18
ATOM     18  C   UNL     1       2.640 -37.787  26.389  1.00  0.00     0.000 C 
BRANCH  18  19
ATOM     19  C   UNL     1       1.585 -37.236  27.372  1.00  0.00     0.000 C 
BRANCH  19  20
ATOM     20  C   UNL     1       2.140 -36.183  28.347  1.00  0.00     0.006 C 
BRANCH  20  21
ATOM     21  C   UNL     1       1.524 -34.795  28.140  1.00  0.00     0.053 C 
BRANCH  21  22
ATOM     22  C   UNL     1       1.051 -34.233  29.445  1.00  0.00     0.041 C 
ATOM     23  O   UNL     1      -0.158 -33.917  29.596  1.00  0.00    -0.550 OA
ATOM     24  O   UNL     1       1.935 -34.109  30.509  1.00  0.00    -0.550 OA
ENDBRANCH  21  22
ENDBRANCH  20  21
ENDBRANCH  19  20
ENDBRANCH  18  19
ENDBRANCH  17  18
ENDBRANCH  16  17
ENDBRANCH  15  16
ENDBRANCH  14  15
ENDBRANCH  13  14
ENDBRANCH   1  13
TORSDOF 20
ENDMDL
MODEL 3
REMARK VINA RESULT:     1.426      2.224      4.996
REMARK INTER + INTRA:           5.276
REMARK INTER:                   5.191
REMARK INTRA:                   0.085
REMARK UNBOUND:                 2.182
REMARK SMILES CCCCCCCCCCCCCCCCCCCCCC(=O)[O-]
REMARK SMILES IDX 12 1 11 2 10 3 9 4 8 5 7 6 6 7 5 8 4 9 3 10 2 11 1 12 13 13
REMARK SMILES IDX 14 14 15 15 16 16 17 17 18 18 19 19 20 20 21 21 22 22 23 23
REMARK SMILES IDX 24 24
REMARK H PARENT
REMARK Flexibility Score: inf
ROOT
ATOM      1  C   UNL     1       2.325 -38.048  18.911  1.00  0.00     0.000 C 
ENDROOT
BRANCH   1   2
ATOM      2  C   UNL     1       1.076 -37.164  18.733  1.00  0.00     0.000 C 
BRANCH   2   3
ATOM      3  C   UNL     1       0.541 -37.057  17.292  1.00  0.00     0.000 C 
BRANCH   3   4
ATOM      4  C   UNL     1       1.659 -36.944  16.242  1.00  0.00    -0.000 C 
BRANCH   4   5
ATOM      5  C   UNL     1       2.386 -35.586  16.282  1.00  0.00    -0.000 C 
BRANCH   5   6
ATOM      6  C   UNL     1       3.549 -35.433  15.284  1.00  0.00    -0.000 C 
BRANCH   6   7
ATOM      7  C   UNL     1       3.423 -36.364  14.068  1.00  0.00    -0.000 C 
BRANCH   7   8
ATOM      8  C   UNL     1       4.664 -37.253  13.926  1.00  0.00    -0.000 C 
BRANCH   8   9
ATOM      9  C   UNL     1       4.530 -38.526  14.774  1.00  0.00    -0.000 C 
BRANCH   9  10
ATOM     10  C   UNL     1       5.000 -39.792  14.035  1.00  0.00    -0.000 C 
BRANCH  10  11
ATOM     11  C   UNL     1       5.014 -41.071  14.889  1.00  0.00    -0.003 C 
ATOM     12  C   UNL     1       4.720 -42.334  14.082  1.00  0.00     0.004 C 
ENDBRANCH  10  11
ENDBRANCH   9  10
ENDBRANCH   8   9
ENDBRANCH   7   8
ENDBRANCH   6   7
ENDBRANCH   5   6
ENDBRANCH   4   5
ENDBRANCH   3   4
ENDBRANCH   2   3
ENDBRANCH   1   2
BRANCH   1  13
ATOM     13  C   UNL     1       3.599 -37.236  19.204  1.00  0.00     0.000 C 
BRANCH  13  14
ATOM     14  C   UNL     1       4.554 -37.947  20.180  1.00  0.00     0.000 C 
BRANCH  14  15
ATOM     15  C   UNL     1       4.131 -37.904  21.660  1.00  0.00     0.000 C 
BRANCH  15  16
ATOM     16  C   UNL     1       4.955 -38.855  22.548  1.00  0.00     0.000 C 
BRANCH  16  17
ATOM     17  C   UNL     1       4.203 -39.276  23.819  1.00  0.00     0.000 C 
BRANCH  17  18
ATOM     18  C   UNL     1       4.682 -38.516  25.069  1.00  0.00     0.000 C 
BRANCH  18  19
ATOM     19  C   UNL     1       5.110 -37.070  24.743  1.00  0.00     0.000 C 
BRANCH  19  20
ATOM     20  C   UNL     1       4.079 -36.296  23.902  1.00  0.00     0.006 C 
BRANCH  20  21
ATOM     21  C   UNL     1       4.526 -34.866  23.579  1.00  0.00     0.053 C 
BRANCH  21  22
ATOM     22  C   UNL     1       4.116 -34.492  22.189  1.00  0.00     0.041 C 
ATOM     23  O   UNL     1       2.986 -33.980  21.978  1.00  0.00    -0.550 OA
ATOM     24  O   UNL     1       5.004 -34.661  21.134  1.00  0.00    -0.550 OA
ENDBRANCH  21  22
ENDBRANCH  20  21
ENDBRANCH  19  20
ENDBRANCH  18  19
ENDBRANCH  17  18
ENDBRANCH  16  17
ENDBRANCH  15  16
ENDBRANCH  14  15
ENDBRANCH  13  14
ENDBRANCH   1  13
TORSDOF 20
ENDMDL
MODEL 4
REMARK VINA RESULT:     2.029      2.591      7.614
REMARK INTER + INTRA:           6.584
REMARK INTER:                   6.808
REMARK INTRA:                  -0.225
REMARK UNBOUND:                 2.182
REMARK SMILES CCCCCCCCCCCCCCCCCCCCCC(=O)[O-]
REMARK SMILES IDX 12 1 11 2 10 3 9 4 8 5 7 6 6 7 5 8 4 9 3 10 2 11 1 12 13 13
REMARK SMILES IDX 14 14 15 15 16 16 17 17 18 18 19 19 20 20 21 21 22 22 23 23
REMARK SMILES IDX 24 24
REMARK H PARENT
REMARK Flexibility Score: inf
ROOT
ATOM      1  C   UNL     1       4.526 -36.649  23.025  1.00  0.00     0.000 C 
ENDROOT
BRANCH   1   2
ATOM      2  C   UNL     1       5.122 -37.797  22.190  1.00  0.00     0.000 C 
BRANCH   2   3
ATOM      3  C   UNL     1       4.975 -39.204  22.797  1.00  0.00     0.000 C 
BRANCH   3   4
ATOM      4  C   UNL     1       4.109 -39.223  24.069  1.00  0.00    -0.000 C 
BRANCH   4   5
ATOM      5  C   UNL     1       4.926 -39.000  25.355  1.00  0.00    -0.000 C 
BRANCH   5   6
ATOM      6  C   UNL     1       4.967 -37.547  25.865  1.00  0.00    -0.000 C 
BRANCH   6   7
ATOM      7  C   UNL     1       4.052 -37.310  27.076  1.00  0.00    -0.000 C 
BRANCH   7   8
ATOM      8  C   UNL     1       2.598 -37.668  26.745  1.00  0.00    -0.000 C 
BRANCH   8   9
ATOM      9  C   UNL     1       1.630 -37.037  27.757  1.00  0.00    -0.000 C 
BRANCH   9  10
ATOM     10  C   UNL     1       1.878 -35.532  27.964  1.00  0.00    -0.000 C 
BRANCH  10  11
ATOM     11  C   UNL     1       1.327 -34.963  29.283  1.00  0.00    -0.003 C 
ATOM     12  C   UNL     1       1.510 -33.451  29.406  1.00  0.00     0.004 C 
ENDBRANCH  10  11
ENDBRANCH   9  10
ENDBRANCH   8   9
ENDBRANCH   7   8
ENDBRANCH   6   7
ENDBRANCH   5   6
ENDBRANCH   4   5
ENDBRANCH   3   4
ENDBRANCH   2   3
ENDBRANCH   1   2
BRANCH   1  13
ATOM     13  C   UNL     1       5.125 -35.276  22.675  1.00  0.00     0.000 C 
BRANCH  13  14
ATOM     14  C   UNL     1       4.074 -34.274  22.160  1.00  0.00     0.000 C 
BRANCH  14  15
ATOM     15  C   UNL     1       3.888 -34.247  20.632  1.00  0.00     0.000 C 
BRANCH  15  16
ATOM     16  C   UNL     1       5.032 -34.945  19.875  1.00  0.00     0.000 C 
BRANCH  16  17
ATOM     17  C   UNL     1       4.535 -35.751  18.665  1.00  0.00     0.000 C 
BRANCH  17  18
ATOM     18  C   UNL     1       4.071 -37.167  19.047  1.00  0.00     0.000 C 
BRANCH  18  19
ATOM     19  C   UNL     1       2.570 -37.385  18.761  1.00  0.00     0.000 C 
BRANCH  19  20
ATOM     20  C   UNL     1       2.222 -37.393  17.262  1.00  0.00     0.006 C 
BRANCH  20  21
ATOM     21  C   UNL     1       2.982 -36.325  16.468  1.00  0.00     0.053 C 
BRANCH  21  22
ATOM     22  C   UNL     1       3.438 -36.877  15.153  1.00  0.00     0.041 C 
ATOM     23  O   UNL     1       3.786 -38.083  15.060  1.00  0.00    -0.550 OA
ATOM     24  O   UNL     1       3.429 -36.072  14.021  1.00  0.00    -0.550 OA
ENDBRANCH  21  22
ENDBRANCH  20  21
ENDBRANCH  19  20
ENDBRANCH  18  19
ENDBRANCH  17  18
ENDBRANCH  16  17
ENDBRANCH  15  16
ENDBRANCH  14  15
ENDBRANCH  13  14
ENDBRANCH   1  13
TORSDOF 20
ENDMDL
MODEL 5
REMARK VINA RESULT:     2.298      4.193      5.883
REMARK INTER + INTRA:           7.166
REMARK INTER:                   7.388
REMARK INTRA:                  -0.222
REMARK UNBOUND:                 2.182
REMARK SMILES CCCCCCCCCCCCCCCCCCCCCC(=O)[O-]
REMARK SMILES IDX 12 1 11 2 10 3 9 4 8 5 7 6 6 7 5 8 4 9 3 10 2 11 1 12 13 13
REMARK SMILES IDX 14 14 15 15 16 16 17 17 18 18 19 19 20 20 21 21 22 22 23 23
REMARK SMILES IDX 24 24
REMARK H PARENT
REMARK Flexibility Score: inf
ROOT
ATOM      1  C   UNL     1       3.937 -36.051  22.375  1.00  0.00     0.000 C 
ENDROOT
BRANCH   1   2
ATOM      2  C   UNL     1       4.375 -34.884  21.469  1.00  0.00     0.000 C 
BRANCH   2   3
ATOM      3  C   UNL     1       5.125 -35.288  20.185  1.00  0.00     0.000 C 
BRANCH   3   4
ATOM      4  C   UNL     1       4.459 -36.459  19.443  1.00  0.00    -0.000 C 
BRANCH   4   5
ATOM      5  C   UNL     1       2.963 -36.222  19.165  1.00  0.00    -0.000 C 
BRANCH   5   6
ATOM      6  C   UNL     1       2.073 -37.477  19.241  1.00  0.00    -0.000 C 
BRANCH   6   7
ATOM      7  C   UNL     1       1.548 -37.926  17.869  1.00  0.00    -0.000 C 
BRANCH   7   8
ATOM      8  C   UNL     1       2.489 -37.474  16.746  1.00  0.00    -0.000 C 
BRANCH   8   9
ATOM      9  C   UNL     1       1.743 -36.618  15.712  1.00  0.00    -0.000 C 
BRANCH   9  10
ATOM     10  C   UNL     1       2.679 -35.703  14.903  1.00  0.00    -0.000 C 
BRANCH  10  11
ATOM     11  C   UNL     1       3.911 -36.406  14.307  1.00  0.00    -0.003 C 
ATOM     12  C   UNL     1       3.931 -37.910  14.575  1.00  0.00     0.004 C 
ENDBRANCH  10  11
ENDBRANCH   9  10
ENDBRANCH   8   9
ENDBRANCH   7   8
ENDBRANCH   6   7
ENDBRANCH   5   6
ENDBRANCH   4   5
ENDBRANCH   3   4
ENDBRANCH   2   3
ENDBRANCH   1   2
BRANCH   1  13
ATOM     13  C   UNL     1       5.123 -36.806  22.997  1.00  0.00     0.000 C 
BRANCH  13  14
ATOM     14  C   UNL     1       4.817 -38.291  23.267  1.00  0.00     0.000 C 
BRANCH  14  15
ATOM     15  C   UNL     1       5.064 -38.759  24.713  1.00  0.00     0.000 C 
BRANCH  15  16
ATOM     16  C   UNL     1       5.054 -37.603  25.729  1.00  0.00     0.000 C 
BRANCH  16  17
ATOM     17  C   UNL     1       3.992 -37.786  26.823  1.00  0.00     0.000 C 
BRANCH  17  18
ATOM     18  C   UNL     1       2.622 -37.210  26.421  1.00  0.00     0.000 C 
BRANCH  18  19
ATOM     19  C   UNL     1       1.662 -37.097  27.624  1.00  0.00     0.000 C 
BRANCH  19  20
ATOM     20  C   UNL     1       1.187 -35.660  27.902  1.00  0.00     0.006 C 
BRANCH  20  21
ATOM     21  C   UNL     1       2.104 -34.905  28.871  1.00  0.00     0.053 C 
BRANCH  21  22
ATOM     22  C   UNL     1       1.297 -34.044  29.790  1.00  0.00     0.041 C 
ATOM     23  O   UNL     1       1.803 -33.609  30.858  1.00  0.00    -0.550 OA
ATOM     24  O   UNL     1       0.003 -33.677  29.442  1.00  0.00    -0.550 OA
ENDBRANCH  21  22
ENDBRANCH  20  21
ENDBRANCH  19  20
ENDBRANCH  18  19
ENDBRANCH  17  18
ENDBRANCH  16  17
ENDBRANCH  15  16
ENDBRANCH  14  15
ENDBRANCH  13  14
ENDBRANCH   1  13
TORSDOF 20
ENDMDL
MODEL 6
REMARK VINA RESULT:     2.770      4.118      6.038
REMARK INTER + INTRA:           8.190
REMARK INTER:                   9.492
REMARK INTRA:                  -1.301
REMARK UNBOUND:                 2.182
REMARK SMILES CCCCCCCCCCCCCCCCCCCCCC(=O)[O-]
REMARK SMILES IDX 12 1 11 2 10 3 9 4 8 5 7 6 6 7 5 8 4 9 3 10 2 11 1 12 13 13
REMARK SMILES IDX 14 14 15 15 16 16 17 17 18 18 19 19 20 20 21 21 22 22 23 23
REMARK SMILES IDX 24 24
REMARK H PARENT
REMARK Flexibility Score: inf
ROOT
ATOM      1  C   UNL     1       3.656 -36.069  21.953  1.00  0.00     0.000 C 
ENDROOT
BRANCH   1   2
ATOM      2  C   UNL     1       4.183 -35.468  20.636  1.00  0.00     0.000 C 
BRANCH   2   3
ATOM      3  C   UNL     1       5.000 -36.428  19.750  1.00  0.00     0.000 C 
BRANCH   3   4
ATOM      4  C   UNL     1       4.760 -36.210  18.247  1.00  0.00    -0.000 C 
BRANCH   4   5
ATOM      5  C   UNL     1       4.152 -34.830  17.929  1.00  0.00    -0.000 C 
BRANCH   5   6
ATOM      6  C   UNL     1       3.586 -34.673  16.506  1.00  0.00    -0.000 C 
BRANCH   6   7
ATOM      7  C   UNL     1       3.626 -35.977  15.695  1.00  0.00    -0.000 C 
BRANCH   7   8
ATOM      8  C   UNL     1       2.234 -36.336  15.161  1.00  0.00    -0.000 C 
BRANCH   8   9
ATOM      9  C   UNL     1       1.250 -36.587  16.313  1.00  0.00    -0.000 C 
BRANCH   9  10
ATOM     10  C   UNL     1       1.843 -37.467  17.428  1.00  0.00    -0.000 C 
BRANCH  10  11
ATOM     11  C   UNL     1       0.856 -37.845  18.546  1.00  0.00    -0.003 C 
ATOM     12  C   UNL     1       1.443 -37.673  19.946  1.00  0.00     0.004 C 
ENDBRANCH  10  11
ENDBRANCH   9  10
ENDBRANCH   8   9
ENDBRANCH   7   8
ENDBRANCH   6   7
ENDBRANCH   5   6
ENDBRANCH   4   5
ENDBRANCH   3   4
ENDBRANCH   2   3
ENDBRANCH   1   2
BRANCH   1  13
ATOM     13  C   UNL     1       4.780 -36.488  22.915  1.00  0.00     0.000 C 
BRANCH  13  14
ATOM     14  C   UNL     1       5.092 -37.995  22.858  1.00  0.00     0.000 C 
BRANCH  14  15
ATOM     15  C   UNL     1       5.117 -38.711  24.221  1.00  0.00     0.000 C 
BRANCH  15  16
ATOM     16  C   UNL     1       5.125 -37.736  25.412  1.00  0.00     0.000 C 
BRANCH  16  17
ATOM     17  C   UNL     1       4.137 -38.143  26.515  1.00  0.00     0.000 C 
BRANCH  17  18
ATOM     18  C   UNL     1       3.380 -36.941  27.105  1.00  0.00     0.000 C 
BRANCH  18  19
ATOM     19  C   UNL     1       1.894 -37.262  27.373  1.00  0.00     0.000 C 
BRANCH  19  20
ATOM     20  C   UNL     1       1.068 -36.041  27.812  1.00  0.00     0.006 C 
BRANCH  20  21
ATOM     21  C   UNL     1       1.927 -34.925  28.418  1.00  0.00     0.053 C 
BRANCH  21  22
ATOM     22  C   UNL     1       1.193 -34.247  29.532  1.00  0.00     0.041 C 
ATOM     23  O   UNL     1       0.020 -33.826  29.353  1.00  0.00    -0.550 OA
ATOM     24  O   UNL     1       1.786 -34.126  30.782  1.00  0.00    -0.550 OA
ENDBRANCH  21  22
ENDBRANCH  20  21
ENDBRANCH  19  20
ENDBRANCH  18  19
ENDBRANCH  17  18
ENDBRANCH  16  17
ENDBRANCH  15  16
ENDBRANCH  14  15
ENDBRANCH  13  14
ENDBRANCH   1  13
TORSDOF 20
ENDMDL
MODEL 7
REMARK VINA RESULT:     2.994      2.562      8.023
REMARK INTER + INTRA:           8.677
REMARK INTER:                   9.016
REMARK INTRA:                  -0.340
REMARK UNBOUND:                 2.182
REMARK SMILES CCCCCCCCCCCCCCCCCCCCCC(=O)[O-]
REMARK SMILES IDX 12 1 11 2 10 3 9 4 8 5 7 6 6 7 5 8 4 9 3 10 2 11 1 12 13 13
REMARK SMILES IDX 14 14 15 15 16 16 17 17 18 18 19 19 20 20 21 21 22 22 23 23
REMARK SMILES IDX 24 24
REMARK H PARENT
REMARK Flexibility Score: inf
ROOT
ATOM      1  C   UNL     1       1.977 -37.637  20.085  1.00  0.00     0.000 C 
ENDROOT
BRANCH   1   2
ATOM      2  C   UNL     1       3.421 -38.014  20.466  1.00  0.00     0.000 C 
BRANCH   2   3
ATOM      3  C   UNL     1       3.571 -38.851  21.751  1.00  0.00     0.000 C 
BRANCH   3   4
ATOM      4  C   UNL     1       4.956 -38.709  22.403  1.00  0.00    -0.000 C 
BRANCH   4   5
ATOM      5  C   UNL     1       5.125 -39.592  23.654  1.00  0.00    -0.000 C 
BRANCH   5   6
ATOM      6  C   UNL     1       4.848 -38.890  24.996  1.00  0.00    -0.000 C 
BRANCH   6   7
ATOM      7  C   UNL     1       4.758 -37.362  24.868  1.00  0.00    -0.000 C 
BRANCH   7   8
ATOM      8  C   UNL     1       4.024 -36.752  26.069  1.00  0.00    -0.000 C 
BRANCH   8   9
ATOM      9  C   UNL     1       3.252 -37.827  26.848  1.00  0.00    -0.000 C 
BRANCH   9  10
ATOM     10  C   UNL     1       1.899 -37.325  27.383  1.00  0.00    -0.000 C 
BRANCH  10  11
ATOM     11  C   UNL     1       1.733 -35.796  27.385  1.00  0.00    -0.003 C 
ATOM     12  C   UNL     1       1.890 -35.178  28.773  1.00  0.00     0.004 C 
ENDBRANCH  10  11
ENDBRANCH   9  10
ENDBRANCH   8   9
ENDBRANCH   7   8
ENDBRANCH   6   7
ENDBRANCH   5   6
ENDBRANCH   4   5
ENDBRANCH   3   4
ENDBRANCH   2   3
ENDBRANCH   1   2
BRANCH   1  13
ATOM     13  C   UNL     1       1.648 -37.932  18.612  1.00  0.00     0.000 C 
BRANCH  13  14
ATOM     14  C   UNL     1       0.535 -37.028  18.051  1.00  0.00     0.000 C 
BRANCH  14  15
ATOM     15  C   UNL     1       0.914 -36.222  16.795  1.00  0.00     0.000 C 
BRANCH  15  16
ATOM     16  C   UNL     1       2.298 -36.598  16.236  1.00  0.00     0.000 C 
BRANCH  16  17
ATOM     17  C   UNL     1       3.294 -35.429  16.287  1.00  0.00     0.000 C 
BRANCH  17  18
ATOM     18  C   UNL     1       4.472 -35.696  17.239  1.00  0.00     0.000 C 
BRANCH  18  19
ATOM     19  C   UNL     1       4.644 -34.571  18.282  1.00  0.00     0.000 C 
BRANCH  19  20
ATOM     20  C   UNL     1       5.055 -35.079  19.675  1.00  0.00     0.006 C 
BRANCH  20  21
ATOM     21  C   UNL     1       4.343 -34.339  20.813  1.00  0.00     0.053 C 
BRANCH  21  22
ATOM     22  C   UNL     1       4.789 -34.869  22.140  1.00  0.00     0.041 C 
ATOM     23  O   UNL     1       4.816 -34.114  23.147  1.00  0.00    -0.550 OA
ATOM     24  O   UNL     1       5.124 -36.211  22.276  1.00  0.00    -0.550 OA
ENDBRANCH  21  22
ENDBRANCH  20  21
ENDBRANCH  19  20
ENDBRANCH  18  19
ENDBRANCH  17  18
ENDBRANCH  16  17
ENDBRANCH  15  16
ENDBRANCH  14  15
ENDBRANCH  13  14
ENDBRANCH   1  13
TORSDOF 20
ENDMDL
MODEL 8
REMARK VINA RESULT:     3.113      3.342      8.224
REMARK INTER + INTRA:           8.935
REMARK INTER:                   7.927
REMARK INTRA:                   1.008
REMARK UNBOUND:                 2.182
REMARK SMILES CCCCCCCCCCCCCCCCCCCCCC(=O)[O-]
REMARK SMILES IDX 12 1 11 2 10 3 9 4 8 5 7 6 6 7 5 8 4 9 3 10 2 11 1 12 13 13
REMARK SMILES IDX 14 14 15 15 16 16 17 17 18 18 19 19 20 20 21 21 22 22 23 23
REMARK SMILES IDX 24 24
REMARK H PARENT
REMARK Flexibility Score: inf
ROOT
ATOM      1  C   UNL     1       3.806 -38.641  22.652  1.00  0.00     0.000 C 
ENDROOT
BRANCH   1   2
ATOM      2  C   UNL     1       4.548 -39.802  23.340  1.00  0.00     0.000 C 
BRANCH   2   3
ATOM      3  C   UNL     1       5.125 -39.488  24.733  1.00  0.00     0.000 C 
BRANCH   3   4
ATOM      4  C   UNL     1       4.899 -38.028  25.162  1.00  0.00    -0.000 C 
BRANCH   4   5
ATOM      5  C   UNL     1       4.503 -37.892  26.644  1.00  0.00    -0.000 C 
BRANCH   5   6
ATOM      6  C   UNL     1       3.021 -37.564  26.901  1.00  0.00    -0.000 C 
BRANCH   6   7
ATOM      7  C   UNL     1       2.758 -36.060  27.070  1.00  0.00    -0.000 C 
BRANCH   7   8
ATOM      8  C   UNL     1       1.643 -35.808  28.092  1.00  0.00    -0.000 C 
BRANCH   8   9
ATOM      9  C   UNL     1       1.810 -34.437  28.765  1.00  0.00    -0.000 C 
BRANCH   9  10
ATOM     10  C   UNL     1       0.831 -34.218  29.932  1.00  0.00    -0.000 C 
BRANCH  10  11
ATOM     11  C   UNL     1      -0.319 -33.241  29.635  1.00  0.00    -0.003 C 
ATOM     12  C   UNL     1      -1.620 -33.946  29.255  1.00  0.00     0.004 C 
ENDBRANCH  10  11
ENDBRANCH   9  10
ENDBRANCH   8   9
ENDBRANCH   7   8
ENDBRANCH   6   7
ENDBRANCH   5   6
ENDBRANCH   4   5
ENDBRANCH   3   4
ENDBRANCH   2   3
ENDBRANCH   1   2
BRANCH   1  13
ATOM     13  C   UNL     1       4.697 -37.850  21.680  1.00  0.00     0.000 C 
BRANCH  13  14
ATOM     14  C   UNL     1       4.971 -36.410  22.150  1.00  0.00     0.000 C 
BRANCH  14  15
ATOM     15  C   UNL     1       4.529 -35.305  21.173  1.00  0.00     0.000 C 
BRANCH  15  16
ATOM     16  C   UNL     1       4.435 -35.794  19.716  1.00  0.00     0.000 C 
BRANCH  16  17
ATOM     17  C   UNL     1       3.666 -37.117  19.585  1.00  0.00     0.000 C 
BRANCH  17  18
ATOM     18  C   UNL     1       2.852 -37.202  18.283  1.00  0.00     0.000 C 
BRANCH  18  19
ATOM     19  C   UNL     1       3.578 -36.530  17.098  1.00  0.00     0.000 C 
BRANCH  19  20
ATOM     20  C   UNL     1       2.627 -35.846  16.100  1.00  0.00     0.006 C 
BRANCH  20  21
ATOM     21  C   UNL     1       2.883 -36.266  14.648  1.00  0.00     0.053 C 
BRANCH  21  22
ATOM     22  C   UNL     1       3.911 -37.352  14.591  1.00  0.00     0.041 C 
ATOM     23  O   UNL     1       3.662 -38.486  15.079  1.00  0.00    -0.550 OA
ATOM     24  O   UNL     1       5.124 -37.127  13.953  1.00  0.00    -0.550 OA
ENDBRANCH  21  22
ENDBRANCH  20  21
ENDBRANCH  19  20
ENDBRANCH  18  19
ENDBRANCH  17  18
ENDBRANCH  16  17
ENDBRANCH  15  16
ENDBRANCH  14  15
ENDBRANCH  13  14
ENDBRANCH   1  13
TORSDOF 20
ENDMDL
