MODEL 1
REMARK VINA RESULT:    -2.416      0.000      0.000
REMARK INTER + INTRA:          -8.159
REMARK INTER:                  -6.371
REMARK INTRA:                  -1.788
REMARK UNBOUND:                -1.788
REMARK SMILES CCCCCCCCCCCCCCCCCCCCCCCCCCCCCC(=O)[O-]
REMARK SMILES IDX 16 1 17 2 18 3 19 4 20 5 21 6 22 7 23 8 24 9 25 10 26 11
REMARK SMILES IDX 27 12 28 13 29 14 30 15 31 16 32 17 15 18 14 19 13 20 12 21
REMARK SMILES IDX 11 22 10 23 9 24 8 25 7 26 6 27 5 28 4 29 3 30 2 31 1 32
REMARK H PARENT
REMARK Flexibility Score: inf
ROOT
ATOM      1  C   UNL     1      41.123  66.983  25.643  1.00  0.00     0.000 C 
ENDROOT
BRANCH   1   2
ATOM      2  C   UNL     1      42.124  67.947  24.988  1.00  0.00     0.000 C 
BRANCH   2   3
ATOM      3  C   UNL     1      41.766  68.291  23.530  1.00  0.00     0.000 C 
BRANCH   3   4
ATOM      4  C   UNL     1      42.344  67.335  22.467  1.00  0.00     0.000 C 
BRANCH   4   5
ATOM      5  C   UNL     1      41.298  66.608  21.600  1.00  0.00     0.000 C 
BRANCH   5   6
ATOM      6  C   UNL     1      39.845  67.083  21.803  1.00  0.00     0.000 C 
BRANCH   6   7
ATOM      7  C   UNL     1      39.134  66.494  23.037  1.00  0.00     0.000 C 
BRANCH   7   8
ATOM      8  C   UNL     1      38.216  67.478  23.792  1.00  0.00     0.000 C 
BRANCH   8   9
ATOM      9  C   UNL     1      37.945  67.116  25.267  1.00  0.00     0.000 C 
BRANCH   9  10
ATOM     10  C   UNL     1      36.930  68.026  25.981  1.00  0.00     0.000 C 
BRANCH  10  11
ATOM     11  C   UNL     1      35.488  67.808  25.492  1.00  0.00     0.000 C 
BRANCH  11  12
ATOM     12  C   UNL     1      34.646  66.997  26.489  1.00  0.00     0.000 C 
BRANCH  12  13
ATOM     13  C   UNL     1      34.728  65.483  26.231  1.00  0.00     0.006 C 
BRANCH  13  14
ATOM     14  C   UNL     1      34.996  64.691  27.517  1.00  0.00     0.053 C 
BRANCH  14  15
ATOM     15  C   UNL     1      34.679  63.234  27.357  1.00  0.00     0.041 C 
ATOM     16  O   UNL     1      34.757  62.690  26.223  1.00  0.00    -0.550 OA
ATOM     17  O   UNL     1      34.311  62.475  28.460  1.00  0.00    -0.550 OA
ENDBRANCH  14  15
ENDBRANCH  13  14
ENDBRANCH  12  13
ENDBRANCH  11  12
ENDBRANCH  10  11
ENDBRANCH   9  10
ENDBRANCH   8   9
ENDBRANCH   7   8
ENDBRANCH   6   7
ENDBRANCH   5   6
ENDBRANCH   4   5
ENDBRANCH   3   4
ENDBRANCH   2   3
ENDBRANCH   1   2
BRANCH   1  18
ATOM     18  C   UNL     1      41.673  65.554  25.794  1.00  0.00     0.000 C 
BRANCH  18  19
ATOM     19  C   UNL     1      41.657  64.735  24.486  1.00  0.00     0.000 C 
BRANCH  19  20
ATOM     20  C   UNL     1      41.817  63.228  24.739  1.00  0.00     0.000 C 
BRANCH  20  21
ATOM     21  C   UNL     1      42.547  62.962  26.060  1.00  0.00     0.000 C 
BRANCH  21  22
ATOM     22  C   UNL     1      42.993  61.496  26.152  1.00  0.00     0.000 C 
BRANCH  22  23
ATOM     23  C   UNL     1      44.523  61.329  26.156  1.00  0.00     0.000 C 
BRANCH  23  24
ATOM     24  C   UNL     1      45.317  62.557  25.663  1.00  0.00    -0.000 C 
BRANCH  24  25
ATOM     25  C   UNL     1      46.417  63.052  26.618  1.00  0.00    -0.000 C 
BRANCH  25  26
ATOM     26  C   UNL     1      47.695  63.567  25.927  1.00  0.00    -0.000 C 
BRANCH  26  27
ATOM     27  C   UNL     1      47.601  63.589  24.385  1.00  0.00    -0.000 C 
BRANCH  27  28
ATOM     28  C   UNL     1      48.877  64.137  23.724  1.00  0.00    -0.000 C 
BRANCH  28  29
ATOM     29  C   UNL     1      48.594  65.277  22.730  1.00  0.00    -0.000 C 
BRANCH  29  30
ATOM     30  C   UNL     1      49.827  65.812  21.972  1.00  0.00    -0.000 C 
BRANCH  30  31
ATOM     31  C   UNL     1      51.034  64.858  21.936  1.00  0.00    -0.003 C 
ATOM     32  C   UNL     1      50.958  63.846  20.794  1.00  0.00     0.004 C 
ENDBRANCH  30  31
ENDBRANCH  29  30
ENDBRANCH  28  29
ENDBRANCH  27  28
ENDBRANCH  26  27
ENDBRANCH  25  26
ENDBRANCH  24  25
ENDBRANCH  23  24
ENDBRANCH  22  23
ENDBRANCH  21  22
ENDBRANCH  20  21
ENDBRANCH  19  20
ENDBRANCH  18  19
ENDBRANCH   1  18
TORSDOF 28
ENDMDL
MODEL 2
REMARK VINA RESULT:    -2.409      4.006      6.191
REMARK INTER + INTRA:          -8.140
REMARK INTER:                  -6.499
REMARK INTRA:                  -1.641
REMARK UNBOUND:                -1.788
REMARK SMILES CCCCCCCCCCCCCCCCCCCCCCCCCCCCCC(=O)[O-]
REMARK SMILES IDX 16 1 17 2 18 3 19 4 20 5 21 6 22 7 23 8 24 9 25 10 26 11
REMARK SMILES IDX 27 12 28 13 29 14 30 15 31 16 32 17 15 18 14 19 13 20 12 21
REMARK SMILES IDX 11 22 10 23 9 24 8 25 7 26 6 27 5 28 4 29 3 30 2 31 1 32
REMARK H PARENT
REMARK Flexibility Score: inf
ROOT
ATOM      1  C   UNL     1      41.290  65.688  21.741  1.00  0.00     0.000 C 
ENDROOT
BRANCH   1   2
ATOM      2  C   UNL     1      39.798  66.048  21.667  1.00  0.00     0.000 C 
BRANCH   2   3
ATOM      3  C   UNL     1      39.401  67.182  22.631  1.00  0.00     0.000 C 
BRANCH   3   4
ATOM      4  C   UNL     1      38.724  66.728  23.939  1.00  0.00     0.000 C 
BRANCH   4   5
ATOM      5  C   UNL     1      39.225  67.432  25.216  1.00  0.00     0.000 C 
BRANCH   5   6
ATOM      6  C   UNL     1      40.563  66.899  25.767  1.00  0.00     0.000 C 
BRANCH   6   7
ATOM      7  C   UNL     1      41.740  67.892  25.692  1.00  0.00     0.000 C 
BRANCH   7   8
ATOM      8  C   UNL     1      42.092  68.381  24.272  1.00  0.00     0.000 C 
BRANCH   8   9
ATOM      9  C   UNL     1      43.271  69.372  24.197  1.00  0.00     0.000 C 
BRANCH   9  10
ATOM     10  C   UNL     1      43.685  69.992  25.543  1.00  0.00     0.000 C 
BRANCH  10  11
ATOM     11  C   UNL     1      44.449  71.316  25.379  1.00  0.00     0.000 C 
BRANCH  11  12
ATOM     12  C   UNL     1      44.231  71.954  23.998  1.00  0.00     0.000 C 
BRANCH  12  13
ATOM     13  C   UNL     1      42.989  72.862  23.962  1.00  0.00     0.006 C 
BRANCH  13  14
ATOM     14  C   UNL     1      42.451  73.160  25.368  1.00  0.00     0.053 C 
BRANCH  14  15
ATOM     15  C   UNL     1      41.238  74.042  25.330  1.00  0.00     0.041 C 
ATOM     16  O   UNL     1      40.536  74.108  24.287  1.00  0.00    -0.550 OA
ATOM     17  O   UNL     1      40.878  74.780  26.450  1.00  0.00    -0.550 OA
ENDBRANCH  14  15
ENDBRANCH  13  14
ENDBRANCH  12  13
ENDBRANCH  11  12
ENDBRANCH  10  11
ENDBRANCH   9  10
ENDBRANCH   8   9
ENDBRANCH   7   8
ENDBRANCH   6   7
ENDBRANCH   5   6
ENDBRANCH   4   5
ENDBRANCH   3   4
ENDBRANCH   2   3
ENDBRANCH   1   2
BRANCH   1  18
ATOM     18  C   UNL     1      41.786  65.469  23.180  1.00  0.00     0.000 C 
BRANCH  18  19
ATOM     19  C   UNL     1      41.368  64.113  23.788  1.00  0.00     0.000 C 
BRANCH  19  20
ATOM     20  C   UNL     1      42.114  63.804  25.095  1.00  0.00     0.000 C 
BRANCH  20  21
ATOM     21  C   UNL     1      42.247  62.293  25.314  1.00  0.00     0.000 C 
BRANCH  21  22
ATOM     22  C   UNL     1      42.954  61.994  26.644  1.00  0.00     0.000 C 
BRANCH  22  23
ATOM     23  C   UNL     1      44.341  61.353  26.459  1.00  0.00     0.000 C 
BRANCH  23  24
ATOM     24  C   UNL     1      45.379  62.235  25.734  1.00  0.00    -0.000 C 
BRANCH  24  25
ATOM     25  C   UNL     1      46.398  62.935  26.650  1.00  0.00    -0.000 C 
BRANCH  25  26
ATOM     26  C   UNL     1      47.613  63.546  25.925  1.00  0.00    -0.000 C 
BRANCH  26  27
ATOM     27  C   UNL     1      47.546  63.418  24.387  1.00  0.00    -0.000 C 
BRANCH  27  28
ATOM     28  C   UNL     1      48.818  63.940  23.696  1.00  0.00    -0.000 C 
BRANCH  28  29
ATOM     29  C   UNL     1      48.620  65.317  23.038  1.00  0.00    -0.000 C 
BRANCH  29  30
ATOM     30  C   UNL     1      49.711  65.727  22.028  1.00  0.00    -0.000 C 
BRANCH  30  31
ATOM     31  C   UNL     1      50.932  64.791  21.970  1.00  0.00    -0.003 C 
ATOM     32  C   UNL     1      51.100  64.115  20.611  1.00  0.00     0.004 C 
ENDBRANCH  30  31
ENDBRANCH  29  30
ENDBRANCH  28  29
ENDBRANCH  27  28
ENDBRANCH  26  27
ENDBRANCH  25  26
ENDBRANCH  24  25
ENDBRANCH  23  24
ENDBRANCH  22  23
ENDBRANCH  21  22
ENDBRANCH  20  21
ENDBRANCH  19  20
ENDBRANCH  18  19
ENDBRANCH   1  18
TORSDOF 28
ENDMDL
MODEL 3
REMARK VINA RESULT:    -2.350      4.362     11.615
REMARK INTER + INTRA:          -7.985
REMARK INTER:                  -5.680
REMARK INTRA:                  -2.305
REMARK UNBOUND:                -1.788
REMARK SMILES CCCCCCCCCCCCCCCCCCCCCCCCCCCCCC(=O)[O-]
REMARK SMILES IDX 16 1 17 2 18 3 19 4 20 5 21 6 22 7 23 8 24 9 25 10 26 11
REMARK SMILES IDX 27 12 28 13 29 14 30 15 31 16 32 17 15 18 14 19 13 20 12 21
REMARK SMILES IDX 11 22 10 23 9 24 8 25 7 26 6 27 5 28 4 29 3 30 2 31 1 32
REMARK H PARENT
REMARK Flexibility Score: inf
ROOT
ATOM      1  C   UNL     1      42.419  67.644  24.128  1.00  0.00     0.000 C 
ENDROOT
BRANCH   1   2
ATOM      2  C   UNL     1      41.507  67.890  25.340  1.00  0.00     0.000 C 
BRANCH   2   3
ATOM      3  C   UNL     1      41.150  66.599  26.100  1.00  0.00     0.000 C 
BRANCH   3   4
ATOM      4  C   UNL     1      41.327  65.293  25.299  1.00  0.00     0.000 C 
BRANCH   4   5
ATOM      5  C   UNL     1      42.092  64.173  26.030  1.00  0.00     0.000 C 
BRANCH   5   6
ATOM      6  C   UNL     1      42.501  62.981  25.143  1.00  0.00     0.000 C 
BRANCH   6   7
ATOM      7  C   UNL     1      42.875  61.696  25.910  1.00  0.00     0.000 C 
BRANCH   7   8
ATOM      8  C   UNL     1      44.202  61.767  26.693  1.00  0.00     0.000 C 
BRANCH   8   9
ATOM      9  C   UNL     1      45.408  62.293  25.888  1.00  0.00     0.000 C 
BRANCH   9  10
ATOM     10  C   UNL     1      46.419  63.120  26.702  1.00  0.00     0.000 C 
BRANCH  10  11
ATOM     11  C   UNL     1      47.704  63.430  25.917  1.00  0.00     0.000 C 
BRANCH  11  12
ATOM     12  C   UNL     1      47.460  63.520  24.402  1.00  0.00     0.000 C 
BRANCH  12  13
ATOM     13  C   UNL     1      48.740  63.866  23.622  1.00  0.00     0.006 C 
BRANCH  13  14
ATOM     14  C   UNL     1      48.658  65.249  22.962  1.00  0.00     0.053 C 
BRANCH  14  15
ATOM     15  C   UNL     1      49.850  65.531  22.097  1.00  0.00     0.041 C 
ATOM     16  O   UNL     1      50.313  66.700  22.019  1.00  0.00    -0.550 OA
ATOM     17  O   UNL     1      50.456  64.502  21.387  1.00  0.00    -0.550 OA
ENDBRANCH  14  15
ENDBRANCH  13  14
ENDBRANCH  12  13
ENDBRANCH  11  12
ENDBRANCH  10  11
ENDBRANCH   9  10
ENDBRANCH   8   9
ENDBRANCH   7   8
ENDBRANCH   6   7
ENDBRANCH   5   6
ENDBRANCH   4   5
ENDBRANCH   3   4
ENDBRANCH   2   3
ENDBRANCH   1   2
BRANCH   1  18
ATOM     18  C   UNL     1      41.704  67.857  22.782  1.00  0.00     0.000 C 
BRANCH  18  19
ATOM     19  C   UNL     1      41.455  66.556  21.992  1.00  0.00     0.000 C 
BRANCH  19  20
ATOM     20  C   UNL     1      40.000  66.074  22.103  1.00  0.00     0.000 C 
BRANCH  20  21
ATOM     21  C   UNL     1      39.088  67.185  22.635  1.00  0.00     0.000 C 
BRANCH  21  22
ATOM     22  C   UNL     1      38.420  66.759  23.951  1.00  0.00     0.000 C 
BRANCH  22  23
ATOM     23  C   UNL     1      37.472  67.830  24.521  1.00  0.00     0.000 C 
BRANCH  23  24
ATOM     24  C   UNL     1      36.959  67.556  25.950  1.00  0.00    -0.000 C 
BRANCH  24  25
ATOM     25  C   UNL     1      35.432  67.636  26.124  1.00  0.00    -0.000 C 
BRANCH  25  26
ATOM     26  C   UNL     1      34.631  66.588  25.325  1.00  0.00    -0.000 C 
BRANCH  26  27
ATOM     27  C   UNL     1      34.615  65.189  25.978  1.00  0.00    -0.000 C 
BRANCH  27  28
ATOM     28  C   UNL     1      34.956  65.232  27.478  1.00  0.00    -0.000 C 
BRANCH  28  29
ATOM     29  C   UNL     1      35.267  63.843  28.061  1.00  0.00    -0.000 C 
BRANCH  29  30
ATOM     30  C   UNL     1      34.266  62.731  27.685  1.00  0.00    -0.000 C 
BRANCH  30  31
ATOM     31  C   UNL     1      33.580  62.040  28.877  1.00  0.00    -0.003 C 
ATOM     32  C   UNL     1      32.390  61.179  28.461  1.00  0.00     0.004 C 
ENDBRANCH  30  31
ENDBRANCH  29  30
ENDBRANCH  28  29
ENDBRANCH  27  28
ENDBRANCH  26  27
ENDBRANCH  25  26
ENDBRANCH  24  25
ENDBRANCH  23  24
ENDBRANCH  22  23
ENDBRANCH  21  22
ENDBRANCH  20  21
ENDBRANCH  19  20
ENDBRANCH  18  19
ENDBRANCH   1  18
TORSDOF 28
ENDMDL
MODEL 4
REMARK VINA RESULT:    -2.179      4.826     10.144
REMARK INTER + INTRA:          -7.533
REMARK INTER:                  -6.920
REMARK INTRA:                  -0.612
REMARK UNBOUND:                -1.788
REMARK SMILES CCCCCCCCCCCCCCCCCCCCCCCCCCCCCC(=O)[O-]
REMARK SMILES IDX 16 1 17 2 18 3 19 4 20 5 21 6 22 7 23 8 24 9 25 10 26 11
REMARK SMILES IDX 27 12 28 13 29 14 30 15 31 16 32 17 15 18 14 19 13 20 12 21
REMARK SMILES IDX 11 22 10 23 9 24 8 25 7 26 6 27 5 28 4 29 3 30 2 31 1 32
REMARK H PARENT
REMARK Flexibility Score: inf
ROOT
ATOM      1  C   UNL     1      39.537  67.214  21.993  1.00  0.00     0.000 C 
ENDROOT
BRANCH   1   2
ATOM      2  C   UNL     1      39.125  66.416  23.240  1.00  0.00     0.000 C 
BRANCH   2   3
ATOM      3  C   UNL     1      38.546  67.301  24.360  1.00  0.00     0.000 C 
BRANCH   3   4
ATOM      4  C   UNL     1      39.101  67.023  25.772  1.00  0.00     0.000 C 
BRANCH   4   5
ATOM      5  C   UNL     1      40.633  67.133  25.907  1.00  0.00     0.000 C 
BRANCH   5   6
ATOM      6  C   UNL     1      41.380  65.785  25.927  1.00  0.00     0.000 C 
BRANCH   6   7
ATOM      7  C   UNL     1      41.425  65.047  24.574  1.00  0.00     0.000 C 
BRANCH   7   8
ATOM      8  C   UNL     1      42.127  63.673  24.605  1.00  0.00     0.000 C 
BRANCH   8   9
ATOM      9  C   UNL     1      42.499  63.160  26.011  1.00  0.00     0.000 C 
BRANCH   9  10
ATOM     10  C   UNL     1      42.649  61.633  26.125  1.00  0.00     0.000 C 
BRANCH  10  11
ATOM     11  C   UNL     1      44.117  61.176  26.115  1.00  0.00     0.000 C 
BRANCH  11  12
ATOM     12  C   UNL     1      45.100  62.357  26.133  1.00  0.00     0.000 C 
BRANCH  12  13
ATOM     13  C   UNL     1      46.124  62.285  24.987  1.00  0.00     0.006 C 
BRANCH  13  14
ATOM     14  C   UNL     1      47.391  63.096  25.292  1.00  0.00     0.053 C 
BRANCH  14  15
ATOM     15  C   UNL     1      47.543  63.372  26.758  1.00  0.00     0.041 C 
ATOM     16  O   UNL     1      46.611  63.931  27.397  1.00  0.00    -0.550 OA
ATOM     17  O   UNL     1      48.706  63.002  27.421  1.00  0.00    -0.550 OA
ENDBRANCH  14  15
ENDBRANCH  13  14
ENDBRANCH  12  13
ENDBRANCH  11  12
ENDBRANCH  10  11
ENDBRANCH   9  10
ENDBRANCH   8   9
ENDBRANCH   7   8
ENDBRANCH   6   7
ENDBRANCH   5   6
ENDBRANCH   4   5
ENDBRANCH   3   4
ENDBRANCH   2   3
ENDBRANCH   1   2
BRANCH   1  18
ATOM     18  C   UNL     1      40.877  66.751  21.397  1.00  0.00     0.000 C 
BRANCH  18  19
ATOM     19  C   UNL     1      42.092  67.004  22.314  1.00  0.00     0.000 C 
BRANCH  19  20
ATOM     20  C   UNL     1      41.921  68.266  23.173  1.00  0.00     0.000 C 
BRANCH  20  21
ATOM     21  C   UNL     1      43.256  68.704  23.785  1.00  0.00     0.000 C 
BRANCH  21  22
ATOM     22  C   UNL     1      43.069  69.942  24.674  1.00  0.00     0.000 C 
BRANCH  22  23
ATOM     23  C   UNL     1      44.318  70.841  24.730  1.00  0.00     0.000 C 
BRANCH  23  24
ATOM     24  C   UNL     1      44.040  72.333  25.007  1.00  0.00    -0.000 C 
BRANCH  24  25
ATOM     25  C   UNL     1      42.645  72.829  24.586  1.00  0.00    -0.000 C 
BRANCH  25  26
ATOM     26  C   UNL     1      41.843  73.533  25.697  1.00  0.00    -0.000 C 
BRANCH  26  27
ATOM     27  C   UNL     1      40.588  74.273  25.184  1.00  0.00    -0.000 C 
BRANCH  27  28
ATOM     28  C   UNL     1      40.333  74.034  23.686  1.00  0.00    -0.000 C 
BRANCH  28  29
ATOM     29  C   UNL     1      39.103  74.795  23.160  1.00  0.00    -0.000 C 
BRANCH  29  30
ATOM     30  C   UNL     1      37.969  73.909  22.604  1.00  0.00    -0.000 C 
BRANCH  30  31
ATOM     31  C   UNL     1      36.721  74.671  22.124  1.00  0.00    -0.003 C 
ATOM     32  C   UNL     1      37.036  75.713  21.053  1.00  0.00     0.004 C 
ENDBRANCH  30  31
ENDBRANCH  29  30
ENDBRANCH  28  29
ENDBRANCH  27  28
ENDBRANCH  26  27
ENDBRANCH  25  26
ENDBRANCH  24  25
ENDBRANCH  23  24
ENDBRANCH  22  23
ENDBRANCH  21  22
ENDBRANCH  20  21
ENDBRANCH  19  20
ENDBRANCH  18  19
ENDBRANCH   1  18
TORSDOF 28
ENDMDL
MODEL 5
REMARK VINA RESULT:    -2.092      4.360     11.285
REMARK INTER + INTRA:          -7.303
REMARK INTER:                  -5.402
REMARK INTRA:                  -1.901
REMARK UNBOUND:                -1.788
REMARK SMILES CCCCCCCCCCCCCCCCCCCCCCCCCCCCCC(=O)[O-]
REMARK SMILES IDX 16 1 17 2 18 3 19 4 20 5 21 6 22 7 23 8 24 9 25 10 26 11
REMARK SMILES IDX 27 12 28 13 29 14 30 15 31 16 32 17 15 18 14 19 13 20 12 21
REMARK SMILES IDX 11 22 10 23 9 24 8 25 7 26 6 27 5 28 4 29 3 30 2 31 1 32
REMARK H PARENT
REMARK Flexibility Score: inf
ROOT
ATOM      1  C   UNL     1      40.266  66.136  21.735  1.00  0.00     0.000 C 
ENDROOT
BRANCH   1   2
ATOM      2  C   UNL     1      41.193  64.949  22.038  1.00  0.00     0.000 C 
BRANCH   2   3
ATOM      3  C   UNL     1      40.908  64.293  23.402  1.00  0.00     0.000 C 
BRANCH   3   4
ATOM      4  C   UNL     1      42.076  64.330  24.409  1.00  0.00     0.000 C 
BRANCH   4   5
ATOM      5  C   UNL     1      41.921  63.400  25.628  1.00  0.00     0.000 C 
BRANCH   5   6
ATOM      6  C   UNL     1      42.539  61.999  25.457  1.00  0.00     0.000 C 
BRANCH   6   7
ATOM      7  C   UNL     1      43.080  61.363  26.753  1.00  0.00     0.000 C 
BRANCH   7   8
ATOM      8  C   UNL     1      44.615  61.397  26.905  1.00  0.00     0.000 C 
BRANCH   8   9
ATOM      9  C   UNL     1      45.347  62.344  25.932  1.00  0.00     0.000 C 
BRANCH   9  10
ATOM     10  C   UNL     1      46.421  63.235  26.580  1.00  0.00     0.000 C 
BRANCH  10  11
ATOM     11  C   UNL     1      47.733  63.264  25.780  1.00  0.00     0.000 C 
BRANCH  11  12
ATOM     12  C   UNL     1      47.515  63.646  24.307  1.00  0.00     0.000 C 
BRANCH  12  13
ATOM     13  C   UNL     1      48.829  64.020  23.598  1.00  0.00     0.006 C 
BRANCH  13  14
ATOM     14  C   UNL     1      48.715  65.345  22.833  1.00  0.00     0.053 C 
BRANCH  14  15
ATOM     15  C   UNL     1      49.906  65.592  21.956  1.00  0.00     0.041 C 
ATOM     16  O   UNL     1      50.278  64.714  21.131  1.00  0.00    -0.550 OA
ATOM     17  O   UNL     1      50.597  66.794  22.038  1.00  0.00    -0.550 OA
ENDBRANCH  14  15
ENDBRANCH  13  14
ENDBRANCH  12  13
ENDBRANCH  11  12
ENDBRANCH  10  11
ENDBRANCH   9  10
ENDBRANCH   8   9
ENDBRANCH   7   8
ENDBRANCH   6   7
ENDBRANCH   5   6
ENDBRANCH   4   5
ENDBRANCH   3   4
ENDBRANCH   2   3
ENDBRANCH   1   2
BRANCH   1  18
ATOM     18  C   UNL     1      40.972  67.498  21.856  1.00  0.00     0.000 C 
BRANCH  18  19
ATOM     19  C   UNL     1      42.122  67.518  22.885  1.00  0.00     0.000 C 
BRANCH  19  20
ATOM     20  C   UNL     1      42.021  68.710  23.850  1.00  0.00     0.000 C 
BRANCH  20  21
ATOM     21  C   UNL     1      42.046  68.244  25.310  1.00  0.00     0.000 C 
BRANCH  21  22
ATOM     22  C   UNL     1      41.248  66.943  25.482  1.00  0.00     0.000 C 
BRANCH  22  23
ATOM     23  C   UNL     1      39.752  67.184  25.757  1.00  0.00     0.000 C 
BRANCH  23  24
ATOM     24  C   UNL     1      38.804  66.803  24.601  1.00  0.00    -0.000 C 
BRANCH  24  25
ATOM     25  C   UNL     1      37.455  67.544  24.588  1.00  0.00    -0.000 C 
BRANCH  25  26
ATOM     26  C   UNL     1      36.864  67.840  25.980  1.00  0.00    -0.000 C 
BRANCH  26  27
ATOM     27  C   UNL     1      35.322  67.763  26.030  1.00  0.00    -0.000 C 
BRANCH  27  28
ATOM     28  C   UNL     1      34.789  66.367  25.664  1.00  0.00    -0.000 C 
BRANCH  28  29
ATOM     29  C   UNL     1      34.714  65.419  26.874  1.00  0.00    -0.000 C 
BRANCH  29  30
ATOM     30  C   UNL     1      34.696  63.915  26.531  1.00  0.00    -0.000 C 
BRANCH  30  31
ATOM     31  C   UNL     1      35.063  62.976  27.694  1.00  0.00    -0.003 C 
ATOM     32  C   UNL     1      33.896  62.724  28.646  1.00  0.00     0.004 C 
ENDBRANCH  30  31
ENDBRANCH  29  30
ENDBRANCH  28  29
ENDBRANCH  27  28
ENDBRANCH  26  27
ENDBRANCH  25  26
ENDBRANCH  24  25
ENDBRANCH  23  24
ENDBRANCH  22  23
ENDBRANCH  21  22
ENDBRANCH  20  21
ENDBRANCH  19  20
ENDBRANCH  18  19
ENDBRANCH   1  18
TORSDOF 28
ENDMDL
MODEL 6
REMARK VINA RESULT:    -2.031      4.096      8.698
REMARK INTER + INTRA:          -7.143
REMARK INTER:                  -6.347
REMARK INTRA:                  -0.796
REMARK UNBOUND:                -1.788
REMARK SMILES CCCCCCCCCCCCCCCCCCCCCCCCCCCCCC(=O)[O-]
REMARK SMILES IDX 16 1 17 2 18 3 19 4 20 5 21 6 22 7 23 8 24 9 25 10 26 11
REMARK SMILES IDX 27 12 28 13 29 14 30 15 31 16 32 17 15 18 14 19 13 20 12 21
REMARK SMILES IDX 11 22 10 23 9 24 8 25 7 26 6 27 5 28 4 29 3 30 2 31 1 32
REMARK H PARENT
REMARK Flexibility Score: inf
ROOT
ATOM      1  C   UNL     1      41.744  67.120  21.722  1.00  0.00     0.000 C 
ENDROOT
BRANCH   1   2
ATOM      2  C   UNL     1      40.639  66.058  21.613  1.00  0.00     0.000 C 
BRANCH   2   3
ATOM      3  C   UNL     1      40.478  65.220  22.895  1.00  0.00     0.000 C 
BRANCH   3   4
ATOM      4  C   UNL     1      41.765  65.027  23.722  1.00  0.00     0.000 C 
BRANCH   4   5
ATOM      5  C   UNL     1      41.546  64.564  25.176  1.00  0.00     0.000 C 
BRANCH   5   6
ATOM      6  C   UNL     1      41.416  65.704  26.206  1.00  0.00     0.000 C 
BRANCH   6   7
ATOM      7  C   UNL     1      40.720  66.977  25.684  1.00  0.00     0.000 C 
BRANCH   7   8
ATOM      8  C   UNL     1      39.179  66.948  25.741  1.00  0.00     0.000 C 
BRANCH   8   9
ATOM      9  C   UNL     1      38.470  67.331  24.426  1.00  0.00     0.000 C 
BRANCH   9  10
ATOM     10  C   UNL     1      36.966  67.627  24.564  1.00  0.00     0.000 C 
BRANCH  10  11
ATOM     11  C   UNL     1      36.549  67.933  26.011  1.00  0.00     0.000 C 
BRANCH  11  12
ATOM     12  C   UNL     1      35.102  67.509  26.308  1.00  0.00     0.000 C 
BRANCH  12  13
ATOM     13  C   UNL     1      34.860  66.015  26.032  1.00  0.00     0.006 C 
BRANCH  13  14
ATOM     14  C   UNL     1      35.016  65.161  27.297  1.00  0.00     0.053 C 
BRANCH  14  15
ATOM     15  C   UNL     1      34.786  63.704  27.024  1.00  0.00     0.041 C 
ATOM     16  O   UNL     1      34.296  63.336  25.923  1.00  0.00    -0.550 OA
ATOM     17  O   UNL     1      35.123  62.754  27.979  1.00  0.00    -0.550 OA
ENDBRANCH  14  15
ENDBRANCH  13  14
ENDBRANCH  12  13
ENDBRANCH  11  12
ENDBRANCH  10  11
ENDBRANCH   9  10
ENDBRANCH   8   9
ENDBRANCH   7   8
ENDBRANCH   6   7
ENDBRANCH   5   6
ENDBRANCH   4   5
ENDBRANCH   3   4
ENDBRANCH   2   3
ENDBRANCH   1   2
BRANCH   1  18
ATOM     18  C   UNL     1      41.688  67.916  23.037  1.00  0.00     0.000 C 
BRANCH  18  19
ATOM     19  C   UNL     1      43.016  68.608  23.408  1.00  0.00     0.000 C 
BRANCH  19  20
ATOM     20  C   UNL     1      42.927  69.365  24.743  1.00  0.00     0.000 C 
BRANCH  20  21
ATOM     21  C   UNL     1      44.241  70.086  25.060  1.00  0.00     0.000 C 
BRANCH  21  22
ATOM     22  C   UNL     1      44.339  71.409  24.287  1.00  0.00     0.000 C 
BRANCH  22  23
ATOM     23  C   UNL     1      43.722  72.598  25.046  1.00  0.00     0.000 C 
BRANCH  23  24
ATOM     24  C   UNL     1      42.344  73.062  24.529  1.00  0.00    -0.000 C 
BRANCH  24  25
ATOM     25  C   UNL     1      41.499  73.858  25.539  1.00  0.00    -0.000 C 
BRANCH  25  26
ATOM     26  C   UNL     1      40.193  74.448  24.971  1.00  0.00    -0.000 C 
BRANCH  26  27
ATOM     27  C   UNL     1      40.032  74.249  23.448  1.00  0.00    -0.000 C 
BRANCH  27  28
ATOM     28  C   UNL     1      38.807  74.987  22.883  1.00  0.00    -0.000 C 
BRANCH  28  29
ATOM     29  C   UNL     1      37.717  74.031  22.367  1.00  0.00    -0.000 C 
BRANCH  29  30
ATOM     30  C   UNL     1      36.382  74.701  21.983  1.00  0.00    -0.000 C 
BRANCH  30  31
ATOM     31  C   UNL     1      36.513  76.066  21.284  1.00  0.00    -0.003 C 
ATOM     32  C   UNL     1      37.688  76.125  20.310  1.00  0.00     0.004 C 
ENDBRANCH  30  31
ENDBRANCH  29  30
ENDBRANCH  28  29
ENDBRANCH  27  28
ENDBRANCH  26  27
ENDBRANCH  25  26
ENDBRANCH  24  25
ENDBRANCH  23  24
ENDBRANCH  22  23
ENDBRANCH  21  22
ENDBRANCH  20  21
ENDBRANCH  19  20
ENDBRANCH  18  19
ENDBRANCH   1  18
TORSDOF 28
ENDMDL
MODEL 7
REMARK VINA RESULT:    -1.381      3.756      6.764
REMARK INTER + INTRA:          -5.428
REMARK INTER:                  -4.761
REMARK INTRA:                  -0.667
REMARK UNBOUND:                -1.788
REMARK SMILES CCCCCCCCCCCCCCCCCCCCCCCCCCCCCC(=O)[O-]
REMARK SMILES IDX 16 1 17 2 18 3 19 4 20 5 21 6 22 7 23 8 24 9 25 10 26 11
REMARK SMILES IDX 27 12 28 13 29 14 30 15 31 16 32 17 15 18 14 19 13 20 12 21
REMARK SMILES IDX 11 22 10 23 9 24 8 25 7 26 6 27 5 28 4 29 3 30 2 31 1 32
REMARK H PARENT
REMARK Flexibility Score: inf
ROOT
ATOM      1  C   UNL     1      41.387  63.224  23.948  1.00  0.00     0.000 C 
ENDROOT
BRANCH   1   2
ATOM      2  C   UNL     1      42.213  63.219  25.244  1.00  0.00     0.000 C 
BRANCH   2   3
ATOM      3  C   UNL     1      41.961  64.456  26.127  1.00  0.00     0.000 C 
BRANCH   3   4
ATOM      4  C   UNL     1      41.567  65.738  25.367  1.00  0.00     0.000 C 
BRANCH   4   5
ATOM      5  C   UNL     1      41.048  66.890  26.249  1.00  0.00     0.000 C 
BRANCH   5   6
ATOM      6  C   UNL     1      39.525  67.122  26.183  1.00  0.00     0.000 C 
BRANCH   6   7
ATOM      7  C   UNL     1      38.945  67.230  24.759  1.00  0.00     0.000 C 
BRANCH   7   8
ATOM      8  C   UNL     1      37.405  67.181  24.677  1.00  0.00     0.000 C 
BRANCH   8   9
ATOM      9  C   UNL     1      36.666  67.786  25.888  1.00  0.00     0.000 C 
BRANCH   9  10
ATOM     10  C   UNL     1      35.133  67.656  25.843  1.00  0.00     0.000 C 
BRANCH  10  11
ATOM     11  C   UNL     1      34.665  66.213  25.596  1.00  0.00     0.000 C 
BRANCH  11  12
ATOM     12  C   UNL     1      34.760  65.340  26.857  1.00  0.00     0.000 C 
BRANCH  12  13
ATOM     13  C   UNL     1      34.594  63.842  26.546  1.00  0.00     0.006 C 
BRANCH  13  14
ATOM     14  C   UNL     1      35.023  62.957  27.724  1.00  0.00     0.053 C 
BRANCH  14  15
ATOM     15  C   UNL     1      33.880  62.658  28.649  1.00  0.00     0.041 C 
ATOM     16  O   UNL     1      33.681  63.380  29.662  1.00  0.00    -0.550 OA
ATOM     17  O   UNL     1      33.029  61.593  28.385  1.00  0.00    -0.550 OA
ENDBRANCH  14  15
ENDBRANCH  13  14
ENDBRANCH  12  13
ENDBRANCH  11  12
ENDBRANCH  10  11
ENDBRANCH   9  10
ENDBRANCH   8   9
ENDBRANCH   7   8
ENDBRANCH   6   7
ENDBRANCH   5   6
ENDBRANCH   4   5
ENDBRANCH   3   4
ENDBRANCH   2   3
ENDBRANCH   1   2
BRANCH   1  18
ATOM     18  C   UNL     1      41.377  64.593  23.246  1.00  0.00     0.000 C 
BRANCH  18  19
ATOM     19  C   UNL     1      40.107  64.861  22.413  1.00  0.00     0.000 C 
BRANCH  19  20
ATOM     20  C   UNL     1      40.404  65.666  21.138  1.00  0.00     0.000 C 
BRANCH  20  21
ATOM     21  C   UNL     1      40.640  67.146  21.459  1.00  0.00     0.000 C 
BRANCH  21  22
ATOM     22  C   UNL     1      41.975  67.338  22.194  1.00  0.00     0.000 C 
BRANCH  22  23
ATOM     23  C   UNL     1      41.897  68.384  23.322  1.00  0.00     0.000 C 
BRANCH  23  24
ATOM     24  C   UNL     1      43.232  68.672  24.040  1.00  0.00    -0.000 C 
BRANCH  24  25
ATOM     25  C   UNL     1      43.255  69.955  24.890  1.00  0.00    -0.000 C 
BRANCH  25  26
ATOM     26  C   UNL     1      44.563  70.766  24.808  1.00  0.00    -0.000 C 
BRANCH  26  27
ATOM     27  C   UNL     1      44.343  72.282  24.610  1.00  0.00    -0.000 C 
BRANCH  27  28
ATOM     28  C   UNL     1      42.971  72.752  25.122  1.00  0.00    -0.000 C 
BRANCH  28  29
ATOM     29  C   UNL     1      42.142  73.467  24.040  1.00  0.00    -0.000 C 
BRANCH  29  30
ATOM     30  C   UNL     1      40.930  74.266  24.562  1.00  0.00    -0.000 C 
BRANCH  30  31
ATOM     31  C   UNL     1      40.744  74.247  26.089  1.00  0.00    -0.003 C 
ATOM     32  C   UNL     1      41.037  75.597  26.741  1.00  0.00     0.004 C 
ENDBRANCH  30  31
ENDBRANCH  29  30
ENDBRANCH  28  29
ENDBRANCH  27  28
ENDBRANCH  26  27
ENDBRANCH  25  26
ENDBRANCH  24  25
ENDBRANCH  23  24
ENDBRANCH  22  23
ENDBRANCH  21  22
ENDBRANCH  20  21
ENDBRANCH  19  20
ENDBRANCH  18  19
ENDBRANCH   1  18
TORSDOF 28
ENDMDL
MODEL 8
REMARK VINA RESULT:    -1.325      4.803      9.903
REMARK INTER + INTRA:          -5.280
REMARK INTER:                  -5.844
REMARK INTRA:                   0.563
REMARK UNBOUND:                -1.788
REMARK SMILES CCCCCCCCCCCCCCCCCCCCCCCCCCCCCC(=O)[O-]
REMARK SMILES IDX 16 1 17 2 18 3 19 4 20 5 21 6 22 7 23 8 24 9 25 10 26 11
REMARK SMILES IDX 27 12 28 13 29 14 30 15 31 16 32 17 15 18 14 19 13 20 12 21
REMARK SMILES IDX 11 22 10 23 9 24 8 25 7 26 6 27 5 28 4 29 3 30 2 31 1 32
REMARK H PARENT
REMARK Flexibility Score: inf
ROOT
ATOM      1  C   UNL     1      39.136  66.685  23.434  1.00  0.00     0.000 C 
ENDROOT
BRANCH   1   2
ATOM      2  C   UNL     1      39.810  67.052  22.103  1.00  0.00     0.000 C 
BRANCH   2   3
ATOM      3  C   UNL     1      40.999  66.137  21.755  1.00  0.00     0.000 C 
BRANCH   3   4
ATOM      4  C   UNL     1      41.007  64.768  22.465  1.00  0.00     0.000 C 
BRANCH   4   5
ATOM      5  C   UNL     1      41.758  64.731  23.810  1.00  0.00     0.000 C 
BRANCH   5   6
ATOM      6  C   UNL     1      41.762  63.360  24.513  1.00  0.00     0.000 C 
BRANCH   6   7
ATOM      7  C   UNL     1      42.692  63.259  25.739  1.00  0.00     0.000 C 
BRANCH   7   8
ATOM      8  C   UNL     1      43.511  61.955  25.832  1.00  0.00     0.000 C 
BRANCH   8   9
ATOM      9  C   UNL     1      45.023  62.114  25.573  1.00  0.00     0.000 C 
BRANCH   9  10
ATOM     10  C   UNL     1      45.817  62.741  26.733  1.00  0.00     0.000 C 
BRANCH  10  11
ATOM     11  C   UNL     1      47.184  63.289  26.292  1.00  0.00     0.000 C 
BRANCH  11  12
ATOM     12  C   UNL     1      47.457  63.054  24.798  1.00  0.00     0.000 C 
BRANCH  12  13
ATOM     13  C   UNL     1      48.126  64.266  24.127  1.00  0.00     0.006 C 
BRANCH  13  14
ATOM     14  C   UNL     1      49.128  63.847  23.044  1.00  0.00     0.053 C 
BRANCH  14  15
ATOM     15  C   UNL     1      49.655  65.024  22.279  1.00  0.00     0.041 C 
ATOM     16  O   UNL     1      49.138  66.162  22.433  1.00  0.00    -0.550 OA
ATOM     17  O   UNL     1      50.724  64.867  21.406  1.00  0.00    -0.550 OA
ENDBRANCH  14  15
ENDBRANCH  13  14
ENDBRANCH  12  13
ENDBRANCH  11  12
ENDBRANCH  10  11
ENDBRANCH   9  10
ENDBRANCH   8   9
ENDBRANCH   7   8
ENDBRANCH   6   7
ENDBRANCH   5   6
ENDBRANCH   4   5
ENDBRANCH   3   4
ENDBRANCH   2   3
ENDBRANCH   1   2
BRANCH   1  18
ATOM     18  C   UNL     1      37.800  67.415  23.655  1.00  0.00     0.000 C 
BRANCH  18  19
ATOM     19  C   UNL     1      37.518  67.773  25.129  1.00  0.00     0.000 C 
BRANCH  19  20
ATOM     20  C   UNL     1      38.526  67.124  26.090  1.00  0.00     0.000 C 
BRANCH  20  21
ATOM     21  C   UNL     1      39.813  66.728  25.359  1.00  0.00     0.000 C 
BRANCH  21  22
ATOM     22  C   UNL     1      41.046  67.007  26.232  1.00  0.00     0.000 C 
BRANCH  22  23
ATOM     23  C   UNL     1      41.846  68.238  25.769  1.00  0.00     0.000 C 
BRANCH  23  24
ATOM     24  C   UNL     1      42.234  68.244  24.276  1.00  0.00    -0.000 C 
BRANCH  24  25
ATOM     25  C   UNL     1      43.273  69.306  23.872  1.00  0.00    -0.000 C 
BRANCH  25  26
ATOM     26  C   UNL     1      43.837  70.139  25.039  1.00  0.00    -0.000 C 
BRANCH  26  27
ATOM     27  C   UNL     1      44.416  71.504  24.606  1.00  0.00    -0.000 C 
BRANCH  27  28
ATOM     28  C   UNL     1      43.540  72.686  25.054  1.00  0.00    -0.000 C 
BRANCH  28  29
ATOM     29  C   UNL     1      42.514  73.109  23.987  1.00  0.00    -0.000 C 
BRANCH  29  30
ATOM     30  C   UNL     1      41.360  73.996  24.499  1.00  0.00    -0.000 C 
BRANCH  30  31
ATOM     31  C   UNL     1      41.086  73.902  26.011  1.00  0.00    -0.003 C 
ATOM     32  C   UNL     1      40.988  75.270  26.683  1.00  0.00     0.004 C 
ENDBRANCH  30  31
ENDBRANCH  29  30
ENDBRANCH  28  29
ENDBRANCH  27  28
ENDBRANCH  26  27
ENDBRANCH  25  26
ENDBRANCH  24  25
ENDBRANCH  23  24
ENDBRANCH  22  23
ENDBRANCH  21  22
ENDBRANCH  20  21
ENDBRANCH  19  20
ENDBRANCH  18  19
ENDBRANCH   1  18
TORSDOF 28
ENDMDL
MODEL 9
REMARK VINA RESULT:    -1.259      5.025     10.553
REMARK INTER + INTRA:          -5.107
REMARK INTER:                  -5.378
REMARK INTRA:                   0.271
REMARK UNBOUND:                -1.788
REMARK SMILES CCCCCCCCCCCCCCCCCCCCCCCCCCCCCC(=O)[O-]
REMARK SMILES IDX 16 1 17 2 18 3 19 4 20 5 21 6 22 7 23 8 24 9 25 10 26 11
REMARK SMILES IDX 27 12 28 13 29 14 30 15 31 16 32 17 15 18 14 19 13 20 12 21
REMARK SMILES IDX 11 22 10 23 9 24 8 25 7 26 6 27 5 28 4 29 3 30 2 31 1 32
REMARK H PARENT
REMARK Flexibility Score: inf
ROOT
ATOM      1  C   UNL     1      42.121  64.539  26.104  1.00  0.00     0.000 C 
ENDROOT
BRANCH   1   2
ATOM      2  C   UNL     1      42.156  63.261  25.252  1.00  0.00     0.000 C 
BRANCH   2   3
ATOM      3  C   UNL     1      41.445  63.421  23.895  1.00  0.00     0.000 C 
BRANCH   3   4
ATOM      4  C   UNL     1      41.351  64.866  23.366  1.00  0.00     0.000 C 
BRANCH   4   5
ATOM      5  C   UNL     1      41.190  64.997  21.839  1.00  0.00     0.000 C 
BRANCH   5   6
ATOM      6  C   UNL     1      40.354  66.207  21.376  1.00  0.00     0.000 C 
BRANCH   6   7
ATOM      7  C   UNL     1      40.696  67.539  22.073  1.00  0.00     0.000 C 
BRANCH   7   8
ATOM      8  C   UNL     1      42.063  67.570  22.786  1.00  0.00     0.000 C 
BRANCH   8   9
ATOM      9  C   UNL     1      42.205  68.647  23.881  1.00  0.00     0.000 C 
BRANCH   9  10
ATOM     10  C   UNL     1      43.568  69.361  23.916  1.00  0.00     0.000 C 
BRANCH  10  11
ATOM     11  C   UNL     1      43.691  70.352  25.085  1.00  0.00     0.000 C 
BRANCH  11  12
ATOM     12  C   UNL     1      44.292  71.698  24.653  1.00  0.00     0.000 C 
BRANCH  12  13
ATOM     13  C   UNL     1      43.214  72.763  24.385  1.00  0.00     0.006 C 
BRANCH  13  14
ATOM     14  C   UNL     1      42.406  73.096  25.646  1.00  0.00     0.053 C 
BRANCH  14  15
ATOM     15  C   UNL     1      41.264  74.024  25.354  1.00  0.00     0.041 C 
ATOM     16  O   UNL     1      40.759  74.061  24.201  1.00  0.00    -0.550 OA
ATOM     17  O   UNL     1      40.751  74.836  26.357  1.00  0.00    -0.550 OA
ENDBRANCH  14  15
ENDBRANCH  13  14
ENDBRANCH  12  13
ENDBRANCH  11  12
ENDBRANCH  10  11
ENDBRANCH   9  10
ENDBRANCH   8   9
ENDBRANCH   7   8
ENDBRANCH   6   7
ENDBRANCH   5   6
ENDBRANCH   4   5
ENDBRANCH   3   4
ENDBRANCH   2   3
ENDBRANCH   1   2
BRANCH   1  18
ATOM     18  C   UNL     1      41.393  65.705  25.413  1.00  0.00     0.000 C 
BRANCH  18  19
ATOM     19  C   UNL     1      40.895  66.796  26.384  1.00  0.00     0.000 C 
BRANCH  19  20
ATOM     20  C   UNL     1      39.402  67.109  26.194  1.00  0.00     0.000 C 
BRANCH  20  21
ATOM     21  C   UNL     1      38.972  66.895  24.739  1.00  0.00     0.000 C 
BRANCH  21  22
ATOM     22  C   UNL     1      37.564  67.461  24.498  1.00  0.00     0.000 C 
BRANCH  22  23
ATOM     23  C   UNL     1      36.831  67.832  25.800  1.00  0.00     0.000 C 
BRANCH  23  24
ATOM     24  C   UNL     1      35.291  67.823  25.710  1.00  0.00    -0.000 C 
BRANCH  24  25
ATOM     25  C   UNL     1      34.607  66.586  26.319  1.00  0.00    -0.000 C 
BRANCH  25  26
ATOM     26  C   UNL     1      34.299  65.455  25.319  1.00  0.00    -0.000 C 
BRANCH  26  27
ATOM     27  C   UNL     1      34.495  64.039  25.903  1.00  0.00    -0.000 C 
BRANCH  27  28
ATOM     28  C   UNL     1      34.985  64.064  27.361  1.00  0.00    -0.000 C 
BRANCH  28  29
ATOM     29  C   UNL     1      34.905  62.686  28.042  1.00  0.00    -0.000 C 
BRANCH  29  30
ATOM     30  C   UNL     1      33.747  62.515  29.047  1.00  0.00    -0.000 C 
BRANCH  30  31
ATOM     31  C   UNL     1      33.109  61.115  29.076  1.00  0.00    -0.003 C 
ATOM     32  C   UNL     1      31.991  60.949  28.049  1.00  0.00     0.004 C 
ENDBRANCH  30  31
ENDBRANCH  29  30
ENDBRANCH  28  29
ENDBRANCH  27  28
ENDBRANCH  26  27
ENDBRANCH  25  26
ENDBRANCH  24  25
ENDBRANCH  23  24
ENDBRANCH  22  23
ENDBRANCH  21  22
ENDBRANCH  20  21
ENDBRANCH  19  20
ENDBRANCH  18  19
ENDBRANCH   1  18
TORSDOF 28
ENDMDL
