MODEL 1
REMARK VINA RESULT:    -5.757      0.000      0.000
REMARK INTER + INTRA:          -9.790
REMARK INTER:                  -8.281
REMARK INTRA:                  -1.509
REMARK UNBOUND:                -1.509
REMARK SMILES O=c1c(O[C@H]2O[C@H](CO)[C@@H](O)[C@@H](O)[C@@H]2O)c(-c2ccc(O)cc2)oc2cc(O)cc(O)c12
REMARK SMILES IDX 4 1 3 2 16 3 24 4 2 5 25 6 1 7 32 8 26 9 30 10 27 11 29 12
REMARK SMILES IDX 17 13 18 14 19 15 20 16 23 17 22 18 21 19 31 21 28 23 5 25
REMARK SMILES IDX 14 26 6 27 12 28 7 29 10 30 15 31 13 33 8 35 9 36 11 38
REMARK H PARENT 21 20 31 22 28 24 15 32 13 34 9 37 11 39
REMARK Flexibility Score: inf
ROOT
ATOM      1  O   UNL     1      11.939   0.623  -0.130  1.00  0.00    -0.454 OA
ENDROOT
BRANCH   1   2
ATOM      2  C   UNL     1      13.236   1.122  -0.383  1.00  0.00     0.214 A 
ATOM      3  C   UNL     1      13.811   2.221   0.294  1.00  0.00     0.180 A 
ATOM      4  O   UNL     1      15.097   2.502   0.123  1.00  0.00    -0.452 OA
ATOM      5  C   UNL     1      14.003   0.475  -1.363  1.00  0.00     0.239 A 
ATOM      6  C   UNL     1      15.877   1.864  -0.738  1.00  0.00     0.146 A 
ATOM      7  O   UNL     1      13.479  -0.468  -2.010  1.00  0.00    -0.285 OA
ATOM      8  C   UNL     1      15.350   0.852  -1.579  1.00  0.00     0.111 A 
ATOM      9  C   UNL     1      17.226   2.218  -0.811  1.00  0.00     0.094 A 
ATOM     10  C   UNL     1      16.211   0.255  -2.547  1.00  0.00     0.134 A 
ATOM     11  C   UNL     1      18.075   1.580  -1.715  1.00  0.00     0.123 A 
ATOM     12  C   UNL     1      17.566   0.602  -2.573  1.00  0.00     0.093 A 
BRANCH   3  13
ATOM     13  C   UNL     1      13.042   3.130   1.156  1.00  0.00     0.021 A 
ATOM     14  C   UNL     1      12.977   2.906   2.541  1.00  0.00     0.016 A 
ATOM     15  C   UNL     1      12.207   3.745   3.354  1.00  0.00     0.047 A 
ATOM     16  C   UNL     1      11.479   4.798   2.788  1.00  0.00     0.115 A 
ATOM     17  C   UNL     1      12.289   4.170   0.587  1.00  0.00     0.016 A 
ATOM     18  C   UNL     1      11.522   5.008   1.403  1.00  0.00     0.047 A 
BRANCH  16  19
ATOM     19  O   UNL     1      10.715   5.625   3.607  1.00  0.00    -0.508 OA
ATOM     20  H   UNL     1      11.080   5.993   4.478  1.00  0.00     0.293 HD
ENDBRANCH  16  19
ENDBRANCH   3  13
BRANCH  10  21
ATOM     21  O   UNL     1      15.776  -0.653  -3.517  1.00  0.00    -0.507 OA
ATOM     22  H   UNL     1      15.543  -0.400  -4.465  1.00  0.00     0.293 HD
ENDBRANCH  10  21
BRANCH  11  23
ATOM     23  O   UNL     1      19.422   1.935  -1.759  1.00  0.00    -0.508 OA
ATOM     24  H   UNL     1      19.718   2.843  -2.095  1.00  0.00     0.293 HD
ENDBRANCH  11  23
ENDBRANCH   1   2
BRANCH   1  25
ATOM     25  C   UNL     1      10.755   0.858  -0.910  1.00  0.00     0.339 C 
ATOM     26  C   UNL     1       9.765   1.834  -0.239  1.00  0.00     0.214 C 
ATOM     27  O   UNL     1      10.160  -0.382  -1.263  1.00  0.00    -0.332 OA
ATOM     28  C   UNL     1       9.065   1.210   0.996  1.00  0.00     0.180 C 
ATOM     29  C   UNL     1       9.317  -0.985  -0.282  1.00  0.00     0.179 C 
ATOM     30  C   UNL     1       9.292  -0.313   1.117  1.00  0.00     0.177 C 
BRANCH  26  31
ATOM     31  O   UNL     1       8.804   2.212  -1.194  1.00  0.00    -0.384 OA
ATOM     32  H   UNL     1       7.928   2.265  -0.724  1.00  0.00     0.211 HD
ENDBRANCH  26  31
BRANCH  28  33
ATOM     33  O   UNL     1       9.422   1.878   2.183  1.00  0.00    -0.387 OA
ATOM     34  H   UNL     1       8.608   2.322   2.539  1.00  0.00     0.211 HD
ENDBRANCH  28  33
BRANCH  29  35
ATOM     35  C   UNL     1       7.900  -1.120  -0.862  1.00  0.00     0.191 C 
BRANCH  35  36
ATOM     36  O   UNL     1       7.875  -0.611  -2.168  1.00  0.00    -0.394 OA
ATOM     37  H   UNL     1       8.740  -0.870  -2.580  1.00  0.00     0.210 HD
ENDBRANCH  35  36
ENDBRANCH  29  35
BRANCH  30  38
ATOM     38  O   UNL     1      10.490  -0.609   1.788  1.00  0.00    -0.387 OA
ATOM     39  H   UNL     1      10.425  -0.210   2.697  1.00  0.00     0.211 HD
ENDBRANCH  30  38
ENDBRANCH   1  25
TORSDOF 11
ENDMDL
MODEL 2
REMARK VINA RESULT:    -5.732      2.666      6.650
REMARK INTER + INTRA:          -9.755
REMARK INTER:                  -8.027
REMARK INTRA:                  -1.728
REMARK UNBOUND:                -1.509
REMARK SMILES O=c1c(O[C@H]2O[C@H](CO)[C@@H](O)[C@@H](O)[C@@H]2O)c(-c2ccc(O)cc2)oc2cc(O)cc(O)c12
REMARK SMILES IDX 4 1 3 2 16 3 24 4 2 5 25 6 1 7 32 8 26 9 30 10 27 11 29 12
REMARK SMILES IDX 17 13 18 14 19 15 20 16 23 17 22 18 21 19 31 21 28 23 5 25
REMARK SMILES IDX 14 26 6 27 12 28 7 29 10 30 15 31 13 33 8 35 9 36 11 38
REMARK H PARENT 21 20 31 22 28 24 15 32 13 34 9 37 11 39
REMARK Flexibility Score: inf
ROOT
ATOM      1  O   UNL     1      11.609   1.472   0.050  1.00  0.00    -0.454 OA
ENDROOT
BRANCH   1   2
ATOM      2  C   UNL     1      10.719   2.568   0.065  1.00  0.00     0.214 A 
ATOM      3  C   UNL     1       9.717   2.767   1.042  1.00  0.00     0.180 A 
ATOM      4  O   UNL     1       9.052   3.915   1.083  1.00  0.00    -0.452 OA
ATOM      5  C   UNL     1      10.847   3.526  -0.952  1.00  0.00     0.239 A 
ATOM      6  C   UNL     1       9.201   4.878   0.184  1.00  0.00     0.146 A 
ATOM      7  O   UNL     1      11.699   3.329  -1.857  1.00  0.00    -0.285 OA
ATOM      8  C   UNL     1      10.065   4.705  -0.926  1.00  0.00     0.111 A 
ATOM      9  C   UNL     1       8.476   6.061   0.343  1.00  0.00     0.094 A 
ATOM     10  C   UNL     1      10.126   5.736  -1.910  1.00  0.00     0.134 A 
ATOM     11  C   UNL     1       8.593   7.091  -0.589  1.00  0.00     0.123 A 
ATOM     12  C   UNL     1       9.418   6.926  -1.705  1.00  0.00     0.093 A 
BRANCH   3  13
ATOM     13  C   UNL     1       9.316   1.733   2.008  1.00  0.00     0.021 A 
ATOM     14  C   UNL     1       8.328   0.794   1.669  1.00  0.00     0.016 A 
ATOM     15  C   UNL     1       7.916  -0.161   2.605  1.00  0.00     0.047 A 
ATOM     16  C   UNL     1       8.468  -0.170   3.890  1.00  0.00     0.115 A 
ATOM     17  C   UNL     1       9.849   1.740   3.307  1.00  0.00     0.016 A 
ATOM     18  C   UNL     1       9.436   0.783   4.239  1.00  0.00     0.047 A 
BRANCH  16  19
ATOM     19  O   UNL     1       8.047  -1.124   4.814  1.00  0.00    -0.508 OA
ATOM     20  H   UNL     1       8.456  -2.051   4.843  1.00  0.00     0.293 HD
ENDBRANCH  16  19
ENDBRANCH   3  13
BRANCH  10  21
ATOM     21  O   UNL     1      10.835   5.625  -3.109  1.00  0.00    -0.507 OA
ATOM     22  H   UNL     1      11.369   4.813  -3.376  1.00  0.00     0.293 HD
ENDBRANCH  10  21
BRANCH  11  23
ATOM     23  O   UNL     1       7.877   8.272  -0.403  1.00  0.00    -0.508 OA
ATOM     24  H   UNL     1       7.422   8.479   0.478  1.00  0.00     0.293 HD
ENDBRANCH  11  23
ENDBRANCH   1   2
BRANCH   1  25
ATOM     25  C   UNL     1      12.750   1.273   0.900  1.00  0.00     0.339 C 
ATOM     26  C   UNL     1      13.856   2.332   0.695  1.00  0.00     0.214 C 
ATOM     27  O   UNL     1      13.223  -0.059   0.763  1.00  0.00    -0.332 OA
ATOM     28  C   UNL     1      14.589   2.165  -0.660  1.00  0.00     0.180 C 
ATOM     29  C   UNL     1      14.084  -0.317  -0.346  1.00  0.00     0.179 C 
ATOM     30  C   UNL     1      14.257   0.836  -1.372  1.00  0.00     0.177 C 
BRANCH  26  31
ATOM     31  O   UNL     1      14.774   2.218   1.754  1.00  0.00    -0.384 OA
ATOM     32  H   UNL     1      14.555   1.380   2.244  1.00  0.00     0.211 HD
ENDBRANCH  26  31
BRANCH  28  33
ATOM     33  O   UNL     1      14.368   3.270  -1.505  1.00  0.00    -0.387 OA
ATOM     34  H   UNL     1      13.413   3.530  -1.422  1.00  0.00     0.211 HD
ENDBRANCH  28  33
BRANCH  29  35
ATOM     35  C   UNL     1      15.443  -0.801   0.184  1.00  0.00     0.191 C 
BRANCH  35  36
ATOM     36  O   UNL     1      16.377  -0.819  -0.861  1.00  0.00    -0.394 OA
ATOM     37  H   UNL     1      16.321   0.072  -1.295  1.00  0.00     0.210 HD
ENDBRANCH  35  36
ENDBRANCH  29  35
BRANCH  30  38
ATOM     38  O   UNL     1      13.088   0.938  -2.146  1.00  0.00    -0.387 OA
ATOM     39  H   UNL     1      12.317   0.918  -1.518  1.00  0.00     0.211 HD
ENDBRANCH  30  38
ENDBRANCH   1  25
TORSDOF 11
ENDMDL
MODEL 3
REMARK VINA RESULT:    -5.561      2.819      6.957
REMARK INTER + INTRA:          -9.509
REMARK INTER:                  -8.210
REMARK INTRA:                  -1.299
REMARK UNBOUND:                -1.509
REMARK SMILES O=c1c(O[C@H]2O[C@H](CO)[C@@H](O)[C@@H](O)[C@@H]2O)c(-c2ccc(O)cc2)oc2cc(O)cc(O)c12
REMARK SMILES IDX 4 1 3 2 16 3 24 4 2 5 25 6 1 7 32 8 26 9 30 10 27 11 29 12
REMARK SMILES IDX 17 13 18 14 19 15 20 16 23 17 22 18 21 19 31 21 28 23 5 25
REMARK SMILES IDX 14 26 6 27 12 28 7 29 10 30 15 31 13 33 8 35 9 36 11 38
REMARK H PARENT 21 20 31 22 28 24 15 32 13 34 9 37 11 39
REMARK Flexibility Score: inf
ROOT
ATOM      1  O   UNL     1      12.902   1.556   1.181  1.00  0.00    -0.454 OA
ENDROOT
BRANCH   1   2
ATOM      2  C   UNL     1      12.410   2.552   0.310  1.00  0.00     0.214 A 
ATOM      3  C   UNL     1      12.894   2.773  -1.000  1.00  0.00     0.180 A 
ATOM      4  O   UNL     1      12.250   3.605  -1.810  1.00  0.00    -0.452 OA
ATOM      5  C   UNL     1      11.368   3.368   0.774  1.00  0.00     0.239 A 
ATOM      6  C   UNL     1      11.212   4.337  -1.431  1.00  0.00     0.146 A 
ATOM      7  O   UNL     1      10.969   3.215   1.958  1.00  0.00    -0.285 OA
ATOM      8  C   UNL     1      10.754   4.304  -0.090  1.00  0.00     0.111 A 
ATOM      9  C   UNL     1      10.587   5.154  -2.376  1.00  0.00     0.094 A 
ATOM     10  C   UNL     1       9.687   5.173   0.286  1.00  0.00     0.134 A 
ATOM     11  C   UNL     1       9.501   5.949  -2.014  1.00  0.00     0.123 A 
ATOM     12  C   UNL     1       9.056   5.953  -0.690  1.00  0.00     0.093 A 
BRANCH   3  13
ATOM     13  C   UNL     1      14.129   2.166  -1.517  1.00  0.00     0.021 A 
ATOM     14  C   UNL     1      14.078   0.958  -2.232  1.00  0.00     0.016 A 
ATOM     15  C   UNL     1      15.257   0.358  -2.684  1.00  0.00     0.047 A 
ATOM     16  C   UNL     1      16.497   0.946  -2.405  1.00  0.00     0.115 A 
ATOM     17  C   UNL     1      15.375   2.739  -1.214  1.00  0.00     0.016 A 
ATOM     18  C   UNL     1      16.552   2.137  -1.669  1.00  0.00     0.047 A 
BRANCH  16  19
ATOM     19  O   UNL     1      17.665   0.337  -2.858  1.00  0.00    -0.508 OA
ATOM     20  H   UNL     1      18.571   0.776  -2.740  1.00  0.00     0.293 HD
ENDBRANCH  16  19
ENDBRANCH   3  13
BRANCH  10  21
ATOM     21  O   UNL     1       9.240   5.328   1.601  1.00  0.00    -0.507 OA
ATOM     22  H   UNL     1       9.203   6.211   2.086  1.00  0.00     0.293 HD
ENDBRANCH  10  21
BRANCH  11  23
ATOM     23  O   UNL     1       8.880   6.743  -2.976  1.00  0.00    -0.508 OA
ATOM     24  H   UNL     1       7.935   6.552  -3.287  1.00  0.00     0.293 HD
ENDBRANCH  11  23
ENDBRANCH   1   2
BRANCH   1  25
ATOM     25  C   UNL     1      13.836   1.733   2.259  1.00  0.00     0.339 C 
ATOM     26  C   UNL     1      15.279   1.325   1.890  1.00  0.00     0.214 C 
ATOM     27  O   UNL     1      13.353   1.079   3.423  1.00  0.00    -0.332 OA
ATOM     28  C   UNL     1      15.439  -0.210   1.743  1.00  0.00     0.180 C 
ATOM     29  C   UNL     1      13.609  -0.322   3.518  1.00  0.00     0.179 C 
ATOM     30  C   UNL     1      14.219  -1.001   2.262  1.00  0.00     0.177 C 
BRANCH  26  31
ATOM     31  O   UNL     1      16.140   1.803   2.894  1.00  0.00    -0.384 OA
ATOM     32  H   UNL     1      15.759   2.660   3.224  1.00  0.00     0.211 HD
ENDBRANCH  26  31
BRANCH  28  33
ATOM     33  O   UNL     1      15.760  -0.570   0.419  1.00  0.00    -0.387 OA
ATOM     34  H   UNL     1      16.606  -0.110   0.175  1.00  0.00     0.211 HD
ENDBRANCH  28  33
BRANCH  29  35
ATOM     35  C   UNL     1      14.464  -0.587   4.767  1.00  0.00     0.191 C 
BRANCH  35  36
ATOM     36  O   UNL     1      15.034   0.614   5.210  1.00  0.00    -0.394 OA
ATOM     37  H   UNL     1      15.654   0.369   5.946  1.00  0.00     0.210 HD
ENDBRANCH  35  36
ENDBRANCH  29  35
BRANCH  30  38
ATOM     38  O   UNL     1      13.223  -1.125   1.279  1.00  0.00    -0.387 OA
ATOM     39  H   UNL     1      12.959  -2.084   1.246  1.00  0.00     0.211 HD
ENDBRANCH  30  38
ENDBRANCH   1  25
TORSDOF 11
ENDMDL
MODEL 4
REMARK VINA RESULT:    -5.462      2.388      6.458
REMARK INTER + INTRA:          -9.367
REMARK INTER:                  -8.223
REMARK INTRA:                  -1.144
REMARK UNBOUND:                -1.509
REMARK SMILES O=c1c(O[C@H]2O[C@H](CO)[C@@H](O)[C@@H](O)[C@@H]2O)c(-c2ccc(O)cc2)oc2cc(O)cc(O)c12
REMARK SMILES IDX 4 1 3 2 16 3 24 4 2 5 25 6 1 7 32 8 26 9 30 10 27 11 29 12
REMARK SMILES IDX 17 13 18 14 19 15 20 16 23 17 22 18 21 19 31 21 28 23 5 25
REMARK SMILES IDX 14 26 6 27 12 28 7 29 10 30 15 31 13 33 8 35 9 36 11 38
REMARK H PARENT 21 20 31 22 28 24 15 32 13 34 9 37 11 39
REMARK Flexibility Score: inf
ROOT
ATOM      1  O   UNL     1      12.901   1.222  -0.168  1.00  0.00    -0.454 OA
ENDROOT
BRANCH   1   2
ATOM      2  C   UNL     1      12.184   2.306   0.383  1.00  0.00     0.214 A 
ATOM      3  C   UNL     1      12.626   3.076   1.483  1.00  0.00     0.180 A 
ATOM      4  O   UNL     1      11.979   4.187   1.815  1.00  0.00    -0.452 OA
ATOM      5  C   UNL     1      10.957   2.644  -0.208  1.00  0.00     0.239 A 
ATOM      6  C   UNL     1      10.858   4.582   1.229  1.00  0.00     0.146 A 
ATOM      7  O   UNL     1      10.529   1.930  -1.151  1.00  0.00    -0.285 OA
ATOM      8  C   UNL     1      10.249   3.790   0.223  1.00  0.00     0.111 A 
ATOM      9  C   UNL     1      10.279   5.787   1.634  1.00  0.00     0.094 A 
ATOM     10  C   UNL     1       8.999   4.218  -0.316  1.00  0.00     0.134 A 
ATOM     11  C   UNL     1       9.092   6.230   1.052  1.00  0.00     0.123 A 
ATOM     12  C   UNL     1       8.462   5.448   0.081  1.00  0.00     0.093 A 
BRANCH   3  13
ATOM     13  C   UNL     1      13.755   2.684   2.339  1.00  0.00     0.021 A 
ATOM     14  C   UNL     1      14.985   3.354   2.239  1.00  0.00     0.016 A 
ATOM     15  C   UNL     1      16.072   2.951   3.021  1.00  0.00     0.047 A 
ATOM     16  C   UNL     1      15.946   1.862   3.892  1.00  0.00     0.115 A 
ATOM     17  C   UNL     1      13.639   1.575   3.193  1.00  0.00     0.016 A 
ATOM     18  C   UNL     1      14.727   1.176   3.976  1.00  0.00     0.047 A 
BRANCH  16  19
ATOM     19  O   UNL     1      17.036   1.468   4.665  1.00  0.00    -0.508 OA
ATOM     20  H   UNL     1      17.918   1.967   4.631  1.00  0.00     0.293 HD
ENDBRANCH  16  19
ENDBRANCH   3  13
BRANCH  10  21
ATOM     21  O   UNL     1       8.240   3.459  -1.211  1.00  0.00    -0.507 OA
ATOM     22  H   UNL     1       8.289   2.455  -1.285  1.00  0.00     0.293 HD
ENDBRANCH  10  21
BRANCH  11  23
ATOM     23  O   UNL     1       8.540   7.444   1.456  1.00  0.00    -0.508 OA
ATOM     24  H   UNL     1       7.963   7.512   2.285  1.00  0.00     0.293 HD
ENDBRANCH  11  23
ENDBRANCH   1   2
BRANCH   1  25
ATOM     25  C   UNL     1      14.307   1.176  -0.463  1.00  0.00     0.339 C 
ATOM     26  C   UNL     1      14.815   2.428  -1.212  1.00  0.00     0.214 C 
ATOM     27  O   UNL     1      14.616  -0.037  -1.134  1.00  0.00    -0.332 OA
ATOM     28  C   UNL     1      14.309   2.486  -2.676  1.00  0.00     0.180 C 
ATOM     29  C   UNL     1      14.385  -0.061  -2.542  1.00  0.00     0.179 C 
ATOM     30  C   UNL     1      13.656   1.168  -3.146  1.00  0.00     0.177 C 
BRANCH  26  31
ATOM     31  O   UNL     1      16.221   2.411  -1.191  1.00  0.00    -0.384 OA
ATOM     32  H   UNL     1      16.500   1.488  -0.946  1.00  0.00     0.211 HD
ENDBRANCH  26  31
BRANCH  28  33
ATOM     33  O   UNL     1      13.455   3.587  -2.883  1.00  0.00    -0.387 OA
ATOM     34  H   UNL     1      14.021   4.393  -3.008  1.00  0.00     0.211 HD
ENDBRANCH  28  33
BRANCH  29  35
ATOM     35  C   UNL     1      15.719  -0.327  -3.258  1.00  0.00     0.191 C 
BRANCH  35  36
ATOM     36  O   UNL     1      16.783   0.006  -2.411  1.00  0.00    -0.394 OA
ATOM     37  H   UNL     1      17.224   0.796  -2.820  1.00  0.00     0.210 HD
ENDBRANCH  35  36
ENDBRANCH  29  35
BRANCH  30  38
ATOM     38  O   UNL     1      12.295   1.110  -2.798  1.00  0.00    -0.387 OA
ATOM     39  H   UNL     1      12.030   0.151  -2.810  1.00  0.00     0.211 HD
ENDBRANCH  30  38
ENDBRANCH   1  25
TORSDOF 11
ENDMDL
MODEL 5
REMARK VINA RESULT:    -5.459      2.688      6.452
REMARK INTER + INTRA:          -9.362
REMARK INTER:                  -7.891
REMARK INTRA:                  -1.472
REMARK UNBOUND:                -1.509
REMARK SMILES O=c1c(O[C@H]2O[C@H](CO)[C@@H](O)[C@@H](O)[C@@H]2O)c(-c2ccc(O)cc2)oc2cc(O)cc(O)c12
REMARK SMILES IDX 4 1 3 2 16 3 24 4 2 5 25 6 1 7 32 8 26 9 30 10 27 11 29 12
REMARK SMILES IDX 17 13 18 14 19 15 20 16 23 17 22 18 21 19 31 21 28 23 5 25
REMARK SMILES IDX 14 26 6 27 12 28 7 29 10 30 15 31 13 33 8 35 9 36 11 38
REMARK H PARENT 21 20 31 22 28 24 15 32 13 34 9 37 11 39
REMARK Flexibility Score: inf
ROOT
ATOM      1  O   UNL     1      11.590   2.373   1.256  1.00  0.00    -0.454 OA
ENDROOT
BRANCH   1   2
ATOM      2  C   UNL     1      11.298   3.360   0.289  1.00  0.00     0.214 A 
ATOM      3  C   UNL     1      11.859   3.392  -1.008  1.00  0.00     0.180 A 
ATOM      4  O   UNL     1      11.388   4.245  -1.910  1.00  0.00    -0.452 OA
ATOM      5  C   UNL     1      10.385   4.365   0.638  1.00  0.00     0.239 A 
ATOM      6  C   UNL     1      10.468   5.161  -1.639  1.00  0.00     0.146 A 
ATOM      7  O   UNL     1       9.924   4.377   1.809  1.00  0.00    -0.285 OA
ATOM      8  C   UNL     1       9.963   5.312  -0.324  1.00  0.00     0.111 A 
ATOM      9  C   UNL     1      10.019   5.985  -2.673  1.00  0.00     0.094 A 
ATOM     10  C   UNL     1       9.038   6.368  -0.068  1.00  0.00     0.134 A 
ATOM     11  C   UNL     1       9.064   6.970  -2.426  1.00  0.00     0.123 A 
ATOM     12  C   UNL     1       8.577   7.154  -1.130  1.00  0.00     0.093 A 
BRANCH   3  13
ATOM     13  C   UNL     1      12.997   2.556  -1.416  1.00  0.00     0.021 A 
ATOM     14  C   UNL     1      12.777   1.322  -2.051  1.00  0.00     0.016 A 
ATOM     15  C   UNL     1      13.859   0.507  -2.398  1.00  0.00     0.047 A 
ATOM     16  C   UNL     1      15.166   0.906  -2.093  1.00  0.00     0.115 A 
ATOM     17  C   UNL     1      14.306   2.940  -1.086  1.00  0.00     0.016 A 
ATOM     18  C   UNL     1      15.386   2.124  -1.436  1.00  0.00     0.047 A 
BRANCH  16  19
ATOM     19  O   UNL     1      16.235   0.084  -2.441  1.00  0.00    -0.508 OA
ATOM     20  H   UNL     1      16.790   0.259  -3.271  1.00  0.00     0.293 HD
ENDBRANCH  16  19
ENDBRANCH   3  13
BRANCH  10  21
ATOM     21  O   UNL     1       8.574   6.700   1.208  1.00  0.00    -0.507 OA
ATOM     22  H   UNL     1       7.831   7.357   1.386  1.00  0.00     0.293 HD
ENDBRANCH  10  21
BRANCH  11  23
ATOM     23  O   UNL     1       8.614   7.770  -3.475  1.00  0.00    -0.508 OA
ATOM     24  H   UNL     1       9.211   7.994  -4.262  1.00  0.00     0.293 HD
ENDBRANCH  11  23
ENDBRANCH   1   2
BRANCH   1  25
ATOM     25  C   UNL     1      11.314   0.966   1.168  1.00  0.00     0.339 C 
ATOM     26  C   UNL     1       9.824   0.652   0.908  1.00  0.00     0.214 C 
ATOM     27  O   UNL     1      11.831   0.303   2.312  1.00  0.00    -0.332 OA
ATOM     28  C   UNL     1       8.934   0.949   2.142  1.00  0.00     0.180 C 
ATOM     29  C   UNL     1      11.015   0.324   3.482  1.00  0.00     0.179 C 
ATOM     30  C   UNL     1       9.748   1.219   3.427  1.00  0.00     0.177 C 
BRANCH  26  31
ATOM     31  O   UNL     1       9.717  -0.706   0.555  1.00  0.00    -0.384 OA
ATOM     32  H   UNL     1       9.258  -1.169   1.306  1.00  0.00     0.211 HD
ENDBRANCH  26  31
BRANCH  28  33
ATOM     33  O   UNL     1       8.023   1.990   1.882  1.00  0.00    -0.387 OA
ATOM     34  H   UNL     1       8.545   2.824   1.742  1.00  0.00     0.211 HD
ENDBRANCH  28  33
BRANCH  29  35
ATOM     35  C   UNL     1      10.661  -1.121   3.866  1.00  0.00     0.191 C 
BRANCH  35  36
ATOM     36  O   UNL     1       9.912  -1.125   5.050  1.00  0.00    -0.394 OA
ATOM     37  H   UNL     1       9.826  -0.174   5.323  1.00  0.00     0.210 HD
ENDBRANCH  35  36
ENDBRANCH  29  35
BRANCH  30  38
ATOM     38  O   UNL     1      10.134   2.567   3.524  1.00  0.00    -0.387 OA
ATOM     39  H   UNL     1       9.891   2.877   4.437  1.00  0.00     0.211 HD
ENDBRANCH  30  38
ENDBRANCH   1  25
TORSDOF 11
ENDMDL
MODEL 6
REMARK VINA RESULT:    -5.213      2.467      4.194
REMARK INTER + INTRA:          -9.008
REMARK INTER:                  -7.664
REMARK INTRA:                  -1.344
REMARK UNBOUND:                -1.509
REMARK SMILES O=c1c(O[C@H]2O[C@H](CO)[C@@H](O)[C@@H](O)[C@@H]2O)c(-c2ccc(O)cc2)oc2cc(O)cc(O)c12
REMARK SMILES IDX 4 1 3 2 16 3 24 4 2 5 25 6 1 7 32 8 26 9 30 10 27 11 29 12
REMARK SMILES IDX 17 13 18 14 19 15 20 16 23 17 22 18 21 19 31 21 28 23 5 25
REMARK SMILES IDX 14 26 6 27 12 28 7 29 10 30 15 31 13 33 8 35 9 36 11 38
REMARK H PARENT 21 20 31 22 28 24 15 32 13 34 9 37 11 39
REMARK Flexibility Score: inf
ROOT
ATOM      1  O   UNL     1      10.972   3.271  -0.652  1.00  0.00    -0.454 OA
ENDROOT
BRANCH   1   2
ATOM      2  C   UNL     1      12.199   2.603  -0.443  1.00  0.00     0.214 A 
ATOM      3  C   UNL     1      12.353   1.462   0.377  1.00  0.00     0.180 A 
ATOM      4  O   UNL     1      13.500   0.792   0.368  1.00  0.00    -0.452 OA
ATOM      5  C   UNL     1      13.333   3.101  -1.101  1.00  0.00     0.239 A 
ATOM      6  C   UNL     1      14.572   1.189  -0.303  1.00  0.00     0.146 A 
ATOM      7  O   UNL     1      13.216   4.149  -1.788  1.00  0.00    -0.285 OA
ATOM      8  C   UNL     1      14.564   2.408  -1.025  1.00  0.00     0.111 A 
ATOM      9  C   UNL     1      15.717   0.389  -0.271  1.00  0.00     0.094 A 
ATOM     10  C   UNL     1      15.770   2.831  -1.660  1.00  0.00     0.134 A 
ATOM     11  C   UNL     1      16.870   0.778  -0.951  1.00  0.00     0.123 A 
ATOM     12  C   UNL     1      16.890   1.991  -1.643  1.00  0.00     0.093 A 
BRANCH   3  13
ATOM     13  C   UNL     1      11.315   0.989   1.305  1.00  0.00     0.021 A 
ATOM     14  C   UNL     1      10.456  -0.057   0.931  1.00  0.00     0.016 A 
ATOM     15  C   UNL     1       9.440  -0.476   1.797  1.00  0.00     0.047 A 
ATOM     16  C   UNL     1       9.260   0.162   3.029  1.00  0.00     0.115 A 
ATOM     17  C   UNL     1      11.115   1.645   2.530  1.00  0.00     0.016 A 
ATOM     18  C   UNL     1      10.100   1.223   3.394  1.00  0.00     0.047 A 
BRANCH  16  19
ATOM     19  O   UNL     1       8.243  -0.262   3.882  1.00  0.00    -0.508 OA
ATOM     20  H   UNL     1       7.278   0.008   3.731  1.00  0.00     0.293 HD
ENDBRANCH  16  19
ENDBRANCH   3  13
BRANCH  10  21
ATOM     21  O   UNL     1      15.923   4.072  -2.286  1.00  0.00    -0.507 OA
ATOM     22  H   UNL     1      16.638   4.741  -2.047  1.00  0.00     0.293 HD
ENDBRANCH  10  21
BRANCH  11  23
ATOM     23  O   UNL     1      17.995  -0.043  -0.922  1.00  0.00    -0.508 OA
ATOM     24  H   UNL     1      18.818   0.170  -1.473  1.00  0.00     0.293 HD
ENDBRANCH  11  23
ENDBRANCH   1   2
BRANCH   1  25
ATOM     25  C   UNL     1      10.644   4.617  -0.270  1.00  0.00     0.339 C 
ATOM     26  C   UNL     1       9.750   4.693   0.987  1.00  0.00     0.214 C 
ATOM     27  O   UNL     1      10.101   5.311  -1.383  1.00  0.00    -0.332 OA
ATOM     28  C   UNL     1       8.303   4.209   0.713  1.00  0.00     0.180 C 
ATOM     29  C   UNL     1       8.711   5.114  -1.639  1.00  0.00     0.179 C 
ATOM     30  C   UNL     1       7.998   4.027  -0.790  1.00  0.00     0.177 C 
BRANCH  26  31
ATOM     31  O   UNL     1       9.732   6.027   1.433  1.00  0.00    -0.384 OA
ATOM     32  H   UNL     1      10.564   6.459   1.099  1.00  0.00     0.211 HD
ENDBRANCH  26  31
BRANCH  28  33
ATOM     33  O   UNL     1       8.002   3.043   1.443  1.00  0.00    -0.387 OA
ATOM     34  H   UNL     1       8.325   3.174   2.373  1.00  0.00     0.211 HD
ENDBRANCH  28  33
BRANCH  29  35
ATOM     35  C   UNL     1       7.990   6.467  -1.533  1.00  0.00     0.191 C 
BRANCH  35  36
ATOM     36  O   UNL     1       8.894   7.451  -1.111  1.00  0.00    -0.394 OA
ATOM     37  H   UNL     1       9.062   7.275  -0.148  1.00  0.00     0.210 HD
ENDBRANCH  35  36
ENDBRANCH  29  35
BRANCH  30  38
ATOM     38  O   UNL     1       8.388   2.758  -1.250  1.00  0.00    -0.387 OA
ATOM     39  H   UNL     1       8.104   2.096  -0.564  1.00  0.00     0.211 HD
ENDBRANCH  30  38
ENDBRANCH   1  25
TORSDOF 11
ENDMDL
MODEL 7
REMARK VINA RESULT:    -5.172      2.768      6.693
REMARK INTER + INTRA:          -8.949
REMARK INTER:                  -7.703
REMARK INTRA:                  -1.246
REMARK UNBOUND:                -1.509
REMARK SMILES O=c1c(O[C@H]2O[C@H](CO)[C@@H](O)[C@@H](O)[C@@H]2O)c(-c2ccc(O)cc2)oc2cc(O)cc(O)c12
REMARK SMILES IDX 4 1 3 2 16 3 24 4 2 5 25 6 1 7 32 8 26 9 30 10 27 11 29 12
REMARK SMILES IDX 17 13 18 14 19 15 20 16 23 17 22 18 21 19 31 21 28 23 5 25
REMARK SMILES IDX 14 26 6 27 12 28 7 29 10 30 15 31 13 33 8 35 9 36 11 38
REMARK H PARENT 21 20 31 22 28 24 15 32 13 34 9 37 11 39
REMARK Flexibility Score: inf
ROOT
ATOM      1  O   UNL     1      12.784   2.661  -0.035  1.00  0.00    -0.454 OA
ENDROOT
BRANCH   1   2
ATOM      2  C   UNL     1      11.782   2.218   0.856  1.00  0.00     0.214 A 
ATOM      3  C   UNL     1      10.479   2.763   0.922  1.00  0.00     0.180 A 
ATOM      4  O   UNL     1       9.550   2.163   1.657  1.00  0.00    -0.452 OA
ATOM      5  C   UNL     1      12.101   1.162   1.722  1.00  0.00     0.239 A 
ATOM      6  C   UNL     1       9.793   1.115   2.430  1.00  0.00     0.146 A 
ATOM      7  O   UNL     1      13.274   0.708   1.709  1.00  0.00    -0.285 OA
ATOM      8  C   UNL     1      11.106   0.596   2.554  1.00  0.00     0.111 A 
ATOM      9  C   UNL     1       8.732   0.541   3.134  1.00  0.00     0.094 A 
ATOM     10  C   UNL     1      11.330  -0.480   3.465  1.00  0.00     0.134 A 
ATOM     11  C   UNL     1       8.950  -0.554   3.970  1.00  0.00     0.123 A 
ATOM     12  C   UNL     1      10.242  -1.060   4.128  1.00  0.00     0.093 A 
BRANCH   3  13
ATOM     13  C   UNL     1      10.094   4.015   0.255  1.00  0.00     0.021 A 
ATOM     14  C   UNL     1       9.715   4.008  -1.097  1.00  0.00     0.016 A 
ATOM     15  C   UNL     1       9.393   5.207  -1.743  1.00  0.00     0.047 A 
ATOM     16  C   UNL     1       9.467   6.420  -1.050  1.00  0.00     0.115 A 
ATOM     17  C   UNL     1      10.195   5.236   0.940  1.00  0.00     0.016 A 
ATOM     18  C   UNL     1       9.869   6.432   0.293  1.00  0.00     0.047 A 
BRANCH  16  19
ATOM     19  O   UNL     1       9.146   7.608  -1.704  1.00  0.00    -0.508 OA
ATOM     20  H   UNL     1       8.549   8.305  -1.273  1.00  0.00     0.293 HD
ENDBRANCH  16  19
ENDBRANCH   3  13
BRANCH  10  21
ATOM     21  O   UNL     1      12.597  -0.985   3.772  1.00  0.00    -0.507 OA
ATOM     22  H   UNL     1      13.050  -1.725   3.258  1.00  0.00     0.293 HD
ENDBRANCH  10  21
BRANCH  11  23
ATOM     23  O   UNL     1       7.875  -1.125   4.648  1.00  0.00    -0.508 OA
ATOM     24  H   UNL     1       6.965  -1.217   4.214  1.00  0.00     0.293 HD
ENDBRANCH  11  23
ENDBRANCH   1   2
BRANCH   1  25
ATOM     25  C   UNL     1      12.969   2.255  -1.401  1.00  0.00     0.339 C 
ATOM     26  C   UNL     1      14.236   1.400  -1.618  1.00  0.00     0.214 C 
ATOM     27  O   UNL     1      12.912   3.392  -2.250  1.00  0.00    -0.332 OA
ATOM     28  C   UNL     1      15.539   2.230  -1.482  1.00  0.00     0.180 C 
ATOM     29  C   UNL     1      14.115   4.149  -2.380  1.00  0.00     0.179 C 
ATOM     30  C   UNL     1      15.287   3.753  -1.443  1.00  0.00     0.177 C 
BRANCH  26  31
ATOM     31  O   UNL     1      14.165   0.826  -2.899  1.00  0.00    -0.384 OA
ATOM     32  H   UNL     1      13.302   0.334  -2.953  1.00  0.00     0.211 HD
ENDBRANCH  26  31
BRANCH  28  33
ATOM     33  O   UNL     1      16.308   1.807  -0.381  1.00  0.00    -0.387 OA
ATOM     34  H   UNL     1      17.266   1.929  -0.613  1.00  0.00     0.211 HD
ENDBRANCH  28  33
BRANCH  29  35
ATOM     35  C   UNL     1      14.551   4.137  -3.854  1.00  0.00     0.191 C 
BRANCH  35  36
ATOM     36  O   UNL     1      14.091   5.298  -4.490  1.00  0.00    -0.394 OA
ATOM     37  H   UNL     1      14.900   5.832  -4.707  1.00  0.00     0.210 HD
ENDBRANCH  35  36
ENDBRANCH  29  35
BRANCH  30  38
ATOM     38  O   UNL     1      15.003   4.199  -0.141  1.00  0.00    -0.387 OA
ATOM     39  H   UNL     1      15.733   3.871   0.449  1.00  0.00     0.211 HD
ENDBRANCH  30  38
ENDBRANCH   1  25
TORSDOF 11
ENDMDL
