MODEL 1
REMARK VINA RESULT:    -3.569      0.000      0.000
REMARK INTER + INTRA:          -9.958
REMARK INTER:                  -8.160
REMARK INTRA:                  -1.798
REMARK UNBOUND:                -1.798
REMARK SMILES CCCCCCCCCCCCCCCCCCCCCCCC(=O)[O-]
REMARK SMILES IDX 13 1 14 2 15 3 16 4 17 5 18 6 19 7 20 8 21 9 22 10 23 11
REMARK SMILES IDX 24 12 25 13 26 14 12 15 11 16 10 17 9 18 8 19 7 20 6 21 5 22
REMARK SMILES IDX 4 23 3 24 2 25 1 26
REMARK H PARENT
REMARK Flexibility Score: inf
ROOT
ATOM      1  C   UNL     1     -43.955 -35.733  20.871  1.00  0.00     0.000 C 
ENDROOT
BRANCH   1   2
ATOM      2  C   UNL     1     -45.447 -35.559  21.201  1.00  0.00     0.000 C 
BRANCH   2   3
ATOM      3  C   UNL     1     -45.670 -34.743  22.485  1.00  0.00     0.000 C 
BRANCH   3   4
ATOM      4  C   UNL     1     -46.104 -33.296  22.191  1.00  0.00     0.000 C 
BRANCH   4   5
ATOM      5  C   UNL     1     -45.634 -32.309  23.273  1.00  0.00     0.000 C 
BRANCH   5   6
ATOM      6  C   UNL     1     -44.878 -33.010  24.416  1.00  0.00     0.000 C 
BRANCH   6   7
ATOM      7  C   UNL     1     -43.881 -32.079  25.124  1.00  0.00     0.000 C 
BRANCH   7   8
ATOM      8  C   UNL     1     -42.929 -32.829  26.067  1.00  0.00     0.000 C 
BRANCH   8   9
ATOM      9  C   UNL     1     -41.589 -32.088  26.194  1.00  0.00     0.000 C 
BRANCH   9  10
ATOM     10  C   UNL     1     -40.584 -32.822  27.094  1.00  0.00     0.006 C 
BRANCH  10  11
ATOM     11  C   UNL     1     -39.126 -32.491  26.748  1.00  0.00     0.053 C 
BRANCH  11  12
ATOM     12  C   UNL     1     -38.298 -33.737  26.717  1.00  0.00     0.041 C 
ATOM     13  O   UNL     1     -38.016 -34.282  25.617  1.00  0.00    -0.550 OA
ATOM     14  O   UNL     1     -37.809 -34.278  27.899  1.00  0.00    -0.550 OA
ENDBRANCH  11  12
ENDBRANCH  10  11
ENDBRANCH   9  10
ENDBRANCH   8   9
ENDBRANCH   7   8
ENDBRANCH   6   7
ENDBRANCH   5   6
ENDBRANCH   4   5
ENDBRANCH   3   4
ENDBRANCH   2   3
ENDBRANCH   1   2
BRANCH   1  15
ATOM     15  C   UNL     1     -43.710 -36.747  19.739  1.00  0.00     0.000 C 
BRANCH  15  16
ATOM     16  C   UNL     1     -44.976 -37.190  18.975  1.00  0.00     0.000 C 
BRANCH  16  17
ATOM     17  C   UNL     1     -44.959 -36.924  17.459  1.00  0.00     0.000 C 
BRANCH  17  18
ATOM     18  C   UNL     1     -45.616 -35.587  17.078  1.00  0.00    -0.000 C 
BRANCH  18  19
ATOM     19  C   UNL     1     -44.599 -34.437  16.962  1.00  0.00    -0.000 C 
BRANCH  19  20
ATOM     20  C   UNL     1     -44.913 -33.389  15.874  1.00  0.00    -0.000 C 
BRANCH  20  21
ATOM     21  C   UNL     1     -46.053 -33.769  14.912  1.00  0.00    -0.000 C 
BRANCH  21  22
ATOM     22  C   UNL     1     -45.751 -33.400  13.453  1.00  0.00    -0.000 C 
BRANCH  22  23
ATOM     23  C   UNL     1     -45.838 -34.633  12.541  1.00  0.00    -0.000 C 
BRANCH  23  24
ATOM     24  C   UNL     1     -45.965 -35.950  13.326  1.00  0.00    -0.000 C 
BRANCH  24  25
ATOM     25  C   UNL     1     -44.687 -36.808  13.360  1.00  0.00    -0.003 C 
ATOM     26  C   UNL     1     -44.976 -38.307  13.417  1.00  0.00     0.004 C 
ENDBRANCH  24  25
ENDBRANCH  23  24
ENDBRANCH  22  23
ENDBRANCH  21  22
ENDBRANCH  20  21
ENDBRANCH  19  20
ENDBRANCH  18  19
ENDBRANCH  17  18
ENDBRANCH  16  17
ENDBRANCH  15  16
ENDBRANCH   1  15
TORSDOF 22
ENDMDL
MODEL 2
REMARK VINA RESULT:    -3.366      1.398      2.786
REMARK INTER + INTRA:          -9.492
REMARK INTER:                  -7.980
REMARK INTRA:                  -1.512
REMARK UNBOUND:                -1.798
REMARK SMILES CCCCCCCCCCCCCCCCCCCCCCCC(=O)[O-]
REMARK SMILES IDX 13 1 14 2 15 3 16 4 17 5 18 6 19 7 20 8 21 9 22 10 23 11
REMARK SMILES IDX 24 12 25 13 26 14 12 15 11 16 10 17 9 18 8 19 7 20 6 21 5 22
REMARK SMILES IDX 4 23 3 24 2 25 1 26
REMARK H PARENT
REMARK Flexibility Score: inf
ROOT
ATOM      1  C   UNL     1     -44.891 -36.122  21.230  1.00  0.00     0.000 C 
ENDROOT
BRANCH   1   2
ATOM      2  C   UNL     1     -45.878 -35.219  21.989  1.00  0.00     0.000 C 
BRANCH   2   3
ATOM      3  C   UNL     1     -45.905 -33.786  21.432  1.00  0.00     0.000 C 
BRANCH   3   4
ATOM      4  C   UNL     1     -45.237 -32.776  22.383  1.00  0.00     0.000 C 
BRANCH   4   5
ATOM      5  C   UNL     1     -44.901 -33.389  23.752  1.00  0.00     0.000 C 
BRANCH   5   6
ATOM      6  C   UNL     1     -43.469 -33.059  24.207  1.00  0.00     0.000 C 
BRANCH   6   7
ATOM      7  C   UNL     1     -43.433 -32.031  25.349  1.00  0.00     0.000 C 
BRANCH   7   8
ATOM      8  C   UNL     1     -42.489 -32.439  26.490  1.00  0.00     0.000 C 
BRANCH   8   9
ATOM      9  C   UNL     1     -41.078 -31.875  26.261  1.00  0.00     0.000 C 
BRANCH   9  10
ATOM     10  C   UNL     1     -40.137 -32.881  25.582  1.00  0.00     0.006 C 
BRANCH  10  11
ATOM     11  C   UNL     1     -39.523 -32.336  24.285  1.00  0.00     0.053 C 
BRANCH  11  12
ATOM     12  C   UNL     1     -38.122 -32.834  24.118  1.00  0.00     0.041 C 
ATOM     13  O   UNL     1     -37.511 -33.346  25.093  1.00  0.00    -0.550 OA
ATOM     14  O   UNL     1     -37.502 -32.764  22.877  1.00  0.00    -0.550 OA
ENDBRANCH  11  12
ENDBRANCH  10  11
ENDBRANCH   9  10
ENDBRANCH   8   9
ENDBRANCH   7   8
ENDBRANCH   6   7
ENDBRANCH   5   6
ENDBRANCH   4   5
ENDBRANCH   3   4
ENDBRANCH   2   3
ENDBRANCH   1   2
BRANCH   1  15
ATOM     15  C   UNL     1     -45.166 -36.163  19.716  1.00  0.00     0.000 C 
BRANCH  15  16
ATOM     16  C   UNL     1     -44.194 -37.039  18.899  1.00  0.00     0.000 C 
BRANCH  16  17
ATOM     17  C   UNL     1     -44.851 -37.948  17.844  1.00  0.00     0.000 C 
BRANCH  17  18
ATOM     18  C   UNL     1     -44.166 -37.863  16.470  1.00  0.00    -0.000 C 
BRANCH  18  19
ATOM     19  C   UNL     1     -45.172 -37.820  15.306  1.00  0.00    -0.000 C 
BRANCH  19  20
ATOM     20  C   UNL     1     -44.546 -37.776  13.897  1.00  0.00    -0.000 C 
BRANCH  20  21
ATOM     21  C   UNL     1     -45.119 -36.696  12.961  1.00  0.00    -0.000 C 
BRANCH  21  22
ATOM     22  C   UNL     1     -46.122 -35.769  13.663  1.00  0.00    -0.000 C 
BRANCH  22  23
ATOM     23  C   UNL     1     -45.418 -34.534  14.245  1.00  0.00    -0.000 C 
BRANCH  23  24
ATOM     24  C   UNL     1     -45.498 -34.467  15.780  1.00  0.00    -0.000 C 
BRANCH  24  25
ATOM     25  C   UNL     1     -44.527 -33.468  16.435  1.00  0.00    -0.003 C 
ATOM     26  C   UNL     1     -44.647 -32.057  15.862  1.00  0.00     0.004 C 
ENDBRANCH  24  25
ENDBRANCH  23  24
ENDBRANCH  22  23
ENDBRANCH  21  22
ENDBRANCH  20  21
ENDBRANCH  19  20
ENDBRANCH  18  19
ENDBRANCH  17  18
ENDBRANCH  16  17
ENDBRANCH  15  16
ENDBRANCH   1  15
TORSDOF 22
ENDMDL
MODEL 3
REMARK VINA RESULT:    -3.362      1.178      2.516
REMARK INTER + INTRA:          -9.483
REMARK INTER:                  -8.019
REMARK INTRA:                  -1.464
REMARK UNBOUND:                -1.798
REMARK SMILES CCCCCCCCCCCCCCCCCCCCCCCC(=O)[O-]
REMARK SMILES IDX 13 1 14 2 15 3 16 4 17 5 18 6 19 7 20 8 21 9 22 10 23 11
REMARK SMILES IDX 24 12 25 13 26 14 12 15 11 16 10 17 9 18 8 19 7 20 6 21 5 22
REMARK SMILES IDX 4 23 3 24 2 25 1 26
REMARK H PARENT
REMARK Flexibility Score: inf
ROOT
ATOM      1  C   UNL     1     -44.348 -36.737  20.399  1.00  0.00     0.000 C 
ENDROOT
BRANCH   1   2
ATOM      2  C   UNL     1     -44.491 -35.248  20.757  1.00  0.00     0.000 C 
BRANCH   2   3
ATOM      3  C   UNL     1     -45.149 -35.038  22.130  1.00  0.00     0.000 C 
BRANCH   3   4
ATOM      4  C   UNL     1     -45.123 -33.563  22.572  1.00  0.00     0.000 C 
BRANCH   4   5
ATOM      5  C   UNL     1     -45.632 -33.371  24.010  1.00  0.00     0.000 C 
BRANCH   5   6
ATOM      6  C   UNL     1     -44.809 -32.329  24.788  1.00  0.00     0.000 C 
BRANCH   6   7
ATOM      7  C   UNL     1     -45.226 -32.228  26.264  1.00  0.00     0.000 C 
BRANCH   7   8
ATOM      8  C   UNL     1     -44.436 -33.180  27.175  1.00  0.00     0.000 C 
BRANCH   8   9
ATOM      9  C   UNL     1     -43.019 -33.411  26.626  1.00  0.00     0.000 C 
BRANCH   9  10
ATOM     10  C   UNL     1     -42.027 -32.321  27.058  1.00  0.00     0.006 C 
BRANCH  10  11
ATOM     11  C   UNL     1     -40.889 -32.867  27.931  1.00  0.00     0.053 C 
BRANCH  11  12
ATOM     12  C   UNL     1     -39.596 -32.848  27.179  1.00  0.00     0.041 C 
ATOM     13  O   UNL     1     -38.505 -33.004  27.789  1.00  0.00    -0.550 OA
ATOM     14  O   UNL     1     -39.596 -32.692  25.798  1.00  0.00    -0.550 OA
ENDBRANCH  11  12
ENDBRANCH  10  11
ENDBRANCH   9  10
ENDBRANCH   8   9
ENDBRANCH   7   8
ENDBRANCH   6   7
ENDBRANCH   5   6
ENDBRANCH   4   5
ENDBRANCH   3   4
ENDBRANCH   2   3
ENDBRANCH   1   2
BRANCH   1  15
ATOM     15  C   UNL     1     -45.701 -37.409  20.098  1.00  0.00     0.000 C 
BRANCH  15  16
ATOM     16  C   UNL     1     -45.865 -37.925  18.653  1.00  0.00     0.000 C 
BRANCH  16  17
ATOM     17  C   UNL     1     -44.703 -37.598  17.698  1.00  0.00     0.000 C 
BRANCH  17  18
ATOM     18  C   UNL     1     -45.123 -37.608  16.219  1.00  0.00    -0.000 C 
BRANCH  18  19
ATOM     19  C   UNL     1     -43.972 -38.004  15.277  1.00  0.00    -0.000 C 
BRANCH  19  20
ATOM     20  C   UNL     1     -44.277 -37.865  13.771  1.00  0.00    -0.000 C 
BRANCH  20  21
ATOM     21  C   UNL     1     -45.533 -37.043  13.433  1.00  0.00    -0.000 C 
BRANCH  21  22
ATOM     22  C   UNL     1     -45.276 -35.973  12.362  1.00  0.00    -0.000 C 
BRANCH  22  23
ATOM     23  C   UNL     1     -46.121 -34.716  12.622  1.00  0.00    -0.000 C 
BRANCH  23  24
ATOM     24  C   UNL     1     -45.329 -33.597  13.321  1.00  0.00    -0.000 C 
BRANCH  24  25
ATOM     25  C   UNL     1     -45.880 -33.177  14.696  1.00  0.00    -0.003 C 
ATOM     26  C   UNL     1     -45.260 -33.960  15.852  1.00  0.00     0.004 C 
ENDBRANCH  24  25
ENDBRANCH  23  24
ENDBRANCH  22  23
ENDBRANCH  21  22
ENDBRANCH  20  21
ENDBRANCH  19  20
ENDBRANCH  18  19
ENDBRANCH  17  18
ENDBRANCH  16  17
ENDBRANCH  15  16
ENDBRANCH   1  15
TORSDOF 22
ENDMDL
MODEL 4
REMARK VINA RESULT:    -3.244      3.877     11.319
REMARK INTER + INTRA:          -9.214
REMARK INTER:                  -8.069
REMARK INTRA:                  -1.145
REMARK UNBOUND:                -1.798
REMARK SMILES CCCCCCCCCCCCCCCCCCCCCCCC(=O)[O-]
REMARK SMILES IDX 13 1 14 2 15 3 16 4 17 5 18 6 19 7 20 8 21 9 22 10 23 11
REMARK SMILES IDX 24 12 25 13 26 14 12 15 11 16 10 17 9 18 8 19 7 20 6 21 5 22
REMARK SMILES IDX 4 23 3 24 2 25 1 26
REMARK H PARENT
REMARK Flexibility Score: inf
ROOT
ATOM      1  C   UNL     1     -44.246 -37.126  19.305  1.00  0.00     0.000 C 
ENDROOT
BRANCH   1   2
ATOM      2  C   UNL     1     -45.131 -37.013  18.052  1.00  0.00     0.000 C 
BRANCH   2   3
ATOM      3  C   UNL     1     -44.464 -37.624  16.809  1.00  0.00     0.000 C 
BRANCH   3   4
ATOM      4  C   UNL     1     -45.247 -37.326  15.518  1.00  0.00     0.000 C 
BRANCH   4   5
ATOM      5  C   UNL     1     -44.896 -38.299  14.379  1.00  0.00     0.000 C 
BRANCH   5   6
ATOM      6  C   UNL     1     -45.347 -37.777  13.004  1.00  0.00     0.000 C 
BRANCH   6   7
ATOM      7  C   UNL     1     -44.631 -36.478  12.600  1.00  0.00     0.000 C 
BRANCH   7   8
ATOM      8  C   UNL     1     -45.604 -35.355  12.210  1.00  0.00     0.000 C 
BRANCH   8   9
ATOM      9  C   UNL     1     -45.955 -34.488  13.429  1.00  0.00     0.000 C 
BRANCH   9  10
ATOM     10  C   UNL     1     -45.835 -32.984  13.145  1.00  0.00     0.006 C 
BRANCH  10  11
ATOM     11  C   UNL     1     -44.874 -32.274  14.109  1.00  0.00     0.053 C 
BRANCH  11  12
ATOM     12  C   UNL     1     -45.219 -32.600  15.528  1.00  0.00     0.041 C 
ATOM     13  O   UNL     1     -46.123 -31.956  16.124  1.00  0.00    -0.550 OA
ATOM     14  O   UNL     1     -44.566 -33.637  16.183  1.00  0.00    -0.550 OA
ENDBRANCH  11  12
ENDBRANCH  10  11
ENDBRANCH   9  10
ENDBRANCH   8   9
ENDBRANCH   7   8
ENDBRANCH   6   7
ENDBRANCH   5   6
ENDBRANCH   4   5
ENDBRANCH   3   4
ENDBRANCH   2   3
ENDBRANCH   1   2
BRANCH   1  15
ATOM     15  C   UNL     1     -45.062 -37.139  20.610  1.00  0.00     0.000 C 
BRANCH  15  16
ATOM     16  C   UNL     1     -44.753 -35.983  21.585  1.00  0.00     0.000 C 
BRANCH  16  17
ATOM     17  C   UNL     1     -45.306 -34.606  21.175  1.00  0.00     0.000 C 
BRANCH  17  18
ATOM     18  C   UNL     1     -45.400 -33.623  22.354  1.00  0.00    -0.000 C 
BRANCH  18  19
ATOM     19  C   UNL     1     -44.063 -33.459  23.098  1.00  0.00    -0.000 C 
BRANCH  19  20
ATOM     20  C   UNL     1     -44.160 -32.787  24.483  1.00  0.00    -0.000 C 
BRANCH  20  21
ATOM     21  C   UNL     1     -42.843 -32.740  25.280  1.00  0.00    -0.000 C 
BRANCH  21  22
ATOM     22  C   UNL     1     -43.065 -32.621  26.794  1.00  0.00    -0.000 C 
BRANCH  22  23
ATOM     23  C   UNL     1     -44.418 -33.224  27.203  1.00  0.00    -0.000 C 
BRANCH  23  24
ATOM     24  C   UNL     1     -44.463 -33.643  28.683  1.00  0.00    -0.000 C 
BRANCH  24  25
ATOM     25  C   UNL     1     -44.851 -35.113  28.927  1.00  0.00    -0.003 C 
ATOM     26  C   UNL     1     -43.641 -36.043  29.016  1.00  0.00     0.004 C 
ENDBRANCH  24  25
ENDBRANCH  23  24
ENDBRANCH  22  23
ENDBRANCH  21  22
ENDBRANCH  20  21
ENDBRANCH  19  20
ENDBRANCH  18  19
ENDBRANCH  17  18
ENDBRANCH  16  17
ENDBRANCH  15  16
ENDBRANCH   1  15
TORSDOF 22
ENDMDL
MODEL 5
REMARK VINA RESULT:    -3.179      3.851     11.375
REMARK INTER + INTRA:          -9.065
REMARK INTER:                  -7.566
REMARK INTRA:                  -1.499
REMARK UNBOUND:                -1.798
REMARK SMILES CCCCCCCCCCCCCCCCCCCCCCCC(=O)[O-]
REMARK SMILES IDX 13 1 14 2 15 3 16 4 17 5 18 6 19 7 20 8 21 9 22 10 23 11
REMARK SMILES IDX 24 12 25 13 26 14 12 15 11 16 10 17 9 18 8 19 7 20 6 21 5 22
REMARK SMILES IDX 4 23 3 24 2 25 1 26
REMARK H PARENT
REMARK Flexibility Score: inf
ROOT
ATOM      1  C   UNL     1     -44.346 -36.573  19.864  1.00  0.00     0.000 C 
ENDROOT
BRANCH   1   2
ATOM      2  C   UNL     1     -45.846 -36.447  19.550  1.00  0.00     0.000 C 
BRANCH   2   3
ATOM      3  C   UNL     1     -46.121 -35.460  18.404  1.00  0.00     0.000 C 
BRANCH   3   4
ATOM      4  C   UNL     1     -44.859 -34.684  17.984  1.00  0.00     0.000 C 
BRANCH   4   5
ATOM      5  C   UNL     1     -44.639 -34.697  16.462  1.00  0.00     0.000 C 
BRANCH   5   6
ATOM      6  C   UNL     1     -45.894 -34.263  15.685  1.00  0.00     0.000 C 
BRANCH   6   7
ATOM      7  C   UNL     1     -45.654 -34.187  14.169  1.00  0.00     0.000 C 
BRANCH   7   8
ATOM      8  C   UNL     1     -46.038 -35.483  13.438  1.00  0.00     0.000 C 
BRANCH   8   9
ATOM      9  C   UNL     1     -44.867 -36.001  12.589  1.00  0.00     0.000 C 
BRANCH   9  10
ATOM     10  C   UNL     1     -44.466 -37.441  12.942  1.00  0.00     0.006 C 
BRANCH  10  11
ATOM     11  C   UNL     1     -45.318 -38.033  14.073  1.00  0.00     0.053 C 
BRANCH  11  12
ATOM     12  C   UNL     1     -44.508 -38.167  15.324  1.00  0.00     0.041 C 
ATOM     13  O   UNL     1     -43.252 -38.091  15.277  1.00  0.00    -0.550 OA
ATOM     14  O   UNL     1     -45.142 -38.342  16.548  1.00  0.00    -0.550 OA
ENDBRANCH  11  12
ENDBRANCH  10  11
ENDBRANCH   9  10
ENDBRANCH   8   9
ENDBRANCH   7   8
ENDBRANCH   6   7
ENDBRANCH   5   6
ENDBRANCH   4   5
ENDBRANCH   3   4
ENDBRANCH   2   3
ENDBRANCH   1   2
BRANCH   1  15
ATOM     15  C   UNL     1     -43.898 -35.645  21.008  1.00  0.00     0.000 C 
BRANCH  15  16
ATOM     16  C   UNL     1     -45.013 -34.764  21.608  1.00  0.00     0.000 C 
BRANCH  16  17
ATOM     17  C   UNL     1     -44.557 -33.768  22.691  1.00  0.00     0.000 C 
BRANCH  17  18
ATOM     18  C   UNL     1     -45.385 -33.868  23.983  1.00  0.00    -0.000 C 
BRANCH  18  19
ATOM     19  C   UNL     1     -45.620 -32.498  24.645  1.00  0.00    -0.000 C 
BRANCH  19  20
ATOM     20  C   UNL     1     -44.411 -31.924  25.413  1.00  0.00    -0.000 C 
BRANCH  20  21
ATOM     21  C   UNL     1     -44.252 -32.436  26.856  1.00  0.00    -0.000 C 
BRANCH  21  22
ATOM     22  C   UNL     1     -43.146 -33.492  26.996  1.00  0.00    -0.000 C 
BRANCH  22  23
ATOM     23  C   UNL     1     -42.933 -33.877  28.468  1.00  0.00    -0.000 C 
BRANCH  23  24
ATOM     24  C   UNL     1     -41.666 -33.247  29.074  1.00  0.00    -0.000 C 
BRANCH  24  25
ATOM     25  C   UNL     1     -40.871 -32.343  28.114  1.00  0.00    -0.003 C 
ATOM     26  C   UNL     1     -39.362 -32.564  28.199  1.00  0.00     0.004 C 
ENDBRANCH  24  25
ENDBRANCH  23  24
ENDBRANCH  22  23
ENDBRANCH  21  22
ENDBRANCH  20  21
ENDBRANCH  19  20
ENDBRANCH  18  19
ENDBRANCH  17  18
ENDBRANCH  16  17
ENDBRANCH  15  16
ENDBRANCH   1  15
TORSDOF 22
ENDMDL
MODEL 6
REMARK VINA RESULT:    -3.162      3.614     11.419
REMARK INTER + INTRA:          -9.026
REMARK INTER:                  -7.886
REMARK INTRA:                  -1.140
REMARK UNBOUND:                -1.798
REMARK SMILES CCCCCCCCCCCCCCCCCCCCCCCC(=O)[O-]
REMARK SMILES IDX 13 1 14 2 15 3 16 4 17 5 18 6 19 7 20 8 21 9 22 10 23 11
REMARK SMILES IDX 24 12 25 13 26 14 12 15 11 16 10 17 9 18 8 19 7 20 6 21 5 22
REMARK SMILES IDX 4 23 3 24 2 25 1 26
REMARK H PARENT
REMARK Flexibility Score: inf
ROOT
ATOM      1  C   UNL     1     -44.953 -36.925  19.384  1.00  0.00     0.000 C 
ENDROOT
BRANCH   1   2
ATOM      2  C   UNL     1     -44.781 -36.616  17.887  1.00  0.00     0.000 C 
BRANCH   2   3
ATOM      3  C   UNL     1     -44.751 -37.890  17.028  1.00  0.00     0.000 C 
BRANCH   3   4
ATOM      4  C   UNL     1     -43.738 -37.794  15.873  1.00  0.00     0.000 C 
BRANCH   4   5
ATOM      5  C   UNL     1     -44.335 -38.241  14.528  1.00  0.00     0.000 C 
BRANCH   5   6
ATOM      6  C   UNL     1     -45.289 -37.191  13.932  1.00  0.00     0.000 C 
BRANCH   6   7
ATOM      7  C   UNL     1     -44.688 -36.468  12.716  1.00  0.00     0.000 C 
BRANCH   7   8
ATOM      8  C   UNL     1     -45.486 -35.221  12.307  1.00  0.00     0.000 C 
BRANCH   8   9
ATOM      9  C   UNL     1     -45.939 -34.432  13.545  1.00  0.00     0.000 C 
BRANCH   9  10
ATOM     10  C   UNL     1     -45.661 -32.926  13.426  1.00  0.00     0.006 C 
BRANCH  10  11
ATOM     11  C   UNL     1     -45.901 -32.174  14.742  1.00  0.00     0.053 C 
BRANCH  11  12
ATOM     12  C   UNL     1     -44.758 -32.387  15.684  1.00  0.00     0.041 C 
ATOM     13  O   UNL     1     -43.618 -31.928  15.411  1.00  0.00    -0.550 OA
ATOM     14  O   UNL     1     -44.960 -33.064  16.881  1.00  0.00    -0.550 OA
ENDBRANCH  11  12
ENDBRANCH  10  11
ENDBRANCH   9  10
ENDBRANCH   8   9
ENDBRANCH   7   8
ENDBRANCH   6   7
ENDBRANCH   5   6
ENDBRANCH   4   5
ENDBRANCH   3   4
ENDBRANCH   2   3
ENDBRANCH   1   2
BRANCH   1  15
ATOM     15  C   UNL     1     -45.737 -35.831  20.131  1.00  0.00     0.000 C 
BRANCH  15  16
ATOM     16  C   UNL     1     -45.109 -35.372  21.464  1.00  0.00     0.000 C 
BRANCH  16  17
ATOM     17  C   UNL     1     -45.310 -33.886  21.813  1.00  0.00     0.000 C 
BRANCH  17  18
ATOM     18  C   UNL     1     -45.591 -33.655  23.307  1.00  0.00    -0.000 C 
BRANCH  18  19
ATOM     19  C   UNL     1     -44.942 -32.365  23.841  1.00  0.00    -0.000 C 
BRANCH  19  20
ATOM     20  C   UNL     1     -43.635 -32.567  24.635  1.00  0.00    -0.000 C 
BRANCH  20  21
ATOM     21  C   UNL     1     -43.688 -32.111  26.104  1.00  0.00    -0.000 C 
BRANCH  21  22
ATOM     22  C   UNL     1     -43.326 -33.230  27.091  1.00  0.00    -0.000 C 
BRANCH  22  23
ATOM     23  C   UNL     1     -41.803 -33.401  27.199  1.00  0.00    -0.000 C 
BRANCH  23  24
ATOM     24  C   UNL     1     -41.055 -32.059  27.287  1.00  0.00    -0.000 C 
BRANCH  24  25
ATOM     25  C   UNL     1     -40.197 -31.879  28.552  1.00  0.00    -0.003 C 
ATOM     26  C   UNL     1     -39.509 -33.169  28.996  1.00  0.00     0.004 C 
ENDBRANCH  24  25
ENDBRANCH  23  24
ENDBRANCH  22  23
ENDBRANCH  21  22
ENDBRANCH  20  21
ENDBRANCH  19  20
ENDBRANCH  18  19
ENDBRANCH  17  18
ENDBRANCH  16  17
ENDBRANCH  15  16
ENDBRANCH   1  15
TORSDOF 22
ENDMDL
MODEL 7
REMARK VINA RESULT:    -3.127      4.386     11.330
REMARK INTER + INTRA:          -8.947
REMARK INTER:                  -7.879
REMARK INTRA:                  -1.067
REMARK UNBOUND:                -1.798
REMARK SMILES CCCCCCCCCCCCCCCCCCCCCCCC(=O)[O-]
REMARK SMILES IDX 13 1 14 2 15 3 16 4 17 5 18 6 19 7 20 8 21 9 22 10 23 11
REMARK SMILES IDX 24 12 25 13 26 14 12 15 11 16 10 17 9 18 8 19 7 20 6 21 5 22
REMARK SMILES IDX 4 23 3 24 2 25 1 26
REMARK H PARENT
REMARK Flexibility Score: inf
ROOT
ATOM      1  C   UNL     1     -42.821 -33.101  23.712  1.00  0.00     0.000 C 
ENDROOT
BRANCH   1   2
ATOM      2  C   UNL     1     -43.742 -33.959  22.827  1.00  0.00     0.000 C 
BRANCH   2   3
ATOM      3  C   UNL     1     -45.021 -33.212  22.419  1.00  0.00     0.000 C 
BRANCH   3   4
ATOM      4  C   UNL     1     -46.125 -34.165  21.927  1.00  0.00     0.000 C 
BRANCH   4   5
ATOM      5  C   UNL     1     -45.689 -34.987  20.703  1.00  0.00     0.000 C 
BRANCH   5   6
ATOM      6  C   UNL     1     -45.052 -36.332  21.097  1.00  0.00     0.000 C 
BRANCH   6   7
ATOM      7  C   UNL     1     -45.467 -37.480  20.163  1.00  0.00     0.000 C 
BRANCH   7   8
ATOM      8  C   UNL     1     -45.628 -37.034  18.702  1.00  0.00     0.000 C 
BRANCH   8   9
ATOM      9  C   UNL     1     -44.629 -37.768  17.794  1.00  0.00     0.000 C 
BRANCH   9  10
ATOM     10  C   UNL     1     -45.232 -38.153  16.435  1.00  0.00     0.006 C 
BRANCH  10  11
ATOM     11  C   UNL     1     -44.226 -38.026  15.283  1.00  0.00     0.053 C 
BRANCH  11  12
ATOM     12  C   UNL     1     -44.676 -36.988  14.304  1.00  0.00     0.041 C 
ATOM     13  O   UNL     1     -44.601 -37.209  13.067  1.00  0.00    -0.550 OA
ATOM     14  O   UNL     1     -45.211 -35.789  14.758  1.00  0.00    -0.550 OA
ENDBRANCH  11  12
ENDBRANCH  10  11
ENDBRANCH   9  10
ENDBRANCH   8   9
ENDBRANCH   7   8
ENDBRANCH   6   7
ENDBRANCH   5   6
ENDBRANCH   4   5
ENDBRANCH   3   4
ENDBRANCH   2   3
ENDBRANCH   1   2
BRANCH   1  15
ATOM     15  C   UNL     1     -43.583 -32.001  24.472  1.00  0.00     0.000 C 
BRANCH  15  16
ATOM     16  C   UNL     1     -43.485 -32.083  26.010  1.00  0.00     0.000 C 
BRANCH  16  17
ATOM     17  C   UNL     1     -44.138 -33.322  26.649  1.00  0.00     0.000 C 
BRANCH  17  18
ATOM     18  C   UNL     1     -44.165 -33.259  28.186  1.00  0.00    -0.000 C 
BRANCH  18  19
ATOM     19  C   UNL     1     -42.834 -33.696  28.822  1.00  0.00    -0.000 C 
BRANCH  19  20
ATOM     20  C   UNL     1     -41.758 -32.595  28.917  1.00  0.00    -0.000 C 
BRANCH  20  21
ATOM     21  C   UNL     1     -40.306 -33.103  28.968  1.00  0.00    -0.000 C 
BRANCH  21  22
ATOM     22  C   UNL     1     -39.371 -32.336  28.023  1.00  0.00    -0.000 C 
BRANCH  22  23
ATOM     23  C   UNL     1     -39.024 -33.176  26.785  1.00  0.00    -0.000 C 
BRANCH  23  24
ATOM     24  C   UNL     1     -37.642 -32.838  26.199  1.00  0.00    -0.000 C 
BRANCH  24  25
ATOM     25  C   UNL     1     -37.573 -32.841  24.661  1.00  0.00    -0.003 C 
ATOM     26  C   UNL     1     -38.950 -32.917  24.003  1.00  0.00     0.004 C 
ENDBRANCH  24  25
ENDBRANCH  23  24
ENDBRANCH  22  23
ENDBRANCH  21  22
ENDBRANCH  20  21
ENDBRANCH  19  20
ENDBRANCH  18  19
ENDBRANCH  17  18
ENDBRANCH  16  17
ENDBRANCH  15  16
ENDBRANCH   1  15
TORSDOF 22
ENDMDL
MODEL 8
REMARK VINA RESULT:    -1.294      4.444     11.008
REMARK INTER + INTRA:          -4.756
REMARK INTER:                  -2.786
REMARK INTRA:                  -1.970
REMARK UNBOUND:                -1.798
REMARK SMILES CCCCCCCCCCCCCCCCCCCCCCCC(=O)[O-]
REMARK SMILES IDX 13 1 14 2 15 3 16 4 17 5 18 6 19 7 20 8 21 9 22 10 23 11
REMARK SMILES IDX 24 12 25 13 26 14 12 15 11 16 10 17 9 18 8 19 7 20 6 21 5 22
REMARK SMILES IDX 4 23 3 24 2 25 1 26
REMARK H PARENT
REMARK Flexibility Score: inf
ROOT
ATOM      1  C   UNL     1     -43.496 -32.679  24.085  1.00  0.00     0.000 C 
ENDROOT
BRANCH   1   2
ATOM      2  C   UNL     1     -44.847 -32.078  24.507  1.00  0.00     0.000 C 
BRANCH   2   3
ATOM      3  C   UNL     1     -46.005 -33.077  24.348  1.00  0.00     0.000 C 
BRANCH   3   4
ATOM      4  C   UNL     1     -45.642 -34.251  23.421  1.00  0.00     0.000 C 
BRANCH   4   5
ATOM      5  C   UNL     1     -46.125 -34.032  21.977  1.00  0.00     0.000 C 
BRANCH   5   6
ATOM      6  C   UNL     1     -45.104 -34.526  20.937  1.00  0.00     0.000 C 
BRANCH   6   7
ATOM      7  C   UNL     1     -44.756 -36.013  21.110  1.00  0.00     0.000 C 
BRANCH   7   8
ATOM      8  C   UNL     1     -45.998 -36.915  21.170  1.00  0.00     0.000 C 
BRANCH   8   9
ATOM      9  C   UNL     1     -46.026 -37.887  19.980  1.00  0.00     0.000 C 
BRANCH   9  10
ATOM     10  C   UNL     1     -45.808 -37.186  18.632  1.00  0.00     0.006 C 
BRANCH  10  11
ATOM     11  C   UNL     1     -44.553 -37.683  17.901  1.00  0.00     0.053 C 
BRANCH  11  12
ATOM     12  C   UNL     1     -44.694 -37.490  16.424  1.00  0.00     0.041 C 
ATOM     13  O   UNL     1     -45.503 -36.638  15.971  1.00  0.00    -0.550 OA
ATOM     14  O   UNL     1     -43.906 -38.226  15.548  1.00  0.00    -0.550 OA
ENDBRANCH  11  12
ENDBRANCH  10  11
ENDBRANCH   9  10
ENDBRANCH   8   9
ENDBRANCH   7   8
ENDBRANCH   6   7
ENDBRANCH   5   6
ENDBRANCH   4   5
ENDBRANCH   3   4
ENDBRANCH   2   3
ENDBRANCH   1   2
BRANCH   1  15
ATOM     15  C   UNL     1     -42.296 -31.875  24.617  1.00  0.00     0.000 C 
BRANCH  15  16
ATOM     16  C   UNL     1     -40.925 -32.290  24.042  1.00  0.00     0.000 C 
BRANCH  16  17
ATOM     17  C   UNL     1     -39.729 -32.122  24.997  1.00  0.00     0.000 C 
BRANCH  17  18
ATOM     18  C   UNL     1     -38.612 -33.148  24.742  1.00  0.00    -0.000 C 
BRANCH  18  19
ATOM     19  C   UNL     1     -38.082 -33.783  26.040  1.00  0.00    -0.000 C 
BRANCH  19  20
ATOM     20  C   UNL     1     -38.055 -32.848  27.267  1.00  0.00    -0.000 C 
BRANCH  20  21
ATOM     21  C   UNL     1     -38.897 -33.320  28.466  1.00  0.00    -0.000 C 
BRANCH  21  22
ATOM     22  C   UNL     1     -40.158 -32.471  28.681  1.00  0.00    -0.000 C 
BRANCH  22  23
ATOM     23  C   UNL     1     -41.385 -33.130  28.033  1.00  0.00    -0.000 C 
BRANCH  23  24
ATOM     24  C   UNL     1     -42.396 -33.659  29.066  1.00  0.00    -0.000 C 
BRANCH  24  25
ATOM     25  C   UNL     1     -43.534 -34.513  28.478  1.00  0.00    -0.003 C 
ATOM     26  C   UNL     1     -44.651 -33.675  27.859  1.00  0.00     0.004 C 
ENDBRANCH  24  25
ENDBRANCH  23  24
ENDBRANCH  22  23
ENDBRANCH  21  22
ENDBRANCH  20  21
ENDBRANCH  19  20
ENDBRANCH  18  19
ENDBRANCH  17  18
ENDBRANCH  16  17
ENDBRANCH  15  16
ENDBRANCH   1  15
TORSDOF 22
ENDMDL
