MODEL 1
REMARK VINA RESULT:    -1.091      0.000      0.000
REMARK INTER + INTRA:          -1.606
REMARK INTER:                  -2.750
REMARK INTRA:                   1.143
REMARK UNBOUND:                 1.143
REMARK SMILES CCCCCCCCCCCCCCCCCCCCCCCCCCCC(=O)[O-]
REMARK SMILES IDX 15 1 16 2 17 3 18 4 19 5 20 6 21 7 22 8 23 9 24 10 25 11
REMARK SMILES IDX 26 12 27 13 28 14 29 15 30 16 14 17 13 18 12 19 11 20 10 21
REMARK SMILES IDX 9 22 8 23 7 24 6 25 5 26 4 27 3 28 2 29 1 30
REMARK H PARENT
REMARK Flexibility Score: inf
ROOT
ATOM      1  C   UNL     1       0.779  23.880   8.915  1.00  0.00     0.000 C 
ENDROOT
BRANCH   1   2
ATOM      2  C   UNL     1      -0.531  24.550   8.482  1.00  0.00     0.000 C 
BRANCH   2   3
ATOM      3  C   UNL     1      -1.108  23.875   7.231  1.00  0.00     0.000 C 
BRANCH   3   4
ATOM      4  C   UNL     1      -1.038  24.815   6.018  1.00  0.00     0.000 C 
BRANCH   4   5
ATOM      5  C   UNL     1      -0.297  26.128   6.325  1.00  0.00     0.000 C 
BRANCH   5   6
ATOM      6  C   UNL     1      -0.111  27.064   5.114  1.00  0.00     0.000 C 
BRANCH   6   7
ATOM      7  C   UNL     1       0.293  26.365   3.800  1.00  0.00     0.000 C 
BRANCH   7   8
ATOM      8  C   UNL     1      -0.722  25.341   3.261  1.00  0.00     0.000 C 
BRANCH   8   9
ATOM      9  C   UNL     1      -0.093  23.965   2.982  1.00  0.00     0.000 C 
BRANCH   9  10
ATOM     10  C   UNL     1       1.374  23.875   3.441  1.00  0.00     0.000 C 
BRANCH  10  11
ATOM     11  C   UNL     1       1.581  23.899   4.967  1.00  0.00     0.000 C 
BRANCH  11  12
ATOM     12  C   UNL     1       3.055  24.076   5.366  1.00  0.00     0.006 C 
BRANCH  12  13
ATOM     13  C   UNL     1       3.251  25.224   6.366  1.00  0.00     0.053 C 
BRANCH  13  14
ATOM     14  C   UNL     1       4.408  24.974   7.285  1.00  0.00     0.041 C 
ATOM     15  O   UNL     1       5.439  25.695   7.218  1.00  0.00    -0.550 OA
ATOM     16  O   UNL     1       4.336  23.965   8.236  1.00  0.00    -0.550 OA
ENDBRANCH  13  14
ENDBRANCH  12  13
ENDBRANCH  11  12
ENDBRANCH  10  11
ENDBRANCH   9  10
ENDBRANCH   8   9
ENDBRANCH   7   8
ENDBRANCH   6   7
ENDBRANCH   5   6
ENDBRANCH   4   5
ENDBRANCH   3   4
ENDBRANCH   2   3
ENDBRANCH   1   2
BRANCH   1  17
ATOM     17  C   UNL     1       0.970  23.983  10.435  1.00  0.00     0.000 C 
BRANCH  17  18
ATOM     18  C   UNL     1       2.362  24.506  10.835  1.00  0.00     0.000 C 
BRANCH  18  19
ATOM     19  C   UNL     1       2.374  25.880  11.530  1.00  0.00     0.000 C 
BRANCH  19  20
ATOM     20  C   UNL     1       3.693  26.171  12.265  1.00  0.00     0.000 C 
BRANCH  20  21
ATOM     21  C   UNL     1       4.649  24.967  12.253  1.00  0.00     0.000 C 
BRANCH  21  22
ATOM     22  C   UNL     1       4.396  23.999  13.423  1.00  0.00    -0.000 C 
BRANCH  22  23
ATOM     23  C   UNL     1       2.965  24.130  13.987  1.00  0.00    -0.000 C 
BRANCH  23  24
ATOM     24  C   UNL     1       2.681  25.491  14.649  1.00  0.00    -0.000 C 
BRANCH  24  25
ATOM     25  C   UNL     1       1.700  25.392  15.825  1.00  0.00    -0.000 C 
BRANCH  25  26
ATOM     26  C   UNL     1       1.124  23.974  15.948  1.00  0.00    -0.000 C 
BRANCH  26  27
ATOM     27  C   UNL     1      -0.416  23.953  15.936  1.00  0.00    -0.000 C 
BRANCH  27  28
ATOM     28  C   UNL     1      -1.071  24.736  14.781  1.00  0.00    -0.000 C 
BRANCH  28  29
ATOM     29  C   UNL     1      -0.638  24.297  13.371  1.00  0.00    -0.003 C 
ATOM     30  C   UNL     1      -1.125  25.245  12.277  1.00  0.00     0.004 C 
ENDBRANCH  28  29
ENDBRANCH  27  28
ENDBRANCH  26  27
ENDBRANCH  25  26
ENDBRANCH  24  25
ENDBRANCH  23  24
ENDBRANCH  22  23
ENDBRANCH  21  22
ENDBRANCH  20  21
ENDBRANCH  19  20
ENDBRANCH  18  19
ENDBRANCH  17  18
ENDBRANCH   1  17
TORSDOF 26
ENDMDL
MODEL 2
REMARK VINA RESULT:    -1.059      1.270      3.419
REMARK INTER + INTRA:          -1.526
REMARK INTER:                  -1.640
REMARK INTRA:                   0.114
REMARK UNBOUND:                 1.143
REMARK SMILES CCCCCCCCCCCCCCCCCCCCCCCCCCCC(=O)[O-]
REMARK SMILES IDX 15 1 16 2 17 3 18 4 19 5 20 6 21 7 22 8 23 9 24 10 25 11
REMARK SMILES IDX 26 12 27 13 28 14 29 15 30 16 14 17 13 18 12 19 11 20 10 21
REMARK SMILES IDX 9 22 8 23 7 24 6 25 5 26 4 27 3 28 2 29 1 30
REMARK H PARENT
REMARK Flexibility Score: inf
ROOT
ATOM      1  C   UNL     1      -0.077  25.480  10.395  1.00  0.00     0.000 C 
ENDROOT
BRANCH   1   2
ATOM      2  C   UNL     1      -0.103  24.093   9.741  1.00  0.00     0.000 C 
BRANCH   2   3
ATOM      3  C   UNL     1      -0.875  24.122   8.416  1.00  0.00     0.000 C 
BRANCH   3   4
ATOM      4  C   UNL     1      -0.683  25.466   7.697  1.00  0.00     0.000 C 
BRANCH   4   5
ATOM      5  C   UNL     1       0.023  25.317   6.337  1.00  0.00     0.000 C 
BRANCH   5   6
ATOM      6  C   UNL     1       0.118  26.616   5.512  1.00  0.00     0.000 C 
BRANCH   6   7
ATOM      7  C   UNL     1      -1.055  26.865   4.542  1.00  0.00     0.000 C 
BRANCH   7   8
ATOM      8  C   UNL     1      -0.845  26.340   3.110  1.00  0.00     0.000 C 
BRANCH   8   9
ATOM      9  C   UNL     1      -1.124  24.832   2.978  1.00  0.00     0.000 C 
BRANCH   9  10
ATOM     10  C   UNL     1       0.084  23.966   3.378  1.00  0.00     0.000 C 
BRANCH  10  11
ATOM     11  C   UNL     1       1.418  24.724   3.500  1.00  0.00     0.000 C 
BRANCH  11  12
ATOM     12  C   UNL     1       2.531  23.876   4.137  1.00  0.00     0.006 C 
BRANCH  12  13
ATOM     13  C   UNL     1       2.758  24.231   5.613  1.00  0.00     0.053 C 
BRANCH  13  14
ATOM     14  C   UNL     1       4.180  24.622   5.882  1.00  0.00     0.041 C 
ATOM     15  O   UNL     1       4.438  25.609   6.619  1.00  0.00    -0.550 OA
ATOM     16  O   UNL     1       5.220  23.875   5.343  1.00  0.00    -0.550 OA
ENDBRANCH  13  14
ENDBRANCH  12  13
ENDBRANCH  11  12
ENDBRANCH  10  11
ENDBRANCH   9  10
ENDBRANCH   8   9
ENDBRANCH   7   8
ENDBRANCH   6   7
ENDBRANCH   5   6
ENDBRANCH   4   5
ENDBRANCH   3   4
ENDBRANCH   2   3
ENDBRANCH   1   2
BRANCH   1  17
ATOM     17  C   UNL     1       0.961  25.533  11.526  1.00  0.00     0.000 C 
BRANCH  17  18
ATOM     18  C   UNL     1       0.394  26.101  12.839  1.00  0.00     0.000 C 
BRANCH  18  19
ATOM     19  C   UNL     1      -0.998  25.574  13.237  1.00  0.00     0.000 C 
BRANCH  19  20
ATOM     20  C   UNL     1      -0.936  24.400  14.229  1.00  0.00     0.000 C 
BRANCH  20  21
ATOM     21  C   UNL     1      -0.341  24.810  15.586  1.00  0.00     0.000 C 
BRANCH  21  22
ATOM     22  C   UNL     1       0.957  24.051  15.917  1.00  0.00    -0.000 C 
BRANCH  22  23
ATOM     23  C   UNL     1       2.012  24.188  14.800  1.00  0.00    -0.000 C 
BRANCH  23  24
ATOM     24  C   UNL     1       2.532  25.625  14.610  1.00  0.00    -0.000 C 
BRANCH  24  25
ATOM     25  C   UNL     1       3.807  25.693  13.759  1.00  0.00    -0.000 C 
BRANCH  25  26
ATOM     26  C   UNL     1       4.467  24.312  13.638  1.00  0.00    -0.000 C 
BRANCH  26  27
ATOM     27  C   UNL     1       4.840  23.955  12.188  1.00  0.00    -0.000 C 
BRANCH  27  28
ATOM     28  C   UNL     1       3.899  24.530  11.111  1.00  0.00    -0.000 C 
BRANCH  28  29
ATOM     29  C   UNL     1       4.235  24.117   9.668  1.00  0.00    -0.003 C 
ATOM     30  C   UNL     1       5.644  24.528   9.244  1.00  0.00     0.004 C 
ENDBRANCH  28  29
ENDBRANCH  27  28
ENDBRANCH  26  27
ENDBRANCH  25  26
ENDBRANCH  24  25
ENDBRANCH  23  24
ENDBRANCH  22  23
ENDBRANCH  21  22
ENDBRANCH  20  21
ENDBRANCH  19  20
ENDBRANCH  18  19
ENDBRANCH  17  18
ENDBRANCH   1  17
TORSDOF 26
ENDMDL
MODEL 3
REMARK VINA RESULT:    -0.517      1.679      4.281
REMARK INTER + INTRA:          -0.158
REMARK INTER:                   0.256
REMARK INTRA:                  -0.414
REMARK UNBOUND:                 1.143
REMARK SMILES CCCCCCCCCCCCCCCCCCCCCCCCCCCC(=O)[O-]
REMARK SMILES IDX 15 1 16 2 17 3 18 4 19 5 20 6 21 7 22 8 23 9 24 10 25 11
REMARK SMILES IDX 26 12 27 13 28 14 29 15 30 16 14 17 13 18 12 19 11 20 10 21
REMARK SMILES IDX 9 22 8 23 7 24 6 25 5 26 4 27 3 28 2 29 1 30
REMARK H PARENT
REMARK Flexibility Score: inf
ROOT
ATOM      1  C   UNL     1       4.316  24.203  10.287  1.00  0.00     0.000 C 
ENDROOT
BRANCH   1   2
ATOM      2  C   UNL     1       4.536  25.346   9.288  1.00  0.00     0.000 C 
BRANCH   2   3
ATOM      3  C   UNL     1       5.238  24.844   8.020  1.00  0.00     0.000 C 
BRANCH   3   4
ATOM      4  C   UNL     1       4.328  23.893   7.228  1.00  0.00     0.000 C 
BRANCH   4   5
ATOM      5  C   UNL     1       4.562  23.973   5.709  1.00  0.00     0.000 C 
BRANCH   5   6
ATOM      6  C   UNL     1       3.421  24.636   4.912  1.00  0.00     0.000 C 
BRANCH   6   7
ATOM      7  C   UNL     1       3.173  24.047   3.509  1.00  0.00     0.000 C 
BRANCH   7   8
ATOM      8  C   UNL     1       1.693  23.919   3.103  1.00  0.00     0.000 C 
BRANCH   8   9
ATOM      9  C   UNL     1       0.976  25.277   3.017  1.00  0.00     0.000 C 
BRANCH   9  10
ATOM     10  C   UNL     1      -0.557  25.140   2.972  1.00  0.00     0.000 C 
BRANCH  10  11
ATOM     11  C   UNL     1      -1.125  23.925   3.729  1.00  0.00     0.000 C 
BRANCH  11  12
ATOM     12  C   UNL     1      -0.743  23.917   5.218  1.00  0.00     0.006 C 
BRANCH  12  13
ATOM     13  C   UNL     1      -1.066  25.248   5.908  1.00  0.00     0.053 C 
BRANCH  13  14
ATOM     14  C   UNL     1       0.036  25.685   6.825  1.00  0.00     0.041 C 
ATOM     15  O   UNL     1      -0.176  25.802   8.060  1.00  0.00    -0.550 OA
ATOM     16  O   UNL     1       1.305  25.933   6.318  1.00  0.00    -0.550 OA
ENDBRANCH  13  14
ENDBRANCH  12  13
ENDBRANCH  11  12
ENDBRANCH  10  11
ENDBRANCH   9  10
ENDBRANCH   8   9
ENDBRANCH   7   8
ENDBRANCH   6   7
ENDBRANCH   5   6
ENDBRANCH   4   5
ENDBRANCH   3   4
ENDBRANCH   2   3
ENDBRANCH   1   2
BRANCH   1  17
ATOM     17  C   UNL     1       3.326  24.618  11.385  1.00  0.00     0.000 C 
BRANCH  17  18
ATOM     18  C   UNL     1       2.408  25.779  10.962  1.00  0.00     0.000 C 
BRANCH  18  19
ATOM     19  C   UNL     1       0.972  25.375  10.577  1.00  0.00     0.000 C 
BRANCH  19  20
ATOM     20  C   UNL     1       0.435  24.198  11.410  1.00  0.00     0.000 C 
BRANCH  20  21
ATOM     21  C   UNL     1      -0.821  24.574  12.214  1.00  0.00     0.000 C 
BRANCH  21  22
ATOM     22  C   UNL     1      -0.520  25.571  13.348  1.00  0.00    -0.000 C 
BRANCH  22  23
ATOM     23  C   UNL     1      -1.125  25.120  14.695  1.00  0.00    -0.000 C 
BRANCH  23  24
ATOM     24  C   UNL     1      -0.447  23.875  15.294  1.00  0.00    -0.000 C 
BRANCH  24  25
ATOM     25  C   UNL     1       1.083  23.909  15.173  1.00  0.00    -0.000 C 
BRANCH  25  26
ATOM     26  C   UNL     1       1.569  25.280  14.682  1.00  0.00    -0.000 C 
BRANCH  26  27
ATOM     27  C   UNL     1       3.027  25.574  15.079  1.00  0.00    -0.000 C 
BRANCH  27  28
ATOM     28  C   UNL     1       3.729  26.656  14.234  1.00  0.00    -0.000 C 
BRANCH  28  29
ATOM     29  C   UNL     1       5.102  26.250  13.672  1.00  0.00    -0.003 C 
ATOM     30  C   UNL     1       5.503  24.826  14.050  1.00  0.00     0.004 C 
ENDBRANCH  28  29
ENDBRANCH  27  28
ENDBRANCH  26  27
ENDBRANCH  25  26
ENDBRANCH  24  25
ENDBRANCH  23  24
ENDBRANCH  22  23
ENDBRANCH  21  22
ENDBRANCH  20  21
ENDBRANCH  19  20
ENDBRANCH  18  19
ENDBRANCH  17  18
ENDBRANCH   1  17
TORSDOF 26
ENDMDL
MODEL 4
REMARK VINA RESULT:    -0.449      1.920      4.144
REMARK INTER + INTRA:           0.012
REMARK INTER:                  -2.888
REMARK INTRA:                   2.900
REMARK UNBOUND:                 1.143
REMARK SMILES CCCCCCCCCCCCCCCCCCCCCCCCCCCC(=O)[O-]
REMARK SMILES IDX 15 1 16 2 17 3 18 4 19 5 20 6 21 7 22 8 23 9 24 10 25 11
REMARK SMILES IDX 26 12 27 13 28 14 29 15 30 16 14 17 13 18 12 19 11 20 10 21
REMARK SMILES IDX 9 22 8 23 7 24 6 25 5 26 4 27 3 28 2 29 1 30
REMARK H PARENT
REMARK Flexibility Score: inf
ROOT
ATOM      1  C   UNL     1       4.613  23.881   9.081  1.00  0.00     0.000 C 
ENDROOT
BRANCH   1   2
ATOM      2  C   UNL     1       4.709  25.303   8.514  1.00  0.00     0.000 C 
BRANCH   2   3
ATOM      3  C   UNL     1       5.908  25.441   7.568  1.00  0.00     0.000 C 
BRANCH   3   4
ATOM      4  C   UNL     1       5.614  24.788   6.209  1.00  0.00     0.000 C 
BRANCH   4   5
ATOM      5  C   UNL     1       4.190  24.212   6.122  1.00  0.00     0.000 C 
BRANCH   5   6
ATOM      6  C   UNL     1       3.077  25.158   6.615  1.00  0.00     0.000 C 
BRANCH   6   7
ATOM      7  C   UNL     1       1.715  24.994   5.909  1.00  0.00     0.000 C 
BRANCH   7   8
ATOM      8  C   UNL     1       0.809  26.238   5.933  1.00  0.00     0.000 C 
BRANCH   8   9
ATOM      9  C   UNL     1      -0.322  26.135   6.971  1.00  0.00     0.000 C 
BRANCH   9  10
ATOM     10  C   UNL     1      -1.014  24.760   6.964  1.00  0.00     0.000 C 
BRANCH  10  11
ATOM     11  C   UNL     1      -0.913  23.986   5.637  1.00  0.00     0.000 C 
BRANCH  11  12
ATOM     12  C   UNL     1      -1.122  24.883   4.405  1.00  0.00     0.006 C 
BRANCH  12  13
ATOM     13  C   UNL     1      -0.472  24.297   3.145  1.00  0.00     0.053 C 
BRANCH  13  14
ATOM     14  C   UNL     1       0.928  24.797   2.953  1.00  0.00     0.041 C 
ATOM     15  O   UNL     1       1.155  26.033   2.878  1.00  0.00    -0.550 OA
ATOM     16  O   UNL     1       1.985  23.899   2.890  1.00  0.00    -0.550 OA
ENDBRANCH  13  14
ENDBRANCH  12  13
ENDBRANCH  11  12
ENDBRANCH  10  11
ENDBRANCH   9  10
ENDBRANCH   8   9
ENDBRANCH   7   8
ENDBRANCH   6   7
ENDBRANCH   5   6
ENDBRANCH   4   5
ENDBRANCH   3   4
ENDBRANCH   2   3
ENDBRANCH   1   2
BRANCH   1  17
ATOM     17  C   UNL     1       3.871  23.876  10.425  1.00  0.00     0.000 C 
BRANCH  17  18
ATOM     18  C   UNL     1       4.205  25.095  11.304  1.00  0.00     0.000 C 
BRANCH  18  19
ATOM     19  C   UNL     1       5.120  24.806  12.508  1.00  0.00     0.000 C 
BRANCH  19  20
ATOM     20  C   UNL     1       4.376  24.156  13.688  1.00  0.00     0.000 C 
BRANCH  20  21
ATOM     21  C   UNL     1       3.461  25.149  14.423  1.00  0.00     0.000 C 
BRANCH  21  22
ATOM     22  C   UNL     1       2.053  24.581  14.675  1.00  0.00    -0.000 C 
BRANCH  22  23
ATOM     23  C   UNL     1       1.271  25.406  15.719  1.00  0.00    -0.000 C 
BRANCH  23  24
ATOM     24  C   UNL     1      -0.032  24.735  16.191  1.00  0.00    -0.000 C 
BRANCH  24  25
ATOM     25  C   UNL     1      -0.781  24.019  15.060  1.00  0.00    -0.000 C 
BRANCH  25  26
ATOM     26  C   UNL     1      -0.729  24.833  13.759  1.00  0.00    -0.000 C 
BRANCH  26  27
ATOM     27  C   UNL     1      -0.675  23.946  12.503  1.00  0.00    -0.000 C 
BRANCH  27  28
ATOM     28  C   UNL     1       0.493  24.246  11.542  1.00  0.00    -0.000 C 
BRANCH  28  29
ATOM     29  C   UNL     1       0.100  24.989  10.254  1.00  0.00    -0.003 C 
ATOM     30  C   UNL     1       1.163  25.984   9.792  1.00  0.00     0.004 C 
ENDBRANCH  28  29
ENDBRANCH  27  28
ENDBRANCH  26  27
ENDBRANCH  25  26
ENDBRANCH  24  25
ENDBRANCH  23  24
ENDBRANCH  22  23
ENDBRANCH  21  22
ENDBRANCH  20  21
ENDBRANCH  19  20
ENDBRANCH  18  19
ENDBRANCH  17  18
ENDBRANCH   1  17
TORSDOF 26
ENDMDL
MODEL 5
REMARK VINA RESULT:    -0.147      1.292      2.271
REMARK INTER + INTRA:           0.774
REMARK INTER:                  -1.790
REMARK INTRA:                   2.564
REMARK UNBOUND:                 1.143
REMARK SMILES CCCCCCCCCCCCCCCCCCCCCCCCCCCC(=O)[O-]
REMARK SMILES IDX 15 1 16 2 17 3 18 4 19 5 20 6 21 7 22 8 23 9 24 10 25 11
REMARK SMILES IDX 26 12 27 13 28 14 29 15 30 16 14 17 13 18 12 19 11 20 10 21
REMARK SMILES IDX 9 22 8 23 7 24 6 25 5 26 4 27 3 28 2 29 1 30
REMARK H PARENT
REMARK Flexibility Score: inf
ROOT
ATOM      1  C   UNL     1       3.062  26.388   9.766  1.00  0.00     0.000 C 
ENDROOT
BRANCH   1   2
ATOM      2  C   UNL     1       2.033  25.792  10.734  1.00  0.00     0.000 C 
BRANCH   2   3
ATOM      3  C   UNL     1       0.729  25.441  10.006  1.00  0.00     0.000 C 
BRANCH   3   4
ATOM      4  C   UNL     1       1.013  24.932   8.585  1.00  0.00     0.000 C 
BRANCH   4   5
ATOM      5  C   UNL     1      -0.258  24.458   7.858  1.00  0.00     0.000 C 
BRANCH   5   6
ATOM      6  C   UNL     1      -0.946  25.531   6.992  1.00  0.00     0.000 C 
BRANCH   6   7
ATOM      7  C   UNL     1      -1.095  25.173   5.499  1.00  0.00     0.000 C 
BRANCH   7   8
ATOM      8  C   UNL     1      -0.380  26.124   4.522  1.00  0.00     0.000 C 
BRANCH   8   9
ATOM      9  C   UNL     1      -0.261  25.545   3.101  1.00  0.00     0.000 C 
BRANCH   9  10
ATOM     10  C   UNL     1       0.384  24.147   3.080  1.00  0.00     0.000 C 
BRANCH  10  11
ATOM     11  C   UNL     1       1.777  24.063   3.731  1.00  0.00     0.000 C 
BRANCH  11  12
ATOM     12  C   UNL     1       1.714  23.918   5.260  1.00  0.00     0.006 C 
BRANCH  12  13
ATOM     13  C   UNL     1       2.716  24.837   5.972  1.00  0.00     0.053 C 
BRANCH  13  14
ATOM     14  C   UNL     1       4.125  24.348   5.824  1.00  0.00     0.041 C 
ATOM     15  O   UNL     1       4.899  24.335   6.818  1.00  0.00    -0.550 OA
ATOM     16  O   UNL     1       4.573  23.877   4.597  1.00  0.00    -0.550 OA
ENDBRANCH  13  14
ENDBRANCH  12  13
ENDBRANCH  11  12
ENDBRANCH  10  11
ENDBRANCH   9  10
ENDBRANCH   8   9
ENDBRANCH   7   8
ENDBRANCH   6   7
ENDBRANCH   5   6
ENDBRANCH   4   5
ENDBRANCH   3   4
ENDBRANCH   2   3
ENDBRANCH   1   2
BRANCH   1  17
ATOM     17  C   UNL     1       3.971  25.292   9.191  1.00  0.00     0.000 C 
BRANCH  17  18
ATOM     18  C   UNL     1       5.351  25.234   9.870  1.00  0.00     0.000 C 
BRANCH  18  19
ATOM     19  C   UNL     1       5.555  24.060  10.846  1.00  0.00     0.000 C 
BRANCH  19  20
ATOM     20  C   UNL     1       4.377  23.876  11.818  1.00  0.00     0.000 C 
BRANCH  20  21
ATOM     21  C   UNL     1       4.617  24.569  13.169  1.00  0.00     0.000 C 
BRANCH  21  22
ATOM     22  C   UNL     1       3.491  25.551  13.538  1.00  0.00    -0.000 C 
BRANCH  22  23
ATOM     23  C   UNL     1       2.195  24.822  13.953  1.00  0.00    -0.000 C 
BRANCH  23  24
ATOM     24  C   UNL     1       1.380  25.566  15.027  1.00  0.00    -0.000 C 
BRANCH  24  25
ATOM     25  C   UNL     1       1.161  24.734  16.297  1.00  0.00    -0.000 C 
BRANCH  25  26
ATOM     26  C   UNL     1      -0.108  23.877  16.185  1.00  0.00    -0.000 C 
BRANCH  26  27
ATOM     27  C   UNL     1      -1.027  24.321  15.034  1.00  0.00    -0.000 C 
BRANCH  27  28
ATOM     28  C   UNL     1      -0.502  24.003  13.619  1.00  0.00    -0.000 C 
BRANCH  28  29
ATOM     29  C   UNL     1      -1.049  24.910  12.504  1.00  0.00    -0.003 C 
ATOM     30  C   UNL     1      -1.032  26.391  12.880  1.00  0.00     0.004 C 
ENDBRANCH  28  29
ENDBRANCH  27  28
ENDBRANCH  26  27
ENDBRANCH  25  26
ENDBRANCH  24  25
ENDBRANCH  23  24
ENDBRANCH  22  23
ENDBRANCH  21  22
ENDBRANCH  20  21
ENDBRANCH  19  20
ENDBRANCH  18  19
ENDBRANCH  17  18
ENDBRANCH   1  17
TORSDOF 26
ENDMDL
