MODEL 1
REMARK VINA RESULT:    -8.217      0.000      0.000
REMARK INTER + INTRA:         -10.248
REMARK INTER:                  -9.899
REMARK INTRA:                  -0.349
REMARK UNBOUND:                -0.349
REMARK SMILES O=c1c(O)c(-c2ccc(O)cc2O)oc2cc(O)cc(O)c12
REMARK SMILES IDX 5 1 3 2 2 3 1 4 22 5 20 6 19 7 17 8 16 9 15 10 14 11 6 12
REMARK SMILES IDX 8 13 7 14 9 15 11 16 12 17 10 18 13 20 4 22 21 24 18 26
REMARK H PARENT 10 19 13 21 4 23 21 25 18 27
REMARK Flexibility Score: inf
ROOT
ATOM      1  C   UNL     1      41.423  56.278  60.040  1.00  0.00     0.184 A 
ATOM      2  C   UNL     1      41.510  55.012  60.651  1.00  0.00     0.208 A 
ATOM      3  C   UNL     1      40.337  54.261  60.827  1.00  0.00     0.238 A 
ATOM      4  O   UNL     1      40.404  53.122  61.365  1.00  0.00    -0.285 OA
ATOM      5  C   UNL     1      39.101  54.793  60.408  1.00  0.00     0.111 A 
ATOM      6  C   UNL     1      37.873  54.103  60.552  1.00  0.00     0.134 A 
ATOM      7  C   UNL     1      36.682  54.703  60.116  1.00  0.00     0.093 A 
ATOM      8  C   UNL     1      36.695  55.975  59.539  1.00  0.00     0.123 A 
ATOM      9  C   UNL     1      37.905  56.661  59.393  1.00  0.00     0.094 A 
ATOM     10  C   UNL     1      39.102  56.080  59.821  1.00  0.00     0.146 A 
ATOM     11  O   UNL     1      40.238  56.751  59.667  1.00  0.00    -0.451 OA
ENDROOT
BRANCH   1  12
ATOM     12  C   UNL     1      42.622  57.115  59.806  1.00  0.00     0.063 A 
ATOM     13  C   UNL     1      44.568  58.299  60.664  1.00  0.00     0.047 A 
ATOM     14  C   UNL     1      43.421  57.533  60.886  1.00  0.00     0.020 A 
ATOM     15  C   UNL     1      44.939  58.650  59.364  1.00  0.00     0.119 A 
ATOM     16  C   UNL     1      44.159  58.228  58.281  1.00  0.00     0.093 A 
ATOM     17  C   UNL     1      43.005  57.460  58.495  1.00  0.00     0.130 A 
BRANCH  15  18
ATOM     18  O   UNL     1      46.085  59.415  59.159  1.00  0.00    -0.508 OA
ATOM     19  H   UNL     1      46.030  60.397  58.911  1.00  0.00     0.293 HD
ENDBRANCH  15  18
BRANCH  17  20
ATOM     20  O   UNL     1      42.231  57.051  57.407  1.00  0.00    -0.507 OA
ATOM     21  H   UNL     1      42.473  56.233  56.861  1.00  0.00     0.293 HD
ENDBRANCH  17  20
ENDBRANCH   1  12
BRANCH   2  22
ATOM     22  O   UNL     1      42.744  54.527  61.094  1.00  0.00    -0.502 OA
ATOM     23  H   UNL     1      43.623  54.941  60.809  1.00  0.00     0.293 HD
ENDBRANCH   2  22
BRANCH   6  24
ATOM     24  O   UNL     1      37.826  52.831  61.125  1.00  0.00    -0.507 OA
ATOM     25  H   UNL     1      37.410  52.044  60.642  1.00  0.00     0.293 HD
ENDBRANCH   6  24
BRANCH   8  26
ATOM     26  O   UNL     1      35.499  56.549  59.114  1.00  0.00    -0.508 OA
ATOM     27  H   UNL     1      35.425  57.022  58.222  1.00  0.00     0.293 HD
ENDBRANCH   8  26
TORSDOF 6
ENDMDL
MODEL 2
REMARK VINA RESULT:    -7.848      3.209      6.962
REMARK INTER + INTRA:          -9.803
REMARK INTER:                  -9.520
REMARK INTRA:                  -0.283
REMARK UNBOUND:                -0.349
REMARK SMILES O=c1c(O)c(-c2ccc(O)cc2O)oc2cc(O)cc(O)c12
REMARK SMILES IDX 5 1 3 2 2 3 1 4 22 5 20 6 19 7 17 8 16 9 15 10 14 11 6 12
REMARK SMILES IDX 8 13 7 14 9 15 11 16 12 17 10 18 13 20 4 22 21 24 18 26
REMARK H PARENT 10 19 13 21 4 23 21 25 18 27
REMARK Flexibility Score: inf
ROOT
ATOM      1  C   UNL     1      41.189  58.360  58.632  1.00  0.00     0.184 A 
ATOM      2  C   UNL     1      40.141  58.813  57.808  1.00  0.00     0.208 A 
ATOM      3  C   UNL     1      40.244  60.082  57.217  1.00  0.00     0.238 A 
ATOM      4  O   UNL     1      39.315  60.495  56.470  1.00  0.00    -0.285 OA
ATOM      5  C   UNL     1      41.379  60.879  57.470  1.00  0.00     0.111 A 
ATOM      6  C   UNL     1      41.558  62.169  56.916  1.00  0.00     0.134 A 
ATOM      7  C   UNL     1      42.713  62.904  57.221  1.00  0.00     0.093 A 
ATOM      8  C   UNL     1      43.690  62.375  58.068  1.00  0.00     0.123 A 
ATOM      9  C   UNL     1      43.520  61.101  58.618  1.00  0.00     0.094 A 
ATOM     10  C   UNL     1      42.375  60.352  58.325  1.00  0.00     0.146 A 
ATOM     11  O   UNL     1      42.240  59.143  58.857  1.00  0.00    -0.451 OA
ENDROOT
BRANCH   1  12
ATOM     12  C   UNL     1      41.155  57.026  59.274  1.00  0.00     0.063 A 
ATOM     13  C   UNL     1      40.017  55.379  60.658  1.00  0.00     0.047 A 
ATOM     14  C   UNL     1      40.063  56.648  60.076  1.00  0.00     0.020 A 
ATOM     15  C   UNL     1      41.052  54.467  60.442  1.00  0.00     0.119 A 
ATOM     16  C   UNL     1      42.137  54.827  59.634  1.00  0.00     0.093 A 
ATOM     17  C   UNL     1      42.193  56.099  59.046  1.00  0.00     0.130 A 
BRANCH  15  18
ATOM     18  O   UNL     1      40.991  53.205  61.030  1.00  0.00    -0.508 OA
ATOM     19  H   UNL     1      41.040  53.087  62.036  1.00  0.00     0.293 HD
ENDBRANCH  15  18
BRANCH  17  20
ATOM     20  O   UNL     1      43.283  56.449  58.248  1.00  0.00    -0.507 OA
ATOM     21  H   UNL     1      43.161  56.901  57.350  1.00  0.00     0.293 HD
ENDBRANCH  17  20
ENDBRANCH   1  12
BRANCH   2  22
ATOM     22  O   UNL     1      39.009  58.019  57.608  1.00  0.00    -0.502 OA
ATOM     23  H   UNL     1      38.990  57.033  57.839  1.00  0.00     0.293 HD
ENDBRANCH   2  22
BRANCH   6  24
ATOM     24  O   UNL     1      40.600  62.726  56.067  1.00  0.00    -0.507 OA
ATOM     25  H   UNL     1      40.766  63.596  55.574  1.00  0.00     0.293 HD
ENDBRANCH   6  24
BRANCH   8  26
ATOM     26  O   UNL     1      44.829  63.125  58.357  1.00  0.00    -0.508 OA
ATOM     27  H   UNL     1      45.125  63.293  59.310  1.00  0.00     0.293 HD
ENDBRANCH   8  26
TORSDOF 6
ENDMDL
MODEL 3
REMARK VINA RESULT:    -7.750      3.342      6.451
REMARK INTER + INTRA:          -9.685
REMARK INTER:                  -9.421
REMARK INTRA:                  -0.264
REMARK UNBOUND:                -0.349
REMARK SMILES O=c1c(O)c(-c2ccc(O)cc2O)oc2cc(O)cc(O)c12
REMARK SMILES IDX 5 1 3 2 2 3 1 4 22 5 20 6 19 7 17 8 16 9 15 10 14 11 6 12
REMARK SMILES IDX 8 13 7 14 9 15 11 16 12 17 10 18 13 20 4 22 21 24 18 26
REMARK H PARENT 10 19 13 21 4 23 21 25 18 27
REMARK Flexibility Score: inf
ROOT
ATOM      1  C   UNL     1      41.754  58.401  58.856  1.00  0.00     0.184 A 
ATOM      2  C   UNL     1      42.823  59.226  59.256  1.00  0.00     0.208 A 
ATOM      3  C   UNL     1      42.939  60.507  58.693  1.00  0.00     0.238 A 
ATOM      4  O   UNL     1      43.888  61.257  59.050  1.00  0.00    -0.285 OA
ATOM      5  C   UNL     1      42.000  60.933  57.732  1.00  0.00     0.111 A 
ATOM      6  C   UNL     1      42.048  62.206  57.114  1.00  0.00     0.134 A 
ATOM      7  C   UNL     1      41.080  62.555  56.161  1.00  0.00     0.093 A 
ATOM      8  C   UNL     1      40.067  61.657  55.814  1.00  0.00     0.123 A 
ATOM      9  C   UNL     1      40.013  60.399  56.422  1.00  0.00     0.094 A 
ATOM     10  C   UNL     1      40.969  60.033  57.375  1.00  0.00     0.146 A 
ATOM     11  O   UNL     1      40.893  58.834  57.939  1.00  0.00    -0.451 OA
ENDROOT
BRANCH   1  12
ATOM     12  C   UNL     1      41.560  57.046  59.421  1.00  0.00     0.063 A 
ATOM     13  C   UNL     1      40.221  55.467  60.700  1.00  0.00     0.047 A 
ATOM     14  C   UNL     1      40.419  56.752  60.190  1.00  0.00     0.020 A 
ATOM     15  C   UNL     1      41.150  54.456  60.443  1.00  0.00     0.119 A 
ATOM     16  C   UNL     1      42.281  54.734  59.667  1.00  0.00     0.093 A 
ATOM     17  C   UNL     1      42.490  56.022  59.152  1.00  0.00     0.130 A 
BRANCH  15  18
ATOM     18  O   UNL     1      40.938  53.179  60.959  1.00  0.00    -0.508 OA
ATOM     19  H   UNL     1      41.234  52.932  61.897  1.00  0.00     0.293 HD
ENDBRANCH  15  18
BRANCH  17  20
ATOM     20  O   UNL     1      43.625  56.289  58.385  1.00  0.00    -0.507 OA
ATOM     21  H   UNL     1      44.557  56.220  58.775  1.00  0.00     0.293 HD
ENDBRANCH  17  20
ENDBRANCH   1  12
BRANCH   2  22
ATOM     22  O   UNL     1      43.762  58.761  60.180  1.00  0.00    -0.502 OA
ATOM     23  H   UNL     1      44.013  57.783  60.253  1.00  0.00     0.293 HD
ENDBRANCH   2  22
BRANCH   6  24
ATOM     24  O   UNL     1      43.048  63.125  57.438  1.00  0.00    -0.507 OA
ATOM     25  H   UNL     1      43.898  62.843  57.911  1.00  0.00     0.293 HD
ENDBRANCH   6  24
BRANCH   8  26
ATOM     26  O   UNL     1      39.118  62.027  54.864  1.00  0.00    -0.508 OA
ATOM     27  H   UNL     1      38.676  61.343  54.262  1.00  0.00     0.293 HD
ENDBRANCH   8  26
TORSDOF 6
ENDMDL
MODEL 4
REMARK VINA RESULT:    -7.602      3.249      6.510
REMARK INTER + INTRA:          -9.506
REMARK INTER:                  -9.328
REMARK INTRA:                  -0.178
REMARK UNBOUND:                -0.349
REMARK SMILES O=c1c(O)c(-c2ccc(O)cc2O)oc2cc(O)cc(O)c12
REMARK SMILES IDX 5 1 3 2 2 3 1 4 22 5 20 6 19 7 17 8 16 9 15 10 14 11 6 12
REMARK SMILES IDX 8 13 7 14 9 15 11 16 12 17 10 18 13 20 4 22 21 24 18 26
REMARK H PARENT 10 19 13 21 4 23 21 25 18 27
REMARK Flexibility Score: inf
ROOT
ATOM      1  C   UNL     1      41.864  58.380  58.910  1.00  0.00     0.184 A 
ATOM      2  C   UNL     1      42.948  59.178  59.324  1.00  0.00     0.208 A 
ATOM      3  C   UNL     1      43.088  60.466  58.783  1.00  0.00     0.238 A 
ATOM      4  O   UNL     1      44.050  61.192  59.153  1.00  0.00    -0.285 OA
ATOM      5  C   UNL     1      42.156  60.926  57.830  1.00  0.00     0.111 A 
ATOM      6  C   UNL     1      42.228  62.208  57.235  1.00  0.00     0.134 A 
ATOM      7  C   UNL     1      41.265  62.591  56.288  1.00  0.00     0.093 A 
ATOM      8  C   UNL     1      40.236  61.718  55.927  1.00  0.00     0.123 A 
ATOM      9  C   UNL     1      40.160  60.451  56.512  1.00  0.00     0.094 A 
ATOM     10  C   UNL     1      41.109  60.051  57.458  1.00  0.00     0.146 A 
ATOM     11  O   UNL     1      41.011  58.843  58.001  1.00  0.00    -0.451 OA
ENDROOT
BRANCH   1  12
ATOM     12  C   UNL     1      41.646  57.019  59.452  1.00  0.00     0.063 A 
ATOM     13  C   UNL     1      42.511  54.828  60.064  1.00  0.00     0.047 A 
ATOM     14  C   UNL     1      42.709  56.102  59.526  1.00  0.00     0.020 A 
ATOM     15  C   UNL     1      41.253  54.455  60.544  1.00  0.00     0.119 A 
ATOM     16  C   UNL     1      40.191  55.364  60.488  1.00  0.00     0.093 A 
ATOM     17  C   UNL     1      40.381  56.645  59.949  1.00  0.00     0.130 A 
BRANCH  15  18
ATOM     18  O   UNL     1      41.071  53.180  61.077  1.00  0.00    -0.508 OA
ATOM     19  H   UNL     1      41.598  52.864  61.883  1.00  0.00     0.293 HD
ENDBRANCH  15  18
BRANCH  17  20
ATOM     20  O   UNL     1      39.312  57.541  59.893  1.00  0.00    -0.507 OA
ATOM     21  H   UNL     1      39.275  58.361  60.486  1.00  0.00     0.293 HD
ENDBRANCH  17  20
ENDBRANCH   1  12
BRANCH   2  22
ATOM     22  O   UNL     1      43.880  58.680  60.239  1.00  0.00    -0.502 OA
ATOM     23  H   UNL     1      43.613  58.346  61.157  1.00  0.00     0.293 HD
ENDBRANCH   2  22
BRANCH   6  24
ATOM     24  O   UNL     1      43.244  63.103  57.574  1.00  0.00    -0.507 OA
ATOM     25  H   UNL     1      43.556  63.822  56.933  1.00  0.00     0.293 HD
ENDBRANCH   6  24
BRANCH   8  26
ATOM     26  O   UNL     1      39.293  62.121  54.983  1.00  0.00    -0.508 OA
ATOM     27  H   UNL     1      39.159  63.098  54.753  1.00  0.00     0.293 HD
ENDBRANCH   8  26
TORSDOF 6
ENDMDL
MODEL 5
REMARK VINA RESULT:    -7.575      2.031      2.559
REMARK INTER + INTRA:          -9.474
REMARK INTER:                  -9.101
REMARK INTRA:                  -0.373
REMARK UNBOUND:                -0.349
REMARK SMILES O=c1c(O)c(-c2ccc(O)cc2O)oc2cc(O)cc(O)c12
REMARK SMILES IDX 5 1 3 2 2 3 1 4 22 5 20 6 19 7 17 8 16 9 15 10 14 11 6 12
REMARK SMILES IDX 8 13 7 14 9 15 11 16 12 17 10 18 13 20 4 22 21 24 18 26
REMARK H PARENT 10 19 13 21 4 23 21 25 18 27
REMARK Flexibility Score: inf
ROOT
ATOM      1  C   UNL     1      42.111  58.026  59.849  1.00  0.00     0.184 A 
ATOM      2  C   UNL     1      42.941  56.944  60.201  1.00  0.00     0.208 A 
ATOM      3  C   UNL     1      42.354  55.698  60.468  1.00  0.00     0.238 A 
ATOM      4  O   UNL     1      43.089  54.719  60.776  1.00  0.00    -0.285 OA
ATOM      5  C   UNL     1      40.953  55.558  60.396  1.00  0.00     0.111 A 
ATOM      6  C   UNL     1      40.283  54.338  60.654  1.00  0.00     0.134 A 
ATOM      7  C   UNL     1      38.884  54.280  60.568  1.00  0.00     0.093 A 
ATOM      8  C   UNL     1      38.144  55.417  60.231  1.00  0.00     0.123 A 
ATOM      9  C   UNL     1      38.800  56.624  59.974  1.00  0.00     0.094 A 
ATOM     10  C   UNL     1      40.194  56.701  60.053  1.00  0.00     0.146 A 
ATOM     11  O   UNL     1      40.793  57.859  59.801  1.00  0.00    -0.451 OA
ENDROOT
BRANCH   1  12
ATOM     12  C   UNL     1      42.664  59.364  59.536  1.00  0.00     0.063 A 
ATOM     13  C   UNL     1      43.915  61.340  60.211  1.00  0.00     0.047 A 
ATOM     14  C   UNL     1      43.368  60.090  60.514  1.00  0.00     0.020 A 
ATOM     15  C   UNL     1      43.776  61.877  58.929  1.00  0.00     0.119 A 
ATOM     16  C   UNL     1      43.090  61.157  57.945  1.00  0.00     0.093 A 
ATOM     17  C   UNL     1      42.537  59.902  58.240  1.00  0.00     0.130 A 
BRANCH  15  18
ATOM     18  O   UNL     1      44.327  63.125  58.644  1.00  0.00    -0.508 OA
ATOM     19  H   UNL     1      44.014  63.672  57.850  1.00  0.00     0.293 HD
ENDBRANCH  15  18
BRANCH  17  20
ATOM     20  O   UNL     1      41.849  59.196  57.252  1.00  0.00    -0.507 OA
ATOM     21  H   UNL     1      42.145  59.213  56.283  1.00  0.00     0.293 HD
ENDBRANCH  17  20
ENDBRANCH   1  12
BRANCH   2  22
ATOM     22  O   UNL     1      44.324  57.122  60.305  1.00  0.00    -0.502 OA
ATOM     23  H   UNL     1      44.781  57.985  60.036  1.00  0.00     0.293 HD
ENDBRANCH   2  22
BRANCH   6  24
ATOM     24  O   UNL     1      40.993  53.185  60.995  1.00  0.00    -0.507 OA
ATOM     25  H   UNL     1      40.717  52.270  60.658  1.00  0.00     0.293 HD
ENDBRANCH   6  24
BRANCH   8  26
ATOM     26  O   UNL     1      36.755  55.334  60.153  1.00  0.00    -0.508 OA
ATOM     27  H   UNL     1      36.297  54.750  59.464  1.00  0.00     0.293 HD
ENDBRANCH   8  26
TORSDOF 6
ENDMDL
MODEL 6
REMARK VINA RESULT:    -7.377      1.608      3.237
REMARK INTER + INTRA:          -9.235
REMARK INTER:                  -8.997
REMARK INTRA:                  -0.238
REMARK UNBOUND:                -0.349
REMARK SMILES O=c1c(O)c(-c2ccc(O)cc2O)oc2cc(O)cc(O)c12
REMARK SMILES IDX 5 1 3 2 2 3 1 4 22 5 20 6 19 7 17 8 16 9 15 10 14 11 6 12
REMARK SMILES IDX 8 13 7 14 9 15 11 16 12 17 10 18 13 20 4 22 21 24 18 26
REMARK H PARENT 10 19 13 21 4 23 21 25 18 27
REMARK Flexibility Score: inf
ROOT
ATOM      1  C   UNL     1      41.459  57.521  59.232  1.00  0.00     0.184 A 
ATOM      2  C   UNL     1      40.176  57.870  58.770  1.00  0.00     0.208 A 
ATOM      3  C   UNL     1      39.086  57.053  59.112  1.00  0.00     0.238 A 
ATOM      4  O   UNL     1      37.931  57.361  58.710  1.00  0.00    -0.285 OA
ATOM      5  C   UNL     1      39.299  55.899  59.892  1.00  0.00     0.111 A 
ATOM      6  C   UNL     1      38.257  55.021  60.276  1.00  0.00     0.134 A 
ATOM      7  C   UNL     1      38.550  53.887  61.048  1.00  0.00     0.093 A 
ATOM      8  C   UNL     1      39.863  53.615  61.442  1.00  0.00     0.123 A 
ATOM      9  C   UNL     1      40.896  54.477  61.066  1.00  0.00     0.094 A 
ATOM     10  C   UNL     1      40.624  55.613  60.297  1.00  0.00     0.146 A 
ATOM     11  O   UNL     1      41.623  56.418  59.957  1.00  0.00    -0.451 OA
ENDROOT
BRANCH   1  12
ATOM     12  C   UNL     1      42.650  58.346  58.925  1.00  0.00     0.063 A 
ATOM     13  C   UNL     1      43.763  60.510  58.884  1.00  0.00     0.047 A 
ATOM     14  C   UNL     1      42.631  59.735  59.147  1.00  0.00     0.020 A 
ATOM     15  C   UNL     1      44.932  59.911  58.407  1.00  0.00     0.119 A 
ATOM     16  C   UNL     1      44.966  58.528  58.197  1.00  0.00     0.093 A 
ATOM     17  C   UNL     1      43.834  57.741  58.456  1.00  0.00     0.130 A 
BRANCH  15  18
ATOM     18  O   UNL     1      46.052  60.698  58.150  1.00  0.00    -0.508 OA
ATOM     19  H   UNL     1      46.325  61.449  58.774  1.00  0.00     0.293 HD
ENDBRANCH  15  18
BRANCH  17  20
ATOM     20  O   UNL     1      43.879  56.364  58.236  1.00  0.00    -0.507 OA
ATOM     21  H   UNL     1      44.506  55.763  58.756  1.00  0.00     0.293 HD
ENDBRANCH  17  20
ENDBRANCH   1  12
BRANCH   2  22
ATOM     22  O   UNL     1      40.000  58.998  57.964  1.00  0.00    -0.502 OA
ATOM     23  H   UNL     1      39.235  59.081  57.306  1.00  0.00     0.293 HD
ENDBRANCH   2  22
BRANCH   6  24
ATOM     24  O   UNL     1      36.936  55.265  59.898  1.00  0.00    -0.507 OA
ATOM     25  H   UNL     1      36.213  54.563  60.002  1.00  0.00     0.293 HD
ENDBRANCH   6  24
BRANCH   8  26
ATOM     26  O   UNL     1      40.128  52.481  62.208  1.00  0.00    -0.508 OA
ATOM     27  H   UNL     1      39.422  51.774  62.370  1.00  0.00     0.293 HD
ENDBRANCH   8  26
TORSDOF 6
ENDMDL
MODEL 7
REMARK VINA RESULT:    -7.320      1.396      2.933
REMARK INTER + INTRA:          -9.167
REMARK INTER:                  -8.702
REMARK INTRA:                  -0.465
REMARK UNBOUND:                -0.349
REMARK SMILES O=c1c(O)c(-c2ccc(O)cc2O)oc2cc(O)cc(O)c12
REMARK SMILES IDX 5 1 3 2 2 3 1 4 22 5 20 6 19 7 17 8 16 9 15 10 14 11 6 12
REMARK SMILES IDX 8 13 7 14 9 15 11 16 12 17 10 18 13 20 4 22 21 24 18 26
REMARK H PARENT 10 19 13 21 4 23 21 25 18 27
REMARK Flexibility Score: inf
ROOT
ATOM      1  C   UNL     1      41.558  57.150  59.891  1.00  0.00     0.184 A 
ATOM      2  C   UNL     1      40.633  57.871  59.111  1.00  0.00     0.208 A 
ATOM      3  C   UNL     1      39.329  57.370  58.970  1.00  0.00     0.238 A 
ATOM      4  O   UNL     1      38.490  58.011  58.279  1.00  0.00    -0.285 OA
ATOM      5  C   UNL     1      38.978  56.157  59.595  1.00  0.00     0.111 A 
ATOM      6  C   UNL     1      37.687  55.583  59.499  1.00  0.00     0.134 A 
ATOM      7  C   UNL     1      37.416  54.367  60.145  1.00  0.00     0.093 A 
ATOM      8  C   UNL     1      38.409  53.716  60.882  1.00  0.00     0.123 A 
ATOM      9  C   UNL     1      39.685  54.278  60.980  1.00  0.00     0.094 A 
ATOM     10  C   UNL     1      39.974  55.489  60.345  1.00  0.00     0.146 A 
ATOM     11  O   UNL     1      41.193  56.004  60.457  1.00  0.00    -0.451 OA
ENDROOT
BRANCH   1  12
ATOM     12  C   UNL     1      42.944  57.628  60.097  1.00  0.00     0.063 A 
ATOM     13  C   UNL     1      44.539  59.019  61.300  1.00  0.00     0.047 A 
ATOM     14  C   UNL     1      43.228  58.589  61.085  1.00  0.00     0.020 A 
ATOM     15  C   UNL     1      45.586  58.491  60.540  1.00  0.00     0.119 A 
ATOM     16  C   UNL     1      45.318  57.524  59.565  1.00  0.00     0.093 A 
ATOM     17  C   UNL     1      44.004  57.087  59.341  1.00  0.00     0.130 A 
BRANCH  15  18
ATOM     18  O   UNL     1      46.889  58.931  60.767  1.00  0.00    -0.508 OA
ATOM     19  H   UNL     1      47.676  58.532  60.269  1.00  0.00     0.293 HD
ENDBRANCH  15  18
BRANCH  17  20
ATOM     20  O   UNL     1      43.748  56.128  58.361  1.00  0.00    -0.507 OA
ATOM     21  H   UNL     1      43.724  55.139  58.579  1.00  0.00     0.293 HD
ENDBRANCH  17  20
ENDBRANCH   1  12
BRANCH   2  22
ATOM     22  O   UNL     1      41.022  59.050  58.469  1.00  0.00    -0.502 OA
ATOM     23  H   UNL     1      40.617  59.950  58.697  1.00  0.00     0.293 HD
ENDBRANCH   2  22
BRANCH   6  24
ATOM     24  O   UNL     1      36.674  56.208  58.770  1.00  0.00    -0.507 OA
ATOM     25  H   UNL     1      36.141  55.712  58.066  1.00  0.00     0.293 HD
ENDBRANCH   6  24
BRANCH   8  26
ATOM     26  O   UNL     1      38.115  52.509  61.513  1.00  0.00    -0.508 OA
ATOM     27  H   UNL     1      37.292  51.970  61.270  1.00  0.00     0.293 HD
ENDBRANCH   8  26
TORSDOF 6
ENDMDL
MODEL 8
REMARK VINA RESULT:    -7.292      1.681      7.102
REMARK INTER + INTRA:          -9.133
REMARK INTER:                  -9.518
REMARK INTRA:                   0.385
REMARK UNBOUND:                -0.349
REMARK SMILES O=c1c(O)c(-c2ccc(O)cc2O)oc2cc(O)cc(O)c12
REMARK SMILES IDX 5 1 3 2 2 3 1 4 22 5 20 6 19 7 17 8 16 9 15 10 14 11 6 12
REMARK SMILES IDX 8 13 7 14 9 15 11 16 12 17 10 18 13 20 4 22 21 24 18 26
REMARK H PARENT 10 19 13 21 4 23 21 25 18 27
REMARK Flexibility Score: inf
ROOT
ATOM      1  C   UNL     1      41.375  56.848  59.895  1.00  0.00     0.184 A 
ATOM      2  C   UNL     1      40.967  57.907  59.061  1.00  0.00     0.208 A 
ATOM      3  C   UNL     1      41.907  58.884  58.696  1.00  0.00     0.238 A 
ATOM      4  O   UNL     1      41.554  59.832  57.942  1.00  0.00    -0.285 OA
ATOM      5  C   UNL     1      43.227  58.796  59.181  1.00  0.00     0.111 A 
ATOM      6  C   UNL     1      44.233  59.740  58.864  1.00  0.00     0.134 A 
ATOM      7  C   UNL     1      45.523  59.588  59.392  1.00  0.00     0.093 A 
ATOM      8  C   UNL     1      45.826  58.511  60.230  1.00  0.00     0.123 A 
ATOM      9  C   UNL     1      44.838  57.575  60.546  1.00  0.00     0.094 A 
ATOM     10  C   UNL     1      43.546  57.709  60.029  1.00  0.00     0.146 A 
ATOM     11  O   UNL     1      42.627  56.804  60.342  1.00  0.00    -0.451 OA
ENDROOT
BRANCH   1  12
ATOM     12  C   UNL     1      40.442  55.774  60.304  1.00  0.00     0.063 A 
ATOM     13  C   UNL     1      38.170  54.952  60.600  1.00  0.00     0.047 A 
ATOM     14  C   UNL     1      39.051  55.975  60.241  1.00  0.00     0.020 A 
ATOM     15  C   UNL     1      38.662  53.713  61.017  1.00  0.00     0.119 A 
ATOM     16  C   UNL     1      40.044  53.497  61.070  1.00  0.00     0.093 A 
ATOM     17  C   UNL     1      40.936  54.519  60.713  1.00  0.00     0.130 A 
BRANCH  15  18
ATOM     18  O   UNL     1      37.770  52.703  61.372  1.00  0.00    -0.508 OA
ATOM     19  H   UNL     1      38.074  51.742  61.480  1.00  0.00     0.293 HD
ENDBRANCH  15  18
BRANCH  17  20
ATOM     20  O   UNL     1      42.312  54.293  60.777  1.00  0.00    -0.507 OA
ATOM     21  H   UNL     1      42.852  54.066  59.951  1.00  0.00     0.293 HD
ENDBRANCH  17  20
ENDBRANCH   1  12
BRANCH   2  22
ATOM     22  O   UNL     1      39.641  57.991  58.628  1.00  0.00    -0.502 OA
ATOM     23  H   UNL     1      38.955  58.574  59.092  1.00  0.00     0.293 HD
ENDBRANCH   2  22
BRANCH   6  24
ATOM     24  O   UNL     1      43.962  60.827  58.031  1.00  0.00    -0.507 OA
ATOM     25  H   UNL     1      43.013  61.119  57.827  1.00  0.00     0.293 HD
ENDBRANCH   6  24
BRANCH   8  26
ATOM     26  O   UNL     1      47.116  58.382  60.743  1.00  0.00    -0.508 OA
ATOM     27  H   UNL     1      47.280  58.061  61.689  1.00  0.00     0.293 HD
ENDBRANCH   8  26
TORSDOF 6
ENDMDL
MODEL 9
REMARK VINA RESULT:    -6.889      1.847      7.202
REMARK INTER + INTRA:          -8.648
REMARK INTER:                  -8.346
REMARK INTRA:                  -0.301
REMARK UNBOUND:                -0.349
REMARK SMILES O=c1c(O)c(-c2ccc(O)cc2O)oc2cc(O)cc(O)c12
REMARK SMILES IDX 5 1 3 2 2 3 1 4 22 5 20 6 19 7 17 8 16 9 15 10 14 11 6 12
REMARK SMILES IDX 8 13 7 14 9 15 11 16 12 17 10 18 13 20 4 22 21 24 18 26
REMARK H PARENT 10 19 13 21 4 23 21 25 18 27
REMARK Flexibility Score: inf
ROOT
ATOM      1  C   UNL     1      42.695  57.292  60.196  1.00  0.00     0.184 A 
ATOM      2  C   UNL     1      43.578  57.213  59.101  1.00  0.00     0.208 A 
ATOM      3  C   UNL     1      44.667  58.097  59.043  1.00  0.00     0.238 A 
ATOM      4  O   UNL     1      45.468  58.030  58.071  1.00  0.00    -0.285 OA
ATOM      5  C   UNL     1      44.845  59.051  60.065  1.00  0.00     0.111 A 
ATOM      6  C   UNL     1      45.913  59.980  60.079  1.00  0.00     0.134 A 
ATOM      7  C   UNL     1      46.019  60.904  61.129  1.00  0.00     0.093 A 
ATOM      8  C   UNL     1      45.079  60.918  62.163  1.00  0.00     0.123 A 
ATOM      9  C   UNL     1      44.022  60.002  62.155  1.00  0.00     0.094 A 
ATOM     10  C   UNL     1      43.900  59.073  61.118  1.00  0.00     0.146 A 
ATOM     11  O   UNL     1      42.890  58.212  61.136  1.00  0.00    -0.451 OA
ENDROOT
BRANCH   1  12
ATOM     12  C   UNL     1      41.537  56.380  60.331  1.00  0.00     0.063 A 
ATOM     13  C   UNL     1      39.152  55.951  60.106  1.00  0.00     0.047 A 
ATOM     14  C   UNL     1      40.241  56.820  60.006  1.00  0.00     0.020 A 
ATOM     15  C   UNL     1      39.340  54.631  60.522  1.00  0.00     0.119 A 
ATOM     16  C   UNL     1      40.627  54.178  60.833  1.00  0.00     0.093 A 
ATOM     17  C   UNL     1      41.727  55.044  60.737  1.00  0.00     0.130 A 
BRANCH  15  18
ATOM     18  O   UNL     1      38.243  53.777  60.616  1.00  0.00    -0.508 OA
ATOM     19  H   UNL     1      37.666  53.747  61.450  1.00  0.00     0.293 HD
ENDBRANCH  15  18
BRANCH  17  20
ATOM     20  O   UNL     1      43.004  54.582  61.058  1.00  0.00    -0.507 OA
ATOM     21  H   UNL     1      43.346  53.689  60.724  1.00  0.00     0.293 HD
ENDBRANCH  17  20
ENDBRANCH   1  12
BRANCH   2  22
ATOM     22  O   UNL     1      43.353  56.285  58.081  1.00  0.00    -0.502 OA
ATOM     23  H   UNL     1      44.030  56.108  57.350  1.00  0.00     0.293 HD
ENDBRANCH   2  22
BRANCH   6  24
ATOM     24  O   UNL     1      46.868  59.994  59.061  1.00  0.00    -0.507 OA
ATOM     25  H   UNL     1      46.908  60.740  58.377  1.00  0.00     0.293 HD
ENDBRANCH   6  24
BRANCH   8  26
ATOM     26  O   UNL     1      45.206  61.846  63.194  1.00  0.00    -0.508 OA
ATOM     27  H   UNL     1      45.206  61.561  64.166  1.00  0.00     0.293 HD
ENDBRANCH   8  26
TORSDOF 6
ENDMDL
