MODEL 1
REMARK VINA RESULT:    -3.537      0.000      0.000
REMARK INTER + INTRA:          -8.656
REMARK INTER:                  -6.432
REMARK INTRA:                  -2.224
REMARK UNBOUND:                -2.224
REMARK SMILES CCCCCCCCCCCCCCCC(=O)[O-]
REMARK SMILES IDX 9 1 10 2 11 3 12 4 13 5 14 6 15 7 16 8 17 9 18 10 8 11 7 12
REMARK SMILES IDX 6 13 5 14 4 15 3 16 2 17 1 18
REMARK H PARENT
REMARK Flexibility Score: inf
ROOT
ATOM      1  C   UNL     1     -35.647   3.016  -2.910  1.00  0.00     0.000 C 
ENDROOT
BRANCH   1   2
ATOM      2  C   UNL     1     -36.963   3.694  -3.313  1.00  0.00     0.000 C 
BRANCH   2   3
ATOM      3  C   UNL     1     -36.847   5.223  -3.213  1.00  0.00     0.000 C 
BRANCH   3   4
ATOM      4  C   UNL     1     -36.400   5.696  -1.821  1.00  0.00     0.000 C 
BRANCH   4   5
ATOM      5  C   UNL     1     -35.912   7.155  -1.822  1.00  0.00     0.000 C 
BRANCH   5   6
ATOM      6  C   UNL     1     -34.430   7.288  -1.427  1.00  0.00     0.006 C 
BRANCH   6   7
ATOM      7  C   UNL     1     -33.567   6.064  -1.778  1.00  0.00     0.053 C 
BRANCH   7   8
ATOM      8  C   UNL     1     -32.865   5.510  -0.577  1.00  0.00     0.041 C 
ATOM      9  O   UNL     1     -33.201   4.393  -0.104  1.00  0.00    -0.550 OA
ATOM     10  O   UNL     1     -31.816   6.215   0.002  1.00  0.00    -0.550 OA
ENDBRANCH   7   8
ENDBRANCH   6   7
ENDBRANCH   5   6
ENDBRANCH   4   5
ENDBRANCH   3   4
ENDBRANCH   2   3
ENDBRANCH   1   2
BRANCH   1  11
ATOM     11  C   UNL     1     -35.682   1.514  -3.232  1.00  0.00     0.000 C 
BRANCH  11  12
ATOM     12  C   UNL     1     -35.014   1.174  -4.577  1.00  0.00    -0.000 C 
BRANCH  12  13
ATOM     13  C   UNL     1     -35.980   0.735  -5.690  1.00  0.00    -0.000 C 
BRANCH  13  14
ATOM     14  C   UNL     1     -36.381   1.885  -6.626  1.00  0.00    -0.000 C 
BRANCH  14  15
ATOM     15  C   UNL     1     -35.198   2.829  -6.873  1.00  0.00    -0.000 C 
BRANCH  15  16
ATOM     16  C   UNL     1     -35.618   4.296  -6.689  1.00  0.00    -0.000 C 
BRANCH  16  17
ATOM     17  C   UNL     1     -34.460   5.186  -6.209  1.00  0.00    -0.003 C 
ATOM     18  C   UNL     1     -33.451   4.430  -5.345  1.00  0.00     0.004 C 
ENDBRANCH  16  17
ENDBRANCH  15  16
ENDBRANCH  14  15
ENDBRANCH  13  14
ENDBRANCH  12  13
ENDBRANCH  11  12
ENDBRANCH   1  11
TORSDOF 14
ENDMDL
MODEL 2
REMARK VINA RESULT:    -3.495      3.449      5.765
REMARK INTER + INTRA:          -8.580
REMARK INTER:                  -6.510
REMARK INTRA:                  -2.069
REMARK UNBOUND:                -2.224
REMARK SMILES CCCCCCCCCCCCCCCC(=O)[O-]
REMARK SMILES IDX 9 1 10 2 11 3 12 4 13 5 14 6 15 7 16 8 17 9 18 10 8 11 7 12
REMARK SMILES IDX 6 13 5 14 4 15 3 16 2 17 1 18
REMARK H PARENT
REMARK Flexibility Score: inf
ROOT
ATOM      1  C   UNL     1     -32.182   6.602  -0.293  1.00  0.00     0.000 C 
ENDROOT
BRANCH   1   2
ATOM      2  C   UNL     1     -31.684   7.205  -1.612  1.00  0.00     0.000 C 
BRANCH   2   3
ATOM      3  C   UNL     1     -31.043   6.129  -2.502  1.00  0.00     0.000 C 
BRANCH   3   4
ATOM      4  C   UNL     1     -29.551   6.385  -2.765  1.00  0.00     0.000 C 
BRANCH   4   5
ATOM      5  C   UNL     1     -28.835   7.005  -1.553  1.00  0.00     0.000 C 
BRANCH   5   6
ATOM      6  C   UNL     1     -28.228   5.947  -0.614  1.00  0.00     0.006 C 
BRANCH   6   7
ATOM      7  C   UNL     1     -27.816   4.640  -1.312  1.00  0.00     0.053 C 
BRANCH   7   8
ATOM      8  C   UNL     1     -28.461   3.442  -0.687  1.00  0.00     0.041 C 
ATOM      9  O   UNL     1     -29.528   2.974  -1.165  1.00  0.00    -0.550 OA
ATOM     10  O   UNL     1     -27.867   2.823   0.406  1.00  0.00    -0.550 OA
ENDBRANCH   7   8
ENDBRANCH   6   7
ENDBRANCH   5   6
ENDBRANCH   4   5
ENDBRANCH   3   4
ENDBRANCH   2   3
ENDBRANCH   1   2
BRANCH   1  11
ATOM     11  C   UNL     1     -32.199   5.067  -0.362  1.00  0.00     0.000 C 
BRANCH  11  12
ATOM     12  C   UNL     1     -33.623   4.483  -0.383  1.00  0.00    -0.000 C 
BRANCH  12  13
ATOM     13  C   UNL     1     -34.132   4.057  -1.771  1.00  0.00    -0.000 C 
BRANCH  13  14
ATOM     14  C   UNL     1     -35.121   5.060  -2.382  1.00  0.00    -0.000 C 
BRANCH  14  15
ATOM     15  C   UNL     1     -36.001   5.693  -1.298  1.00  0.00    -0.000 C 
BRANCH  15  16
ATOM     16  C   UNL     1     -36.056   7.220  -1.457  1.00  0.00    -0.000 C 
BRANCH  16  17
ATOM     17  C   UNL     1     -35.086   7.736  -2.533  1.00  0.00    -0.003 C 
ATOM     18  C   UNL     1     -35.757   8.680  -3.531  1.00  0.00     0.004 C 
ENDBRANCH  16  17
ENDBRANCH  15  16
ENDBRANCH  14  15
ENDBRANCH  13  14
ENDBRANCH  12  13
ENDBRANCH  11  12
ENDBRANCH   1  11
TORSDOF 14
ENDMDL
MODEL 3
REMARK VINA RESULT:    -3.472      4.259      6.996
REMARK INTER + INTRA:          -8.537
REMARK INTER:                  -6.443
REMARK INTRA:                  -2.094
REMARK UNBOUND:                -2.224
REMARK SMILES CCCCCCCCCCCCCCCC(=O)[O-]
REMARK SMILES IDX 9 1 10 2 11 3 12 4 13 5 14 6 15 7 16 8 17 9 18 10 8 11 7 12
REMARK SMILES IDX 6 13 5 14 4 15 3 16 2 17 1 18
REMARK H PARENT
REMARK Flexibility Score: inf
ROOT
ATOM      1  C   UNL     1     -28.552   7.910  -1.379  1.00  0.00     0.000 C 
ENDROOT
BRANCH   1   2
ATOM      2  C   UNL     1     -29.916   8.590  -1.208  1.00  0.00     0.000 C 
BRANCH   2   3
ATOM      3  C   UNL     1     -31.056   7.564  -1.293  1.00  0.00     0.000 C 
BRANCH   3   4
ATOM      4  C   UNL     1     -31.868   7.682  -2.592  1.00  0.00     0.000 C 
BRANCH   4   5
ATOM      5  C   UNL     1     -33.368   7.416  -2.377  1.00  0.00     0.000 C 
BRANCH   5   6
ATOM      6  C   UNL     1     -33.655   6.632  -1.084  1.00  0.00     0.006 C 
BRANCH   6   7
ATOM      7  C   UNL     1     -34.818   5.631  -1.193  1.00  0.00     0.053 C 
BRANCH   7   8
ATOM      8  C   UNL     1     -36.073   6.281  -1.688  1.00  0.00     0.041 C 
ATOM      9  O   UNL     1     -36.609   5.892  -2.760  1.00  0.00    -0.550 OA
ATOM     10  O   UNL     1     -36.668   7.297  -0.951  1.00  0.00    -0.550 OA
ENDBRANCH   7   8
ENDBRANCH   6   7
ENDBRANCH   5   6
ENDBRANCH   4   5
ENDBRANCH   3   4
ENDBRANCH   2   3
ENDBRANCH   1   2
BRANCH   1  11
ATOM     11  C   UNL     1     -28.190   7.769  -2.865  1.00  0.00     0.000 C 
BRANCH  11  12
ATOM     12  C   UNL     1     -27.755   6.341  -3.243  1.00  0.00    -0.000 C 
BRANCH  12  13
ATOM     13  C   UNL     1     -28.858   5.467  -3.865  1.00  0.00    -0.000 C 
BRANCH  13  14
ATOM     14  C   UNL     1     -28.967   4.081  -3.212  1.00  0.00    -0.000 C 
BRANCH  14  15
ATOM     15  C   UNL     1     -30.089   4.053  -2.167  1.00  0.00    -0.000 C 
BRANCH  15  16
ATOM     16  C   UNL     1     -29.519   4.173  -0.746  1.00  0.00    -0.000 C 
BRANCH  16  17
ATOM     17  C   UNL     1     -28.057   3.708  -0.655  1.00  0.00    -0.003 C 
ATOM     18  C   UNL     1     -27.159   4.714   0.065  1.00  0.00     0.004 C 
ENDBRANCH  16  17
ENDBRANCH  15  16
ENDBRANCH  14  15
ENDBRANCH  13  14
ENDBRANCH  12  13
ENDBRANCH  11  12
ENDBRANCH   1  11
TORSDOF 14
ENDMDL
MODEL 4
REMARK VINA RESULT:    -3.442      3.366      5.357
REMARK INTER + INTRA:          -8.483
REMARK INTER:                  -5.986
REMARK INTRA:                  -2.496
REMARK UNBOUND:                -2.224
REMARK SMILES CCCCCCCCCCCCCCCC(=O)[O-]
REMARK SMILES IDX 9 1 10 2 11 3 12 4 13 5 14 6 15 7 16 8 17 9 18 10 8 11 7 12
REMARK SMILES IDX 6 13 5 14 4 15 3 16 2 17 1 18
REMARK H PARENT
REMARK Flexibility Score: inf
ROOT
ATOM      1  C   UNL     1     -34.142   8.250  -3.137  1.00  0.00     0.000 C 
ENDROOT
BRANCH   1   2
ATOM      2  C   UNL     1     -33.290   7.144  -3.771  1.00  0.00     0.000 C 
BRANCH   2   3
ATOM      3  C   UNL     1     -32.315   6.544  -2.746  1.00  0.00     0.000 C 
BRANCH   3   4
ATOM      4  C   UNL     1     -32.514   7.111  -1.332  1.00  0.00     0.000 C 
BRANCH   4   5
ATOM      5  C   UNL     1     -31.490   6.561  -0.325  1.00  0.00     0.000 C 
BRANCH   5   6
ATOM      6  C   UNL     1     -30.179   6.110  -0.995  1.00  0.00     0.006 C 
BRANCH   6   7
ATOM      7  C   UNL     1     -29.729   4.688  -0.617  1.00  0.00     0.053 C 
BRANCH   7   8
ATOM      8  C   UNL     1     -28.497   4.274  -1.360  1.00  0.00     0.041 C 
ATOM      9  O   UNL     1     -27.361   4.642  -0.960  1.00  0.00    -0.550 OA
ATOM     10  O   UNL     1     -28.600   3.454  -2.477  1.00  0.00    -0.550 OA
ENDBRANCH   7   8
ENDBRANCH   6   7
ENDBRANCH   5   6
ENDBRANCH   4   5
ENDBRANCH   3   4
ENDBRANCH   2   3
ENDBRANCH   1   2
BRANCH   1  11
ATOM     11  C   UNL     1     -35.627   7.858  -3.120  1.00  0.00     0.000 C 
BRANCH  11  12
ATOM     12  C   UNL     1     -36.171   7.631  -1.698  1.00  0.00    -0.000 C 
BRANCH  12  13
ATOM     13  C   UNL     1     -36.384   6.157  -1.309  1.00  0.00    -0.000 C 
BRANCH  13  14
ATOM     14  C   UNL     1     -36.208   5.193  -2.492  1.00  0.00    -0.000 C 
BRANCH  14  15
ATOM     15  C   UNL     1     -35.144   4.133  -2.183  1.00  0.00    -0.000 C 
BRANCH  15  16
ATOM     16  C   UNL     1     -34.601   4.300  -0.755  1.00  0.00    -0.000 C 
BRANCH  16  17
ATOM     17  C   UNL     1     -33.388   3.399  -0.476  1.00  0.00    -0.003 C 
ATOM     18  C   UNL     1     -32.762   2.836  -1.752  1.00  0.00     0.004 C 
ENDBRANCH  16  17
ENDBRANCH  15  16
ENDBRANCH  14  15
ENDBRANCH  13  14
ENDBRANCH  12  13
ENDBRANCH  11  12
ENDBRANCH   1  11
TORSDOF 14
ENDMDL
MODEL 5
REMARK VINA RESULT:    -3.422      3.107      5.895
REMARK INTER + INTRA:          -8.447
REMARK INTER:                  -6.150
REMARK INTRA:                  -2.297
REMARK UNBOUND:                -2.224
REMARK SMILES CCCCCCCCCCCCCCCC(=O)[O-]
REMARK SMILES IDX 9 1 10 2 11 3 12 4 13 5 14 6 15 7 16 8 17 9 18 10 8 11 7 12
REMARK SMILES IDX 6 13 5 14 4 15 3 16 2 17 1 18
REMARK H PARENT
REMARK Flexibility Score: inf
ROOT
ATOM      1  C   UNL     1     -34.454   7.626  -2.209  1.00  0.00     0.000 C 
ENDROOT
BRANCH   1   2
ATOM      2  C   UNL     1     -35.975   7.468  -2.091  1.00  0.00     0.000 C 
BRANCH   2   3
ATOM      3  C   UNL     1     -36.340   6.108  -1.476  1.00  0.00     0.000 C 
BRANCH   3   4
ATOM      4  C   UNL     1     -36.748   5.068  -2.531  1.00  0.00     0.000 C 
BRANCH   4   5
ATOM      5  C   UNL     1     -35.552   4.253  -3.052  1.00  0.00     0.000 C 
BRANCH   5   6
ATOM      6  C   UNL     1     -35.955   2.851  -3.544  1.00  0.00     0.006 C 
BRANCH   6   7
ATOM      7  C   UNL     1     -34.862   2.120  -4.343  1.00  0.00     0.053 C 
BRANCH   7   8
ATOM      8  C   UNL     1     -35.407   1.477  -5.580  1.00  0.00     0.041 C 
ATOM      9  O   UNL     1     -35.263   2.033  -6.701  1.00  0.00    -0.550 OA
ATOM     10  O   UNL     1     -36.047   0.246  -5.500  1.00  0.00    -0.550 OA
ENDBRANCH   7   8
ENDBRANCH   6   7
ENDBRANCH   5   6
ENDBRANCH   4   5
ENDBRANCH   3   4
ENDBRANCH   2   3
ENDBRANCH   1   2
BRANCH   1  11
ATOM     11  C   UNL     1     -33.742   7.023  -0.989  1.00  0.00     0.000 C 
BRANCH  11  12
ATOM     12  C   UNL     1     -32.406   6.346  -1.348  1.00  0.00    -0.000 C 
BRANCH  12  13
ATOM     13  C   UNL     1     -32.241   5.979  -2.833  1.00  0.00    -0.000 C 
BRANCH  13  14
ATOM     14  C   UNL     1     -31.729   4.546  -3.044  1.00  0.00    -0.000 C 
BRANCH  14  15
ATOM     15  C   UNL     1     -31.511   3.838  -1.702  1.00  0.00    -0.000 C 
BRANCH  15  16
ATOM     16  C   UNL     1     -32.560   2.735  -1.487  1.00  0.00    -0.000 C 
BRANCH  16  17
ATOM     17  C   UNL     1     -32.989   2.608  -0.017  1.00  0.00    -0.003 C 
ATOM     18  C   UNL     1     -34.172   3.510   0.335  1.00  0.00     0.004 C 
ENDBRANCH  16  17
ENDBRANCH  15  16
ENDBRANCH  14  15
ENDBRANCH  13  14
ENDBRANCH  12  13
ENDBRANCH  11  12
ENDBRANCH   1  11
TORSDOF 14
ENDMDL
MODEL 6
REMARK VINA RESULT:    -3.415      4.069      5.904
REMARK INTER + INTRA:          -8.435
REMARK INTER:                  -6.271
REMARK INTRA:                  -2.164
REMARK UNBOUND:                -2.224
REMARK SMILES CCCCCCCCCCCCCCCC(=O)[O-]
REMARK SMILES IDX 9 1 10 2 11 3 12 4 13 5 14 6 15 7 16 8 17 9 18 10 8 11 7 12
REMARK SMILES IDX 6 13 5 14 4 15 3 16 2 17 1 18
REMARK H PARENT
REMARK Flexibility Score: inf
ROOT
ATOM      1  C   UNL     1     -35.775   6.963  -1.517  1.00  0.00     0.000 C 
ENDROOT
BRANCH   1   2
ATOM      2  C   UNL     1     -35.231   5.535  -1.395  1.00  0.00     0.000 C 
BRANCH   2   3
ATOM      3  C   UNL     1     -33.701   5.540  -1.255  1.00  0.00     0.000 C 
BRANCH   3   4
ATOM      4  C   UNL     1     -33.164   6.835  -0.626  1.00  0.00     0.000 C 
BRANCH   4   5
ATOM      5  C   UNL     1     -31.666   6.750  -0.288  1.00  0.00     0.000 C 
BRANCH   5   6
ATOM      6  C   UNL     1     -30.885   5.848  -1.261  1.00  0.00     0.006 C 
BRANCH   6   7
ATOM      7  C   UNL     1     -29.807   4.977  -0.593  1.00  0.00     0.053 C 
BRANCH   7   8
ATOM      8  C   UNL     1     -28.462   5.633  -0.616  1.00  0.00     0.041 C 
ATOM      9  O   UNL     1     -28.239   6.598  -1.394  1.00  0.00    -0.550 OA
ATOM     10  O   UNL     1     -27.462   5.199   0.245  1.00  0.00    -0.550 OA
ENDBRANCH   7   8
ENDBRANCH   6   7
ENDBRANCH   5   6
ENDBRANCH   4   5
ENDBRANCH   3   4
ENDBRANCH   2   3
ENDBRANCH   1   2
BRANCH   1  11
ATOM     11  C   UNL     1     -35.989   7.346  -2.989  1.00  0.00     0.000 C 
BRANCH  11  12
ATOM     12  C   UNL     1     -35.806   8.852  -3.250  1.00  0.00    -0.000 C 
BRANCH  12  13
ATOM     13  C   UNL     1     -34.353   9.301  -3.482  1.00  0.00    -0.000 C 
BRANCH  13  14
ATOM     14  C   UNL     1     -33.488   8.216  -4.140  1.00  0.00    -0.000 C 
BRANCH  14  15
ATOM     15  C   UNL     1     -32.019   8.359  -3.725  1.00  0.00    -0.000 C 
BRANCH  15  16
ATOM     16  C   UNL     1     -31.831   9.547  -2.769  1.00  0.00    -0.000 C 
BRANCH  16  17
ATOM     17  C   UNL     1     -30.362   9.982  -2.649  1.00  0.00    -0.003 C 
ATOM     18  C   UNL     1     -29.797   9.777  -1.243  1.00  0.00     0.004 C 
ENDBRANCH  16  17
ENDBRANCH  15  16
ENDBRANCH  14  15
ENDBRANCH  13  14
ENDBRANCH  12  13
ENDBRANCH  11  12
ENDBRANCH   1  11
TORSDOF 14
ENDMDL
MODEL 7
REMARK VINA RESULT:    -3.413      1.490      4.928
REMARK INTER + INTRA:          -8.431
REMARK INTER:                  -6.358
REMARK INTRA:                  -2.073
REMARK UNBOUND:                -2.224
REMARK SMILES CCCCCCCCCCCCCCCC(=O)[O-]
REMARK SMILES IDX 9 1 10 2 11 3 12 4 13 5 14 6 15 7 16 8 17 9 18 10 8 11 7 12
REMARK SMILES IDX 6 13 5 14 4 15 3 16 2 17 1 18
REMARK H PARENT
REMARK Flexibility Score: inf
ROOT
ATOM      1  C   UNL     1     -35.013   3.756  -6.393  1.00  0.00     0.000 C 
ENDROOT
BRANCH   1   2
ATOM      2  C   UNL     1     -36.331   2.973  -6.455  1.00  0.00     0.000 C 
BRANCH   2   3
ATOM      3  C   UNL     1     -36.092   1.475  -6.215  1.00  0.00     0.000 C 
BRANCH   3   4
ATOM      4  C   UNL     1     -34.978   1.205  -5.192  1.00  0.00     0.000 C 
BRANCH   4   5
ATOM      5  C   UNL     1     -35.524   0.956  -3.776  1.00  0.00     0.000 C 
BRANCH   5   6
ATOM      6  C   UNL     1     -35.508   2.222  -2.900  1.00  0.00     0.006 C 
BRANCH   6   7
ATOM      7  C   UNL     1     -34.151   2.943  -2.850  1.00  0.00     0.053 C 
BRANCH   7   8
ATOM      8  C   UNL     1     -33.341   2.535  -1.659  1.00  0.00     0.041 C 
ATOM      9  O   UNL     1     -33.903   2.020  -0.656  1.00  0.00    -0.550 OA
ATOM     10  O   UNL     1     -31.961   2.694  -1.668  1.00  0.00    -0.550 OA
ENDBRANCH   7   8
ENDBRANCH   6   7
ENDBRANCH   5   6
ENDBRANCH   4   5
ENDBRANCH   3   4
ENDBRANCH   2   3
ENDBRANCH   1   2
BRANCH   1  11
ATOM     11  C   UNL     1     -35.239   5.169  -5.835  1.00  0.00     0.000 C 
BRANCH  11  12
ATOM     12  C   UNL     1     -36.452   5.255  -4.890  1.00  0.00    -0.000 C 
BRANCH  12  13
ATOM     13  C   UNL     1     -36.302   6.251  -3.727  1.00  0.00    -0.000 C 
BRANCH  13  14
ATOM     14  C   UNL     1     -36.717   5.658  -2.372  1.00  0.00    -0.000 C 
BRANCH  14  15
ATOM     15  C   UNL     1     -36.212   6.528  -1.215  1.00  0.00    -0.000 C 
BRANCH  15  16
ATOM     16  C   UNL     1     -34.820   7.101  -1.525  1.00  0.00    -0.000 C 
BRANCH  16  17
ATOM     17  C   UNL     1     -33.684   6.209  -0.998  1.00  0.00    -0.003 C 
ATOM     18  C   UNL     1     -32.307   6.858  -1.139  1.00  0.00     0.004 C 
ENDBRANCH  16  17
ENDBRANCH  15  16
ENDBRANCH  14  15
ENDBRANCH  13  14
ENDBRANCH  12  13
ENDBRANCH  11  12
ENDBRANCH   1  11
TORSDOF 14
ENDMDL
MODEL 8
REMARK VINA RESULT:    -3.392      2.641      5.394
REMARK INTER + INTRA:          -8.393
REMARK INTER:                  -5.787
REMARK INTRA:                  -2.606
REMARK UNBOUND:                -2.224
REMARK SMILES CCCCCCCCCCCCCCCC(=O)[O-]
REMARK SMILES IDX 9 1 10 2 11 3 12 4 13 5 14 6 15 7 16 8 17 9 18 10 8 11 7 12
REMARK SMILES IDX 6 13 5 14 4 15 3 16 2 17 1 18
REMARK H PARENT
REMARK Flexibility Score: inf
ROOT
ATOM      1  C   UNL     1     -32.602   7.403  -3.315  1.00  0.00     0.000 C 
ENDROOT
BRANCH   1   2
ATOM      2  C   UNL     1     -31.962   6.438  -2.309  1.00  0.00     0.000 C 
BRANCH   2   3
ATOM      3  C   UNL     1     -32.536   6.653  -0.900  1.00  0.00     0.000 C 
BRANCH   3   4
ATOM      4  C   UNL     1     -32.190   5.508   0.065  1.00  0.00     0.000 C 
BRANCH   4   5
ATOM      5  C   UNL     1     -31.900   4.186  -0.667  1.00  0.00     0.000 C 
BRANCH   5   6
ATOM      6  C   UNL     1     -32.974   3.115  -0.409  1.00  0.00     0.006 C 
BRANCH   6   7
ATOM      7  C   UNL     1     -34.025   3.509   0.643  1.00  0.00     0.053 C 
BRANCH   7   8
ATOM      8  C   UNL     1     -33.836   2.767   1.930  1.00  0.00     0.041 C 
ATOM      9  O   UNL     1     -32.898   1.936   2.052  1.00  0.00    -0.550 OA
ATOM     10  O   UNL     1     -34.679   3.016   3.006  1.00  0.00    -0.550 OA
ENDBRANCH   7   8
ENDBRANCH   6   7
ENDBRANCH   5   6
ENDBRANCH   4   5
ENDBRANCH   3   4
ENDBRANCH   2   3
ENDBRANCH   1   2
BRANCH   1  11
ATOM     11  C   UNL     1     -33.494   8.430  -2.601  1.00  0.00     0.000 C 
BRANCH  11  12
ATOM     12  C   UNL     1     -34.810   8.706  -3.351  1.00  0.00    -0.000 C 
BRANCH  12  13
ATOM     13  C   UNL     1     -35.971   7.760  -2.998  1.00  0.00    -0.000 C 
BRANCH  13  14
ATOM     14  C   UNL     1     -36.033   7.418  -1.501  1.00  0.00    -0.000 C 
BRANCH  14  15
ATOM     15  C   UNL     1     -36.119   5.902  -1.287  1.00  0.00    -0.000 C 
BRANCH  15  16
ATOM     16  C   UNL     1     -36.413   5.177  -2.609  1.00  0.00    -0.000 C 
BRANCH  16  17
ATOM     17  C   UNL     1     -35.524   3.941  -2.815  1.00  0.00    -0.003 C 
ATOM     18  C   UNL     1     -34.425   4.168  -3.853  1.00  0.00     0.004 C 
ENDBRANCH  16  17
ENDBRANCH  15  16
ENDBRANCH  14  15
ENDBRANCH  13  14
ENDBRANCH  12  13
ENDBRANCH  11  12
ENDBRANCH   1  11
TORSDOF 14
ENDMDL
MODEL 9
REMARK VINA RESULT:    -3.320      2.871      5.231
REMARK INTER + INTRA:          -8.261
REMARK INTER:                  -5.720
REMARK INTRA:                  -2.541
REMARK UNBOUND:                -2.224
REMARK SMILES CCCCCCCCCCCCCCCC(=O)[O-]
REMARK SMILES IDX 9 1 10 2 11 3 12 4 13 5 14 6 15 7 16 8 17 9 18 10 8 11 7 12
REMARK SMILES IDX 6 13 5 14 4 15 3 16 2 17 1 18
REMARK H PARENT
REMARK Flexibility Score: inf
ROOT
ATOM      1  C   UNL     1     -34.287   8.364  -3.933  1.00  0.00     0.000 C 
ENDROOT
BRANCH   1   2
ATOM      2  C   UNL     1     -33.430   8.628  -2.689  1.00  0.00     0.000 C 
BRANCH   2   3
ATOM      3  C   UNL     1     -32.494   7.443  -2.404  1.00  0.00     0.000 C 
BRANCH   3   4
ATOM      4  C   UNL     1     -32.518   7.007  -0.931  1.00  0.00     0.000 C 
BRANCH   4   5
ATOM      5  C   UNL     1     -31.446   5.950  -0.611  1.00  0.00     0.000 C 
BRANCH   5   6
ATOM      6  C   UNL     1     -30.260   5.988  -1.591  1.00  0.00     0.006 C 
BRANCH   6   7
ATOM      7  C   UNL     1     -28.980   6.616  -1.015  1.00  0.00     0.053 C 
BRANCH   7   8
ATOM      8  C   UNL     1     -28.849   8.062  -1.383  1.00  0.00     0.041 C 
ATOM      9  O   UNL     1     -29.482   8.941  -0.741  1.00  0.00    -0.550 OA
ATOM     10  O   UNL     1     -28.001   8.442  -2.417  1.00  0.00    -0.550 OA
ENDBRANCH   7   8
ENDBRANCH   6   7
ENDBRANCH   5   6
ENDBRANCH   4   5
ENDBRANCH   3   4
ENDBRANCH   2   3
ENDBRANCH   1   2
BRANCH   1  11
ATOM     11  C   UNL     1     -35.540   7.550  -3.575  1.00  0.00     0.000 C 
BRANCH  11  12
ATOM     12  C   UNL     1     -36.003   7.770  -2.123  1.00  0.00    -0.000 C 
BRANCH  12  13
ATOM     13  C   UNL     1     -36.383   6.489  -1.360  1.00  0.00    -0.000 C 
BRANCH  13  14
ATOM     14  C   UNL     1     -35.982   5.206  -2.103  1.00  0.00    -0.000 C 
BRANCH  14  15
ATOM     15  C   UNL     1     -34.881   4.454  -1.346  1.00  0.00    -0.000 C 
BRANCH  15  16
ATOM     16  C   UNL     1     -33.926   3.750  -2.322  1.00  0.00    -0.000 C 
BRANCH  16  17
ATOM     17  C   UNL     1     -34.264   4.042  -3.793  1.00  0.00    -0.003 C 
ATOM     18  C   UNL     1     -33.119   4.726  -4.539  1.00  0.00     0.004 C 
ENDBRANCH  16  17
ENDBRANCH  15  16
ENDBRANCH  14  15
ENDBRANCH  13  14
ENDBRANCH  12  13
ENDBRANCH  11  12
ENDBRANCH   1  11
TORSDOF 14
ENDMDL
