MODEL 1
REMARK VINA RESULT:    -4.670      0.000      0.000
REMARK INTER + INTRA:         -10.619
REMARK INTER:                  -8.492
REMARK INTRA:                  -2.127
REMARK UNBOUND:                -2.127
REMARK SMILES CCCCCCCCCCCCCCCC(=O)[O-]
REMARK SMILES IDX 9 1 10 2 11 3 12 4 13 5 14 6 15 7 16 8 17 9 18 10 8 11 7 12
REMARK SMILES IDX 6 13 5 14 4 15 3 16 2 17 1 18
REMARK H PARENT
REMARK Flexibility Score: inf
ROOT
ATOM      1  C   UNL     1     -48.227  25.564 -17.143  1.00  0.00     0.000 C 
ENDROOT
BRANCH   1   2
ATOM      2  C   UNL     1     -48.845  26.951 -16.889  1.00  0.00     0.000 C 
BRANCH   2   3
ATOM      3  C   UNL     1     -50.110  27.263 -17.714  1.00  0.00     0.000 C 
BRANCH   3   4
ATOM      4  C   UNL     1     -51.354  27.649 -16.887  1.00  0.00     0.000 C 
BRANCH   4   5
ATOM      5  C   UNL     1     -51.204  27.469 -15.366  1.00  0.00     0.000 C 
BRANCH   5   6
ATOM      6  C   UNL     1     -52.280  26.554 -14.766  1.00  0.00     0.006 C 
BRANCH   6   7
ATOM      7  C   UNL     1     -51.980  25.083 -15.067  1.00  0.00     0.053 C 
BRANCH   7   8
ATOM      8  C   UNL     1     -52.521  24.204 -13.984  1.00  0.00     0.041 C 
ATOM      9  O   UNL     1     -51.819  23.267 -13.520  1.00  0.00    -0.550 OA
ATOM     10  O   UNL     1     -53.818  24.387 -13.523  1.00  0.00    -0.550 OA
ENDBRANCH   7   8
ENDBRANCH   6   7
ENDBRANCH   5   6
ENDBRANCH   4   5
ENDBRANCH   3   4
ENDBRANCH   2   3
ENDBRANCH   1   2
BRANCH   1  11
ATOM     11  C   UNL     1     -48.393  24.609 -15.949  1.00  0.00     0.000 C 
BRANCH  11  12
ATOM     12  C   UNL     1     -48.399  25.348 -14.600  1.00  0.00    -0.000 C 
BRANCH  12  13
ATOM     13  C   UNL     1     -47.053  25.240 -13.863  1.00  0.00    -0.000 C 
BRANCH  13  14
ATOM     14  C   UNL     1     -46.569  26.590 -13.303  1.00  0.00    -0.000 C 
BRANCH  14  15
ATOM     15  C   UNL     1     -45.822  27.488 -14.310  1.00  0.00    -0.000 C 
BRANCH  15  16
ATOM     16  C   UNL     1     -45.018  26.736 -15.385  1.00  0.00    -0.000 C 
BRANCH  16  17
ATOM     17  C   UNL     1     -45.036  27.444 -16.747  1.00  0.00    -0.003 C 
ATOM     18  C   UNL     1     -44.697  26.474 -17.875  1.00  0.00     0.004 C 
ENDBRANCH  16  17
ENDBRANCH  15  16
ENDBRANCH  14  15
ENDBRANCH  13  14
ENDBRANCH  12  13
ENDBRANCH  11  12
ENDBRANCH   1  11
TORSDOF 14
ENDMDL
MODEL 2
REMARK VINA RESULT:    -4.659      3.398      6.898
REMARK INTER + INTRA:         -10.599
REMARK INTER:                  -8.712
REMARK INTRA:                  -1.887
REMARK UNBOUND:                -2.127
REMARK SMILES CCCCCCCCCCCCCCCC(=O)[O-]
REMARK SMILES IDX 9 1 10 2 11 3 12 4 13 5 14 6 15 7 16 8 17 9 18 10 8 11 7 12
REMARK SMILES IDX 6 13 5 14 4 15 3 16 2 17 1 18
REMARK H PARENT
REMARK Flexibility Score: inf
ROOT
ATOM      1  C   UNL     1     -48.154  26.459 -14.759  1.00  0.00     0.000 C 
ENDROOT
BRANCH   1   2
ATOM      2  C   UNL     1     -47.189  25.555 -13.971  1.00  0.00     0.000 C 
BRANCH   2   3
ATOM      3  C   UNL     1     -45.739  26.071 -13.879  1.00  0.00     0.000 C 
BRANCH   3   4
ATOM      4  C   UNL     1     -45.551  27.563 -14.222  1.00  0.00     0.000 C 
BRANCH   4   5
ATOM      5  C   UNL     1     -44.698  27.839 -15.472  1.00  0.00     0.000 C 
BRANCH   5   6
ATOM      6  C   UNL     1     -44.814  26.732 -16.529  1.00  0.00     0.006 C 
BRANCH   6   7
ATOM      7  C   UNL     1     -44.994  27.327 -17.929  1.00  0.00     0.053 C 
BRANCH   7   8
ATOM      8  C   UNL     1     -44.673  26.309 -18.978  1.00  0.00     0.041 C 
ATOM      9  O   UNL     1     -45.204  25.168 -18.936  1.00  0.00    -0.550 OA
ATOM     10  O   UNL     1     -43.748  26.603 -19.972  1.00  0.00    -0.550 OA
ENDBRANCH   7   8
ENDBRANCH   6   7
ENDBRANCH   5   6
ENDBRANCH   4   5
ENDBRANCH   3   4
ENDBRANCH   2   3
ENDBRANCH   1   2
BRANCH   1  11
ATOM     11  C   UNL     1     -48.382  25.975 -16.202  1.00  0.00     0.000 C 
BRANCH  11  12
ATOM     12  C   UNL     1     -48.557  27.137 -17.193  1.00  0.00    -0.000 C 
BRANCH  12  13
ATOM     13  C   UNL     1     -49.989  27.231 -17.744  1.00  0.00    -0.000 C 
BRANCH  13  14
ATOM     14  C   UNL     1     -50.990  27.789 -16.716  1.00  0.00    -0.000 C 
BRANCH  14  15
ATOM     15  C   UNL     1     -52.071  26.795 -16.246  1.00  0.00    -0.000 C 
BRANCH  15  16
ATOM     16  C   UNL     1     -51.842  26.194 -14.848  1.00  0.00    -0.000 C 
BRANCH  16  17
ATOM     17  C   UNL     1     -52.231  24.711 -14.767  1.00  0.00    -0.003 C 
ATOM     18  C   UNL     1     -50.997  23.816 -14.809  1.00  0.00     0.004 C 
ENDBRANCH  16  17
ENDBRANCH  15  16
ENDBRANCH  14  15
ENDBRANCH  13  14
ENDBRANCH  12  13
ENDBRANCH  11  12
ENDBRANCH   1  11
TORSDOF 14
ENDMDL
MODEL 3
REMARK VINA RESULT:    -4.504      0.977      1.948
REMARK INTER + INTRA:         -10.316
REMARK INTER:                  -8.114
REMARK INTRA:                  -2.203
REMARK UNBOUND:                -2.127
REMARK SMILES CCCCCCCCCCCCCCCC(=O)[O-]
REMARK SMILES IDX 9 1 10 2 11 3 12 4 13 5 14 6 15 7 16 8 17 9 18 10 8 11 7 12
REMARK SMILES IDX 6 13 5 14 4 15 3 16 2 17 1 18
REMARK H PARENT
REMARK Flexibility Score: inf
ROOT
ATOM      1  C   UNL     1     -47.955  25.570 -16.243  1.00  0.00     0.000 C 
ENDROOT
BRANCH   1   2
ATOM      2  C   UNL     1     -48.560  26.717 -17.072  1.00  0.00     0.000 C 
BRANCH   2   3
ATOM      3  C   UNL     1     -48.864  28.005 -16.281  1.00  0.00     0.000 C 
BRANCH   3   4
ATOM      4  C   UNL     1     -50.362  28.302 -16.061  1.00  0.00     0.000 C 
BRANCH   4   5
ATOM      5  C   UNL     1     -51.325  27.265 -16.665  1.00  0.00     0.000 C 
BRANCH   5   6
ATOM      6  C   UNL     1     -52.136  26.514 -15.600  1.00  0.00     0.006 C 
BRANCH   6   7
ATOM      7  C   UNL     1     -51.296  25.415 -14.944  1.00  0.00     0.053 C 
BRANCH   7   8
ATOM      8  C   UNL     1     -52.157  24.249 -14.570  1.00  0.00     0.041 C 
ATOM      9  O   UNL     1     -53.274  24.438 -14.021  1.00  0.00    -0.550 OA
ATOM     10  O   UNL     1     -51.702  22.954 -14.780  1.00  0.00    -0.550 OA
ENDBRANCH   7   8
ENDBRANCH   6   7
ENDBRANCH   5   6
ENDBRANCH   4   5
ENDBRANCH   3   4
ENDBRANCH   2   3
ENDBRANCH   1   2
BRANCH   1  11
ATOM     11  C   UNL     1     -47.761  25.942 -14.763  1.00  0.00     0.000 C 
BRANCH  11  12
ATOM     12  C   UNL     1     -46.281  25.958 -14.348  1.00  0.00    -0.000 C 
BRANCH  12  13
ATOM     13  C   UNL     1     -45.680  27.374 -14.363  1.00  0.00    -0.000 C 
BRANCH  13  14
ATOM     14  C   UNL     1     -44.681  27.587 -15.515  1.00  0.00    -0.000 C 
BRANCH  14  15
ATOM     15  C   UNL     1     -45.205  28.439 -16.689  1.00  0.00    -0.000 C 
BRANCH  15  16
ATOM     16  C   UNL     1     -44.987  27.832 -18.086  1.00  0.00    -0.000 C 
BRANCH  16  17
ATOM     17  C   UNL     1     -44.483  26.383 -18.034  1.00  0.00    -0.003 C 
ATOM     18  C   UNL     1     -45.379  25.460 -18.854  1.00  0.00     0.004 C 
ENDBRANCH  16  17
ENDBRANCH  15  16
ENDBRANCH  14  15
ENDBRANCH  13  14
ENDBRANCH  12  13
ENDBRANCH  11  12
ENDBRANCH   1  11
TORSDOF 14
ENDMDL
MODEL 4
REMARK VINA RESULT:    -4.497      1.277      2.150
REMARK INTER + INTRA:         -10.304
REMARK INTER:                  -8.173
REMARK INTRA:                  -2.131
REMARK UNBOUND:                -2.127
REMARK SMILES CCCCCCCCCCCCCCCC(=O)[O-]
REMARK SMILES IDX 9 1 10 2 11 3 12 4 13 5 14 6 15 7 16 8 17 9 18 10 8 11 7 12
REMARK SMILES IDX 6 13 5 14 4 15 3 16 2 17 1 18
REMARK H PARENT
REMARK Flexibility Score: inf
ROOT
ATOM      1  C   UNL     1     -48.331  28.062 -17.741  1.00  0.00     0.000 C 
ENDROOT
BRANCH   1   2
ATOM      2  C   UNL     1     -49.418  29.047 -17.274  1.00  0.00     0.000 C 
BRANCH   2   3
ATOM      3  C   UNL     1     -49.901  28.848 -15.824  1.00  0.00     0.000 C 
BRANCH   3   4
ATOM      4  C   UNL     1     -51.311  28.241 -15.680  1.00  0.00     0.000 C 
BRANCH   4   5
ATOM      5  C   UNL     1     -51.417  27.073 -14.683  1.00  0.00     0.000 C 
BRANCH   5   6
ATOM      6  C   UNL     1     -51.717  25.731 -15.367  1.00  0.00     0.006 C 
BRANCH   6   7
ATOM      7  C   UNL     1     -52.532  24.818 -14.448  1.00  0.00     0.053 C 
BRANCH   7   8
ATOM      8  C   UNL     1     -51.796  23.541 -14.189  1.00  0.00     0.041 C 
ATOM      9  O   UNL     1     -51.327  22.874 -15.148  1.00  0.00    -0.550 OA
ATOM     10  O   UNL     1     -51.670  23.062 -12.891  1.00  0.00    -0.550 OA
ENDBRANCH   7   8
ENDBRANCH   6   7
ENDBRANCH   5   6
ENDBRANCH   4   5
ENDBRANCH   3   4
ENDBRANCH   2   3
ENDBRANCH   1   2
BRANCH   1  11
ATOM     11  C   UNL     1     -48.843  26.616 -17.848  1.00  0.00     0.000 C 
BRANCH  11  12
ATOM     12  C   UNL     1     -47.871  25.598 -17.228  1.00  0.00    -0.000 C 
BRANCH  12  13
ATOM     13  C   UNL     1     -48.556  24.675 -16.206  1.00  0.00    -0.000 C 
BRANCH  13  14
ATOM     14  C   UNL     1     -48.067  24.910 -14.766  1.00  0.00    -0.000 C 
BRANCH  14  15
ATOM     15  C   UNL     1     -47.629  26.355 -14.449  1.00  0.00    -0.000 C 
BRANCH  15  16
ATOM     16  C   UNL     1     -46.180  26.505 -13.954  1.00  0.00    -0.000 C 
BRANCH  16  17
ATOM     17  C   UNL     1     -45.169  26.634 -15.102  1.00  0.00    -0.003 C 
ATOM     18  C   UNL     1     -44.951  28.095 -15.481  1.00  0.00     0.004 C 
ENDBRANCH  16  17
ENDBRANCH  15  16
ENDBRANCH  14  15
ENDBRANCH  13  14
ENDBRANCH  12  13
ENDBRANCH  11  12
ENDBRANCH   1  11
TORSDOF 14
ENDMDL
MODEL 5
REMARK VINA RESULT:    -4.367      2.256      5.760
REMARK INTER + INTRA:         -10.069
REMARK INTER:                  -8.019
REMARK INTRA:                  -2.050
REMARK UNBOUND:                -2.127
REMARK SMILES CCCCCCCCCCCCCCCC(=O)[O-]
REMARK SMILES IDX 9 1 10 2 11 3 12 4 13 5 14 6 15 7 16 8 17 9 18 10 8 11 7 12
REMARK SMILES IDX 6 13 5 14 4 15 3 16 2 17 1 18
REMARK H PARENT
REMARK Flexibility Score: inf
ROOT
ATOM      1  C   UNL     1     -47.961  25.694 -17.624  1.00  0.00     0.000 C 
ENDROOT
BRANCH   1   2
ATOM      2  C   UNL     1     -46.543  25.383 -18.135  1.00  0.00     0.000 C 
BRANCH   2   3
ATOM      3  C   UNL     1     -45.678  26.619 -18.452  1.00  0.00     0.000 C 
BRANCH   3   4
ATOM      4  C   UNL     1     -44.682  27.025 -17.346  1.00  0.00     0.000 C 
BRANCH   4   5
ATOM      5  C   UNL     1     -45.031  28.328 -16.605  1.00  0.00     0.000 C 
BRANCH   5   6
ATOM      6  C   UNL     1     -45.750  28.082 -15.272  1.00  0.00     0.006 C 
BRANCH   6   7
ATOM      7  C   UNL     1     -45.498  26.658 -14.767  1.00  0.00     0.053 C 
BRANCH   7   8
ATOM      8  C   UNL     1     -46.596  26.225 -13.848  1.00  0.00     0.041 C 
ATOM      9  O   UNL     1     -46.896  26.926 -12.846  1.00  0.00    -0.550 OA
ATOM     10  O   UNL     1     -47.253  25.021 -14.069  1.00  0.00    -0.550 OA
ENDBRANCH   7   8
ENDBRANCH   6   7
ENDBRANCH   5   6
ENDBRANCH   4   5
ENDBRANCH   3   4
ENDBRANCH   2   3
ENDBRANCH   1   2
BRANCH   1  11
ATOM     11  C   UNL     1     -48.413  27.127 -17.953  1.00  0.00     0.000 C 
BRANCH  11  12
ATOM     12  C   UNL     1     -49.703  27.523 -17.216  1.00  0.00    -0.000 C 
BRANCH  12  13
ATOM     13  C   UNL     1     -49.434  28.038 -15.792  1.00  0.00    -0.000 C 
BRANCH  13  14
ATOM     14  C   UNL     1     -50.156  27.214 -14.711  1.00  0.00    -0.000 C 
BRANCH  14  15
ATOM     15  C   UNL     1     -51.069  26.091 -15.244  1.00  0.00    -0.000 C 
BRANCH  15  16
ATOM     16  C   UNL     1     -50.559  24.660 -14.995  1.00  0.00    -0.000 C 
BRANCH  16  17
ATOM     17  C   UNL     1     -51.697  23.653 -14.775  1.00  0.00    -0.003 C 
ATOM     18  C   UNL     1     -52.857  24.290 -14.016  1.00  0.00     0.004 C 
ENDBRANCH  16  17
ENDBRANCH  15  16
ENDBRANCH  14  15
ENDBRANCH  13  14
ENDBRANCH  12  13
ENDBRANCH  11  12
ENDBRANCH   1  11
TORSDOF 14
ENDMDL
MODEL 6
REMARK VINA RESULT:    -4.298      2.814      6.669
REMARK INTER + INTRA:          -9.942
REMARK INTER:                  -8.304
REMARK INTRA:                  -1.638
REMARK UNBOUND:                -2.127
REMARK SMILES CCCCCCCCCCCCCCCC(=O)[O-]
REMARK SMILES IDX 9 1 10 2 11 3 12 4 13 5 14 6 15 7 16 8 17 9 18 10 8 11 7 12
REMARK SMILES IDX 6 13 5 14 4 15 3 16 2 17 1 18
REMARK H PARENT
REMARK Flexibility Score: inf
ROOT
ATOM      1  C   UNL     1     -47.745  25.634 -14.573  1.00  0.00     0.000 C 
ENDROOT
BRANCH   1   2
ATOM      2  C   UNL     1     -46.423  25.957 -13.853  1.00  0.00     0.000 C 
BRANCH   2   3
ATOM      3  C   UNL     1     -46.136  27.459 -13.658  1.00  0.00     0.000 C 
BRANCH   3   4
ATOM      4  C   UNL     1     -44.994  28.028 -14.524  1.00  0.00     0.000 C 
BRANCH   4   5
ATOM      5  C   UNL     1     -45.423  28.536 -15.912  1.00  0.00     0.000 C 
BRANCH   5   6
ATOM      6  C   UNL     1     -45.044  27.571 -17.044  1.00  0.00     0.006 C 
BRANCH   6   7
ATOM      7  C   UNL     1     -46.264  27.228 -17.904  1.00  0.00     0.053 C 
BRANCH   7   8
ATOM      8  C   UNL     1     -46.238  25.786 -18.301  1.00  0.00     0.041 C 
ATOM      9  O   UNL     1     -47.238  25.052 -18.087  1.00  0.00    -0.550 OA
ATOM     10  O   UNL     1     -45.091  25.240 -18.863  1.00  0.00    -0.550 OA
ENDBRANCH   7   8
ENDBRANCH   6   7
ENDBRANCH   5   6
ENDBRANCH   4   5
ENDBRANCH   3   4
ENDBRANCH   2   3
ENDBRANCH   1   2
BRANCH   1  11
ATOM     11  C   UNL     1     -48.567  26.892 -14.903  1.00  0.00     0.000 C 
BRANCH  11  12
ATOM     12  C   UNL     1     -49.488  26.691 -16.118  1.00  0.00    -0.000 C 
BRANCH  12  13
ATOM     13  C   UNL     1     -50.890  27.286 -15.900  1.00  0.00    -0.000 C 
BRANCH  13  14
ATOM     14  C   UNL     1     -51.684  26.558 -14.801  1.00  0.00    -0.000 C 
BRANCH  14  15
ATOM     15  C   UNL     1     -52.127  25.124 -15.153  1.00  0.00    -0.000 C 
BRANCH  15  16
ATOM     16  C   UNL     1     -51.425  24.009 -14.357  1.00  0.00    -0.000 C 
BRANCH  16  17
ATOM     17  C   UNL     1     -52.366  23.296 -13.375  1.00  0.00    -0.003 C 
ATOM     18  C   UNL     1     -53.701  24.026 -13.264  1.00  0.00     0.004 C 
ENDBRANCH  16  17
ENDBRANCH  15  16
ENDBRANCH  14  15
ENDBRANCH  13  14
ENDBRANCH  12  13
ENDBRANCH  11  12
ENDBRANCH   1  11
TORSDOF 14
ENDMDL
MODEL 7
REMARK VINA RESULT:    -4.141      2.339      5.589
REMARK INTER + INTRA:          -9.657
REMARK INTER:                  -7.569
REMARK INTRA:                  -2.089
REMARK UNBOUND:                -2.127
REMARK SMILES CCCCCCCCCCCCCCCC(=O)[O-]
REMARK SMILES IDX 9 1 10 2 11 3 12 4 13 5 14 6 15 7 16 8 17 9 18 10 8 11 7 12
REMARK SMILES IDX 6 13 5 14 4 15 3 16 2 17 1 18
REMARK H PARENT
REMARK Flexibility Score: inf
ROOT
ATOM      1  C   UNL     1     -45.366  26.459 -19.071  1.00  0.00     0.000 C 
ENDROOT
BRANCH   1   2
ATOM      2  C   UNL     1     -44.213  26.855 -18.130  1.00  0.00     0.000 C 
BRANCH   2   3
ATOM      3  C   UNL     1     -44.162  28.348 -17.753  1.00  0.00     0.000 C 
BRANCH   3   4
ATOM      4  C   UNL     1     -44.498  28.665 -16.281  1.00  0.00     0.000 C 
BRANCH   4   5
ATOM      5  C   UNL     1     -44.739  27.433 -15.391  1.00  0.00     0.000 C 
BRANCH   5   6
ATOM      6  C   UNL     1     -45.259  27.800 -13.994  1.00  0.00     0.006 C 
BRANCH   6   7
ATOM      7  C   UNL     1     -46.683  27.279 -13.784  1.00  0.00     0.053 C 
BRANCH   7   8
ATOM      8  C   UNL     1     -46.692  25.785 -13.719  1.00  0.00     0.041 C 
ATOM      9  O   UNL     1     -45.680  25.163 -13.299  1.00  0.00    -0.550 OA
ATOM     10  O   UNL     1     -47.798  25.075 -14.169  1.00  0.00    -0.550 OA
ENDBRANCH   7   8
ENDBRANCH   6   7
ENDBRANCH   5   6
ENDBRANCH   4   5
ENDBRANCH   3   4
ENDBRANCH   2   3
ENDBRANCH   1   2
BRANCH   1  11
ATOM     11  C   UNL     1     -46.286  25.384 -18.468  1.00  0.00     0.000 C 
BRANCH  11  12
ATOM     12  C   UNL     1     -47.300  25.967 -17.470  1.00  0.00    -0.000 C 
BRANCH  12  13
ATOM     13  C   UNL     1     -48.072  27.165 -18.046  1.00  0.00    -0.000 C 
BRANCH  13  14
ATOM     14  C   UNL     1     -48.134  28.359 -17.076  1.00  0.00    -0.000 C 
BRANCH  14  15
ATOM     15  C   UNL     1     -49.543  28.709 -16.556  1.00  0.00    -0.000 C 
BRANCH  15  16
ATOM     16  C   UNL     1     -49.920  28.070 -15.208  1.00  0.00    -0.000 C 
BRANCH  16  17
ATOM     17  C   UNL     1     -50.714  26.766 -15.367  1.00  0.00    -0.003 C 
ATOM     18  C   UNL     1     -51.912  26.962 -16.291  1.00  0.00     0.004 C 
ENDBRANCH  16  17
ENDBRANCH  15  16
ENDBRANCH  14  15
ENDBRANCH  13  14
ENDBRANCH  12  13
ENDBRANCH  11  12
ENDBRANCH   1  11
TORSDOF 14
ENDMDL
MODEL 8
REMARK VINA RESULT:    -4.075      3.394      6.318
REMARK INTER + INTRA:          -9.536
REMARK INTER:                  -7.440
REMARK INTRA:                  -2.097
REMARK UNBOUND:                -2.127
REMARK SMILES CCCCCCCCCCCCCCCC(=O)[O-]
REMARK SMILES IDX 9 1 10 2 11 3 12 4 13 5 14 6 15 7 16 8 17 9 18 10 8 11 7 12
REMARK SMILES IDX 6 13 5 14 4 15 3 16 2 17 1 18
REMARK H PARENT
REMARK Flexibility Score: inf
ROOT
ATOM      1  C   UNL     1     -49.057  26.834 -17.221  1.00  0.00     0.000 C 
ENDROOT
BRANCH   1   2
ATOM      2  C   UNL     1     -48.118  27.956 -17.700  1.00  0.00     0.000 C 
BRANCH   2   3
ATOM      3  C   UNL     1     -47.531  28.838 -16.580  1.00  0.00     0.000 C 
BRANCH   3   4
ATOM      4  C   UNL     1     -46.884  28.070 -15.410  1.00  0.00     0.000 C 
BRANCH   4   5
ATOM      5  C   UNL     1     -45.351  28.181 -15.329  1.00  0.00     0.000 C 
BRANCH   5   6
ATOM      6  C   UNL     1     -44.661  27.889 -16.669  1.00  0.00     0.006 C 
BRANCH   6   7
ATOM      7  C   UNL     1     -44.733  26.398 -17.010  1.00  0.00     0.053 C 
BRANCH   7   8
ATOM      8  C   UNL     1     -44.845  26.202 -18.489  1.00  0.00     0.041 C 
ATOM      9  O   UNL     1     -45.266  25.110 -18.953  1.00  0.00    -0.550 OA
ATOM     10  O   UNL     1     -44.438  27.207 -19.356  1.00  0.00    -0.550 OA
ENDBRANCH   7   8
ENDBRANCH   6   7
ENDBRANCH   5   6
ENDBRANCH   4   5
ENDBRANCH   3   4
ENDBRANCH   2   3
ENDBRANCH   1   2
BRANCH   1  11
ATOM     11  C   UNL     1     -48.471  25.429 -17.445  1.00  0.00     0.000 C 
BRANCH  11  12
ATOM     12  C   UNL     1     -48.096  24.730 -16.128  1.00  0.00    -0.000 C 
BRANCH  12  13
ATOM     13  C   UNL     1     -49.072  25.059 -14.986  1.00  0.00    -0.000 C 
BRANCH  13  14
ATOM     14  C   UNL     1     -50.394  24.275 -15.085  1.00  0.00    -0.000 C 
BRANCH  14  15
ATOM     15  C   UNL     1     -51.652  25.053 -14.651  1.00  0.00    -0.000 C 
BRANCH  15  16
ATOM     16  C   UNL     1     -52.090  26.174 -15.610  1.00  0.00    -0.000 C 
BRANCH  16  17
ATOM     17  C   UNL     1     -52.323  27.513 -14.895  1.00  0.00    -0.003 C 
ATOM     18  C   UNL     1     -51.010  28.101 -14.388  1.00  0.00     0.004 C 
ENDBRANCH  16  17
ENDBRANCH  15  16
ENDBRANCH  14  15
ENDBRANCH  13  14
ENDBRANCH  12  13
ENDBRANCH  11  12
ENDBRANCH   1  11
TORSDOF 14
ENDMDL
MODEL 9
REMARK VINA RESULT:    -3.980      3.506      7.185
REMARK INTER + INTRA:          -9.364
REMARK INTER:                  -8.295
REMARK INTRA:                  -1.069
REMARK UNBOUND:                -2.127
REMARK SMILES CCCCCCCCCCCCCCCC(=O)[O-]
REMARK SMILES IDX 9 1 10 2 11 3 12 4 13 5 14 6 15 7 16 8 17 9 18 10 8 11 7 12
REMARK SMILES IDX 6 13 5 14 4 15 3 16 2 17 1 18
REMARK H PARENT
REMARK Flexibility Score: inf
ROOT
ATOM      1  C   UNL     1     -50.053  28.695 -17.000  1.00  0.00     0.000 C 
ENDROOT
BRANCH   1   2
ATOM      2  C   UNL     1     -49.940  27.323 -17.689  1.00  0.00     0.000 C 
BRANCH   2   3
ATOM      3  C   UNL     1     -48.520  26.724 -17.722  1.00  0.00     0.000 C 
BRANCH   3   4
ATOM      4  C   UNL     1     -47.876  26.485 -16.341  1.00  0.00     0.000 C 
BRANCH   4   5
ATOM      5  C   UNL     1     -46.686  27.403 -16.012  1.00  0.00     0.000 C 
BRANCH   5   6
ATOM      6  C   UNL     1     -45.753  27.622 -17.211  1.00  0.00     0.006 C 
BRANCH   6   7
ATOM      7  C   UNL     1     -44.868  26.394 -17.448  1.00  0.00     0.053 C 
BRANCH   7   8
ATOM      8  C   UNL     1     -44.985  25.928 -18.865  1.00  0.00     0.041 C 
ATOM      9  O   UNL     1     -44.930  26.757 -19.811  1.00  0.00    -0.550 OA
ATOM     10  O   UNL     1     -45.204  24.584 -19.138  1.00  0.00    -0.550 OA
ENDBRANCH   7   8
ENDBRANCH   6   7
ENDBRANCH   5   6
ENDBRANCH   4   5
ENDBRANCH   3   4
ENDBRANCH   2   3
ENDBRANCH   1   2
BRANCH   1  11
ATOM     11  C   UNL     1     -51.168  28.742 -15.941  1.00  0.00     0.000 C 
BRANCH  11  12
ATOM     12  C   UNL     1     -51.109  27.550 -14.971  1.00  0.00    -0.000 C 
BRANCH  12  13
ATOM     13  C   UNL     1     -52.236  26.533 -15.218  1.00  0.00    -0.000 C 
BRANCH  13  14
ATOM     14  C   UNL     1     -51.834  25.094 -14.845  1.00  0.00    -0.000 C 
BRANCH  14  15
ATOM     15  C   UNL     1     -52.877  24.316 -14.018  1.00  0.00    -0.000 C 
BRANCH  15  16
ATOM     16  C   UNL     1     -52.300  23.223 -13.100  1.00  0.00    -0.000 C 
BRANCH  16  17
ATOM     17  C   UNL     1     -53.231  22.876 -11.930  1.00  0.00    -0.003 C 
ATOM     18  C   UNL     1     -54.514  23.700 -11.984  1.00  0.00     0.004 C 
ENDBRANCH  16  17
ENDBRANCH  15  16
ENDBRANCH  14  15
ENDBRANCH  13  14
ENDBRANCH  12  13
ENDBRANCH  11  12
ENDBRANCH   1  11
TORSDOF 14
ENDMDL
