MODEL 1
REMARK VINA RESULT:    -5.880      0.000      0.000
REMARK INTER + INTRA:         -14.907
REMARK INTER:                 -12.756
REMARK INTRA:                  -2.151
REMARK UNBOUND:                -2.151
REMARK SMILES CCCCCCCCCCCCCCCCCCCCCC(=O)[O-]
REMARK SMILES IDX 12 1 11 2 10 3 9 4 8 5 7 6 6 7 5 8 4 9 3 10 2 11 1 12 13 13
REMARK SMILES IDX 14 14 15 15 16 16 17 17 18 18 19 19 20 20 21 21 22 22 23 23
REMARK SMILES IDX 24 24
REMARK H PARENT
REMARK Flexibility Score: inf
ROOT
ATOM      1  C   UNL     1     -28.969   0.044  27.971  1.00  0.00     0.000 C 
ENDROOT
BRANCH   1   2
ATOM      2  C   UNL     1     -28.051   0.429  26.799  1.00  0.00     0.000 C 
BRANCH   2   3
ATOM      3  C   UNL     1     -28.443  -0.267  25.483  1.00  0.00     0.000 C 
BRANCH   3   4
ATOM      4  C   UNL     1     -27.234  -0.812  24.691  1.00  0.00    -0.000 C 
BRANCH   4   5
ATOM      5  C   UNL     1     -26.637   0.242  23.742  1.00  0.00    -0.000 C 
BRANCH   5   6
ATOM      6  C   UNL     1     -27.510   0.459  22.487  1.00  0.00    -0.000 C 
BRANCH   6   7
ATOM      7  C   UNL     1     -27.653  -0.795  21.608  1.00  0.00    -0.000 C 
BRANCH   7   8
ATOM      8  C   UNL     1     -28.868  -0.724  20.670  1.00  0.00    -0.000 C 
BRANCH   8   9
ATOM      9  C   UNL     1     -30.010  -1.666  21.097  1.00  0.00    -0.000 C 
BRANCH   9  10
ATOM     10  C   UNL     1     -30.170  -1.862  22.619  1.00  0.00    -0.000 C 
BRANCH  10  11
ATOM     11  C   UNL     1     -31.375  -1.137  23.247  1.00  0.00    -0.003 C 
ATOM     12  C   UNL     1     -31.228   0.384  23.230  1.00  0.00     0.004 C 
ENDBRANCH  10  11
ENDBRANCH   9  10
ENDBRANCH   8   9
ENDBRANCH   7   8
ENDBRANCH   6   7
ENDBRANCH   5   6
ENDBRANCH   4   5
ENDBRANCH   3   4
ENDBRANCH   2   3
ENDBRANCH   1   2
BRANCH   1  13
ATOM     13  C   UNL     1     -30.025   1.129  28.270  1.00  0.00     0.000 C 
BRANCH  13  14
ATOM     14  C   UNL     1     -30.125   1.505  29.761  1.00  0.00     0.000 C 
BRANCH  14  15
ATOM     15  C   UNL     1     -29.033   0.898  30.659  1.00  0.00     0.000 C 
BRANCH  15  16
ATOM     16  C   UNL     1     -28.385   1.938  31.591  1.00  0.00     0.000 C 
BRANCH  16  17
ATOM     17  C   UNL     1     -27.950   1.332  32.935  1.00  0.00     0.000 C 
BRANCH  17  18
ATOM     18  C   UNL     1     -28.258   2.253  34.125  1.00  0.00     0.000 C 
BRANCH  18  19
ATOM     19  C   UNL     1     -28.971   3.529  33.659  1.00  0.00     0.000 C 
BRANCH  19  20
ATOM     20  C   UNL     1     -30.449   3.513  34.071  1.00  0.00     0.006 C 
BRANCH  20  21
ATOM     21  C   UNL     1     -31.353   3.252  32.862  1.00  0.00     0.053 C 
BRANCH  21  22
ATOM     22  C   UNL     1     -32.043   1.932  33.000  1.00  0.00     0.041 C 
ATOM     23  O   UNL     1     -31.677   1.114  33.884  1.00  0.00    -0.550 OA
ATOM     24  O   UNL     1     -33.123   1.623  32.181  1.00  0.00    -0.550 OA
ENDBRANCH  21  22
ENDBRANCH  20  21
ENDBRANCH  19  20
ENDBRANCH  18  19
ENDBRANCH  17  18
ENDBRANCH  16  17
ENDBRANCH  15  16
ENDBRANCH  14  15
ENDBRANCH  13  14
ENDBRANCH   1  13
TORSDOF 20
ENDMDL
MODEL 2
REMARK VINA RESULT:    -5.878      1.766      2.612
REMARK INTER + INTRA:         -14.901
REMARK INTER:                 -12.414
REMARK INTRA:                  -2.487
REMARK UNBOUND:                -2.151
REMARK SMILES CCCCCCCCCCCCCCCCCCCCCC(=O)[O-]
REMARK SMILES IDX 12 1 11 2 10 3 9 4 8 5 7 6 6 7 5 8 4 9 3 10 2 11 1 12 13 13
REMARK SMILES IDX 14 14 15 15 16 16 17 17 18 18 19 19 20 20 21 21 22 22 23 23
REMARK SMILES IDX 24 24
REMARK H PARENT
REMARK Flexibility Score: inf
ROOT
ATOM      1  C   UNL     1     -29.588   0.104  27.115  1.00  0.00     0.000 C 
ENDROOT
BRANCH   1   2
ATOM      2  C   UNL     1     -28.114   0.392  26.783  1.00  0.00     0.000 C 
BRANCH   2   3
ATOM      3  C   UNL     1     -27.675  -0.222  25.442  1.00  0.00     0.000 C 
BRANCH   3   4
ATOM      4  C   UNL     1     -28.478  -1.481  25.048  1.00  0.00    -0.000 C 
BRANCH   4   5
ATOM      5  C   UNL     1     -27.845  -2.228  23.861  1.00  0.00    -0.000 C 
BRANCH   5   6
ATOM      6  C   UNL     1     -27.074  -1.279  22.918  1.00  0.00    -0.000 C 
BRANCH   6   7
ATOM      7  C   UNL     1     -27.374  -1.510  21.428  1.00  0.00    -0.000 C 
BRANCH   7   8
ATOM      8  C   UNL     1     -28.828  -1.938  21.176  1.00  0.00    -0.000 C 
BRANCH   8   9
ATOM      9  C   UNL     1     -29.798  -0.744  21.092  1.00  0.00    -0.000 C 
BRANCH   9  10
ATOM     10  C   UNL     1     -30.898  -0.709  22.174  1.00  0.00    -0.000 C 
BRANCH  10  11
ATOM     11  C   UNL     1     -30.720   0.377  23.251  1.00  0.00    -0.003 C 
ATOM     12  C   UNL     1     -29.682   1.430  22.867  1.00  0.00     0.004 C 
ENDBRANCH  10  11
ENDBRANCH   9  10
ENDBRANCH   8   9
ENDBRANCH   7   8
ENDBRANCH   6   7
ENDBRANCH   5   6
ENDBRANCH   4   5
ENDBRANCH   3   4
ENDBRANCH   2   3
ENDBRANCH   1   2
BRANCH   1  13
ATOM     13  C   UNL     1     -30.176   1.127  28.109  1.00  0.00     0.000 C 
BRANCH  13  14
ATOM     14  C   UNL     1     -29.487   1.122  29.488  1.00  0.00     0.000 C 
BRANCH  14  15
ATOM     15  C   UNL     1     -30.235   1.890  30.590  1.00  0.00     0.000 C 
BRANCH  15  16
ATOM     16  C   UNL     1     -31.096   0.970  31.474  1.00  0.00     0.000 C 
BRANCH  16  17
ATOM     17  C   UNL     1     -31.952   1.755  32.482  1.00  0.00     0.000 C 
BRANCH  17  18
ATOM     18  C   UNL     1     -31.485   3.210  32.644  1.00  0.00     0.000 C 
BRANCH  18  19
ATOM     19  C   UNL     1     -30.867   3.435  34.030  1.00  0.00     0.000 C 
BRANCH  19  20
ATOM     20  C   UNL     1     -29.336   3.452  33.952  1.00  0.00     0.006 C 
BRANCH  20  21
ATOM     21  C   UNL     1     -28.761   2.043  34.125  1.00  0.00     0.053 C 
BRANCH  21  22
ATOM     22  C   UNL     1     -27.632   1.816  33.170  1.00  0.00     0.041 C 
ATOM     23  O   UNL     1     -27.487   0.696  32.614  1.00  0.00    -0.550 OA
ATOM     24  O   UNL     1     -26.768   2.857  32.855  1.00  0.00    -0.550 OA
ENDBRANCH  21  22
ENDBRANCH  20  21
ENDBRANCH  19  20
ENDBRANCH  18  19
ENDBRANCH  17  18
ENDBRANCH  16  17
ENDBRANCH  15  16
ENDBRANCH  14  15
ENDBRANCH  13  14
ENDBRANCH   1  13
TORSDOF 20
ENDMDL
MODEL 3
REMARK VINA RESULT:    -5.843      1.063      2.452
REMARK INTER + INTRA:         -14.826
REMARK INTER:                 -12.119
REMARK INTRA:                  -2.706
REMARK UNBOUND:                -2.151
REMARK SMILES CCCCCCCCCCCCCCCCCCCCCC(=O)[O-]
REMARK SMILES IDX 12 1 11 2 10 3 9 4 8 5 7 6 6 7 5 8 4 9 3 10 2 11 1 12 13 13
REMARK SMILES IDX 14 14 15 15 16 16 17 17 18 18 19 19 20 20 21 21 22 22 23 23
REMARK SMILES IDX 24 24
REMARK H PARENT
REMARK Flexibility Score: inf
ROOT
ATOM      1  C   UNL     1     -28.835  -0.115  26.983  1.00  0.00     0.000 C 
ENDROOT
BRANCH   1   2
ATOM      2  C   UNL     1     -29.642   0.887  26.140  1.00  0.00     0.000 C 
BRANCH   2   3
ATOM      3  C   UNL     1     -30.370   0.220  24.959  1.00  0.00     0.000 C 
BRANCH   3   4
ATOM      4  C   UNL     1     -30.294  -1.322  24.979  1.00  0.00    -0.000 C 
BRANCH   4   5
ATOM      5  C   UNL     1     -30.642  -1.940  23.614  1.00  0.00    -0.000 C 
BRANCH   5   6
ATOM      6  C   UNL     1     -31.028  -0.870  22.569  1.00  0.00    -0.000 C 
BRANCH   6   7
ATOM      7  C   UNL     1     -30.012  -0.728  21.424  1.00  0.00    -0.000 C 
BRANCH   7   8
ATOM      8  C   UNL     1     -29.002  -1.886  21.382  1.00  0.00    -0.000 C 
BRANCH   8   9
ATOM      9  C   UNL     1     -27.560  -1.435  21.681  1.00  0.00    -0.000 C 
BRANCH   9  10
ATOM     10  C   UNL     1     -27.423  -0.026  22.295  1.00  0.00    -0.000 C 
BRANCH  10  11
ATOM     11  C   UNL     1     -26.861   0.010  23.728  1.00  0.00    -0.003 C 
ATOM     12  C   UNL     1     -26.552  -1.382  24.280  1.00  0.00     0.004 C 
ENDBRANCH  10  11
ENDBRANCH   9  10
ENDBRANCH   8   9
ENDBRANCH   7   8
ENDBRANCH   6   7
ENDBRANCH   5   6
ENDBRANCH   4   5
ENDBRANCH   3   4
ENDBRANCH   2   3
ENDBRANCH   1   2
BRANCH   1  13
ATOM     13  C   UNL     1     -28.667   0.351  28.445  1.00  0.00     0.000 C 
BRANCH  13  14
ATOM     14  C   UNL     1     -29.907   1.065  29.016  1.00  0.00     0.000 C 
BRANCH  14  15
ATOM     15  C   UNL     1     -29.688   1.763  30.370  1.00  0.00     0.000 C 
BRANCH  15  16
ATOM     16  C   UNL     1     -29.075   0.827  31.427  1.00  0.00     0.000 C 
BRANCH  16  17
ATOM     17  C   UNL     1     -27.960   1.508  32.239  1.00  0.00     0.000 C 
BRANCH  17  18
ATOM     18  C   UNL     1     -28.416   1.902  33.652  1.00  0.00     0.000 C 
BRANCH  18  19
ATOM     19  C   UNL     1     -28.751   3.397  33.722  1.00  0.00     0.000 C 
BRANCH  19  20
ATOM     20  C   UNL     1     -30.261   3.616  33.875  1.00  0.00     0.006 C 
BRANCH  20  21
ATOM     21  C   UNL     1     -30.986   2.290  34.125  1.00  0.00     0.053 C 
BRANCH  21  22
ATOM     22  C   UNL     1     -32.159   2.154  33.207  1.00  0.00     0.041 C 
ATOM     23  O   UNL     1     -32.305   2.949  32.241  1.00  0.00    -0.550 OA
ATOM     24  O   UNL     1     -33.068   1.118  33.389  1.00  0.00    -0.550 OA
ENDBRANCH  21  22
ENDBRANCH  20  21
ENDBRANCH  19  20
ENDBRANCH  18  19
ENDBRANCH  17  18
ENDBRANCH  16  17
ENDBRANCH  15  16
ENDBRANCH  14  15
ENDBRANCH  13  14
ENDBRANCH   1  13
TORSDOF 20
ENDMDL
MODEL 4
REMARK VINA RESULT:    -5.749      2.841      9.952
REMARK INTER + INTRA:         -14.623
REMARK INTER:                 -12.342
REMARK INTRA:                  -2.280
REMARK UNBOUND:                -2.151
REMARK SMILES CCCCCCCCCCCCCCCCCCCCCC(=O)[O-]
REMARK SMILES IDX 12 1 11 2 10 3 9 4 8 5 7 6 6 7 5 8 4 9 3 10 2 11 1 12 13 13
REMARK SMILES IDX 14 14 15 15 16 16 17 17 18 18 19 19 20 20 21 21 22 22 23 23
REMARK SMILES IDX 24 24
REMARK H PARENT
REMARK Flexibility Score: inf
ROOT
ATOM      1  C   UNL     1     -28.546   0.526  26.540  1.00  0.00     0.000 C 
ENDROOT
BRANCH   1   2
ATOM      2  C   UNL     1     -28.846   0.351  28.039  1.00  0.00     0.000 C 
BRANCH   2   3
ATOM      3  C   UNL     1     -30.080   1.150  28.496  1.00  0.00     0.000 C 
BRANCH   3   4
ATOM      4  C   UNL     1     -30.050   1.525  29.993  1.00  0.00    -0.000 C 
BRANCH   4   5
ATOM      5  C   UNL     1     -28.952   0.769  30.762  1.00  0.00    -0.000 C 
BRANCH   5   6
ATOM      6  C   UNL     1     -28.637   1.425  32.124  1.00  0.00    -0.000 C 
BRANCH   6   7
ATOM      7  C   UNL     1     -28.686   2.961  32.099  1.00  0.00    -0.000 C 
BRANCH   7   8
ATOM      8  C   UNL     1     -28.942   3.568  33.488  1.00  0.00    -0.000 C 
BRANCH   8   9
ATOM      9  C   UNL     1     -30.409   3.435  33.938  1.00  0.00    -0.000 C 
BRANCH   9  10
ATOM     10  C   UNL     1     -31.451   3.424  32.800  1.00  0.00    -0.000 C 
BRANCH  10  11
ATOM     11  C   UNL     1     -32.353   2.176  32.753  1.00  0.00    -0.003 C 
ATOM     12  C   UNL     1     -31.936   1.105  33.760  1.00  0.00     0.004 C 
ENDBRANCH  10  11
ENDBRANCH   9  10
ENDBRANCH   8   9
ENDBRANCH   7   8
ENDBRANCH   6   7
ENDBRANCH   5   6
ENDBRANCH   4   5
ENDBRANCH   3   4
ENDBRANCH   2   3
ENDBRANCH   1   2
BRANCH   1  13
ATOM     13  C   UNL     1     -28.421  -0.825  25.806  1.00  0.00     0.000 C 
BRANCH  13  14
ATOM     14  C   UNL     1     -27.370  -0.825  24.679  1.00  0.00     0.000 C 
BRANCH  14  15
ATOM     15  C   UNL     1     -27.126   0.542  24.018  1.00  0.00     0.000 C 
BRANCH  15  16
ATOM     16  C   UNL     1     -27.424   0.533  22.508  1.00  0.00     0.000 C 
BRANCH  16  17
ATOM     17  C   UNL     1     -27.085  -0.815  21.851  1.00  0.00     0.000 C 
BRANCH  17  18
ATOM     18  C   UNL     1     -27.855  -1.042  20.541  1.00  0.00     0.000 C 
BRANCH  18  19
ATOM     19  C   UNL     1     -28.733  -2.296  20.632  1.00  0.00     0.000 C 
BRANCH  19  20
ATOM     20  C   UNL     1     -29.557  -2.298  21.925  1.00  0.00     0.006 C 
BRANCH  20  21
ATOM     21  C   UNL     1     -30.649  -1.225  21.883  1.00  0.00     0.053 C 
BRANCH  21  22
ATOM     22  C   UNL     1     -31.055  -0.835  23.269  1.00  0.00     0.041 C 
ATOM     23  O   UNL     1     -31.390  -1.717  24.103  1.00  0.00    -0.550 OA
ATOM     24  O   UNL     1     -31.019   0.499  23.655  1.00  0.00    -0.550 OA
ENDBRANCH  21  22
ENDBRANCH  20  21
ENDBRANCH  19  20
ENDBRANCH  18  19
ENDBRANCH  17  18
ENDBRANCH  16  17
ENDBRANCH  15  16
ENDBRANCH  14  15
ENDBRANCH  13  14
ENDBRANCH   1  13
TORSDOF 20
ENDMDL
MODEL 5
REMARK VINA RESULT:    -5.742      1.954      3.440
REMARK INTER + INTRA:         -14.606
REMARK INTER:                 -12.070
REMARK INTRA:                  -2.536
REMARK UNBOUND:                -2.151
REMARK SMILES CCCCCCCCCCCCCCCCCCCCCC(=O)[O-]
REMARK SMILES IDX 12 1 11 2 10 3 9 4 8 5 7 6 6 7 5 8 4 9 3 10 2 11 1 12 13 13
REMARK SMILES IDX 14 14 15 15 16 16 17 17 18 18 19 19 20 20 21 21 22 22 23 23
REMARK SMILES IDX 24 24
REMARK H PARENT
REMARK Flexibility Score: inf
ROOT
ATOM      1  C   UNL     1     -28.840  -0.241  27.032  1.00  0.00     0.000 C 
ENDROOT
BRANCH   1   2
ATOM      2  C   UNL     1     -29.565   0.813  26.179  1.00  0.00     0.000 C 
BRANCH   2   3
ATOM      3  C   UNL     1     -30.347   0.195  25.006  1.00  0.00     0.000 C 
BRANCH   3   4
ATOM      4  C   UNL     1     -30.397  -1.348  25.044  1.00  0.00    -0.000 C 
BRANCH   4   5
ATOM      5  C   UNL     1     -30.783  -1.952  23.683  1.00  0.00    -0.000 C 
BRANCH   5   6
ATOM      6  C   UNL     1     -31.143  -0.867  22.644  1.00  0.00    -0.000 C 
BRANCH   6   7
ATOM      7  C   UNL     1     -30.144  -0.770  21.479  1.00  0.00    -0.000 C 
BRANCH   7   8
ATOM      8  C   UNL     1     -29.198  -1.979  21.408  1.00  0.00    -0.000 C 
BRANCH   8   9
ATOM      9  C   UNL     1     -27.729  -1.608  21.686  1.00  0.00    -0.000 C 
BRANCH   9  10
ATOM     10  C   UNL     1     -27.494  -0.161  22.170  1.00  0.00    -0.000 C 
BRANCH  10  11
ATOM     11  C   UNL     1     -26.919  -0.035  23.593  1.00  0.00    -0.003 C 
ATOM     12  C   UNL     1     -26.627  -1.389  24.238  1.00  0.00     0.004 C 
ENDBRANCH  10  11
ENDBRANCH   9  10
ENDBRANCH   8   9
ENDBRANCH   7   8
ENDBRANCH   6   7
ENDBRANCH   5   6
ENDBRANCH   4   5
ENDBRANCH   3   4
ENDBRANCH   2   3
ENDBRANCH   1   2
BRANCH   1  13
ATOM     13  C   UNL     1     -28.722   0.181  28.511  1.00  0.00     0.000 C 
BRANCH  13  14
ATOM     14  C   UNL     1     -29.760   1.236  28.941  1.00  0.00     0.000 C 
BRANCH  14  15
ATOM     15  C   UNL     1     -29.847   1.481  30.457  1.00  0.00     0.000 C 
BRANCH  15  16
ATOM     16  C   UNL     1     -30.588   2.785  30.806  1.00  0.00     0.000 C 
BRANCH  16  17
ATOM     17  C   UNL     1     -31.693   2.571  31.853  1.00  0.00     0.000 C 
BRANCH  17  18
ATOM     18  C   UNL     1     -31.213   2.856  33.284  1.00  0.00     0.000 C 
BRANCH  18  19
ATOM     19  C   UNL     1     -30.739   1.569  33.969  1.00  0.00     0.000 C 
BRANCH  19  20
ATOM     20  C   UNL     1     -29.213   1.558  34.124  1.00  0.00     0.006 C 
BRANCH  20  21
ATOM     21  C   UNL     1     -28.611   2.909  33.726  1.00  0.00     0.053 C 
BRANCH  21  22
ATOM     22  C   UNL     1     -27.243   2.724  33.151  1.00  0.00     0.041 C 
ATOM     23  O   UNL     1     -26.917   1.625  32.629  1.00  0.00    -0.550 OA
ATOM     24  O   UNL     1     -26.340   3.781  33.150  1.00  0.00    -0.550 OA
ENDBRANCH  21  22
ENDBRANCH  20  21
ENDBRANCH  19  20
ENDBRANCH  18  19
ENDBRANCH  17  18
ENDBRANCH  16  17
ENDBRANCH  15  16
ENDBRANCH  14  15
ENDBRANCH  13  14
ENDBRANCH   1  13
TORSDOF 20
ENDMDL
MODEL 6
REMARK VINA RESULT:    -5.723      1.150      2.702
REMARK INTER + INTRA:         -14.565
REMARK INTER:                 -11.909
REMARK INTRA:                  -2.657
REMARK UNBOUND:                -2.151
REMARK SMILES CCCCCCCCCCCCCCCCCCCCCC(=O)[O-]
REMARK SMILES IDX 12 1 11 2 10 3 9 4 8 5 7 6 6 7 5 8 4 9 3 10 2 11 1 12 13 13
REMARK SMILES IDX 14 14 15 15 16 16 17 17 18 18 19 19 20 20 21 21 22 22 23 23
REMARK SMILES IDX 24 24
REMARK H PARENT
REMARK Flexibility Score: inf
ROOT
ATOM      1  C   UNL     1     -29.231  -0.994  26.161  1.00  0.00     0.000 C 
ENDROOT
BRANCH   1   2
ATOM      2  C   UNL     1     -30.653  -0.861  25.589  1.00  0.00     0.000 C 
BRANCH   2   3
ATOM      3  C   UNL     1     -30.703  -1.065  24.064  1.00  0.00     0.000 C 
BRANCH   3   4
ATOM      4  C   UNL     1     -31.173   0.186  23.291  1.00  0.00    -0.000 C 
BRANCH   4   5
ATOM      5  C   UNL     1     -30.028   0.849  22.505  1.00  0.00    -0.000 C 
BRANCH   5   6
ATOM      6  C   UNL     1     -28.901   1.355  23.431  1.00  0.00    -0.000 C 
BRANCH   6   7
ATOM      7  C   UNL     1     -27.488   1.130  22.868  1.00  0.00    -0.000 C 
BRANCH   7   8
ATOM      8  C   UNL     1     -26.719   0.033  23.621  1.00  0.00    -0.000 C 
BRANCH   8   9
ATOM      9  C   UNL     1     -27.065  -1.386  23.131  1.00  0.00    -0.000 C 
BRANCH   9  10
ATOM     10  C   UNL     1     -27.373  -1.507  21.624  1.00  0.00    -0.000 C 
BRANCH  10  11
ATOM     11  C   UNL     1     -28.646  -2.303  21.280  1.00  0.00    -0.003 C 
ATOM     12  C   UNL     1     -29.178  -1.997  19.880  1.00  0.00     0.004 C 
ENDBRANCH  10  11
ENDBRANCH   9  10
ENDBRANCH   8   9
ENDBRANCH   7   8
ENDBRANCH   6   7
ENDBRANCH   5   6
ENDBRANCH   4   5
ENDBRANCH   3   4
ENDBRANCH   2   3
ENDBRANCH   1   2
BRANCH   1  13
ATOM     13  C   UNL     1     -28.868   0.169  27.108  1.00  0.00     0.000 C 
BRANCH  13  14
ATOM     14  C   UNL     1     -30.039   1.130  27.389  1.00  0.00     0.000 C 
BRANCH  14  15
ATOM     15  C   UNL     1     -30.258   1.471  28.873  1.00  0.00     0.000 C 
BRANCH  15  16
ATOM     16  C   UNL     1     -29.112   0.971  29.771  1.00  0.00     0.000 C 
BRANCH  16  17
ATOM     17  C   UNL     1     -29.479   1.004  31.264  1.00  0.00     0.000 C 
BRANCH  17  18
ATOM     18  C   UNL     1     -28.347   1.567  32.137  1.00  0.00     0.000 C 
BRANCH  18  19
ATOM     19  C   UNL     1     -28.910   2.243  33.393  1.00  0.00     0.000 C 
BRANCH  19  20
ATOM     20  C   UNL     1     -29.967   3.292  33.027  1.00  0.00     0.006 C 
BRANCH  20  21
ATOM     21  C   UNL     1     -31.233   3.114  33.870  1.00  0.00     0.053 C 
BRANCH  21  22
ATOM     22  C   UNL     1     -32.227   2.261  33.148  1.00  0.00     0.041 C 
ATOM     23  O   UNL     1     -32.735   2.657  32.066  1.00  0.00    -0.550 OA
ATOM     24  O   UNL     1     -32.559   1.007  33.645  1.00  0.00    -0.550 OA
ENDBRANCH  21  22
ENDBRANCH  20  21
ENDBRANCH  19  20
ENDBRANCH  18  19
ENDBRANCH  17  18
ENDBRANCH  16  17
ENDBRANCH  15  16
ENDBRANCH  14  15
ENDBRANCH  13  14
ENDBRANCH   1  13
TORSDOF 20
ENDMDL
MODEL 7
REMARK VINA RESULT:    -5.689      1.135      2.523
REMARK INTER + INTRA:         -14.492
REMARK INTER:                 -12.402
REMARK INTRA:                  -2.090
REMARK UNBOUND:                -2.151
REMARK SMILES CCCCCCCCCCCCCCCCCCCCCC(=O)[O-]
REMARK SMILES IDX 12 1 11 2 10 3 9 4 8 5 7 6 6 7 5 8 4 9 3 10 2 11 1 12 13 13
REMARK SMILES IDX 14 14 15 15 16 16 17 17 18 18 19 19 20 20 21 21 22 22 23 23
REMARK SMILES IDX 24 24
REMARK H PARENT
REMARK Flexibility Score: inf
ROOT
ATOM      1  C   UNL     1     -28.709  -0.716  26.718  1.00  0.00     0.000 C 
ENDROOT
BRANCH   1   2
ATOM      2  C   UNL     1     -27.803  -0.109  25.633  1.00  0.00     0.000 C 
BRANCH   2   3
ATOM      3  C   UNL     1     -27.429  -1.121  24.535  1.00  0.00     0.000 C 
BRANCH   3   4
ATOM      4  C   UNL     1     -28.205  -2.452  24.635  1.00  0.00    -0.000 C 
BRANCH   4   5
ATOM      5  C   UNL     1     -29.249  -2.603  23.515  1.00  0.00    -0.000 C 
BRANCH   5   6
ATOM      6  C   UNL     1     -30.654  -2.141  23.961  1.00  0.00    -0.000 C 
BRANCH   6   7
ATOM      7  C   UNL     1     -31.222  -0.985  23.121  1.00  0.00    -0.000 C 
BRANCH   7   8
ATOM      8  C   UNL     1     -30.147   0.038  22.720  1.00  0.00    -0.000 C 
BRANCH   8   9
ATOM      9  C   UNL     1     -29.648  -0.153  21.275  1.00  0.00    -0.000 C 
BRANCH   9  10
ATOM     10  C   UNL     1     -28.126  -0.357  21.123  1.00  0.00    -0.000 C 
BRANCH  10  11
ATOM     11  C   UNL     1     -27.712  -1.480  20.153  1.00  0.00    -0.003 C 
ATOM     12  C   UNL     1     -28.879  -2.384  19.758  1.00  0.00     0.004 C 
ENDBRANCH  10  11
ENDBRANCH   9  10
ENDBRANCH   8   9
ENDBRANCH   7   8
ENDBRANCH   6   7
ENDBRANCH   5   6
ENDBRANCH   4   5
ENDBRANCH   3   4
ENDBRANCH   2   3
ENDBRANCH   1   2
BRANCH   1  13
ATOM     13  C   UNL     1     -30.079  -0.010  26.800  1.00  0.00     0.000 C 
BRANCH  13  14
ATOM     14  C   UNL     1     -30.123   1.146  27.817  1.00  0.00     0.000 C 
BRANCH  14  15
ATOM     15  C   UNL     1     -29.325   0.904  29.110  1.00  0.00     0.000 C 
BRANCH  15  16
ATOM     16  C   UNL     1     -29.978   1.557  30.342  1.00  0.00     0.000 C 
BRANCH  16  17
ATOM     17  C   UNL     1     -29.145   1.364  31.620  1.00  0.00     0.000 C 
BRANCH  17  18
ATOM     18  C   UNL     1     -28.317   2.607  31.977  1.00  0.00     0.000 C 
BRANCH  18  19
ATOM     19  C   UNL     1     -28.922   3.341  33.180  1.00  0.00     0.000 C 
BRANCH  19  20
ATOM     20  C   UNL     1     -29.844   2.415  33.983  1.00  0.00     0.006 C 
BRANCH  20  21
ATOM     21  C   UNL     1     -31.252   3.007  34.099  1.00  0.00     0.053 C 
BRANCH  21  22
ATOM     22  C   UNL     1     -32.228   2.196  33.307  1.00  0.00     0.041 C 
ATOM     23  O   UNL     1     -32.613   1.074  33.732  1.00  0.00    -0.550 OA
ATOM     24  O   UNL     1     -32.751   2.699  32.122  1.00  0.00    -0.550 OA
ENDBRANCH  21  22
ENDBRANCH  20  21
ENDBRANCH  19  20
ENDBRANCH  18  19
ENDBRANCH  17  18
ENDBRANCH  16  17
ENDBRANCH  15  16
ENDBRANCH  14  15
ENDBRANCH  13  14
ENDBRANCH   1  13
TORSDOF 20
ENDMDL
MODEL 8
REMARK VINA RESULT:    -5.649      1.594      2.950
REMARK INTER + INTRA:         -14.405
REMARK INTER:                 -11.931
REMARK INTRA:                  -2.474
REMARK UNBOUND:                -2.151
REMARK SMILES CCCCCCCCCCCCCCCCCCCCCC(=O)[O-]
REMARK SMILES IDX 12 1 11 2 10 3 9 4 8 5 7 6 6 7 5 8 4 9 3 10 2 11 1 12 13 13
REMARK SMILES IDX 14 14 15 15 16 16 17 17 18 18 19 19 20 20 21 21 22 22 23 23
REMARK SMILES IDX 24 24
REMARK H PARENT
REMARK Flexibility Score: inf
ROOT
ATOM      1  C   UNL     1     -28.176   0.365  26.259  1.00  0.00     0.000 C 
ENDROOT
BRANCH   1   2
ATOM      2  C   UNL     1     -27.831  -0.836  25.362  1.00  0.00     0.000 C 
BRANCH   2   3
ATOM      3  C   UNL     1     -26.916  -0.456  24.184  1.00  0.00     0.000 C 
BRANCH   3   4
ATOM      4  C   UNL     1     -27.139   0.982  23.670  1.00  0.00    -0.000 C 
BRANCH   4   5
ATOM      5  C   UNL     1     -28.132   1.033  22.494  1.00  0.00    -0.000 C 
BRANCH   5   6
ATOM      6  C   UNL     1     -29.513   1.578  22.920  1.00  0.00    -0.000 C 
BRANCH   6   7
ATOM      7  C   UNL     1     -30.542   0.479  23.232  1.00  0.00    -0.000 C 
BRANCH   7   8
ATOM      8  C   UNL     1     -30.626  -0.584  22.125  1.00  0.00    -0.000 C 
BRANCH   8   9
ATOM      9  C   UNL     1     -30.199  -1.984  22.606  1.00  0.00    -0.000 C 
BRANCH   9  10
ATOM     10  C   UNL     1     -28.876  -2.511  22.012  1.00  0.00    -0.000 C 
BRANCH  10  11
ATOM     11  C   UNL     1     -28.686  -2.247  20.506  1.00  0.00    -0.003 C 
ATOM     12  C   UNL     1     -27.375  -1.528  20.190  1.00  0.00     0.004 C 
ENDBRANCH  10  11
ENDBRANCH   9  10
ENDBRANCH   8   9
ENDBRANCH   7   8
ENDBRANCH   6   7
ENDBRANCH   5   6
ENDBRANCH   4   5
ENDBRANCH   3   4
ENDBRANCH   2   3
ENDBRANCH   1   2
BRANCH   1  13
ATOM     13  C   UNL     1     -29.665   0.385  26.663  1.00  0.00     0.000 C 
BRANCH  13  14
ATOM     14  C   UNL     1     -29.937   1.107  27.997  1.00  0.00     0.000 C 
BRANCH  14  15
ATOM     15  C   UNL     1     -29.014   0.696  29.158  1.00  0.00     0.000 C 
BRANCH  15  16
ATOM     16  C   UNL     1     -29.415   1.347  30.494  1.00  0.00     0.000 C 
BRANCH  16  17
ATOM     17  C   UNL     1     -30.648   2.256  30.358  1.00  0.00     0.000 C 
BRANCH  17  18
ATOM     18  C   UNL     1     -30.751   3.285  31.494  1.00  0.00     0.000 C 
BRANCH  18  19
ATOM     19  C   UNL     1     -31.548   2.719  32.675  1.00  0.00     0.000 C 
BRANCH  19  20
ATOM     20  C   UNL     1     -30.831   2.989  34.003  1.00  0.00     0.006 C 
BRANCH  20  21
ATOM     21  C   UNL     1     -29.469   3.648  33.768  1.00  0.00     0.053 C 
BRANCH  21  22
ATOM     22  C   UNL     1     -28.383   2.620  33.764  1.00  0.00     0.041 C 
ATOM     23  O   UNL     1     -28.626   1.438  34.125  1.00  0.00    -0.550 OA
ATOM     24  O   UNL     1     -27.110   2.954  33.317  1.00  0.00    -0.550 OA
ENDBRANCH  21  22
ENDBRANCH  20  21
ENDBRANCH  19  20
ENDBRANCH  18  19
ENDBRANCH  17  18
ENDBRANCH  16  17
ENDBRANCH  15  16
ENDBRANCH  14  15
ENDBRANCH  13  14
ENDBRANCH   1  13
TORSDOF 20
ENDMDL
MODEL 9
REMARK VINA RESULT:    -5.584      2.971      9.992
REMARK INTER + INTRA:         -14.263
REMARK INTER:                 -12.164
REMARK INTRA:                  -2.099
REMARK UNBOUND:                -2.151
REMARK SMILES CCCCCCCCCCCCCCCCCCCCCC(=O)[O-]
REMARK SMILES IDX 12 1 11 2 10 3 9 4 8 5 7 6 6 7 5 8 4 9 3 10 2 11 1 12 13 13
REMARK SMILES IDX 14 14 15 15 16 16 17 17 18 18 19 19 20 20 21 21 22 22 23 23
REMARK SMILES IDX 24 24
REMARK H PARENT
REMARK Flexibility Score: inf
ROOT
ATOM      1  C   UNL     1     -30.322   0.156  26.868  1.00  0.00     0.000 C 
ENDROOT
BRANCH   1   2
ATOM      2  C   UNL     1     -30.118   1.134  28.038  1.00  0.00     0.000 C 
BRANCH   2   3
ATOM      3  C   UNL     1     -28.920   0.757  28.926  1.00  0.00     0.000 C 
BRANCH   3   4
ATOM      4  C   UNL     1     -29.204   0.900  30.437  1.00  0.00    -0.000 C 
BRANCH   4   5
ATOM      5  C   UNL     1     -30.429   1.789  30.718  1.00  0.00    -0.000 C 
BRANCH   5   6
ATOM      6  C   UNL     1     -31.380   1.159  31.758  1.00  0.00    -0.000 C 
BRANCH   6   7
ATOM      7  C   UNL     1     -31.792   2.121  32.884  1.00  0.00    -0.000 C 
BRANCH   7   8
ATOM      8  C   UNL     1     -30.910   3.379  32.938  1.00  0.00    -0.000 C 
BRANCH   8   9
ATOM      9  C   UNL     1     -29.815   3.298  34.019  1.00  0.00    -0.000 C 
BRANCH   9  10
ATOM     10  C   UNL     1     -28.539   4.115  33.728  1.00  0.00    -0.000 C 
BRANCH  10  11
ATOM     11  C   UNL     1     -27.442   3.357  32.956  1.00  0.00    -0.003 C 
ATOM     12  C   UNL     1     -27.418   1.862  33.272  1.00  0.00     0.004 C 
ENDBRANCH  10  11
ENDBRANCH   9  10
ENDBRANCH   8   9
ENDBRANCH   7   8
ENDBRANCH   6   7
ENDBRANCH   5   6
ENDBRANCH   4   5
ENDBRANCH   3   4
ENDBRANCH   2   3
ENDBRANCH   1   2
BRANCH   1  13
ATOM     13  C   UNL     1     -29.047  -0.652  26.550  1.00  0.00     0.000 C 
BRANCH  13  14
ATOM     14  C   UNL     1     -28.308  -0.176  25.285  1.00  0.00     0.000 C 
BRANCH  14  15
ATOM     15  C   UNL     1     -27.135  -1.068  24.844  1.00  0.00     0.000 C 
BRANCH  15  16
ATOM     16  C   UNL     1     -26.436  -0.546  23.575  1.00  0.00     0.000 C 
BRANCH  16  17
ATOM     17  C   UNL     1     -27.240   0.563  22.876  1.00  0.00     0.000 C 
BRANCH  17  18
ATOM     18  C   UNL     1     -27.986   0.056  21.633  1.00  0.00     0.000 C 
BRANCH  18  19
ATOM     19  C   UNL     1     -27.788  -1.454  21.453  1.00  0.00     0.000 C 
BRANCH  19  20
ATOM     20  C   UNL     1     -29.130  -2.194  21.499  1.00  0.00     0.006 C 
BRANCH  20  21
ATOM     21  C   UNL     1     -30.297  -1.209  21.613  1.00  0.00     0.053 C 
BRANCH  21  22
ATOM     22  C   UNL     1     -30.880  -1.244  22.990  1.00  0.00     0.041 C 
ATOM     23  O   UNL     1     -31.386  -0.206  23.491  1.00  0.00    -0.550 OA
ATOM     24  O   UNL     1     -30.908  -2.437  23.703  1.00  0.00    -0.550 OA
ENDBRANCH  21  22
ENDBRANCH  20  21
ENDBRANCH  19  20
ENDBRANCH  18  19
ENDBRANCH  17  18
ENDBRANCH  16  17
ENDBRANCH  15  16
ENDBRANCH  14  15
ENDBRANCH  13  14
ENDBRANCH   1  13
TORSDOF 20
ENDMDL
