MODEL 1
REMARK VINA RESULT:    -8.816      0.000      0.000
REMARK INTER + INTRA:          -9.074
REMARK INTER:                  -9.074
REMARK INTRA:                   0.000
REMARK UNBOUND:                 0.000
REMARK SMILES CC1(C)CC[C@@]2(C)CC[C@@]3(C)C(=CC[C@@H]4[C@@]5(C)CC[C@@H](O)C(C)(C)[C@@H]5CC[C@@]43C)[C@@H]2C1
REMARK SMILES IDX 1 1 2 2 4 3 5 4 6 5 8 6 9 7 10 8 12 9 13 10 14 11 15 12
REMARK SMILES IDX 28 13 27 14 26 15 25 16 16 17 18 18 19 19 20 20 22 21 23 22
REMARK SMILES IDX 24 23 17 24 29 25 30 26 31 27 11 28 7 29 3 30 21 31
REMARK H PARENT 21 32
REMARK Flexibility Score: inf
ROOT
ATOM      1  C   UNL     1     181.237 171.639 179.217  1.00  0.00     0.011 C 
ATOM      2  C   UNL     1     182.349 172.702 179.343  1.00  0.00    -0.035 C 
ATOM      3  C   UNL     1     183.612 172.029 179.948  1.00  0.00     0.007 C 
ATOM      4  C   UNL     1     184.704 173.030 180.371  1.00  0.00     0.008 C 
ATOM      5  C   UNL     1     184.186 174.146 181.323  1.00  0.00    -0.026 C 
ATOM      6  C   UNL     1     185.313 175.203 181.510  1.00  0.00     0.008 C 
ATOM      7  C   UNL     1     184.857 176.513 182.210  1.00  0.00     0.012 C 
ATOM      8  C   UNL     1     183.562 177.195 181.615  1.00  0.00    -0.006 C 
ATOM      9  C   UNL     1     182.543 176.051 181.508  1.00  0.00    -0.064 C 
ATOM     10  C   UNL     1     181.558 175.917 182.406  1.00  0.00    -0.027 C 
ATOM     11  C   UNL     1     181.194 176.937 183.420  1.00  0.00     0.032 C 
ATOM     12  C   UNL     1     182.312 177.946 183.837  1.00  0.00     0.006 C 
ATOM     13  C   UNL     1     183.054 178.443 182.527  1.00  0.00    -0.020 C 
ATOM     14  C   UNL     1     182.027 179.349 181.729  1.00  0.00     0.008 C 
ATOM     15  C   UNL     1     180.985 180.157 182.566  1.00  0.00     0.005 C 
ATOM     16  C   UNL     1     181.498 180.449 183.986  1.00  0.00     0.003 C 
ATOM     17  C   UNL     1     181.722 179.122 184.798  1.00  0.00    -0.025 C 
ATOM     18  C   UNL     1     182.724 179.477 185.935  1.00  0.00     0.010 C 
ATOM     19  C   UNL     1     182.250 180.655 186.828  1.00  0.00     0.033 C 
ATOM     20  C   UNL     1     181.817 181.934 186.053  1.00  0.00     0.120 C 
ATOM     21  C   UNL     1     180.917 181.687 184.773  1.00  0.00    -0.006 C 
ATOM     22  C   UNL     1     180.990 182.963 183.880  1.00  0.00     0.014 C 
ATOM     23  C   UNL     1     179.422 181.526 185.170  1.00  0.00     0.014 C 
ATOM     24  C   UNL     1     180.415 178.620 185.503  1.00  0.00     0.012 C 
ATOM     25  C   UNL     1     184.344 179.273 182.896  1.00  0.00     0.012 C 
ATOM     26  C   UNL     1     182.963 174.841 180.661  1.00  0.00     0.022 C 
ATOM     27  C   UNL     1     181.843 173.837 180.280  1.00  0.00     0.015 C 
ATOM     28  C   UNL     1     183.877 177.712 180.167  1.00  0.00     0.017 C 
ATOM     29  C   UNL     1     183.847 173.528 182.709  1.00  0.00     0.012 C 
ATOM     30  C   UNL     1     182.646 173.240 177.921  1.00  0.00     0.011 C 
ENDROOT
BRANCH  20  31
ATOM     31  O   UNL     1     182.958 182.708 185.753  1.00  0.00    -0.393 OA
ATOM     32  H   UNL     1     183.708 182.093 185.549  1.00  0.00     0.210 HD
ENDBRANCH  20  31
TORSDOF 1
ENDMDL
MODEL 2
REMARK VINA RESULT:    -8.475      2.392      8.177
REMARK INTER + INTRA:          -8.723
REMARK INTER:                  -8.723
REMARK INTRA:                   0.000
REMARK UNBOUND:                 0.000
REMARK SMILES CC1(C)CC[C@@]2(C)CC[C@@]3(C)C(=CC[C@@H]4[C@@]5(C)CC[C@@H](O)C(C)(C)[C@@H]5CC[C@@]43C)[C@@H]2C1
REMARK SMILES IDX 1 1 2 2 4 3 5 4 6 5 8 6 9 7 10 8 12 9 13 10 14 11 15 12
REMARK SMILES IDX 28 13 27 14 26 15 25 16 16 17 18 18 19 19 20 20 22 21 23 22
REMARK SMILES IDX 24 23 17 24 29 25 30 26 31 27 11 28 7 29 3 30 21 31
REMARK H PARENT 21 32
REMARK Flexibility Score: inf
ROOT
ATOM      1  C   UNL     1     177.279 184.269 182.779  1.00  0.00     0.011 C 
ATOM      2  C   UNL     1     178.635 183.869 183.399  1.00  0.00    -0.035 C 
ATOM      3  C   UNL     1     179.701 184.918 182.976  1.00  0.00     0.007 C 
ATOM      4  C   UNL     1     181.147 184.499 183.305  1.00  0.00     0.008 C 
ATOM      5  C   UNL     1     181.527 183.098 182.748  1.00  0.00    -0.026 C 
ATOM      6  C   UNL     1     182.920 182.697 183.316  1.00  0.00     0.008 C 
ATOM      7  C   UNL     1     183.313 181.214 183.071  1.00  0.00     0.012 C 
ATOM      8  C   UNL     1     182.228 180.141 183.479  1.00  0.00    -0.006 C 
ATOM      9  C   UNL     1     180.928 180.649 182.839  1.00  0.00    -0.064 C 
ATOM     10  C   UNL     1     180.451 180.100 181.714  1.00  0.00    -0.027 C 
ATOM     11  C   UNL     1     180.951 178.840 181.110  1.00  0.00     0.032 C 
ATOM     12  C   UNL     1     182.418 178.427 181.455  1.00  0.00     0.006 C 
ATOM     13  C   UNL     1     182.647 178.639 183.009  1.00  0.00    -0.020 C 
ATOM     14  C   UNL     1     181.777 177.547 183.759  1.00  0.00     0.008 C 
ATOM     15  C   UNL     1     181.564 176.180 183.032  1.00  0.00     0.005 C 
ATOM     16  C   UNL     1     182.704 175.875 182.047  1.00  0.00     0.003 C 
ATOM     17  C   UNL     1     182.764 176.939 180.892  1.00  0.00    -0.025 C 
ATOM     18  C   UNL     1     184.211 176.874 180.321  1.00  0.00     0.010 C 
ATOM     19  C   UNL     1     184.625 175.453 179.852  1.00  0.00     0.033 C 
ATOM     20  C   UNL     1     184.391 174.323 180.896  1.00  0.00     0.120 C 
ATOM     21  C   UNL     1     183.006 174.375 181.662  1.00  0.00    -0.006 C 
ATOM     22  C   UNL     1     183.139 173.514 182.956  1.00  0.00     0.014 C 
ATOM     23  C   UNL     1     181.881 173.710 180.819  1.00  0.00     0.014 C 
ATOM     24  C   UNL     1     181.806 176.590 179.702  1.00  0.00     0.012 C 
ATOM     25  C   UNL     1     184.172 178.472 183.379  1.00  0.00     0.012 C 
ATOM     26  C   UNL     1     180.478 182.061 183.240  1.00  0.00     0.022 C 
ATOM     27  C   UNL     1     179.026 182.461 182.865  1.00  0.00     0.015 C 
ATOM     28  C   UNL     1     182.051 180.160 185.038  1.00  0.00     0.017 C 
ATOM     29  C   UNL     1     181.621 183.165 181.198  1.00  0.00     0.012 C 
ATOM     30  C   UNL     1     178.462 183.857 184.937  1.00  0.00     0.011 C 
ENDROOT
BRANCH  20  31
ATOM     31  O   UNL     1     185.484 174.274 181.787  1.00  0.00    -0.393 OA
ATOM     32  H   UNL     1     185.715 173.324 181.947  1.00  0.00     0.210 HD
ENDBRANCH  20  31
TORSDOF 1
ENDMDL
MODEL 3
REMARK VINA RESULT:    -8.463      1.761      3.959
REMARK INTER + INTRA:          -8.710
REMARK INTER:                  -8.710
REMARK INTRA:                   0.000
REMARK UNBOUND:                 0.000
REMARK SMILES CC1(C)CC[C@@]2(C)CC[C@@]3(C)C(=CC[C@@H]4[C@@]5(C)CC[C@@H](O)C(C)(C)[C@@H]5CC[C@@]43C)[C@@H]2C1
REMARK SMILES IDX 1 1 2 2 4 3 5 4 6 5 8 6 9 7 10 8 12 9 13 10 14 11 15 12
REMARK SMILES IDX 28 13 27 14 26 15 25 16 16 17 18 18 19 19 20 20 22 21 23 22
REMARK SMILES IDX 24 23 17 24 29 25 30 26 31 27 11 28 7 29 3 30 21 31
REMARK H PARENT 21 32
REMARK Flexibility Score: inf
ROOT
ATOM      1  C   UNL     1     183.867 172.414 174.841  1.00  0.00     0.011 C 
ATOM      2  C   UNL     1     183.712 172.033 176.330  1.00  0.00    -0.035 C 
ATOM      3  C   UNL     1     182.468 171.114 176.479  1.00  0.00     0.007 C 
ATOM      4  C   UNL     1     182.045 170.877 177.942  1.00  0.00     0.008 C 
ATOM      5  C   UNL     1     181.837 172.191 178.746  1.00  0.00    -0.026 C 
ATOM      6  C   UNL     1     181.622 171.829 180.244  1.00  0.00     0.008 C 
ATOM      7  C   UNL     1     181.672 173.042 181.214  1.00  0.00     0.012 C 
ATOM      8  C   UNL     1     182.923 173.995 181.057  1.00  0.00    -0.006 C 
ATOM      9  C   UNL     1     182.997 174.282 179.550  1.00  0.00    -0.064 C 
ATOM     10  C   UNL     1     182.566 175.446 179.047  1.00  0.00    -0.027 C 
ATOM     11  C   UNL     1     182.211 176.637 179.857  1.00  0.00     0.032 C 
ATOM     12  C   UNL     1     181.786 176.382 181.339  1.00  0.00     0.006 C 
ATOM     13  C   UNL     1     182.791 175.333 181.974  1.00  0.00    -0.020 C 
ATOM     14  C   UNL     1     184.191 176.061 182.119  1.00  0.00     0.008 C 
ATOM     15  C   UNL     1     184.172 177.602 182.380  1.00  0.00     0.005 C 
ATOM     16  C   UNL     1     182.872 178.046 183.070  1.00  0.00     0.003 C 
ATOM     17  C   UNL     1     181.619 177.778 182.159  1.00  0.00    -0.025 C 
ATOM     18  C   UNL     1     180.393 177.728 183.116  1.00  0.00     0.010 C 
ATOM     19  C   UNL     1     180.240 179.002 183.989  1.00  0.00     0.033 C 
ATOM     20  C   UNL     1     181.523 179.430 184.758  1.00  0.00     0.120 C 
ATOM     21  C   UNL     1     182.870 179.372 183.926  1.00  0.00    -0.006 C 
ATOM     22  C   UNL     1     184.059 179.350 184.936  1.00  0.00     0.014 C 
ATOM     23  C   UNL     1     183.053 180.662 183.076  1.00  0.00     0.014 C 
ATOM     24  C   UNL     1     181.345 178.950 181.154  1.00  0.00     0.012 C 
ATOM     25  C   UNL     1     182.277 174.850 183.386  1.00  0.00     0.012 C 
ATOM     26  C   UNL     1     183.121 173.060 178.629  1.00  0.00     0.022 C 
ATOM     27  C   UNL     1     183.518 173.339 177.154  1.00  0.00     0.015 C 
ATOM     28  C   UNL     1     184.217 173.211 181.475  1.00  0.00     0.017 C 
ATOM     29  C   UNL     1     180.569 172.923 178.223  1.00  0.00     0.012 C 
ATOM     30  C   UNL     1     184.998 171.285 176.758  1.00  0.00     0.011 C 
ENDROOT
BRANCH  20  31
ATOM     31  O   UNL     1     181.616 178.699 185.960  1.00  0.00    -0.393 OA
ATOM     32  H   UNL     1     182.065 179.266 186.638  1.00  0.00     0.210 HD
ENDBRANCH  20  31
TORSDOF 1
ENDMDL
MODEL 4
REMARK VINA RESULT:    -8.188      2.517      8.152
REMARK INTER + INTRA:          -8.428
REMARK INTER:                  -8.428
REMARK INTRA:                   0.000
REMARK UNBOUND:                 0.000
REMARK SMILES CC1(C)CC[C@@]2(C)CC[C@@]3(C)C(=CC[C@@H]4[C@@]5(C)CC[C@@H](O)C(C)(C)[C@@H]5CC[C@@]43C)[C@@H]2C1
REMARK SMILES IDX 1 1 2 2 4 3 5 4 6 5 8 6 9 7 10 8 12 9 13 10 14 11 15 12
REMARK SMILES IDX 28 13 27 14 26 15 25 16 16 17 18 18 19 19 20 20 22 21 23 22
REMARK SMILES IDX 24 23 17 24 29 25 30 26 31 27 11 28 7 29 3 30 21 31
REMARK H PARENT 21 32
REMARK Flexibility Score: inf
ROOT
ATOM      1  C   UNL     1     181.665 180.640 187.894  1.00  0.00     0.011 C 
ATOM      2  C   UNL     1     181.816 180.923 186.383  1.00  0.00    -0.035 C 
ATOM      3  C   UNL     1     180.527 181.634 185.883  1.00  0.00     0.007 C 
ATOM      4  C   UNL     1     180.434 181.736 184.348  1.00  0.00     0.008 C 
ATOM      5  C   UNL     1     180.604 180.370 183.625  1.00  0.00    -0.026 C 
ATOM      6  C   UNL     1     180.701 180.626 182.093  1.00  0.00     0.008 C 
ATOM      7  C   UNL     1     181.146 179.391 181.261  1.00  0.00     0.012 C 
ATOM      8  C   UNL     1     182.443 178.649 181.774  1.00  0.00    -0.006 C 
ATOM      9  C   UNL     1     182.198 178.446 183.276  1.00  0.00    -0.064 C 
ATOM     10  C   UNL     1     181.825 177.254 183.760  1.00  0.00    -0.027 C 
ATOM     11  C   UNL     1     181.838 175.987 182.989  1.00  0.00     0.032 C 
ATOM     12  C   UNL     1     181.745 176.106 181.434  1.00  0.00     0.006 C 
ATOM     13  C   UNL     1     182.717 177.266 180.961  1.00  0.00    -0.020 C 
ATOM     14  C   UNL     1     184.198 176.753 181.196  1.00  0.00     0.008 C 
ATOM     15  C   UNL     1     184.454 175.218 181.062  1.00  0.00     0.005 C 
ATOM     16  C   UNL     1     183.427 174.548 180.134  1.00  0.00     0.003 C 
ATOM     17  C   UNL     1     181.970 174.664 180.713  1.00  0.00    -0.025 C 
ATOM     18  C   UNL     1     181.010 174.483 179.501  1.00  0.00     0.010 C 
ATOM     19  C   UNL     1     181.244 173.161 178.721  1.00  0.00     0.033 C 
ATOM     20  C   UNL     1     182.719 172.899 178.301  1.00  0.00     0.120 C 
ATOM     21  C   UNL     1     183.810 173.200 179.409  1.00  0.00    -0.006 C 
ATOM     22  C   UNL     1     185.189 173.356 178.697  1.00  0.00     0.014 C 
ATOM     23  C   UNL     1     183.963 171.994 180.379  1.00  0.00     0.014 C 
ATOM     24  C   UNL     1     181.630 173.512 181.720  1.00  0.00     0.012 C 
ATOM     25  C   UNL     1     182.490 177.599 179.435  1.00  0.00     0.012 C 
ATOM     26  C   UNL     1     181.931 179.713 184.100  1.00  0.00     0.022 C 
ATOM     27  C   UNL     1     182.003 179.567 185.644  1.00  0.00     0.015 C 
ATOM     28  C   UNL     1     183.678 179.600 181.599  1.00  0.00     0.017 C 
ATOM     29  C   UNL     1     179.362 179.478 183.904  1.00  0.00     0.012 C 
ATOM     30  C   UNL     1     183.051 181.838 186.199  1.00  0.00     0.011 C 
ENDROOT
BRANCH  20  31
ATOM     31  O   UNL     1     182.991 173.580 177.096  1.00  0.00    -0.393 OA
ATOM     32  H   UNL     1     182.333 174.314 176.997  1.00  0.00     0.210 HD
ENDBRANCH  20  31
TORSDOF 1
ENDMDL
MODEL 5
REMARK VINA RESULT:    -8.168      1.461      3.255
REMARK INTER + INTRA:          -8.407
REMARK INTER:                  -8.407
REMARK INTRA:                   0.000
REMARK UNBOUND:                 0.000
REMARK SMILES CC1(C)CC[C@@]2(C)CC[C@@]3(C)C(=CC[C@@H]4[C@@]5(C)CC[C@@H](O)C(C)(C)[C@@H]5CC[C@@]43C)[C@@H]2C1
REMARK SMILES IDX 1 1 2 2 4 3 5 4 6 5 8 6 9 7 10 8 12 9 13 10 14 11 15 12
REMARK SMILES IDX 28 13 27 14 26 15 25 16 16 17 18 18 19 19 20 20 22 21 23 22
REMARK SMILES IDX 24 23 17 24 29 25 30 26 31 27 11 28 7 29 3 30 21 31
REMARK H PARENT 21 32
REMARK Flexibility Score: inf
ROOT
ATOM      1  C   UNL     1     185.638 173.956 177.239  1.00  0.00     0.011 C 
ATOM      2  C   UNL     1     184.790 173.705 178.505  1.00  0.00    -0.035 C 
ATOM      3  C   UNL     1     183.519 172.907 178.099  1.00  0.00     0.007 C 
ATOM      4  C   UNL     1     182.461 172.820 179.216  1.00  0.00     0.008 C 
ATOM      5  C   UNL     1     182.059 174.205 179.798  1.00  0.00    -0.026 C 
ATOM      6  C   UNL     1     181.155 173.978 181.044  1.00  0.00     0.008 C 
ATOM      7  C   UNL     1     180.897 175.253 181.893  1.00  0.00     0.012 C 
ATOM      8  C   UNL     1     182.181 176.083 182.293  1.00  0.00    -0.006 C 
ATOM      9  C   UNL     1     182.955 176.246 180.978  1.00  0.00    -0.064 C 
ATOM     10  C   UNL     1     182.927 177.401 180.298  1.00  0.00    -0.027 C 
ATOM     11  C   UNL     1     182.379 178.676 180.821  1.00  0.00     0.032 C 
ATOM     12  C   UNL     1     181.308 178.571 181.955  1.00  0.00     0.006 C 
ATOM     13  C   UNL     1     181.799 177.494 183.009  1.00  0.00    -0.020 C 
ATOM     14  C   UNL     1     183.054 178.111 183.753  1.00  0.00     0.008 C 
ATOM     15  C   UNL     1     183.089 179.663 183.930  1.00  0.00     0.005 C 
ATOM     16  C   UNL     1     181.675 180.267 183.938  1.00  0.00     0.003 C 
ATOM     17  C   UNL     1     180.945 180.036 182.566  1.00  0.00    -0.025 C 
ATOM     18  C   UNL     1     179.422 180.162 182.862  1.00  0.00     0.010 C 
ATOM     19  C   UNL     1     179.033 181.508 183.530  1.00  0.00     0.033 C 
ATOM     20  C   UNL     1     179.873 181.885 184.785  1.00  0.00     0.120 C 
ATOM     21  C   UNL     1     181.434 181.650 184.660  1.00  0.00    -0.006 C 
ATOM     22  C   UNL     1     182.032 181.606 186.100  1.00  0.00     0.014 C 
ATOM     23  C   UNL     1     182.120 182.851 183.947  1.00  0.00     0.014 C 
ATOM     24  C   UNL     1     181.281 181.145 181.511  1.00  0.00     0.012 C 
ATOM     25  C   UNL     1     180.656 177.166 184.047  1.00  0.00     0.012 C 
ATOM     26  C   UNL     1     183.345 174.951 180.251  1.00  0.00     0.022 C 
ATOM     27  C   UNL     1     184.390 175.082 179.111  1.00  0.00     0.015 C 
ATOM     28  C   UNL     1     183.055 175.228 183.278  1.00  0.00     0.017 C 
ATOM     29  C   UNL     1     181.250 174.998 178.733  1.00  0.00     0.012 C 
ATOM     30  C   UNL     1     185.656 172.887 179.494  1.00  0.00     0.011 C 
ENDROOT
BRANCH  20  31
ATOM     31  O   UNL     1     179.334 181.242 185.920  1.00  0.00    -0.393 OA
ATOM     32  H   UNL     1     180.079 181.009 186.530  1.00  0.00     0.210 HD
ENDBRANCH  20  31
TORSDOF 1
ENDMDL
MODEL 6
REMARK VINA RESULT:    -8.020      2.659      8.123
REMARK INTER + INTRA:          -8.254
REMARK INTER:                  -8.254
REMARK INTRA:                   0.000
REMARK UNBOUND:                 0.000
REMARK SMILES CC1(C)CC[C@@]2(C)CC[C@@]3(C)C(=CC[C@@H]4[C@@]5(C)CC[C@@H](O)C(C)(C)[C@@H]5CC[C@@]43C)[C@@H]2C1
REMARK SMILES IDX 1 1 2 2 4 3 5 4 6 5 8 6 9 7 10 8 12 9 13 10 14 11 15 12
REMARK SMILES IDX 28 13 27 14 26 15 25 16 16 17 18 18 19 19 20 20 22 21 23 22
REMARK SMILES IDX 24 23 17 24 29 25 30 26 31 27 11 28 7 29 3 30 21 31
REMARK H PARENT 21 32
REMARK Flexibility Score: inf
ROOT
ATOM      1  C   UNL     1     185.671 184.308 184.940  1.00  0.00     0.011 C 
ATOM      2  C   UNL     1     184.367 183.511 185.159  1.00  0.00    -0.035 C 
ATOM      3  C   UNL     1     184.250 183.158 186.668  1.00  0.00     0.007 C 
ATOM      4  C   UNL     1     183.135 182.141 186.981  1.00  0.00     0.008 C 
ATOM      5  C   UNL     1     183.230 180.840 186.135  1.00  0.00    -0.026 C 
ATOM      6  C   UNL     1     181.949 179.990 186.383  1.00  0.00     0.008 C 
ATOM      7  C   UNL     1     181.769 178.796 185.406  1.00  0.00     0.012 C 
ATOM      8  C   UNL     1     181.907 179.140 183.870  1.00  0.00    -0.006 C 
ATOM      9  C   UNL     1     183.208 179.949 183.775  1.00  0.00    -0.064 C 
ATOM     10  C   UNL     1     184.340 179.388 183.328  1.00  0.00    -0.027 C 
ATOM     11  C   UNL     1     184.423 178.061 182.672  1.00  0.00     0.032 C 
ATOM     12  C   UNL     1     183.285 177.041 182.998  1.00  0.00     0.006 C 
ATOM     13  C   UNL     1     181.896 177.803 182.941  1.00  0.00    -0.020 C 
ATOM     14  C   UNL     1     181.631 178.170 181.422  1.00  0.00     0.008 C 
ATOM     15  C   UNL     1     182.196 177.194 180.341  1.00  0.00     0.005 C 
ATOM     16  C   UNL     1     182.350 175.765 180.889  1.00  0.00     0.003 C 
ATOM     17  C   UNL     1     183.393 175.711 182.064  1.00  0.00    -0.025 C 
ATOM     18  C   UNL     1     183.063 174.424 182.874  1.00  0.00     0.010 C 
ATOM     19  C   UNL     1     183.065 173.134 182.009  1.00  0.00     0.033 C 
ATOM     20  C   UNL     1     182.201 173.210 180.716  1.00  0.00     0.120 C 
ATOM     21  C   UNL     1     182.334 174.550 179.883  1.00  0.00    -0.006 C 
ATOM     22  C   UNL     1     181.093 174.658 178.944  1.00  0.00     0.014 C 
ATOM     23  C   UNL     1     183.576 174.501 178.947  1.00  0.00     0.014 C 
ATOM     24  C   UNL     1     184.866 175.544 181.553  1.00  0.00     0.012 C 
ATOM     25  C   UNL     1     180.734 176.892 183.495  1.00  0.00     0.012 C 
ATOM     26  C   UNL     1     183.282 181.223 184.629  1.00  0.00     0.022 C 
ATOM     27  C   UNL     1     184.436 182.210 184.307  1.00  0.00     0.015 C 
ATOM     28  C   UNL     1     180.716 180.069 183.446  1.00  0.00     0.017 C 
ATOM     29  C   UNL     1     184.469 180.017 186.587  1.00  0.00     0.012 C 
ATOM     30  C   UNL     1     183.188 184.410 184.715  1.00  0.00     0.011 C 
ENDROOT
BRANCH  20  31
ATOM     31  O   UNL     1     180.858 172.917 181.032  1.00  0.00    -0.393 OA
ATOM     32  H   UNL     1     180.632 172.032 180.647  1.00  0.00     0.210 HD
ENDBRANCH  20  31
TORSDOF 1
ENDMDL
MODEL 7
REMARK VINA RESULT:    -7.893      2.852      8.276
REMARK INTER + INTRA:          -8.124
REMARK INTER:                  -8.124
REMARK INTRA:                   0.000
REMARK UNBOUND:                 0.000
REMARK SMILES CC1(C)CC[C@@]2(C)CC[C@@]3(C)C(=CC[C@@H]4[C@@]5(C)CC[C@@H](O)C(C)(C)[C@@H]5CC[C@@]43C)[C@@H]2C1
REMARK SMILES IDX 1 1 2 2 4 3 5 4 6 5 8 6 9 7 10 8 12 9 13 10 14 11 15 12
REMARK SMILES IDX 28 13 27 14 26 15 25 16 16 17 18 18 19 19 20 20 22 21 23 22
REMARK SMILES IDX 24 23 17 24 29 25 30 26 31 27 11 28 7 29 3 30 21 31
REMARK H PARENT 21 32
REMARK Flexibility Score: inf
ROOT
ATOM      1  C   UNL     1     178.987 182.114 182.248  1.00  0.00     0.011 C 
ATOM      2  C   UNL     1     179.855 181.084 183.004  1.00  0.00    -0.035 C 
ATOM      3  C   UNL     1     181.125 181.804 183.537  1.00  0.00     0.007 C 
ATOM      4  C   UNL     1     182.200 180.842 184.079  1.00  0.00     0.008 C 
ATOM      5  C   UNL     1     182.602 179.730 183.069  1.00  0.00    -0.026 C 
ATOM      6  C   UNL     1     183.525 178.709 183.795  1.00  0.00     0.008 C 
ATOM      7  C   UNL     1     183.787 177.400 183.000  1.00  0.00     0.012 C 
ATOM      8  C   UNL     1     182.504 176.671 182.436  1.00  0.00    -0.006 C 
ATOM      9  C   UNL     1     181.709 177.783 181.737  1.00  0.00    -0.064 C 
ATOM     10  C   UNL     1     181.720 177.906 180.403  1.00  0.00    -0.027 C 
ATOM     11  C   UNL     1     182.267 176.895 179.465  1.00  0.00     0.032 C 
ATOM     12  C   UNL     1     183.355 175.926 180.030  1.00  0.00     0.006 C 
ATOM     13  C   UNL     1     182.887 175.426 181.460  1.00  0.00    -0.020 C 
ATOM     14  C   UNL     1     181.639 174.477 181.234  1.00  0.00     0.008 C 
ATOM     15  C   UNL     1     181.596 173.655 179.906  1.00  0.00     0.005 C 
ATOM     16  C   UNL     1     183.006 173.405 179.346  1.00  0.00     0.003 C 
ATOM     17  C   UNL     1     183.718 174.752 178.961  1.00  0.00    -0.025 C 
ATOM     18  C   UNL     1     185.244 174.447 178.955  1.00  0.00     0.010 C 
ATOM     19  C   UNL     1     185.634 173.273 178.017  1.00  0.00     0.033 C 
ATOM     20  C   UNL     1     184.810 171.968 178.221  1.00  0.00     0.120 C 
ATOM     21  C   UNL     1     183.248 172.165 178.399  1.00  0.00    -0.006 C 
ATOM     22  C   UNL     1     182.672 170.875 179.060  1.00  0.00     0.014 C 
ATOM     23  C   UNL     1     182.544 172.291 177.018  1.00  0.00     0.014 C 
ATOM     24  C   UNL     1     183.358 175.230 177.512  1.00  0.00     0.012 C 
ATOM     25  C   UNL     1     184.048 174.640 182.185  1.00  0.00     0.012 C 
ATOM     26  C   UNL     1     181.317 178.988 182.603  1.00  0.00     0.022 C 
ATOM     27  C   UNL     1     180.255 179.954 182.012  1.00  0.00     0.015 C 
ATOM     28  C   UNL     1     181.651 176.136 183.639  1.00  0.00     0.017 C 
ATOM     29  C   UNL     1     183.390 180.364 181.888  1.00  0.00     0.012 C 
ATOM     30  C   UNL     1     179.010 180.529 184.176  1.00  0.00     0.011 C 
ENDROOT
BRANCH  20  31
ATOM     31  O   UNL     1     185.369 171.221 179.279  1.00  0.00    -0.393 OA
ATOM     32  H   UNL     1     184.631 170.818 179.802  1.00  0.00     0.210 HD
ENDBRANCH  20  31
TORSDOF 1
ENDMDL
MODEL 8
REMARK VINA RESULT:    -7.830      4.331      9.820
REMARK INTER + INTRA:          -8.059
REMARK INTER:                  -8.059
REMARK INTRA:                   0.000
REMARK UNBOUND:                 0.000
REMARK SMILES CC1(C)CC[C@@]2(C)CC[C@@]3(C)C(=CC[C@@H]4[C@@]5(C)CC[C@@H](O)C(C)(C)[C@@H]5CC[C@@]43C)[C@@H]2C1
REMARK SMILES IDX 1 1 2 2 4 3 5 4 6 5 8 6 9 7 10 8 12 9 13 10 14 11 15 12
REMARK SMILES IDX 28 13 27 14 26 15 25 16 16 17 18 18 19 19 20 20 22 21 23 22
REMARK SMILES IDX 24 23 17 24 29 25 30 26 31 27 11 28 7 29 3 30 21 31
REMARK H PARENT 21 32
REMARK Flexibility Score: inf
ROOT
ATOM      1  C   UNL     1     180.194 190.396 180.724  1.00  0.00     0.011 C 
ATOM      2  C   UNL     1     181.457 189.540 180.963  1.00  0.00    -0.035 C 
ATOM      3  C   UNL     1     182.257 189.457 179.634  1.00  0.00     0.007 C 
ATOM      4  C   UNL     1     183.396 188.420 179.662  1.00  0.00     0.008 C 
ATOM      5  C   UNL     1     182.931 187.000 180.094  1.00  0.00    -0.026 C 
ATOM      6  C   UNL     1     184.187 186.102 180.287  1.00  0.00     0.008 C 
ATOM      7  C   UNL     1     183.904 184.740 180.979  1.00  0.00     0.012 C 
ATOM      8  C   UNL     1     183.073 184.812 182.321  1.00  0.00    -0.006 C 
ATOM      9  C   UNL     1     181.869 185.701 181.977  1.00  0.00    -0.064 C 
ATOM     10  C   UNL     1     180.662 185.169 181.742  1.00  0.00    -0.027 C 
ATOM     11  C   UNL     1     180.294 183.757 182.009  1.00  0.00     0.032 C 
ATOM     12  C   UNL     1     181.460 182.717 182.036  1.00  0.00     0.006 C 
ATOM     13  C   UNL     1     182.662 183.334 182.865  1.00  0.00    -0.020 C 
ATOM     14  C   UNL     1     182.197 183.396 184.379  1.00  0.00     0.008 C 
ATOM     15  C   UNL     1     181.203 182.294 184.868  1.00  0.00     0.005 C 
ATOM     16  C   UNL     1     181.327 181.006 184.036  1.00  0.00     0.003 C 
ATOM     17  C   UNL     1     180.941 181.256 182.533  1.00  0.00    -0.025 C 
ATOM     18  C   UNL     1     181.615 180.112 181.720  1.00  0.00     0.010 C 
ATOM     19  C   UNL     1     181.223 178.693 182.213  1.00  0.00     0.033 C 
ATOM     20  C   UNL     1     181.394 178.459 183.742  1.00  0.00     0.120 C 
ATOM     21  C   UNL     1     180.885 179.633 184.675  1.00  0.00    -0.006 C 
ATOM     22  C   UNL     1     181.554 179.461 186.074  1.00  0.00     0.014 C 
ATOM     23  C   UNL     1     179.352 179.524 184.917  1.00  0.00     0.014 C 
ATOM     24  C   UNL     1     179.400 181.129 182.278  1.00  0.00     0.012 C 
ATOM     25  C   UNL     1     183.954 182.439 182.727  1.00  0.00     0.012 C 
ATOM     26  C   UNL     1     182.189 187.109 181.456  1.00  0.00     0.022 C 
ATOM     27  C   UNL     1     181.010 188.118 181.412  1.00  0.00     0.015 C 
ATOM     28  C   UNL     1     183.930 185.542 183.414  1.00  0.00     0.017 C 
ATOM     29  C   UNL     1     182.043 186.384 178.976  1.00  0.00     0.012 C 
ATOM     30  C   UNL     1     182.294 190.238 182.062  1.00  0.00     0.011 C 
ENDROOT
BRANCH  20  31
ATOM     31  O   UNL     1     182.734 178.112 184.016  1.00  0.00    -0.393 OA
ATOM     32  H   UNL     1     182.927 178.335 184.963  1.00  0.00     0.210 HD
ENDBRANCH  20  31
TORSDOF 1
ENDMDL
MODEL 9
REMARK VINA RESULT:    -7.735      4.895     10.174
REMARK INTER + INTRA:          -7.961
REMARK INTER:                  -7.961
REMARK INTRA:                   0.000
REMARK UNBOUND:                 0.000
REMARK SMILES CC1(C)CC[C@@]2(C)CC[C@@]3(C)C(=CC[C@@H]4[C@@]5(C)CC[C@@H](O)C(C)(C)[C@@H]5CC[C@@]43C)[C@@H]2C1
REMARK SMILES IDX 1 1 2 2 4 3 5 4 6 5 8 6 9 7 10 8 12 9 13 10 14 11 15 12
REMARK SMILES IDX 28 13 27 14 26 15 25 16 16 17 18 18 19 19 20 20 22 21 23 22
REMARK SMILES IDX 24 23 17 24 29 25 30 26 31 27 11 28 7 29 3 30 21 31
REMARK H PARENT 21 32
REMARK Flexibility Score: inf
ROOT
ATOM      1  C   UNL     1     186.946 189.301 180.471  1.00  0.00     0.011 C 
ATOM      2  C   UNL     1     185.521 188.873 180.056  1.00  0.00    -0.035 C 
ATOM      3  C   UNL     1     184.541 190.033 180.382  1.00  0.00     0.007 C 
ATOM      4  C   UNL     1     183.055 189.639 180.264  1.00  0.00     0.008 C 
ATOM      5  C   UNL     1     182.682 188.377 181.091  1.00  0.00    -0.026 C 
ATOM      6  C   UNL     1     181.227 187.958 180.731  1.00  0.00     0.008 C 
ATOM      7  C   UNL     1     180.807 186.562 181.267  1.00  0.00     0.012 C 
ATOM      8  C   UNL     1     181.807 185.379 180.959  1.00  0.00    -0.006 C 
ATOM      9  C   UNL     1     183.181 185.921 181.379  1.00  0.00    -0.064 C 
ATOM     10  C   UNL     1     183.746 185.549 182.535  1.00  0.00    -0.027 C 
ATOM     11  C   UNL     1     183.263 184.441 183.394  1.00  0.00     0.032 C 
ATOM     12  C   UNL     1     181.756 184.051 183.262  1.00  0.00     0.006 C 
ATOM     13  C   UNL     1     181.383 184.005 181.721  1.00  0.00    -0.020 C 
ATOM     14  C   UNL     1     182.135 182.756 181.101  1.00  0.00     0.008 C 
ATOM     15  C   UNL     1     182.370 181.525 182.034  1.00  0.00     0.005 C 
ATOM     16  C   UNL     1     181.322 181.454 183.157  1.00  0.00     0.003 C 
ATOM     17  C   UNL     1     181.413 182.703 184.107  1.00  0.00    -0.025 C 
ATOM     18  C   UNL     1     180.028 182.812 184.808  1.00  0.00     0.010 C 
ATOM     19  C   UNL     1     179.612 181.517 185.556  1.00  0.00     0.033 C 
ATOM     20  C   UNL     1     179.701 180.213 184.711  1.00  0.00     0.120 C 
ATOM     21  C   UNL     1     181.005 180.060 183.825  1.00  0.00    -0.006 C 
ATOM     22  C   UNL     1     180.716 178.997 182.721  1.00  0.00     0.014 C 
ATOM     23  C   UNL     1     182.184 179.493 184.667  1.00  0.00     0.014 C 
ATOM     24  C   UNL     1     182.471 182.513 185.248  1.00  0.00     0.012 C 
ATOM     25  C   UNL     1     179.824 183.856 181.527  1.00  0.00     0.012 C 
ATOM     26  C   UNL     1     183.640 187.217 180.697  1.00  0.00     0.022 C 
ATOM     27  C   UNL     1     185.135 187.599 180.863  1.00  0.00     0.015 C 
ATOM     28  C   UNL     1     181.831 185.121 179.411  1.00  0.00     0.017 C 
ATOM     29  C   UNL     1     182.743 188.715 182.607  1.00  0.00     0.012 C 
ATOM     30  C   UNL     1     185.543 188.587 178.535  1.00  0.00     0.011 C 
ENDROOT
BRANCH  20  31
ATOM     31  O   UNL     1     178.525 180.070 183.945  1.00  0.00    -0.393 OA
ATOM     32  H   UNL     1     178.784 179.864 183.011  1.00  0.00     0.210 HD
ENDBRANCH  20  31
TORSDOF 1
ENDMDL
