MODEL 1
REMARK VINA RESULT:    -3.684      0.000      0.000
REMARK INTER + INTRA:          -8.938
REMARK INTER:                  -6.698
REMARK INTRA:                  -2.239
REMARK UNBOUND:                -2.239
REMARK SMILES CCCCCCCCCCCCCCCC(=O)[O-]
REMARK SMILES IDX 9 1 10 2 11 3 12 4 13 5 14 6 15 7 16 8 17 9 18 10 8 11 7 12
REMARK SMILES IDX 6 13 5 14 4 15 3 16 2 17 1 18
REMARK H PARENT
REMARK Flexibility Score: inf
ROOT
ATOM      1  C   UNL     1      18.750  18.659  17.471  1.00  0.00     0.000 C 
ENDROOT
BRANCH   1   2
ATOM      2  C   UNL     1      17.925  17.773  16.523  1.00  0.00     0.000 C 
BRANCH   2   3
ATOM      3  C   UNL     1      18.499  17.742  15.097  1.00  0.00     0.000 C 
BRANCH   3   4
ATOM      4  C   UNL     1      18.288  19.067  14.343  1.00  0.00     0.000 C 
BRANCH   4   5
ATOM      5  C   UNL     1      19.584  19.599  13.713  1.00  0.00     0.000 C 
BRANCH   5   6
ATOM      6  C   UNL     1      20.317  20.598  14.627  1.00  0.00     0.006 C 
BRANCH   6   7
ATOM      7  C   UNL     1      21.511  19.956  15.344  1.00  0.00     0.053 C 
BRANCH   7   8
ATOM      8  C   UNL     1      22.265  20.954  16.170  1.00  0.00     0.041 C 
ATOM      9  O   UNL     1      21.721  21.487  17.173  1.00  0.00    -0.550 OA
ATOM     10  O   UNL     1      23.581  21.268  15.853  1.00  0.00    -0.550 OA
ENDBRANCH   7   8
ENDBRANCH   6   7
ENDBRANCH   5   6
ENDBRANCH   4   5
ENDBRANCH   3   4
ENDBRANCH   2   3
ENDBRANCH   1   2
BRANCH   1  11
ATOM     11  C   UNL     1      17.936  19.827  18.058  1.00  0.00     0.000 C 
BRANCH  11  12
ATOM     12  C   UNL     1      18.225  21.208  17.436  1.00  0.00    -0.000 C 
BRANCH  12  13
ATOM     13  C   UNL     1      17.070  21.812  16.617  1.00  0.00    -0.000 C 
BRANCH  13  14
ATOM     14  C   UNL     1      15.806  20.939  16.636  1.00  0.00    -0.000 C 
BRANCH  14  15
ATOM     15  C   UNL     1      14.671  21.632  17.401  1.00  0.00    -0.000 C 
BRANCH  15  16
ATOM     16  C   UNL     1      13.618  20.615  17.863  1.00  0.00    -0.000 C 
BRANCH  16  17
ATOM     17  C   UNL     1      14.238  19.275  18.289  1.00  0.00    -0.003 C 
ATOM     18  C   UNL     1      14.683  19.268  19.751  1.00  0.00     0.004 C 
ENDBRANCH  16  17
ENDBRANCH  15  16
ENDBRANCH  14  15
ENDBRANCH  13  14
ENDBRANCH  12  13
ENDBRANCH  11  12
ENDBRANCH   1  11
TORSDOF 14
ENDMDL
MODEL 2
REMARK VINA RESULT:    -3.632      1.226      2.610
REMARK INTER + INTRA:          -8.843
REMARK INTER:                  -6.549
REMARK INTRA:                  -2.295
REMARK UNBOUND:                -2.239
REMARK SMILES CCCCCCCCCCCCCCCC(=O)[O-]
REMARK SMILES IDX 9 1 10 2 11 3 12 4 13 5 14 6 15 7 16 8 17 9 18 10 8 11 7 12
REMARK SMILES IDX 6 13 5 14 4 15 3 16 2 17 1 18
REMARK H PARENT
REMARK Flexibility Score: inf
ROOT
ATOM      1  C   UNL     1      19.638  17.236  15.342  1.00  0.00     0.000 C 
ENDROOT
BRANCH   1   2
ATOM      2  C   UNL     1      19.999  18.074  14.105  1.00  0.00     0.000 C 
BRANCH   2   3
ATOM      3  C   UNL     1      19.144  19.347  13.985  1.00  0.00     0.000 C 
BRANCH   3   4
ATOM      4  C   UNL     1      19.966  20.635  14.180  1.00  0.00     0.000 C 
BRANCH   4   5
ATOM      5  C   UNL     1      21.411  20.351  14.616  1.00  0.00     0.000 C 
BRANCH   5   6
ATOM      6  C   UNL     1      21.635  20.603  16.118  1.00  0.00     0.006 C 
BRANCH   6   7
ATOM      7  C   UNL     1      22.385  19.447  16.792  1.00  0.00     0.053 C 
BRANCH   7   8
ATOM      8  C   UNL     1      23.816  19.382  16.355  1.00  0.00     0.041 C 
ATOM      9  O   UNL     1      24.523  20.424  16.342  1.00  0.00    -0.550 OA
ATOM     10  O   UNL     1      24.380  18.164  15.995  1.00  0.00    -0.550 OA
ENDBRANCH   7   8
ENDBRANCH   6   7
ENDBRANCH   5   6
ENDBRANCH   4   5
ENDBRANCH   3   4
ENDBRANCH   2   3
ENDBRANCH   1   2
BRANCH   1  11
ATOM     11  C   UNL     1      18.478  17.839  16.155  1.00  0.00     0.000 C 
BRANCH  11  12
ATOM     12  C   UNL     1      18.873  18.437  17.520  1.00  0.00    -0.000 C 
BRANCH  12  13
ATOM     13  C   UNL     1      17.945  19.551  18.039  1.00  0.00    -0.000 C 
BRANCH  13  14
ATOM     14  C   UNL     1      18.324  20.940  17.504  1.00  0.00    -0.000 C 
BRANCH  14  15
ATOM     15  C   UNL     1      17.295  21.432  16.479  1.00  0.00    -0.000 C 
BRANCH  15  16
ATOM     16  C   UNL     1      15.949  20.715  16.661  1.00  0.00    -0.000 C 
BRANCH  16  17
ATOM     17  C   UNL     1      14.861  21.637  17.232  1.00  0.00    -0.003 C 
ATOM     18  C   UNL     1      13.830  20.884  18.073  1.00  0.00     0.004 C 
ENDBRANCH  16  17
ENDBRANCH  15  16
ENDBRANCH  14  15
ENDBRANCH  13  14
ENDBRANCH  12  13
ENDBRANCH  11  12
ENDBRANCH   1  11
TORSDOF 14
ENDMDL
MODEL 3
REMARK VINA RESULT:    -3.589      1.410      4.330
REMARK INTER + INTRA:          -8.766
REMARK INTER:                  -6.382
REMARK INTRA:                  -2.385
REMARK UNBOUND:                -2.239
REMARK SMILES CCCCCCCCCCCCCCCC(=O)[O-]
REMARK SMILES IDX 9 1 10 2 11 3 12 4 13 5 14 6 15 7 16 8 17 9 18 10 8 11 7 12
REMARK SMILES IDX 6 13 5 14 4 15 3 16 2 17 1 18
REMARK H PARENT
REMARK Flexibility Score: inf
ROOT
ATOM      1  C   UNL     1      13.386  20.122  18.879  1.00  0.00     0.000 C 
ENDROOT
BRANCH   1   2
ATOM      2  C   UNL     1      13.602  20.694  17.468  1.00  0.00     0.000 C 
BRANCH   2   3
ATOM      3  C   UNL     1      14.771  21.691  17.409  1.00  0.00     0.000 C 
BRANCH   3   4
ATOM      4  C   UNL     1      15.983  21.142  16.635  1.00  0.00     0.000 C 
BRANCH   4   5
ATOM      5  C   UNL     1      17.239  22.007  16.817  1.00  0.00     0.000 C 
BRANCH   5   6
ATOM      6  C   UNL     1      18.438  21.483  16.006  1.00  0.00     0.006 C 
BRANCH   6   7
ATOM      7  C   UNL     1      19.734  21.480  16.828  1.00  0.00     0.053 C 
BRANCH   7   8
ATOM      8  C   UNL     1      20.784  20.609  16.207  1.00  0.00     0.041 C 
ATOM      9  O   UNL     1      20.910  20.563  14.955  1.00  0.00    -0.550 OA
ATOM     10  O   UNL     1      21.646  19.876  17.013  1.00  0.00    -0.550 OA
ENDBRANCH   7   8
ENDBRANCH   6   7
ENDBRANCH   5   6
ENDBRANCH   4   5
ENDBRANCH   3   4
ENDBRANCH   2   3
ENDBRANCH   1   2
BRANCH   1  11
ATOM     11  C   UNL     1      14.330  18.949  19.199  1.00  0.00     0.000 C 
BRANCH  11  12
ATOM     12  C   UNL     1      15.401  19.239  20.270  1.00  0.00    -0.000 C 
BRANCH  12  13
ATOM     13  C   UNL     1      16.858  19.083  19.798  1.00  0.00    -0.000 C 
BRANCH  13  14
ATOM     14  C   UNL     1      16.986  18.217  18.536  1.00  0.00    -0.000 C 
BRANCH  14  15
ATOM     15  C   UNL     1      18.426  18.227  18.007  1.00  0.00    -0.000 C 
BRANCH  15  16
ATOM     16  C   UNL     1      18.478  17.755  16.546  1.00  0.00    -0.000 C 
BRANCH  16  17
ATOM     17  C   UNL     1      17.101  17.790  15.865  1.00  0.00    -0.003 C 
ATOM     18  C   UNL     1      17.162  18.330  14.436  1.00  0.00     0.004 C 
ENDBRANCH  16  17
ENDBRANCH  15  16
ENDBRANCH  14  15
ENDBRANCH  13  14
ENDBRANCH  12  13
ENDBRANCH  11  12
ENDBRANCH   1  11
TORSDOF 14
ENDMDL
MODEL 4
REMARK VINA RESULT:    -3.589      2.169      3.991
REMARK INTER + INTRA:          -8.766
REMARK INTER:                  -7.059
REMARK INTRA:                  -1.707
REMARK UNBOUND:                -2.239
REMARK SMILES CCCCCCCCCCCCCCCC(=O)[O-]
REMARK SMILES IDX 9 1 10 2 11 3 12 4 13 5 14 6 15 7 16 8 17 9 18 10 8 11 7 12
REMARK SMILES IDX 6 13 5 14 4 15 3 16 2 17 1 18
REMARK H PARENT
REMARK Flexibility Score: inf
ROOT
ATOM      1  C   UNL     1      16.848  21.619  16.580  1.00  0.00     0.000 C 
ENDROOT
BRANCH   1   2
ATOM      2  C   UNL     1      17.891  22.716  16.848  1.00  0.00     0.000 C 
BRANCH   2   3
ATOM      3  C   UNL     1      19.309  22.150  17.029  1.00  0.00     0.000 C 
BRANCH   3   4
ATOM      4  C   UNL     1      19.474  20.751  16.408  1.00  0.00     0.000 C 
BRANCH   4   5
ATOM      5  C   UNL     1      19.954  20.806  14.950  1.00  0.00     0.000 C 
BRANCH   5   6
ATOM      6  C   UNL     1      19.152  19.869  14.028  1.00  0.00     0.006 C 
BRANCH   6   7
ATOM      7  C   UNL     1      18.714  18.587  14.748  1.00  0.00     0.053 C 
BRANCH   7   8
ATOM      8  C   UNL     1      19.612  17.433  14.425  1.00  0.00     0.041 C 
ATOM      9  O   UNL     1      20.555  17.574  13.602  1.00  0.00    -0.550 OA
ATOM     10  O   UNL     1      19.430  16.210  15.058  1.00  0.00    -0.550 OA
ENDBRANCH   7   8
ENDBRANCH   6   7
ENDBRANCH   5   6
ENDBRANCH   4   5
ENDBRANCH   3   4
ENDBRANCH   2   3
ENDBRANCH   1   2
BRANCH   1  11
ATOM     11  C   UNL     1      15.443  21.993  17.086  1.00  0.00     0.000 C 
BRANCH  11  12
ATOM     12  C   UNL     1      14.426  20.834  17.125  1.00  0.00    -0.000 C 
BRANCH  12  13
ATOM     13  C   UNL     1      13.547  20.776  18.387  1.00  0.00    -0.000 C 
BRANCH  13  14
ATOM     14  C   UNL     1      13.546  19.391  19.050  1.00  0.00    -0.000 C 
BRANCH  14  15
ATOM     15  C   UNL     1      14.749  19.231  19.988  1.00  0.00    -0.000 C 
BRANCH  15  16
ATOM     16  C   UNL     1      15.818  18.324  19.362  1.00  0.00    -0.000 C 
BRANCH  16  17
ATOM     17  C   UNL     1      17.155  19.050  19.145  1.00  0.00    -0.003 C 
ATOM     18  C   UNL     1      18.245  18.129  18.595  1.00  0.00     0.004 C 
ENDBRANCH  16  17
ENDBRANCH  15  16
ENDBRANCH  14  15
ENDBRANCH  13  14
ENDBRANCH  12  13
ENDBRANCH  11  12
ENDBRANCH   1  11
TORSDOF 14
ENDMDL
MODEL 5
REMARK VINA RESULT:    -3.561      2.155      4.021
REMARK INTER + INTRA:          -8.715
REMARK INTER:                  -6.649
REMARK INTRA:                  -2.066
REMARK UNBOUND:                -2.239
REMARK SMILES CCCCCCCCCCCCCCCC(=O)[O-]
REMARK SMILES IDX 9 1 10 2 11 3 12 4 13 5 14 6 15 7 16 8 17 9 18 10 8 11 7 12
REMARK SMILES IDX 6 13 5 14 4 15 3 16 2 17 1 18
REMARK H PARENT
REMARK Flexibility Score: inf
ROOT
ATOM      1  C   UNL     1      20.176  18.260  13.814  1.00  0.00     0.000 C 
ENDROOT
BRANCH   1   2
ATOM      2  C   UNL     1      19.480  19.624  13.676  1.00  0.00     0.000 C 
BRANCH   2   3
ATOM      3  C   UNL     1      20.244  20.750  14.393  1.00  0.00     0.000 C 
BRANCH   3   4
ATOM      4  C   UNL     1      21.499  20.243  15.127  1.00  0.00     0.000 C 
BRANCH   4   5
ATOM      5  C   UNL     1      21.707  20.934  16.483  1.00  0.00     0.000 C 
BRANCH   5   6
ATOM      6  C   UNL     1      23.194  21.172  16.803  1.00  0.00     0.006 C 
BRANCH   6   7
ATOM      7  C   UNL     1      24.091  20.943  15.579  1.00  0.00     0.053 C 
BRANCH   7   8
ATOM      8  C   UNL     1      25.244  20.041  15.897  1.00  0.00     0.041 C 
ATOM      9  O   UNL     1      26.069  19.725  14.999  1.00  0.00    -0.550 OA
ATOM     10  O   UNL     1      25.429  19.578  17.194  1.00  0.00    -0.550 OA
ENDBRANCH   7   8
ENDBRANCH   6   7
ENDBRANCH   5   6
ENDBRANCH   4   5
ENDBRANCH   3   4
ENDBRANCH   2   3
ENDBRANCH   1   2
BRANCH   1  11
ATOM     11  C   UNL     1      19.330  17.233  14.589  1.00  0.00     0.000 C 
BRANCH  11  12
ATOM     12  C   UNL     1      19.538  17.228  16.116  1.00  0.00    -0.000 C 
BRANCH  12  13
ATOM     13  C   UNL     1      18.375  17.812  16.938  1.00  0.00    -0.000 C 
BRANCH  13  14
ATOM     14  C   UNL     1      18.759  19.097  17.686  1.00  0.00    -0.000 C 
BRANCH  14  15
ATOM     15  C   UNL     1      17.567  20.059  17.774  1.00  0.00    -0.000 C 
BRANCH  15  16
ATOM     16  C   UNL     1      17.438  20.893  16.491  1.00  0.00    -0.000 C 
BRANCH  16  17
ATOM     17  C   UNL     1      17.288  22.396  16.777  1.00  0.00    -0.003 C 
ATOM     18  C   UNL     1      18.623  23.075  17.082  1.00  0.00     0.004 C 
ENDBRANCH  16  17
ENDBRANCH  15  16
ENDBRANCH  14  15
ENDBRANCH  13  14
ENDBRANCH  12  13
ENDBRANCH  11  12
ENDBRANCH   1  11
TORSDOF 14
ENDMDL
MODEL 6
REMARK VINA RESULT:    -3.561      2.486      5.639
REMARK INTER + INTRA:          -8.715
REMARK INTER:                  -6.879
REMARK INTRA:                  -1.835
REMARK UNBOUND:                -2.239
REMARK SMILES CCCCCCCCCCCCCCCC(=O)[O-]
REMARK SMILES IDX 9 1 10 2 11 3 12 4 13 5 14 6 15 7 16 8 17 9 18 10 8 11 7 12
REMARK SMILES IDX 6 13 5 14 4 15 3 16 2 17 1 18
REMARK H PARENT
REMARK Flexibility Score: inf
ROOT
ATOM      1  C   UNL     1      18.944  22.156  17.061  1.00  0.00     0.000 C 
ENDROOT
BRANCH   1   2
ATOM      2  C   UNL     1      17.503  22.545  16.695  1.00  0.00     0.000 C 
BRANCH   2   3
ATOM      3  C   UNL     1      16.537  21.350  16.750  1.00  0.00     0.000 C 
BRANCH   3   4
ATOM      4  C   UNL     1      15.082  21.773  17.021  1.00  0.00     0.000 C 
BRANCH   4   5
ATOM      5  C   UNL     1      14.193  20.592  17.437  1.00  0.00     0.000 C 
BRANCH   5   6
ATOM      6  C   UNL     1      14.551  20.046  18.831  1.00  0.00     0.006 C 
BRANCH   6   7
ATOM      7  C   UNL     1      15.426  18.788  18.752  1.00  0.00     0.053 C 
BRANCH   7   8
ATOM      8  C   UNL     1      16.547  18.828  19.745  1.00  0.00     0.041 C 
ATOM      9  O   UNL     1      17.704  18.460  19.411  1.00  0.00    -0.550 OA
ATOM     10  O   UNL     1      16.322  19.306  21.030  1.00  0.00    -0.550 OA
ENDBRANCH   7   8
ENDBRANCH   6   7
ENDBRANCH   5   6
ENDBRANCH   4   5
ENDBRANCH   3   4
ENDBRANCH   2   3
ENDBRANCH   1   2
BRANCH   1  11
ATOM     11  C   UNL     1      19.184  20.636  17.013  1.00  0.00     0.000 C 
BRANCH  11  12
ATOM     12  C   UNL     1      20.373  20.185  16.141  1.00  0.00    -0.000 C 
BRANCH  12  13
ATOM     13  C   UNL     1      20.310  20.626  14.668  1.00  0.00    -0.000 C 
BRANCH  13  14
ATOM     14  C   UNL     1      19.357  19.762  13.828  1.00  0.00    -0.000 C 
BRANCH  14  15
ATOM     15  C   UNL     1      19.601  18.270  14.082  1.00  0.00    -0.000 C 
BRANCH  15  16
ATOM     16  C   UNL     1      18.323  17.581  14.582  1.00  0.00    -0.000 C 
BRANCH  16  17
ATOM     17  C   UNL     1      17.091  18.497  14.509  1.00  0.00    -0.003 C 
ATOM     18  C   UNL     1      15.872  17.905  15.215  1.00  0.00     0.004 C 
ENDBRANCH  16  17
ENDBRANCH  15  16
ENDBRANCH  14  15
ENDBRANCH  13  14
ENDBRANCH  12  13
ENDBRANCH  11  12
ENDBRANCH   1  11
TORSDOF 14
ENDMDL
MODEL 7
REMARK VINA RESULT:    -3.548      1.510      3.042
REMARK INTER + INTRA:          -8.692
REMARK INTER:                  -6.529
REMARK INTRA:                  -2.163
REMARK UNBOUND:                -2.239
REMARK SMILES CCCCCCCCCCCCCCCC(=O)[O-]
REMARK SMILES IDX 9 1 10 2 11 3 12 4 13 5 14 6 15 7 16 8 17 9 18 10 8 11 7 12
REMARK SMILES IDX 6 13 5 14 4 15 3 16 2 17 1 18
REMARK H PARENT
REMARK Flexibility Score: inf
ROOT
ATOM      1  C   UNL     1      19.271  17.597  15.559  1.00  0.00     0.000 C 
ENDROOT
BRANCH   1   2
ATOM      2  C   UNL     1      18.356  18.353  14.582  1.00  0.00     0.000 C 
BRANCH   2   3
ATOM      3  C   UNL     1      19.019  19.618  14.012  1.00  0.00     0.000 C 
BRANCH   3   4
ATOM      4  C   UNL     1      20.548  19.620  14.190  1.00  0.00     0.000 C 
BRANCH   4   5
ATOM      5  C   UNL     1      21.040  20.799  15.044  1.00  0.00     0.000 C 
BRANCH   5   6
ATOM      6  C   UNL     1      21.413  20.375  16.476  1.00  0.00     0.006 C 
BRANCH   6   7
ATOM      7  C   UNL     1      22.007  21.535  17.285  1.00  0.00     0.053 C 
BRANCH   7   8
ATOM      8  C   UNL     1      23.263  21.131  17.996  1.00  0.00     0.041 C 
ATOM      9  O   UNL     1      24.094  20.371  17.432  1.00  0.00    -0.550 OA
ATOM     10  O   UNL     1      23.532  21.623  19.267  1.00  0.00    -0.550 OA
ENDBRANCH   7   8
ENDBRANCH   6   7
ENDBRANCH   5   6
ENDBRANCH   4   5
ENDBRANCH   3   4
ENDBRANCH   2   3
ENDBRANCH   1   2
BRANCH   1  11
ATOM     11  C   UNL     1      18.746  17.615  17.006  1.00  0.00     0.000 C 
BRANCH  11  12
ATOM     12  C   UNL     1      18.486  19.016  17.595  1.00  0.00    -0.000 C 
BRANCH  12  13
ATOM     13  C   UNL     1      17.323  19.099  18.599  1.00  0.00    -0.000 C 
BRANCH  13  14
ATOM     14  C   UNL     1      16.106  19.850  18.041  1.00  0.00    -0.000 C 
BRANCH  14  15
ATOM     15  C   UNL     1      16.415  20.450  16.664  1.00  0.00    -0.000 C 
BRANCH  15  16
ATOM     16  C   UNL     1      16.595  21.972  16.755  1.00  0.00    -0.000 C 
BRANCH  16  17
ATOM     17  C   UNL     1      18.018  22.421  16.391  1.00  0.00    -0.003 C 
ATOM     18  C   UNL     1      18.712  23.166  17.531  1.00  0.00     0.004 C 
ENDBRANCH  16  17
ENDBRANCH  15  16
ENDBRANCH  14  15
ENDBRANCH  13  14
ENDBRANCH  12  13
ENDBRANCH  11  12
ENDBRANCH   1  11
TORSDOF 14
ENDMDL
MODEL 8
REMARK VINA RESULT:    -3.529      2.968      6.377
REMARK INTER + INTRA:          -8.657
REMARK INTER:                  -6.542
REMARK INTRA:                  -2.116
REMARK UNBOUND:                -2.239
REMARK SMILES CCCCCCCCCCCCCCCC(=O)[O-]
REMARK SMILES IDX 9 1 10 2 11 3 12 4 13 5 14 6 15 7 16 8 17 9 18 10 8 11 7 12
REMARK SMILES IDX 6 13 5 14 4 15 3 16 2 17 1 18
REMARK H PARENT
REMARK Flexibility Score: inf
ROOT
ATOM      1  C   UNL     1      20.953  16.920  13.794  1.00  0.00     0.000 C 
ENDROOT
BRANCH   1   2
ATOM      2  C   UNL     1      19.483  16.962  14.242  1.00  0.00     0.000 C 
BRANCH   2   3
ATOM      3  C   UNL     1      18.919  18.392  14.281  1.00  0.00     0.000 C 
BRANCH   3   4
ATOM      4  C   UNL     1      19.925  19.441  13.771  1.00  0.00     0.000 C 
BRANCH   4   5
ATOM      5  C   UNL     1      19.934  20.715  14.631  1.00  0.00     0.000 C 
BRANCH   5   6
ATOM      6  C   UNL     1      19.625  20.429  16.112  1.00  0.00     0.006 C 
BRANCH   6   7
ATOM      7  C   UNL     1      18.790  21.544  16.754  1.00  0.00     0.053 C 
BRANCH   7   8
ATOM      8  C   UNL     1      17.323  21.246  16.692  1.00  0.00     0.041 C 
ATOM      9  O   UNL     1      16.920  20.055  16.638  1.00  0.00    -0.550 OA
ATOM     10  O   UNL     1      16.399  22.284  16.731  1.00  0.00    -0.550 OA
ENDBRANCH   7   8
ENDBRANCH   6   7
ENDBRANCH   5   6
ENDBRANCH   4   5
ENDBRANCH   3   4
ENDBRANCH   2   3
ENDBRANCH   1   2
BRANCH   1  11
ATOM     11  C   UNL     1      21.895  16.377  14.884  1.00  0.00     0.000 C 
BRANCH  11  12
ATOM     12  C   UNL     1      21.525  16.768  16.329  1.00  0.00    -0.000 C 
BRANCH  12  13
ATOM     13  C   UNL     1      22.565  17.637  17.058  1.00  0.00    -0.000 C 
BRANCH  13  14
ATOM     14  C   UNL     1      22.862  18.953  16.325  1.00  0.00    -0.000 C 
BRANCH  14  15
ATOM     15  C   UNL     1      23.230  20.064  17.317  1.00  0.00    -0.000 C 
BRANCH  15  16
ATOM     16  C   UNL     1      23.162  21.444  16.647  1.00  0.00    -0.000 C 
BRANCH  16  17
ATOM     17  C   UNL     1      23.632  21.414  15.184  1.00  0.00    -0.003 C 
ATOM     18  C   UNL     1      24.767  22.399  14.907  1.00  0.00     0.004 C 
ENDBRANCH  16  17
ENDBRANCH  15  16
ENDBRANCH  14  15
ENDBRANCH  13  14
ENDBRANCH  12  13
ENDBRANCH  11  12
ENDBRANCH   1  11
TORSDOF 14
ENDMDL
MODEL 9
REMARK VINA RESULT:    -3.511      1.048      2.114
REMARK INTER + INTRA:          -8.624
REMARK INTER:                  -6.660
REMARK INTRA:                  -1.965
REMARK UNBOUND:                -2.239
REMARK SMILES CCCCCCCCCCCCCCCC(=O)[O-]
REMARK SMILES IDX 9 1 10 2 11 3 12 4 13 5 14 6 15 7 16 8 17 9 18 10 8 11 7 12
REMARK SMILES IDX 6 13 5 14 4 15 3 16 2 17 1 18
REMARK H PARENT
REMARK Flexibility Score: inf
ROOT
ATOM      1  C   UNL     1      17.749  20.724  17.584  1.00  0.00     0.000 C 
ENDROOT
BRANCH   1   2
ATOM      2  C   UNL     1      18.120  19.348  17.009  1.00  0.00     0.000 C 
BRANCH   2   3
ATOM      3  C   UNL     1      17.687  19.185  15.543  1.00  0.00     0.000 C 
BRANCH   3   4
ATOM      4  C   UNL     1      18.882  19.036  14.583  1.00  0.00     0.000 C 
BRANCH   4   5
ATOM      5  C   UNL     1      19.506  20.388  14.205  1.00  0.00     0.000 C 
BRANCH   5   6
ATOM      6  C   UNL     1      21.034  20.405  14.388  1.00  0.00     0.006 C 
BRANCH   6   7
ATOM      7  C   UNL     1      21.476  19.616  15.628  1.00  0.00     0.053 C 
BRANCH   7   8
ATOM      8  C   UNL     1      21.886  20.524  16.747  1.00  0.00     0.041 C 
ATOM      9  O   UNL     1      22.967  20.324  17.361  1.00  0.00    -0.550 OA
ATOM     10  O   UNL     1      21.092  21.612  17.088  1.00  0.00    -0.550 OA
ENDBRANCH   7   8
ENDBRANCH   6   7
ENDBRANCH   5   6
ENDBRANCH   4   5
ENDBRANCH   3   4
ENDBRANCH   2   3
ENDBRANCH   1   2
BRANCH   1  11
ATOM     11  C   UNL     1      16.934  21.583  16.599  1.00  0.00     0.000 C 
BRANCH  11  12
ATOM     12  C   UNL     1      15.489  21.896  17.038  1.00  0.00    -0.000 C 
BRANCH  12  13
ATOM     13  C   UNL     1      14.575  20.669  17.204  1.00  0.00    -0.000 C 
BRANCH  13  14
ATOM     14  C   UNL     1      13.665  20.765  18.437  1.00  0.00    -0.000 C 
BRANCH  14  15
ATOM     15  C   UNL     1      13.753  19.491  19.285  1.00  0.00    -0.000 C 
BRANCH  15  16
ATOM     16  C   UNL     1      14.988  18.661  18.905  1.00  0.00    -0.000 C 
BRANCH  16  17
ATOM     17  C   UNL     1      16.008  18.561  20.050  1.00  0.00    -0.003 C 
ATOM     18  C   UNL     1      15.427  18.989  21.398  1.00  0.00     0.004 C 
ENDBRANCH  16  17
ENDBRANCH  15  16
ENDBRANCH  14  15
ENDBRANCH  13  14
ENDBRANCH  12  13
ENDBRANCH  11  12
ENDBRANCH   1  11
TORSDOF 14
ENDMDL
