MODEL 1
REMARK VINA RESULT:    -7.448      0.000      0.000
REMARK INTER + INTRA:          -9.536
REMARK INTER:                  -9.190
REMARK INTRA:                  -0.346
REMARK UNBOUND:                -0.346
REMARK SMILES Oc1cc(O)c2cc(O)c(-c3cc(O)c(O)c(O)c3)[o+]c2c1
REMARK SMILES IDX 10 1 20 2 21 3 22 4 2 5 3 6 4 7 6 8 7 9 8 10 11 11 12 12
REMARK SMILES IDX 13 13 19 14 15 15 17 16 14 17 16 19 18 21 9 23 1 25 5 27
REMARK H PARENT 14 18 16 20 18 22 9 24 1 26 5 28
REMARK Flexibility Score: inf
ROOT
ATOM      1  C   UNL     1     -31.758  13.780   1.615  1.00  0.00     0.402 A 
ATOM      2  O   UNL     1     -31.119  12.932   0.812  1.00  0.00    -0.202 OA
ATOM      3  C   UNL     1     -29.795  12.830   0.767  1.00  0.00     0.368 A 
ATOM      4  C   UNL     1     -29.214  11.911  -0.113  1.00  0.00     0.162 A 
ATOM      5  C   UNL     1     -27.823  11.784  -0.183  1.00  0.00     0.128 A 
ATOM      6  C   UNL     1     -27.011  12.581   0.627  1.00  0.00     0.093 A 
ATOM      7  C   UNL     1     -27.567  13.509   1.515  1.00  0.00     0.136 A 
ATOM      8  C   UNL     1     -28.978  13.640   1.593  1.00  0.00     0.125 A 
ATOM      9  C   UNL     1     -29.624  14.534   2.462  1.00  0.00     0.078 A 
ATOM     10  C   UNL     1     -31.021  14.602   2.487  1.00  0.00     0.223 A 
ENDROOT
BRANCH   1  11
ATOM     11  C   UNL     1     -33.238  13.808   1.567  1.00  0.00     0.091 A 
ATOM     12  C   UNL     1     -33.925  14.483   0.543  1.00  0.00     0.068 A 
ATOM     13  C   UNL     1     -35.326  14.480   0.503  1.00  0.00     0.162 A 
ATOM     14  C   UNL     1     -33.972  13.098   2.529  1.00  0.00     0.068 A 
ATOM     15  C   UNL     1     -36.053  13.785   1.484  1.00  0.00     0.200 A 
ATOM     16  C   UNL     1     -35.374  13.092   2.494  1.00  0.00     0.162 A 
BRANCH  13  17
ATOM     17  O   UNL     1     -35.998  15.158  -0.514  1.00  0.00    -0.504 OA
ATOM     18  H   UNL     1     -36.954  14.931  -0.761  1.00  0.00     0.293 HD
ENDBRANCH  13  17
BRANCH  15  19
ATOM     19  O   UNL     1     -37.447  13.770   1.467  1.00  0.00    -0.502 OA
ATOM     20  H   UNL     1     -37.985  13.054   1.941  1.00  0.00     0.293 HD
ENDBRANCH  15  19
BRANCH  16  21
ATOM     21  O   UNL     1     -36.099  12.398   3.462  1.00  0.00    -0.504 OA
ATOM     22  H   UNL     1     -36.559  11.520   3.252  1.00  0.00     0.293 HD
ENDBRANCH  16  21
ENDBRANCH   1  11
BRANCH  10  23
ATOM     23  O   UNL     1     -31.664  15.453   3.385  1.00  0.00    -0.500 OA
ATOM     24  H   UNL     1     -32.236  15.096   4.142  1.00  0.00     0.294 HD
ENDBRANCH  10  23
BRANCH   5  25
ATOM     25  O   UNL     1     -27.237  10.871  -1.056  1.00  0.00    -0.507 OA
ATOM     26  H   UNL     1     -26.457  10.289  -0.770  1.00  0.00     0.293 HD
ENDBRANCH   5  25
BRANCH   7  27
ATOM     27  O   UNL     1     -26.685  14.270   2.288  1.00  0.00    -0.507 OA
ATOM     28  H   UNL     1     -26.415  14.043   3.234  1.00  0.00     0.293 HD
ENDBRANCH   7  27
TORSDOF 7
ENDMDL
MODEL 2
REMARK VINA RESULT:    -7.377      0.078      1.789
REMARK INTER + INTRA:          -9.449
REMARK INTER:                  -9.088
REMARK INTRA:                  -0.360
REMARK UNBOUND:                -0.346
REMARK SMILES Oc1cc(O)c2cc(O)c(-c3cc(O)c(O)c(O)c3)[o+]c2c1
REMARK SMILES IDX 10 1 20 2 21 3 22 4 2 5 3 6 4 7 6 8 7 9 8 10 11 11 12 12
REMARK SMILES IDX 13 13 19 14 15 15 17 16 14 17 16 19 18 21 9 23 1 25 5 27
REMARK H PARENT 14 18 16 20 18 22 9 24 1 26 5 28
REMARK Flexibility Score: inf
ROOT
ATOM      1  C   UNL     1     -31.794  13.742   1.591  1.00  0.00     0.402 A 
ATOM      2  O   UNL     1     -31.138  12.901   0.795  1.00  0.00    -0.202 OA
ATOM      3  C   UNL     1     -29.813  12.821   0.752  1.00  0.00     0.368 A 
ATOM      4  C   UNL     1     -29.214  11.908  -0.121  1.00  0.00     0.162 A 
ATOM      5  C   UNL     1     -27.821  11.804  -0.188  1.00  0.00     0.128 A 
ATOM      6  C   UNL     1     -27.024  12.620   0.618  1.00  0.00     0.093 A 
ATOM      7  C   UNL     1     -27.599  13.544   1.500  1.00  0.00     0.136 A 
ATOM      8  C   UNL     1     -29.012  13.650   1.575  1.00  0.00     0.125 A 
ATOM      9  C   UNL     1     -29.676  14.537   2.437  1.00  0.00     0.078 A 
ATOM     10  C   UNL     1     -31.073  14.582   2.459  1.00  0.00     0.223 A 
ENDROOT
BRANCH   1  11
ATOM     11  C   UNL     1     -33.274  13.743   1.540  1.00  0.00     0.091 A 
ATOM     12  C   UNL     1     -34.039  13.031   2.481  1.00  0.00     0.068 A 
ATOM     13  C   UNL     1     -35.439  13.062   2.431  1.00  0.00     0.162 A 
ATOM     14  C   UNL     1     -33.931  14.515   0.571  1.00  0.00     0.068 A 
ATOM     15  C   UNL     1     -36.087  13.821   1.441  1.00  0.00     0.200 A 
ATOM     16  C   UNL     1     -35.331  14.550   0.515  1.00  0.00     0.162 A 
BRANCH  13  17
ATOM     17  O   UNL     1     -36.189  12.347   3.364  1.00  0.00    -0.504 OA
ATOM     18  H   UNL     1     -37.173  12.153   3.219  1.00  0.00     0.293 HD
ENDBRANCH  13  17
BRANCH  15  19
ATOM     19  O   UNL     1     -37.479  13.864   1.368  1.00  0.00    -0.502 OA
ATOM     20  H   UNL     1     -38.069  13.433   2.070  1.00  0.00     0.293 HD
ENDBRANCH  15  19
BRANCH  16  21
ATOM     21  O   UNL     1     -35.978  15.306  -0.461  1.00  0.00    -0.504 OA
ATOM     22  H   UNL     1     -35.624  15.365  -1.408  1.00  0.00     0.293 HD
ENDBRANCH  16  21
ENDBRANCH   1  11
BRANCH  10  23
ATOM     23  O   UNL     1     -31.732  15.426   3.351  1.00  0.00    -0.500 OA
ATOM     24  H   UNL     1     -32.635  15.187   3.745  1.00  0.00     0.294 HD
ENDBRANCH  10  23
BRANCH   5  25
ATOM     25  O   UNL     1     -27.218  10.896  -1.055  1.00  0.00    -0.507 OA
ATOM     26  H   UNL     1     -26.209  10.825  -1.129  1.00  0.00     0.293 HD
ENDBRANCH   5  25
BRANCH   7  27
ATOM     27  O   UNL     1     -26.732  14.324   2.270  1.00  0.00    -0.507 OA
ATOM     28  H   UNL     1     -25.868  13.989   2.673  1.00  0.00     0.293 HD
ENDBRANCH   7  27
TORSDOF 7
ENDMDL
MODEL 3
REMARK VINA RESULT:    -7.340      2.414      3.500
REMARK INTER + INTRA:          -9.403
REMARK INTER:                  -9.087
REMARK INTRA:                  -0.316
REMARK UNBOUND:                -0.346
REMARK SMILES Oc1cc(O)c2cc(O)c(-c3cc(O)c(O)c(O)c3)[o+]c2c1
REMARK SMILES IDX 10 1 20 2 21 3 22 4 2 5 3 6 4 7 6 8 7 9 8 10 11 11 12 12
REMARK SMILES IDX 13 13 19 14 15 15 17 16 14 17 16 19 18 21 9 23 1 25 5 27
REMARK H PARENT 14 18 16 20 18 22 9 24 1 26 5 28
REMARK Flexibility Score: inf
ROOT
ATOM      1  C   UNL     1     -31.167  14.046   0.922  1.00  0.00     0.402 A 
ATOM      2  O   UNL     1     -30.162  14.058   1.795  1.00  0.00    -0.202 OA
ATOM      3  C   UNL     1     -29.065  14.790   1.634  1.00  0.00     0.368 A 
ATOM      4  C   UNL     1     -28.061  14.735   2.606  1.00  0.00     0.162 A 
ATOM      5  C   UNL     1     -26.895  15.492   2.460  1.00  0.00     0.128 A 
ATOM      6  C   UNL     1     -26.732  16.307   1.337  1.00  0.00     0.093 A 
ATOM      7  C   UNL     1     -27.721  16.380   0.349  1.00  0.00     0.136 A 
ATOM      8  C   UNL     1     -28.908  15.615   0.494  1.00  0.00     0.125 A 
ATOM      9  C   UNL     1     -29.958  15.635  -0.438  1.00  0.00     0.078 A 
ATOM     10  C   UNL     1     -31.101  14.858  -0.225  1.00  0.00     0.223 A 
ENDROOT
BRANCH   1  11
ATOM     11  C   UNL     1     -32.333  13.180   1.210  1.00  0.00     0.091 A 
ATOM     12  C   UNL     1     -33.293  13.541   2.172  1.00  0.00     0.068 A 
ATOM     13  C   UNL     1     -34.402  12.720   2.415  1.00  0.00     0.162 A 
ATOM     14  C   UNL     1     -32.519  12.004   0.468  1.00  0.00     0.068 A 
ATOM     15  C   UNL     1     -34.566  11.531   1.682  1.00  0.00     0.200 A 
ATOM     16  C   UNL     1     -33.626  11.177   0.707  1.00  0.00     0.162 A 
BRANCH  13  17
ATOM     17  O   UNL     1     -35.345  13.083   3.376  1.00  0.00    -0.504 OA
ATOM     18  H   UNL     1     -35.980  13.860   3.229  1.00  0.00     0.293 HD
ENDBRANCH  13  17
BRANCH  15  19
ATOM     19  O   UNL     1     -35.660  10.696   1.909  1.00  0.00    -0.502 OA
ATOM     20  H   UNL     1     -35.756  10.152   2.758  1.00  0.00     0.293 HD
ENDBRANCH  15  19
BRANCH  16  21
ATOM     21  O   UNL     1     -33.797  10.001  -0.021  1.00  0.00    -0.504 OA
ATOM     22  H   UNL     1     -33.171   9.212   0.092  1.00  0.00     0.293 HD
ENDBRANCH  16  21
ENDBRANCH   1  11
BRANCH  10  23
ATOM     23  O   UNL     1     -32.164  14.916  -1.124  1.00  0.00    -0.500 OA
ATOM     24  H   UNL     1     -32.048  14.683  -2.104  1.00  0.00     0.294 HD
ENDBRANCH  10  23
BRANCH   5  25
ATOM     25  O   UNL     1     -25.891  15.442   3.424  1.00  0.00    -0.507 OA
ATOM     26  H   UNL     1     -25.207  16.185   3.515  1.00  0.00     0.293 HD
ENDBRANCH   5  25
BRANCH   7  27
ATOM     27  O   UNL     1     -27.479  17.216  -0.744  1.00  0.00    -0.507 OA
ATOM     28  H   UNL     1     -27.787  17.027  -1.687  1.00  0.00     0.293 HD
ENDBRANCH   7  27
TORSDOF 7
ENDMDL
MODEL 4
REMARK VINA RESULT:    -6.856      2.266      6.925
REMARK INTER + INTRA:          -8.806
REMARK INTER:                  -8.507
REMARK INTRA:                  -0.299
REMARK UNBOUND:                -0.346
REMARK SMILES Oc1cc(O)c2cc(O)c(-c3cc(O)c(O)c(O)c3)[o+]c2c1
REMARK SMILES IDX 10 1 20 2 21 3 22 4 2 5 3 6 4 7 6 8 7 9 8 10 11 11 12 12
REMARK SMILES IDX 13 13 19 14 15 15 17 16 14 17 16 19 18 21 9 23 1 25 5 27
REMARK H PARENT 14 18 16 20 18 22 9 24 1 26 5 28
REMARK Flexibility Score: inf
ROOT
ATOM      1  C   UNL     1     -31.112  13.195   0.845  1.00  0.00     0.402 A 
ATOM      2  O   UNL     1     -32.155  13.460   1.629  1.00  0.00    -0.202 OA
ATOM      3  C   UNL     1     -33.263  12.727   1.639  1.00  0.00     0.368 A 
ATOM      4  C   UNL     1     -34.308  13.088   2.495  1.00  0.00     0.162 A 
ATOM      5  C   UNL     1     -35.487  12.336   2.525  1.00  0.00     0.128 A 
ATOM      6  C   UNL     1     -35.622  11.222   1.693  1.00  0.00     0.093 A 
ATOM      7  C   UNL     1     -34.591  10.841   0.826  1.00  0.00     0.136 A 
ATOM      8  C   UNL     1     -33.391  11.598   0.794  1.00  0.00     0.125 A 
ATOM      9  C   UNL     1     -32.301  11.283  -0.033  1.00  0.00     0.078 A 
ATOM     10  C   UNL     1     -31.148  12.074  -0.005  1.00  0.00     0.223 A 
ENDROOT
BRANCH   1  11
ATOM     11  C   UNL     1     -29.936  14.092   0.918  1.00  0.00     0.091 A 
ATOM     12  C   UNL     1     -29.592  14.937  -0.151  1.00  0.00     0.068 A 
ATOM     13  C   UNL     1     -28.489  15.795  -0.056  1.00  0.00     0.162 A 
ATOM     14  C   UNL     1     -29.180  14.144   2.099  1.00  0.00     0.068 A 
ATOM     15  C   UNL     1     -27.725  15.823   1.124  1.00  0.00     0.200 A 
ATOM     16  C   UNL     1     -28.074  15.000   2.201  1.00  0.00     0.162 A 
BRANCH  13  17
ATOM     17  O   UNL     1     -28.152  16.625  -1.125  1.00  0.00    -0.504 OA
ATOM     18  H   UNL     1     -27.211  16.980  -1.245  1.00  0.00     0.293 HD
ENDBRANCH  13  17
BRANCH  15  19
ATOM     19  O   UNL     1     -26.619  16.666   1.242  1.00  0.00    -0.502 OA
ATOM     20  H   UNL     1     -26.199  17.119   0.439  1.00  0.00     0.293 HD
ENDBRANCH  15  19
BRANCH  16  21
ATOM     21  O   UNL     1     -27.318  15.036   3.371  1.00  0.00    -0.504 OA
ATOM     22  H   UNL     1     -27.748  14.948   4.284  1.00  0.00     0.293 HD
ENDBRANCH  16  21
ENDBRANCH   1  11
BRANCH  10  23
ATOM     23  O   UNL     1     -30.047  11.733  -0.788  1.00  0.00    -0.500 OA
ATOM     24  H   UNL     1     -29.353  11.064  -0.472  1.00  0.00     0.294 HD
ENDBRANCH  10  23
BRANCH   5  25
ATOM     25  O   UNL     1     -36.532  12.689   3.376  1.00  0.00    -0.507 OA
ATOM     26  H   UNL     1     -36.488  13.521   3.952  1.00  0.00     0.293 HD
ENDBRANCH   5  25
BRANCH   7  27
ATOM     27  O   UNL     1     -34.807   9.716   0.025  1.00  0.00    -0.507 OA
ATOM     28  H   UNL     1     -34.183   9.409  -0.707  1.00  0.00     0.293 HD
ENDBRANCH   7  27
TORSDOF 7
ENDMDL
MODEL 5
REMARK VINA RESULT:    -6.855      1.166      2.675
REMARK INTER + INTRA:          -8.805
REMARK INTER:                  -8.426
REMARK INTRA:                  -0.379
REMARK UNBOUND:                -0.346
REMARK SMILES Oc1cc(O)c2cc(O)c(-c3cc(O)c(O)c(O)c3)[o+]c2c1
REMARK SMILES IDX 10 1 20 2 21 3 22 4 2 5 3 6 4 7 6 8 7 9 8 10 11 11 12 12
REMARK SMILES IDX 13 13 19 14 15 15 17 16 14 17 16 19 18 21 9 23 1 25 5 27
REMARK H PARENT 14 18 16 20 18 22 9 24 1 26 5 28
REMARK Flexibility Score: inf
ROOT
ATOM      1  C   UNL     1     -32.151  12.527   0.819  1.00  0.00     0.402 A 
ATOM      2  O   UNL     1     -31.187  13.210   1.432  1.00  0.00    -0.202 OA
ATOM      3  C   UNL     1     -29.895  13.046   1.166  1.00  0.00     0.368 A 
ATOM      4  C   UNL     1     -28.955  13.807   1.866  1.00  0.00     0.162 A 
ATOM      5  C   UNL     1     -27.589  13.654   1.608  1.00  0.00     0.128 A 
ATOM      6  C   UNL     1     -27.163  12.733   0.647  1.00  0.00     0.093 A 
ATOM      7  C   UNL     1     -28.084  11.958  -0.067  1.00  0.00     0.136 A 
ATOM      8  C   UNL     1     -29.472  12.112   0.189  1.00  0.00     0.125 A 
ATOM      9  C   UNL     1     -30.467  11.388  -0.486  1.00  0.00     0.078 A 
ATOM     10  C   UNL     1     -31.816  11.598  -0.183  1.00  0.00     0.223 A 
ENDROOT
BRANCH   1  11
ATOM     11  C   UNL     1     -33.554  12.793   1.211  1.00  0.00     0.091 A 
ATOM     12  C   UNL     1     -34.309  13.803   0.589  1.00  0.00     0.068 A 
ATOM     13  C   UNL     1     -35.643  14.025   0.958  1.00  0.00     0.162 A 
ATOM     14  C   UNL     1     -34.164  11.984   2.182  1.00  0.00     0.068 A 
ATOM     15  C   UNL     1     -36.237  13.224   1.948  1.00  0.00     0.200 A 
ATOM     16  C   UNL     1     -35.498  12.202   2.556  1.00  0.00     0.162 A 
BRANCH  13  17
ATOM     17  O   UNL     1     -36.381  15.033   0.339  1.00  0.00    -0.504 OA
ATOM     18  H   UNL     1     -37.092  15.554   0.840  1.00  0.00     0.293 HD
ENDBRANCH  13  17
BRANCH  15  19
ATOM     19  O   UNL     1     -37.562  13.428   2.335  1.00  0.00    -0.502 OA
ATOM     20  H   UNL     1     -38.100  14.225   2.014  1.00  0.00     0.293 HD
ENDBRANCH  15  19
BRANCH  16  21
ATOM     21  O   UNL     1     -36.094  11.406   3.532  1.00  0.00    -0.504 OA
ATOM     22  H   UNL     1     -36.371  10.451   3.341  1.00  0.00     0.293 HD
ENDBRANCH  16  21
ENDBRANCH   1  11
BRANCH  10  23
ATOM     23  O   UNL     1     -32.806  10.916  -0.889  1.00  0.00    -0.500 OA
ATOM     24  H   UNL     1     -33.437  11.396  -1.520  1.00  0.00     0.294 HD
ENDBRANCH  10  23
BRANCH   5  25
ATOM     25  O   UNL     1     -26.646  14.410   2.300  1.00  0.00    -0.507 OA
ATOM     26  H   UNL     1     -26.546  15.406   2.141  1.00  0.00     0.293 HD
ENDBRANCH   5  25
BRANCH   7  27
ATOM     27  O   UNL     1     -27.575  11.058  -1.008  1.00  0.00    -0.507 OA
ATOM     28  H   UNL     1     -27.419  10.076  -0.831  1.00  0.00     0.293 HD
ENDBRANCH   7  27
TORSDOF 7
ENDMDL
MODEL 6
REMARK VINA RESULT:    -6.757      2.143      2.931
REMARK INTER + INTRA:          -8.684
REMARK INTER:                  -9.015
REMARK INTRA:                   0.332
REMARK UNBOUND:                -0.346
REMARK SMILES Oc1cc(O)c2cc(O)c(-c3cc(O)c(O)c(O)c3)[o+]c2c1
REMARK SMILES IDX 10 1 20 2 21 3 22 4 2 5 3 6 4 7 6 8 7 9 8 10 11 11 12 12
REMARK SMILES IDX 13 13 19 14 15 15 17 16 14 17 16 19 18 21 9 23 1 25 5 27
REMARK H PARENT 14 18 16 20 18 22 9 24 1 26 5 28
REMARK Flexibility Score: inf
ROOT
ATOM      1  C   UNL     1     -33.590  12.642   1.805  1.00  0.00     0.402 A 
ATOM      2  O   UNL     1     -32.689  11.968   1.096  1.00  0.00    -0.202 OA
ATOM      3  C   UNL     1     -31.508  12.471   0.752  1.00  0.00     0.368 A 
ATOM      4  C   UNL     1     -30.627  11.687   0.000  1.00  0.00     0.162 A 
ATOM      5  C   UNL     1     -29.379  12.192  -0.377  1.00  0.00     0.128 A 
ATOM      6  C   UNL     1     -29.012  13.487  -0.005  1.00  0.00     0.093 A 
ATOM      7  C   UNL     1     -29.876  14.294   0.747  1.00  0.00     0.136 A 
ATOM      8  C   UNL     1     -31.142  13.785   1.136  1.00  0.00     0.125 A 
ATOM      9  C   UNL     1     -32.067  14.515   1.899  1.00  0.00     0.078 A 
ATOM     10  C   UNL     1     -33.295  13.944   2.249  1.00  0.00     0.223 A 
ENDROOT
BRANCH   1  11
ATOM     11  C   UNL     1     -34.875  11.976   2.118  1.00  0.00     0.091 A 
ATOM     12  C   UNL     1     -35.971  12.698   2.623  1.00  0.00     0.068 A 
ATOM     13  C   UNL     1     -37.186  12.054   2.892  1.00  0.00     0.162 A 
ATOM     14  C   UNL     1     -35.025  10.606   1.852  1.00  0.00     0.068 A 
ATOM     15  C   UNL     1     -37.318  10.676   2.643  1.00  0.00     0.200 A 
ATOM     16  C   UNL     1     -36.238   9.956   2.120  1.00  0.00     0.162 A 
BRANCH  13  17
ATOM     17  O   UNL     1     -38.265  12.778   3.399  1.00  0.00    -0.504 OA
ATOM     18  H   UNL     1     -38.966  13.182   2.789  1.00  0.00     0.293 HD
ENDBRANCH  13  17
BRANCH  15  19
ATOM     19  O   UNL     1     -38.516  10.012   2.906  1.00  0.00    -0.502 OA
ATOM     20  H   UNL     1     -38.608   9.008   2.810  1.00  0.00     0.293 HD
ENDBRANCH  15  19
BRANCH  16  21
ATOM     21  O   UNL     1     -36.375   8.592   1.868  1.00  0.00    -0.504 OA
ATOM     22  H   UNL     1     -35.628   7.938   2.068  1.00  0.00     0.293 HD
ENDBRANCH  16  21
ENDBRANCH   1  11
BRANCH  10  23
ATOM     23  O   UNL     1     -34.191  14.651   3.049  1.00  0.00    -0.500 OA
ATOM     24  H   UNL     1     -33.877  15.235   3.816  1.00  0.00     0.294 HD
ENDBRANCH  10  23
BRANCH   5  25
ATOM     25  O   UNL     1     -28.497  11.416  -1.125  1.00  0.00    -0.507 OA
ATOM     26  H   UNL     1     -27.493  11.476  -0.989  1.00  0.00     0.293 HD
ENDBRANCH   5  25
BRANCH   7  27
ATOM     27  O   UNL     1     -29.434  15.578   1.075  1.00  0.00    -0.507 OA
ATOM     28  H   UNL     1     -29.518  15.993   1.993  1.00  0.00     0.293 HD
ENDBRANCH   7  27
TORSDOF 7
ENDMDL
MODEL 7
REMARK VINA RESULT:    -6.715      7.463     11.387
REMARK INTER + INTRA:          -8.632
REMARK INTER:                  -8.280
REMARK INTRA:                  -0.352
REMARK UNBOUND:                -0.346
REMARK SMILES Oc1cc(O)c2cc(O)c(-c3cc(O)c(O)c(O)c3)[o+]c2c1
REMARK SMILES IDX 10 1 20 2 21 3 22 4 2 5 3 6 4 7 6 8 7 9 8 10 11 11 12 12
REMARK SMILES IDX 13 13 19 14 15 15 17 16 14 17 16 19 18 21 9 23 1 25 5 27
REMARK H PARENT 14 18 16 20 18 22 9 24 1 26 5 28
REMARK Flexibility Score: inf
ROOT
ATOM      1  C   UNL     1     -40.298   9.600   6.513  1.00  0.00     0.402 A 
ATOM      2  O   UNL     1     -39.352  10.321   5.916  1.00  0.00    -0.202 OA
ATOM      3  C   UNL     1     -38.982  10.135   4.653  1.00  0.00     0.368 A 
ATOM      4  C   UNL     1     -37.976  10.940   4.113  1.00  0.00     0.162 A 
ATOM      5  C   UNL     1     -37.565  10.764   2.788  1.00  0.00     0.128 A 
ATOM      6  C   UNL     1     -38.162   9.777   2.001  1.00  0.00     0.093 A 
ATOM      7  C   UNL     1     -39.172   8.956   2.518  1.00  0.00     0.136 A 
ATOM      8  C   UNL     1     -39.595   9.132   3.861  1.00  0.00     0.125 A 
ATOM      9  C   UNL     1     -40.607   8.366   4.460  1.00  0.00     0.078 A 
ATOM     10  C   UNL     1     -40.974   8.602   5.788  1.00  0.00     0.223 A 
ENDROOT
BRANCH   1  11
ATOM     11  C   UNL     1     -40.615   9.898   7.929  1.00  0.00     0.091 A 
ATOM     12  C   UNL     1     -39.809   9.416   8.976  1.00  0.00     0.068 A 
ATOM     13  C   UNL     1     -40.112   9.726  10.309  1.00  0.00     0.162 A 
ATOM     14  C   UNL     1     -41.707  10.724   8.233  1.00  0.00     0.068 A 
ATOM     15  C   UNL     1     -41.222  10.537  10.604  1.00  0.00     0.200 A 
ATOM     16  C   UNL     1     -42.015  11.037   9.564  1.00  0.00     0.162 A 
BRANCH  13  17
ATOM     17  O   UNL     1     -39.311   9.238  11.341  1.00  0.00    -0.504 OA
ATOM     18  H   UNL     1     -38.601   8.534  11.174  1.00  0.00     0.293 HD
ENDBRANCH  13  17
BRANCH  15  19
ATOM     19  O   UNL     1     -41.546  10.856  11.922  1.00  0.00    -0.502 OA
ATOM     20  H   UNL     1     -41.252  11.724  12.355  1.00  0.00     0.293 HD
ENDBRANCH  15  19
BRANCH  16  21
ATOM     21  O   UNL     1     -43.111  11.846   9.861  1.00  0.00    -0.504 OA
ATOM     22  H   UNL     1     -43.643  12.307   9.132  1.00  0.00     0.293 HD
ENDBRANCH  16  21
ENDBRANCH   1  11
BRANCH  10  23
ATOM     23  O   UNL     1     -42.014   7.875   6.367  1.00  0.00    -0.500 OA
ATOM     24  H   UNL     1     -42.494   7.138   5.863  1.00  0.00     0.294 HD
ENDBRANCH  10  23
BRANCH   5  25
ATOM     25  O   UNL     1     -36.563  11.564   2.243  1.00  0.00    -0.507 OA
ATOM     26  H   UNL     1     -35.843  11.979   2.824  1.00  0.00     0.293 HD
ENDBRANCH   5  25
BRANCH   7  27
ATOM     27  O   UNL     1     -39.715   7.990   1.666  1.00  0.00    -0.507 OA
ATOM     28  H   UNL     1     -39.169   7.350   1.107  1.00  0.00     0.293 HD
ENDBRANCH   7  27
TORSDOF 7
ENDMDL
MODEL 8
REMARK VINA RESULT:    -6.690      2.292      6.768
REMARK INTER + INTRA:          -8.601
REMARK INTER:                  -8.605
REMARK INTRA:                   0.004
REMARK UNBOUND:                -0.346
REMARK SMILES Oc1cc(O)c2cc(O)c(-c3cc(O)c(O)c(O)c3)[o+]c2c1
REMARK SMILES IDX 10 1 20 2 21 3 22 4 2 5 3 6 4 7 6 8 7 9 8 10 11 11 12 12
REMARK SMILES IDX 13 13 19 14 15 15 17 16 14 17 16 19 18 21 9 23 1 25 5 27
REMARK H PARENT 14 18 16 20 18 22 9 24 1 26 5 28
REMARK Flexibility Score: inf
ROOT
ATOM      1  C   UNL     1     -32.831  13.156   1.328  1.00  0.00     0.402 A 
ATOM      2  O   UNL     1     -33.297  11.922   1.151  1.00  0.00    -0.202 OA
ATOM      3  C   UNL     1     -34.492  11.526   1.577  1.00  0.00     0.368 A 
ATOM      4  C   UNL     1     -34.892  10.206   1.348  1.00  0.00     0.162 A 
ATOM      5  C   UNL     1     -36.143   9.762   1.787  1.00  0.00     0.128 A 
ATOM      6  C   UNL     1     -36.995  10.640   2.461  1.00  0.00     0.093 A 
ATOM      7  C   UNL     1     -36.618  11.966   2.704  1.00  0.00     0.136 A 
ATOM      8  C   UNL     1     -35.350  12.423   2.257  1.00  0.00     0.125 A 
ATOM      9  C   UNL     1     -34.893  13.737   2.445  1.00  0.00     0.078 A 
ATOM     10  C   UNL     1     -33.633  14.116   1.971  1.00  0.00     0.223 A 
ENDROOT
BRANCH   1  11
ATOM     11  C   UNL     1     -31.479  13.473   0.815  1.00  0.00     0.091 A 
ATOM     12  C   UNL     1     -31.233  14.642   0.074  1.00  0.00     0.068 A 
ATOM     13  C   UNL     1     -29.941  14.937  -0.384  1.00  0.00     0.162 A 
ATOM     14  C   UNL     1     -30.407  12.622   1.122  1.00  0.00     0.068 A 
ATOM     15  C   UNL     1     -28.879  14.065  -0.090  1.00  0.00     0.200 A 
ATOM     16  C   UNL     1     -29.113  12.911   0.666  1.00  0.00     0.162 A 
BRANCH  13  17
ATOM     17  O   UNL     1     -29.709  16.096  -1.125  1.00  0.00    -0.504 OA
ATOM     18  H   UNL     1     -30.241  16.307  -1.961  1.00  0.00     0.293 HD
ENDBRANCH  13  17
BRANCH  15  19
ATOM     19  O   UNL     1     -27.585  14.335  -0.538  1.00  0.00    -0.502 OA
ATOM     20  H   UNL     1     -27.261  14.046  -1.454  1.00  0.00     0.293 HD
ENDBRANCH  15  19
BRANCH  16  21
ATOM     21  O   UNL     1     -28.055  12.053   0.961  1.00  0.00    -0.504 OA
ATOM     22  H   UNL     1     -28.018  11.537   1.833  1.00  0.00     0.293 HD
ENDBRANCH  16  21
ENDBRANCH   1  11
BRANCH  10  23
ATOM     23  O   UNL     1     -33.200  15.434   2.113  1.00  0.00    -0.500 OA
ATOM     24  H   UNL     1     -33.844  16.187   2.326  1.00  0.00     0.294 HD
ENDBRANCH  10  23
BRANCH   5  25
ATOM     25  O   UNL     1     -36.550   8.449   1.561  1.00  0.00    -0.507 OA
ATOM     26  H   UNL     1     -37.475   8.234   1.208  1.00  0.00     0.293 HD
ENDBRANCH   5  25
BRANCH   7  27
ATOM     27  O   UNL     1     -37.526  12.779   3.387  1.00  0.00    -0.507 OA
ATOM     28  H   UNL     1     -37.663  13.763   3.202  1.00  0.00     0.293 HD
ENDBRANCH   7  27
TORSDOF 7
ENDMDL
