MODEL 1
REMARK VINA RESULT:    -5.839      0.000      0.000
REMARK INTER + INTRA:         -14.546
REMARK INTER:                 -13.349
REMARK INTRA:                  -1.197
REMARK UNBOUND:                -1.197
REMARK SMILES CCCCCCCCCCCCCCCCCCCCCCCC(=O)[O-]
REMARK SMILES IDX 13 1 14 2 15 3 16 4 17 5 18 6 19 7 20 8 21 9 22 10 23 11
REMARK SMILES IDX 24 12 25 13 26 14 12 15 11 16 10 17 9 18 8 19 7 20 6 21 5 22
REMARK SMILES IDX 4 23 3 24 2 25 1 26
REMARK H PARENT
REMARK Flexibility Score: inf
ROOT
ATOM      1  C   UNL     1      23.008 -17.730  19.119  1.00  0.00     0.000 C 
ENDROOT
BRANCH   1   2
ATOM      2  C   UNL     1      23.299 -16.633  20.156  1.00  0.00     0.000 C 
BRANCH   2   3
ATOM      3  C   UNL     1      22.960 -15.199  19.701  1.00  0.00     0.000 C 
BRANCH   3   4
ATOM      4  C   UNL     1      22.570 -14.252  20.857  1.00  0.00     0.000 C 
BRANCH   4   5
ATOM      5  C   UNL     1      21.322 -13.413  20.532  1.00  0.00     0.000 C 
BRANCH   5   6
ATOM      6  C   UNL     1      21.003 -12.384  21.630  1.00  0.00     0.000 C 
BRANCH   6   7
ATOM      7  C   UNL     1      22.224 -11.531  22.009  1.00  0.00     0.000 C 
BRANCH   7   8
ATOM      8  C   UNL     1      21.819 -10.368  22.923  1.00  0.00     0.000 C 
BRANCH   8   9
ATOM      9  C   UNL     1      20.727 -10.801  23.914  1.00  0.00     0.000 C 
BRANCH   9  10
ATOM     10  C   UNL     1      20.589  -9.838  25.103  1.00  0.00     0.006 C 
BRANCH  10  11
ATOM     11  C   UNL     1      21.303  -8.498  24.868  1.00  0.00     0.053 C 
BRANCH  11  12
ATOM     12  C   UNL     1      20.320  -7.375  24.735  1.00  0.00     0.041 C 
ATOM     13  O   UNL     1      19.485  -7.147  25.652  1.00  0.00    -0.550 OA
ATOM     14  O   UNL     1      20.294  -6.609  23.575  1.00  0.00    -0.550 OA
ENDBRANCH  11  12
ENDBRANCH  10  11
ENDBRANCH   9  10
ENDBRANCH   8   9
ENDBRANCH   7   8
ENDBRANCH   6   7
ENDBRANCH   5   6
ENDBRANCH   4   5
ENDBRANCH   3   4
ENDBRANCH   2   3
ENDBRANCH   1   2
BRANCH   1  15
ATOM     15  C   UNL     1      23.011 -17.197  17.675  1.00  0.00     0.000 C 
BRANCH  15  16
ATOM     16  C   UNL     1      22.715 -18.295  16.640  1.00  0.00     0.000 C 
BRANCH  16  17
ATOM     17  C   UNL     1      22.412 -19.654  17.295  1.00  0.00     0.000 C 
BRANCH  17  18
ATOM     18  C   UNL     1      21.215 -20.375  16.651  1.00  0.00    -0.000 C 
BRANCH  18  19
ATOM     19  C   UNL     1      20.034 -20.663  17.600  1.00  0.00    -0.000 C 
BRANCH  19  20
ATOM     20  C   UNL     1      18.781 -21.255  16.924  1.00  0.00    -0.000 C 
BRANCH  20  21
ATOM     21  C   UNL     1      18.996 -22.616  16.234  1.00  0.00    -0.000 C 
BRANCH  21  22
ATOM     22  C   UNL     1      18.326 -22.755  14.852  1.00  0.00    -0.000 C 
BRANCH  22  23
ATOM     23  C   UNL     1      18.810 -21.747  13.788  1.00  0.00    -0.000 C 
BRANCH  23  24
ATOM     24  C   UNL     1      17.933 -21.664  12.525  1.00  0.00    -0.000 C 
BRANCH  24  25
ATOM     25  C   UNL     1      18.729 -21.265  11.273  1.00  0.00    -0.003 C 
ATOM     26  C   UNL     1      17.903 -21.473  10.007  1.00  0.00     0.004 C 
ENDBRANCH  24  25
ENDBRANCH  23  24
ENDBRANCH  22  23
ENDBRANCH  21  22
ENDBRANCH  20  21
ENDBRANCH  19  20
ENDBRANCH  18  19
ENDBRANCH  17  18
ENDBRANCH  16  17
ENDBRANCH  15  16
ENDBRANCH   1  15
TORSDOF 22
ENDMDL
MODEL 2
REMARK VINA RESULT:    -5.744      1.269      2.373
REMARK INTER + INTRA:         -14.329
REMARK INTER:                 -12.822
REMARK INTRA:                  -1.507
REMARK UNBOUND:                -1.197
REMARK SMILES CCCCCCCCCCCCCCCCCCCCCCCC(=O)[O-]
REMARK SMILES IDX 13 1 14 2 15 3 16 4 17 5 18 6 19 7 20 8 21 9 22 10 23 11
REMARK SMILES IDX 24 12 25 13 26 14 12 15 11 16 10 17 9 18 8 19 7 20 6 21 5 22
REMARK SMILES IDX 4 23 3 24 2 25 1 26
REMARK H PARENT
REMARK Flexibility Score: inf
ROOT
ATOM      1  C   UNL     1      22.976 -15.867  19.554  1.00  0.00     0.000 C 
ENDROOT
BRANCH   1   2
ATOM      2  C   UNL     1      22.749 -14.603  20.399  1.00  0.00     0.000 C 
BRANCH   2   3
ATOM      3  C   UNL     1      21.459 -13.823  20.074  1.00  0.00     0.000 C 
BRANCH   3   4
ATOM      4  C   UNL     1      21.051 -12.807  21.162  1.00  0.00     0.000 C 
BRANCH   4   5
ATOM      5  C   UNL     1      22.266 -12.096  21.786  1.00  0.00     0.000 C 
BRANCH   5   6
ATOM      6  C   UNL     1      21.873 -10.817  22.544  1.00  0.00     0.000 C 
BRANCH   6   7
ATOM      7  C   UNL     1      20.648 -11.021  23.448  1.00  0.00     0.000 C 
BRANCH   7   8
ATOM      8  C   UNL     1      20.643 -10.013  24.604  1.00  0.00     0.000 C 
BRANCH   8   9
ATOM      9  C   UNL     1      21.245  -8.670  24.164  1.00  0.00     0.000 C 
BRANCH   9  10
ATOM     10  C   UNL     1      21.656  -7.786  25.352  1.00  0.00     0.006 C 
BRANCH  10  11
ATOM     11  C   UNL     1      20.464  -7.047  25.982  1.00  0.00     0.053 C 
BRANCH  11  12
ATOM     12  C   UNL     1      19.940  -5.983  25.067  1.00  0.00     0.041 C 
ATOM     13  O   UNL     1      18.761  -6.047  24.624  1.00  0.00    -0.550 OA
ATOM     14  O   UNL     1      20.770  -4.944  24.663  1.00  0.00    -0.550 OA
ENDBRANCH  11  12
ENDBRANCH  10  11
ENDBRANCH   9  10
ENDBRANCH   8   9
ENDBRANCH   7   8
ENDBRANCH   6   7
ENDBRANCH   5   6
ENDBRANCH   4   5
ENDBRANCH   3   4
ENDBRANCH   2   3
ENDBRANCH   1   2
BRANCH   1  15
ATOM     15  C   UNL     1      22.800 -15.612  18.046  1.00  0.00     0.000 C 
BRANCH  15  16
ATOM     16  C   UNL     1      22.994 -16.885  17.206  1.00  0.00     0.000 C 
BRANCH  16  17
ATOM     17  C   UNL     1      23.571 -18.050  18.028  1.00  0.00     0.000 C 
BRANCH  17  18
ATOM     18  C   UNL     1      23.215 -19.429  17.444  1.00  0.00    -0.000 C 
BRANCH  18  19
ATOM     19  C   UNL     1      21.937 -19.467  16.582  1.00  0.00    -0.000 C 
BRANCH  19  20
ATOM     20  C   UNL     1      21.061 -20.723  16.765  1.00  0.00    -0.000 C 
BRANCH  20  21
ATOM     21  C   UNL     1      19.943 -20.588  17.816  1.00  0.00    -0.000 C 
BRANCH  21  22
ATOM     22  C   UNL     1      18.667 -21.400  17.514  1.00  0.00    -0.000 C 
BRANCH  22  23
ATOM     23  C   UNL     1      18.900 -22.729  16.768  1.00  0.00    -0.000 C 
BRANCH  23  24
ATOM     24  C   UNL     1      18.100 -22.892  15.462  1.00  0.00    -0.000 C 
BRANCH  24  25
ATOM     25  C   UNL     1      18.968 -22.725  14.206  1.00  0.00    -0.003 C 
ATOM     26  C   UNL     1      18.916 -21.289  13.690  1.00  0.00     0.004 C 
ENDBRANCH  24  25
ENDBRANCH  23  24
ENDBRANCH  22  23
ENDBRANCH  21  22
ENDBRANCH  20  21
ENDBRANCH  19  20
ENDBRANCH  18  19
ENDBRANCH  17  18
ENDBRANCH  16  17
ENDBRANCH  15  16
ENDBRANCH   1  15
TORSDOF 22
ENDMDL
MODEL 3
REMARK VINA RESULT:    -5.726      5.183     14.035
REMARK INTER + INTRA:         -14.286
REMARK INTER:                 -12.777
REMARK INTRA:                  -1.509
REMARK UNBOUND:                -1.197
REMARK SMILES CCCCCCCCCCCCCCCCCCCCCCCC(=O)[O-]
REMARK SMILES IDX 13 1 14 2 15 3 16 4 17 5 18 6 19 7 20 8 21 9 22 10 23 11
REMARK SMILES IDX 24 12 25 13 26 14 12 15 11 16 10 17 9 18 8 19 7 20 6 21 5 22
REMARK SMILES IDX 4 23 3 24 2 25 1 26
REMARK H PARENT
REMARK Flexibility Score: inf
ROOT
ATOM      1  C   UNL     1      21.046 -12.822  21.243  1.00  0.00     0.000 C 
ENDROOT
BRANCH   1   2
ATOM      2  C   UNL     1      21.336 -13.720  20.030  1.00  0.00     0.000 C 
BRANCH   2   3
ATOM      3  C   UNL     1      22.620 -14.567  20.136  1.00  0.00     0.000 C 
BRANCH   3   4
ATOM      4  C   UNL     1      22.719 -15.690  19.081  1.00  0.00     0.000 C 
BRANCH   4   5
ATOM      5  C   UNL     1      23.324 -16.983  19.655  1.00  0.00     0.000 C 
BRANCH   5   6
ATOM      6  C   UNL     1      23.426 -18.101  18.604  1.00  0.00     0.000 C 
BRANCH   6   7
ATOM      7  C   UNL     1      22.943 -17.651  17.217  1.00  0.00     0.000 C 
BRANCH   7   8
ATOM      8  C   UNL     1      22.319 -18.821  16.446  1.00  0.00     0.000 C 
BRANCH   8   9
ATOM      9  C   UNL     1      21.772 -19.885  17.410  1.00  0.00     0.000 C 
BRANCH   9  10
ATOM     10  C   UNL     1      21.039 -21.024  16.683  1.00  0.00     0.006 C 
BRANCH  10  11
ATOM     11  C   UNL     1      19.510 -20.879  16.744  1.00  0.00     0.053 C 
BRANCH  11  12
ATOM     12  C   UNL     1      18.858 -21.492  15.541  1.00  0.00     0.041 C 
ATOM     13  O   UNL     1      19.530 -21.722  14.499  1.00  0.00    -0.550 OA
ATOM     14  O   UNL     1      17.495 -21.763  15.554  1.00  0.00    -0.550 OA
ENDBRANCH  11  12
ENDBRANCH  10  11
ENDBRANCH   9  10
ENDBRANCH   8   9
ENDBRANCH   7   8
ENDBRANCH   6   7
ENDBRANCH   5   6
ENDBRANCH   4   5
ENDBRANCH   3   4
ENDBRANCH   2   3
ENDBRANCH   1   2
BRANCH   1  15
ATOM     15  C   UNL     1      22.264 -11.979  21.662  1.00  0.00     0.000 C 
BRANCH  15  16
ATOM     16  C   UNL     1      21.881 -10.801  22.572  1.00  0.00     0.000 C 
BRANCH  16  17
ATOM     17  C   UNL     1      20.699 -11.133  23.499  1.00  0.00     0.000 C 
BRANCH  17  18
ATOM     18  C   UNL     1      20.586 -10.169  24.694  1.00  0.00    -0.000 C 
BRANCH  18  19
ATOM     19  C   UNL     1      20.873  -8.688  24.372  1.00  0.00    -0.000 C 
BRANCH  19  20
ATOM     20  C   UNL     1      21.216  -7.809  25.592  1.00  0.00    -0.000 C 
BRANCH  20  21
ATOM     21  C   UNL     1      22.518  -6.996  25.460  1.00  0.00    -0.000 C 
BRANCH  21  22
ATOM     22  C   UNL     1      22.353  -5.473  25.639  1.00  0.00    -0.000 C 
BRANCH  22  23
ATOM     23  C   UNL     1      20.925  -4.940  25.404  1.00  0.00    -0.000 C 
BRANCH  23  24
ATOM     24  C   UNL     1      20.580  -4.626  23.935  1.00  0.00    -0.000 C 
BRANCH  24  25
ATOM     25  C   UNL     1      19.316  -5.351  23.452  1.00  0.00    -0.003 C 
ATOM     26  C   UNL     1      18.328  -5.556  24.597  1.00  0.00     0.004 C 
ENDBRANCH  24  25
ENDBRANCH  23  24
ENDBRANCH  22  23
ENDBRANCH  21  22
ENDBRANCH  20  21
ENDBRANCH  19  20
ENDBRANCH  18  19
ENDBRANCH  17  18
ENDBRANCH  16  17
ENDBRANCH  15  16
ENDBRANCH   1  15
TORSDOF 22
ENDMDL
MODEL 4
REMARK VINA RESULT:    -5.705      5.706     13.830
REMARK INTER + INTRA:         -14.240
REMARK INTER:                 -13.017
REMARK INTRA:                  -1.223
REMARK UNBOUND:                -1.197
REMARK SMILES CCCCCCCCCCCCCCCCCCCCCCCC(=O)[O-]
REMARK SMILES IDX 13 1 14 2 15 3 16 4 17 5 18 6 19 7 20 8 21 9 22 10 23 11
REMARK SMILES IDX 24 12 25 13 26 14 12 15 11 16 10 17 9 18 8 19 7 20 6 21 5 22
REMARK SMILES IDX 4 23 3 24 2 25 1 26
REMARK H PARENT
REMARK Flexibility Score: inf
ROOT
ATOM      1  C   UNL     1      22.659 -15.245  18.392  1.00  0.00     0.000 C 
ENDROOT
BRANCH   1   2
ATOM      2  C   UNL     1      22.774 -16.071  17.099  1.00  0.00     0.000 C 
BRANCH   2   3
ATOM      3  C   UNL     1      23.377 -17.480  17.276  1.00  0.00     0.000 C 
BRANCH   3   4
ATOM      4  C   UNL     1      22.536 -18.605  16.635  1.00  0.00     0.000 C 
BRANCH   4   5
ATOM      5  C   UNL     1      21.872 -19.512  17.685  1.00  0.00     0.000 C 
BRANCH   5   6
ATOM      6  C   UNL     1      21.322 -20.812  17.075  1.00  0.00     0.000 C 
BRANCH   6   7
ATOM      7  C   UNL     1      19.942 -21.187  17.635  1.00  0.00     0.000 C 
BRANCH   7   8
ATOM      8  C   UNL     1      18.864 -21.097  16.548  1.00  0.00     0.000 C 
BRANCH   8   9
ATOM      9  C   UNL     1      19.476 -21.285  15.151  1.00  0.00     0.000 C 
BRANCH   9  10
ATOM     10  C   UNL     1      18.412 -21.460  14.056  1.00  0.00     0.006 C 
BRANCH  10  11
ATOM     11  C   UNL     1      18.775 -20.731  12.753  1.00  0.00     0.053 C 
BRANCH  11  12
ATOM     12  C   UNL     1      18.527 -21.598  11.557  1.00  0.00     0.041 C 
ATOM     13  O   UNL     1      19.413 -22.400  11.155  1.00  0.00    -0.550 OA
ATOM     14  O   UNL     1      17.333 -21.486  10.854  1.00  0.00    -0.550 OA
ENDBRANCH  11  12
ENDBRANCH  10  11
ENDBRANCH   9  10
ENDBRANCH   8   9
ENDBRANCH   7   8
ENDBRANCH   6   7
ENDBRANCH   5   6
ENDBRANCH   4   5
ENDBRANCH   3   4
ENDBRANCH   2   3
ENDBRANCH   1   2
BRANCH   1  15
ATOM     15  C   UNL     1      23.011 -16.060  19.649  1.00  0.00     0.000 C 
BRANCH  15  16
ATOM     16  C   UNL     1      23.048 -15.197  20.921  1.00  0.00     0.000 C 
BRANCH  16  17
ATOM     17  C   UNL     1      22.339 -13.844  20.734  1.00  0.00     0.000 C 
BRANCH  17  18
ATOM     18  C   UNL     1      22.950 -12.724  21.596  1.00  0.00    -0.000 C 
BRANCH  18  19
ATOM     19  C   UNL     1      22.084 -11.455  21.732  1.00  0.00    -0.000 C 
BRANCH  19  20
ATOM     20  C   UNL     1      20.992 -11.522  22.818  1.00  0.00    -0.000 C 
BRANCH  20  21
ATOM     21  C   UNL     1      21.016 -10.366  23.836  1.00  0.00    -0.000 C 
BRANCH  21  22
ATOM     22  C   UNL     1      21.698  -9.076  23.336  1.00  0.00    -0.000 C 
BRANCH  22  23
ATOM     23  C   UNL     1      21.757  -7.928  24.365  1.00  0.00    -0.000 C 
BRANCH  23  24
ATOM     24  C   UNL     1      20.836  -8.102  25.587  1.00  0.00    -0.000 C 
BRANCH  24  25
ATOM     25  C   UNL     1      21.240  -7.209  26.770  1.00  0.00    -0.003 C 
ATOM     26  C   UNL     1      22.726  -6.865  26.716  1.00  0.00     0.004 C 
ENDBRANCH  24  25
ENDBRANCH  23  24
ENDBRANCH  22  23
ENDBRANCH  21  22
ENDBRANCH  20  21
ENDBRANCH  19  20
ENDBRANCH  18  19
ENDBRANCH  17  18
ENDBRANCH  16  17
ENDBRANCH  15  16
ENDBRANCH   1  15
TORSDOF 22
ENDMDL
MODEL 5
REMARK VINA RESULT:    -5.458      3.707      8.632
REMARK INTER + INTRA:         -13.674
REMARK INTER:                 -12.679
REMARK INTRA:                  -0.995
REMARK UNBOUND:                -1.197
REMARK SMILES CCCCCCCCCCCCCCCCCCCCCCCC(=O)[O-]
REMARK SMILES IDX 13 1 14 2 15 3 16 4 17 5 18 6 19 7 20 8 21 9 22 10 23 11
REMARK SMILES IDX 24 12 25 13 26 14 12 15 11 16 10 17 9 18 8 19 7 20 6 21 5 22
REMARK SMILES IDX 4 23 3 24 2 25 1 26
REMARK H PARENT
REMARK Flexibility Score: inf
ROOT
ATOM      1  C   UNL     1      20.561  -9.404  24.903  1.00  0.00     0.000 C 
ENDROOT
BRANCH   1   2
ATOM      2  C   UNL     1      21.102  -8.119  25.552  1.00  0.00     0.000 C 
BRANCH   2   3
ATOM      3  C   UNL     1      21.413  -6.972  24.568  1.00  0.00     0.000 C 
BRANCH   3   4
ATOM      4  C   UNL     1      20.166  -6.402  23.858  1.00  0.00     0.000 C 
BRANCH   4   5
ATOM      5  C   UNL     1      19.657  -5.107  24.515  1.00  0.00     0.000 C 
BRANCH   5   6
ATOM      6  C   UNL     1      18.121  -5.031  24.553  1.00  0.00     0.000 C 
BRANCH   6   7
ATOM      7  C   UNL     1      17.585  -3.694  24.020  1.00  0.00     0.000 C 
BRANCH   7   8
ATOM      8  C   UNL     1      16.296  -3.289  24.747  1.00  0.00     0.000 C 
BRANCH   8   9
ATOM      9  C   UNL     1      15.082  -4.032  24.167  1.00  0.00     0.000 C 
BRANCH   9  10
ATOM     10  C   UNL     1      14.383  -4.925  25.204  1.00  0.00     0.006 C 
BRANCH  10  11
ATOM     11  C   UNL     1      14.718  -4.529  26.650  1.00  0.00     0.053 C 
BRANCH  11  12
ATOM     12  C   UNL     1      13.826  -5.233  27.627  1.00  0.00     0.041 C 
ATOM     13  O   UNL     1      14.131  -6.378  28.059  1.00  0.00    -0.550 OA
ATOM     14  O   UNL     1      12.630  -4.645  28.023  1.00  0.00    -0.550 OA
ENDBRANCH  11  12
ENDBRANCH  10  11
ENDBRANCH   9  10
ENDBRANCH   8   9
ENDBRANCH   7   8
ENDBRANCH   6   7
ENDBRANCH   5   6
ENDBRANCH   4   5
ENDBRANCH   3   4
ENDBRANCH   2   3
ENDBRANCH   1   2
BRANCH   1  15
ATOM     15  C   UNL     1      21.349  -9.811  23.645  1.00  0.00     0.000 C 
BRANCH  15  16
ATOM     16  C   UNL     1      20.935 -11.191  23.110  1.00  0.00     0.000 C 
BRANCH  16  17
ATOM     17  C   UNL     1      21.887 -11.708  22.018  1.00  0.00     0.000 C 
BRANCH  17  18
ATOM     18  C   UNL     1      21.272 -12.839  21.174  1.00  0.00    -0.000 C 
BRANCH  18  19
ATOM     19  C   UNL     1      22.269 -13.909  20.684  1.00  0.00    -0.000 C 
BRANCH  19  20
ATOM     20  C   UNL     1      21.941 -14.529  19.310  1.00  0.00    -0.000 C 
BRANCH  20  21
ATOM     21  C   UNL     1      22.900 -15.645  18.855  1.00  0.00    -0.000 C 
BRANCH  21  22
ATOM     22  C   UNL     1      22.823 -15.995  17.355  1.00  0.00    -0.000 C 
BRANCH  22  23
ATOM     23  C   UNL     1      23.155 -17.461  17.010  1.00  0.00    -0.000 C 
BRANCH  23  24
ATOM     24  C   UNL     1      22.998 -18.456  18.174  1.00  0.00    -0.000 C 
BRANCH  24  25
ATOM     25  C   UNL     1      21.884 -19.486  17.931  1.00  0.00    -0.003 C 
ATOM     26  C   UNL     1      21.730 -19.787  16.443  1.00  0.00     0.004 C 
ENDBRANCH  24  25
ENDBRANCH  23  24
ENDBRANCH  22  23
ENDBRANCH  21  22
ENDBRANCH  20  21
ENDBRANCH  19  20
ENDBRANCH  18  19
ENDBRANCH  17  18
ENDBRANCH  16  17
ENDBRANCH  15  16
ENDBRANCH   1  15
TORSDOF 22
ENDMDL
MODEL 6
REMARK VINA RESULT:    -5.408      2.109      5.084
REMARK INTER + INTRA:         -13.560
REMARK INTER:                 -12.319
REMARK INTRA:                  -1.241
REMARK UNBOUND:                -1.197
REMARK SMILES CCCCCCCCCCCCCCCCCCCCCCCC(=O)[O-]
REMARK SMILES IDX 13 1 14 2 15 3 16 4 17 5 18 6 19 7 20 8 21 9 22 10 23 11
REMARK SMILES IDX 24 12 25 13 26 14 12 15 11 16 10 17 9 18 8 19 7 20 6 21 5 22
REMARK SMILES IDX 4 23 3 24 2 25 1 26
REMARK H PARENT
REMARK Flexibility Score: inf
ROOT
ATOM      1  C   UNL     1      23.121 -12.829  21.657  1.00  0.00     0.000 C 
ENDROOT
BRANCH   1   2
ATOM      2  C   UNL     1      22.491 -11.451  21.919  1.00  0.00     0.000 C 
BRANCH   2   3
ATOM      3  C   UNL     1      21.148 -11.481  22.677  1.00  0.00     0.000 C 
BRANCH   3   4
ATOM      4  C   UNL     1      20.966 -10.315  23.672  1.00  0.00     0.000 C 
BRANCH   4   5
ATOM      5  C   UNL     1      21.873  -9.116  23.344  1.00  0.00     0.000 C 
BRANCH   5   6
ATOM      6  C   UNL     1      21.701  -7.958  24.342  1.00  0.00     0.000 C 
BRANCH   6   7
ATOM      7  C   UNL     1      20.463  -8.130  25.235  1.00  0.00     0.000 C 
BRANCH   7   8
ATOM      8  C   UNL     1      19.596  -6.864  25.224  1.00  0.00     0.000 C 
BRANCH   8   9
ATOM      9  C   UNL     1      20.165  -5.817  24.253  1.00  0.00     0.000 C 
BRANCH   9  10
ATOM     10  C   UNL     1      19.502  -4.440  24.410  1.00  0.00     0.006 C 
BRANCH  10  11
ATOM     11  C   UNL     1      18.503  -4.130  23.285  1.00  0.00     0.053 C 
BRANCH  11  12
ATOM     12  C   UNL     1      17.117  -3.943  23.825  1.00  0.00     0.041 C 
ATOM     13  O   UNL     1      16.794  -4.441  24.937  1.00  0.00    -0.550 OA
ATOM     14  O   UNL     1      16.167  -3.259  23.076  1.00  0.00    -0.550 OA
ENDBRANCH  11  12
ENDBRANCH  10  11
ENDBRANCH   9  10
ENDBRANCH   8   9
ENDBRANCH   7   8
ENDBRANCH   6   7
ENDBRANCH   5   6
ENDBRANCH   4   5
ENDBRANCH   3   4
ENDBRANCH   2   3
ENDBRANCH   1   2
BRANCH   1  15
ATOM     15  C   UNL     1      22.198 -13.760  20.850  1.00  0.00     0.000 C 
BRANCH  15  16
ATOM     16  C   UNL     1      22.905 -15.050  20.405  1.00  0.00     0.000 C 
BRANCH  16  17
ATOM     17  C   UNL     1      22.676 -15.363  18.916  1.00  0.00     0.000 C 
BRANCH  17  18
ATOM     18  C   UNL     1      23.047 -16.810  18.544  1.00  0.00    -0.000 C 
BRANCH  18  19
ATOM     19  C   UNL     1      23.068 -17.114  17.033  1.00  0.00    -0.000 C 
BRANCH  19  20
ATOM     20  C   UNL     1      23.844 -18.385  16.632  1.00  0.00    -0.000 C 
BRANCH  20  21
ATOM     21  C   UNL     1      23.570 -19.619  17.511  1.00  0.00    -0.000 C 
BRANCH  21  22
ATOM     22  C   UNL     1      22.329 -20.441  17.107  1.00  0.00    -0.000 C 
BRANCH  22  23
ATOM     23  C   UNL     1      21.051 -20.133  17.913  1.00  0.00    -0.000 C 
BRANCH  23  24
ATOM     24  C   UNL     1      19.767 -20.792  17.376  1.00  0.00    -0.000 C 
BRANCH  24  25
ATOM     25  C   UNL     1      19.897 -21.246  15.914  1.00  0.00    -0.003 C 
ATOM     26  C   UNL     1      18.528 -21.361  15.251  1.00  0.00     0.004 C 
ENDBRANCH  24  25
ENDBRANCH  23  24
ENDBRANCH  22  23
ENDBRANCH  21  22
ENDBRANCH  20  21
ENDBRANCH  19  20
ENDBRANCH  18  19
ENDBRANCH  17  18
ENDBRANCH  16  17
ENDBRANCH  15  16
ENDBRANCH   1  15
TORSDOF 22
ENDMDL
MODEL 7
REMARK VINA RESULT:    -5.275      2.095      4.338
REMARK INTER + INTRA:         -13.255
REMARK INTER:                 -12.028
REMARK INTRA:                  -1.227
REMARK UNBOUND:                -1.197
REMARK SMILES CCCCCCCCCCCCCCCCCCCCCCCC(=O)[O-]
REMARK SMILES IDX 13 1 14 2 15 3 16 4 17 5 18 6 19 7 20 8 21 9 22 10 23 11
REMARK SMILES IDX 24 12 25 13 26 14 12 15 11 16 10 17 9 18 8 19 7 20 6 21 5 22
REMARK SMILES IDX 4 23 3 24 2 25 1 26
REMARK H PARENT
REMARK Flexibility Score: inf
ROOT
ATOM      1  C   UNL     1      22.102 -13.877  20.605  1.00  0.00     0.000 C 
ENDROOT
BRANCH   1   2
ATOM      2  C   UNL     1      20.965 -12.938  21.041  1.00  0.00     0.000 C 
BRANCH   2   3
ATOM      3  C   UNL     1      21.381 -11.819  22.018  1.00  0.00     0.000 C 
BRANCH   3   4
ATOM      4  C   UNL     1      20.332 -11.523  23.112  1.00  0.00     0.000 C 
BRANCH   4   5
ATOM      5  C   UNL     1      20.785 -10.409  24.072  1.00  0.00     0.000 C 
BRANCH   5   6
ATOM      6  C   UNL     1      21.803  -9.454  23.426  1.00  0.00     0.000 C 
BRANCH   6   7
ATOM      7  C   UNL     1      21.914  -8.118  24.176  1.00  0.00     0.000 C 
BRANCH   7   8
ATOM      8  C   UNL     1      20.593  -7.342  24.116  1.00  0.00     0.000 C 
BRANCH   8   9
ATOM      9  C   UNL     1      20.573  -6.208  25.154  1.00  0.00     0.000 C 
BRANCH   9  10
ATOM     10  C   UNL     1      21.432  -6.521  26.389  1.00  0.00     0.006 C 
BRANCH  10  11
ATOM     11  C   UNL     1      22.468  -5.424  26.685  1.00  0.00     0.053 C 
BRANCH  11  12
ATOM     12  C   UNL     1      22.579  -5.164  28.157  1.00  0.00     0.041 C 
ATOM     13  O   UNL     1      22.957  -4.038  28.578  1.00  0.00    -0.550 OA
ATOM     14  O   UNL     1      22.311  -6.183  29.063  1.00  0.00    -0.550 OA
ENDBRANCH  11  12
ENDBRANCH  10  11
ENDBRANCH   9  10
ENDBRANCH   8   9
ENDBRANCH   7   8
ENDBRANCH   6   7
ENDBRANCH   5   6
ENDBRANCH   4   5
ENDBRANCH   3   4
ENDBRANCH   2   3
ENDBRANCH   1   2
BRANCH   1  15
ATOM     15  C   UNL     1      21.861 -14.494  19.215  1.00  0.00     0.000 C 
BRANCH  15  16
ATOM     16  C   UNL     1      22.988 -15.450  18.792  1.00  0.00     0.000 C 
BRANCH  16  17
ATOM     17  C   UNL     1      23.005 -16.745  19.623  1.00  0.00     0.000 C 
BRANCH  17  18
ATOM     18  C   UNL     1      23.048 -18.014  18.754  1.00  0.00    -0.000 C 
BRANCH  18  19
ATOM     19  C   UNL     1      23.077 -17.767  17.232  1.00  0.00    -0.000 C 
BRANCH  19  20
ATOM     20  C   UNL     1      22.811 -19.012  16.362  1.00  0.00    -0.000 C 
BRANCH  20  21
ATOM     21  C   UNL     1      21.491 -19.746  16.664  1.00  0.00    -0.000 C 
BRANCH  21  22
ATOM     22  C   UNL     1      21.654 -21.120  17.345  1.00  0.00    -0.000 C 
BRANCH  22  23
ATOM     23  C   UNL     1      20.335 -21.804  17.760  1.00  0.00    -0.000 C 
BRANCH  23  24
ATOM     24  C   UNL     1      19.056 -21.114  17.249  1.00  0.00    -0.000 C 
BRANCH  24  25
ATOM     25  C   UNL     1      18.328 -21.930  16.171  1.00  0.00    -0.003 C 
ATOM     26  C   UNL     1      18.359 -21.212  14.824  1.00  0.00     0.004 C 
ENDBRANCH  24  25
ENDBRANCH  23  24
ENDBRANCH  22  23
ENDBRANCH  21  22
ENDBRANCH  20  21
ENDBRANCH  19  20
ENDBRANCH  18  19
ENDBRANCH  17  18
ENDBRANCH  16  17
ENDBRANCH  15  16
ENDBRANCH   1  15
TORSDOF 22
ENDMDL
MODEL 8
REMARK VINA RESULT:    -5.204      5.751      9.549
REMARK INTER + INTRA:         -13.095
REMARK INTER:                 -10.189
REMARK INTRA:                  -2.906
REMARK UNBOUND:                -1.197
REMARK SMILES CCCCCCCCCCCCCCCCCCCCCCCC(=O)[O-]
REMARK SMILES IDX 13 1 14 2 15 3 16 4 17 5 18 6 19 7 20 8 21 9 22 10 23 11
REMARK SMILES IDX 24 12 25 13 26 14 12 15 11 16 10 17 9 18 8 19 7 20 6 21 5 22
REMARK SMILES IDX 4 23 3 24 2 25 1 26
REMARK H PARENT
REMARK Flexibility Score: inf
ROOT
ATOM      1  C   UNL     1      18.865 -21.379  11.476  1.00  0.00     0.000 C 
ENDROOT
BRANCH   1   2
ATOM      2  C   UNL     1      19.150 -22.765  12.077  1.00  0.00     0.000 C 
BRANCH   2   3
ATOM      3  C   UNL     1      19.094 -22.833  13.617  1.00  0.00     0.000 C 
BRANCH   3   4
ATOM      4  C   UNL     1      18.989 -21.452  14.300  1.00  0.00     0.000 C 
BRANCH   4   5
ATOM      5  C   UNL     1      18.434 -21.547  15.732  1.00  0.00     0.000 C 
BRANCH   5   6
ATOM      6  C   UNL     1      19.335 -20.842  16.759  1.00  0.00     0.000 C 
BRANCH   6   7
ATOM      7  C   UNL     1      20.688 -21.548  16.938  1.00  0.00     0.000 C 
BRANCH   7   8
ATOM      8  C   UNL     1      21.784 -20.547  17.324  1.00  0.00     0.000 C 
BRANCH   8   9
ATOM      9  C   UNL     1      21.888 -19.418  16.287  1.00  0.00     0.000 C 
BRANCH   9  10
ATOM     10  C   UNL     1      23.121 -18.527  16.502  1.00  0.00     0.006 C 
BRANCH  10  11
ATOM     11  C   UNL     1      23.251 -18.033  17.951  1.00  0.00     0.053 C 
BRANCH  11  12
ATOM     12  C   UNL     1      22.998 -16.559  18.047  1.00  0.00     0.041 C 
ATOM     13  O   UNL     1      22.852 -15.868  17.003  1.00  0.00    -0.550 OA
ATOM     14  O   UNL     1      22.973 -15.939  19.291  1.00  0.00    -0.550 OA
ENDBRANCH  11  12
ENDBRANCH  10  11
ENDBRANCH   9  10
ENDBRANCH   8   9
ENDBRANCH   7   8
ENDBRANCH   6   7
ENDBRANCH   5   6
ENDBRANCH   4   5
ENDBRANCH   3   4
ENDBRANCH   2   3
ENDBRANCH   1   2
BRANCH   1  15
ATOM     15  C   UNL     1      17.698 -21.396  10.473  1.00  0.00     0.000 C 
BRANCH  15  16
ATOM     16  C   UNL     1      16.359 -21.767  11.133  1.00  0.00     0.000 C 
BRANCH  16  17
ATOM     17  C   UNL     1      15.612 -20.538  11.679  1.00  0.00     0.000 C 
BRANCH  17  18
ATOM     18  C   UNL     1      15.376 -20.608  13.199  1.00  0.00    -0.000 C 
BRANCH  18  19
ATOM     19  C   UNL     1      15.298 -22.031  13.786  1.00  0.00    -0.000 C 
BRANCH  19  20
ATOM     20  C   UNL     1      14.348 -22.192  14.990  1.00  0.00    -0.000 C 
BRANCH  20  21
ATOM     21  C   UNL     1      12.869 -21.875  14.697  1.00  0.00    -0.000 C 
BRANCH  21  22
ATOM     22  C   UNL     1      12.305 -22.532  13.422  1.00  0.00    -0.000 C 
BRANCH  22  23
ATOM     23  C   UNL     1      11.907 -21.549  12.302  1.00  0.00    -0.000 C 
BRANCH  23  24
ATOM     24  C   UNL     1      11.605 -20.114  12.773  1.00  0.00    -0.000 C 
BRANCH  24  25
ATOM     25  C   UNL     1      11.522 -19.112  11.612  1.00  0.00    -0.003 C 
ATOM     26  C   UNL     1      12.453 -17.924  11.845  1.00  0.00     0.004 C 
ENDBRANCH  24  25
ENDBRANCH  23  24
ENDBRANCH  22  23
ENDBRANCH  21  22
ENDBRANCH  20  21
ENDBRANCH  19  20
ENDBRANCH  18  19
ENDBRANCH  17  18
ENDBRANCH  16  17
ENDBRANCH  15  16
ENDBRANCH   1  15
TORSDOF 22
ENDMDL
MODEL 9
REMARK VINA RESULT:    -5.149      5.688      9.335
REMARK INTER + INTRA:         -12.968
REMARK INTER:                 -10.711
REMARK INTRA:                  -2.257
REMARK UNBOUND:                -1.197
REMARK SMILES CCCCCCCCCCCCCCCCCCCCCCCC(=O)[O-]
REMARK SMILES IDX 13 1 14 2 15 3 16 4 17 5 18 6 19 7 20 8 21 9 22 10 23 11
REMARK SMILES IDX 24 12 25 13 26 14 12 15 11 16 10 17 9 18 8 19 7 20 6 21 5 22
REMARK SMILES IDX 4 23 3 24 2 25 1 26
REMARK H PARENT
REMARK Flexibility Score: inf
ROOT
ATOM      1  C   UNL     1      18.023 -20.542  13.757  1.00  0.00     0.000 C 
ENDROOT
BRANCH   1   2
ATOM      2  C   UNL     1      19.193 -21.451  14.169  1.00  0.00     0.000 C 
BRANCH   2   3
ATOM      3  C   UNL     1      18.835 -22.554  15.186  1.00  0.00     0.000 C 
BRANCH   3   4
ATOM      4  C   UNL     1      18.065 -22.040  16.422  1.00  0.00     0.000 C 
BRANCH   4   5
ATOM      5  C   UNL     1      18.967 -21.256  17.391  1.00  0.00     0.000 C 
BRANCH   5   6
ATOM      6  C   UNL     1      20.145 -22.098  17.910  1.00  0.00     0.000 C 
BRANCH   6   7
ATOM      7  C   UNL     1      21.508 -21.499  17.532  1.00  0.00     0.000 C 
BRANCH   7   8
ATOM      8  C   UNL     1      21.484 -19.969  17.635  1.00  0.00     0.000 C 
BRANCH   8   9
ATOM      9  C   UNL     1      21.991 -19.323  16.336  1.00  0.00     0.000 C 
BRANCH   9  10
ATOM     10  C   UNL     1      23.204 -18.407  16.563  1.00  0.00     0.006 C 
BRANCH  10  11
ATOM     11  C   UNL     1      23.312 -17.914  18.015  1.00  0.00     0.053 C 
BRANCH  11  12
ATOM     12  C   UNL     1      23.020 -16.448  18.114  1.00  0.00     0.041 C 
ATOM     13  O   UNL     1      22.967 -15.883  19.241  1.00  0.00    -0.550 OA
ATOM     14  O   UNL     1      22.756 -15.713  16.964  1.00  0.00    -0.550 OA
ENDBRANCH  11  12
ENDBRANCH  10  11
ENDBRANCH   9  10
ENDBRANCH   8   9
ENDBRANCH   7   8
ENDBRANCH   6   7
ENDBRANCH   5   6
ENDBRANCH   4   5
ENDBRANCH   3   4
ENDBRANCH   2   3
ENDBRANCH   1   2
BRANCH   1  15
ATOM     15  C   UNL     1      18.075 -20.145  12.271  1.00  0.00     0.000 C 
BRANCH  15  16
ATOM     16  C   UNL     1      18.444 -21.326  11.358  1.00  0.00     0.000 C 
BRANCH  16  17
ATOM     17  C   UNL     1      17.213 -22.142  10.927  1.00  0.00     0.000 C 
BRANCH  17  18
ATOM     18  C   UNL     1      15.937 -21.289  10.817  1.00  0.00    -0.000 C 
BRANCH  18  19
ATOM     19  C   UNL     1      14.843 -21.607  11.856  1.00  0.00    -0.000 C 
BRANCH  19  20
ATOM     20  C   UNL     1      14.355 -20.401  12.683  1.00  0.00    -0.000 C 
BRANCH  20  21
ATOM     21  C   UNL     1      12.824 -20.249  12.769  1.00  0.00    -0.000 C 
BRANCH  21  22
ATOM     22  C   UNL     1      12.174 -19.540  11.564  1.00  0.00    -0.000 C 
BRANCH  22  23
ATOM     23  C   UNL     1      11.240 -18.367  11.923  1.00  0.00    -0.000 C 
BRANCH  23  24
ATOM     24  C   UNL     1      11.956 -17.062  12.320  1.00  0.00    -0.000 C 
BRANCH  24  25
ATOM     25  C   UNL     1      13.148 -16.736  11.408  1.00  0.00    -0.003 C 
ATOM     26  C   UNL     1      14.426 -16.549  12.221  1.00  0.00     0.004 C 
ENDBRANCH  24  25
ENDBRANCH  23  24
ENDBRANCH  22  23
ENDBRANCH  21  22
ENDBRANCH  20  21
ENDBRANCH  19  20
ENDBRANCH  18  19
ENDBRANCH  17  18
ENDBRANCH  16  17
ENDBRANCH  15  16
ENDBRANCH   1  15
TORSDOF 22
ENDMDL
