MODEL 1
REMARK VINA RESULT:    -4.999      0.000      0.000
REMARK INTER + INTRA:          -6.472
REMARK INTER:                  -6.168
REMARK INTRA:                  -0.304
REMARK UNBOUND:                -0.304
REMARK SMILES Oc1cc(O)c2cc(O)c(-c3cc(O)c(O)c(O)c3)[o+]c2c1
REMARK SMILES IDX 10 1 20 2 21 3 22 4 2 5 3 6 4 7 6 8 7 9 8 10 11 11 12 12
REMARK SMILES IDX 13 13 19 14 15 15 17 16 14 17 16 19 18 21 9 23 1 25 5 27
REMARK H PARENT 14 18 16 20 18 22 9 24 1 26 5 28
REMARK Flexibility Score: inf
ROOT
ATOM      1  C   UNL     1     -13.133 -15.618  32.327  1.00  0.00     0.402 A 
ATOM      2  O   UNL     1     -12.128 -15.602  33.201  1.00  0.00    -0.202 OA
ATOM      3  C   UNL     1     -12.117 -14.835  34.285  1.00  0.00     0.368 A 
ATOM      4  C   UNL     1     -11.014 -14.886  35.142  1.00  0.00     0.162 A 
ATOM      5  C   UNL     1     -10.975 -14.088  36.289  1.00  0.00     0.128 A 
ATOM      6  C   UNL     1     -12.042 -13.235  36.580  1.00  0.00     0.093 A 
ATOM      7  C   UNL     1     -13.158 -13.165  35.738  1.00  0.00     0.136 A 
ATOM      8  C   UNL     1     -13.205 -13.976  34.573  1.00  0.00     0.125 A 
ATOM      9  C   UNL     1     -14.287 -13.981  33.678  1.00  0.00     0.078 A 
ATOM     10  C   UNL     1     -14.264 -14.811  32.554  1.00  0.00     0.223 A 
ENDROOT
BRANCH   1  11
ATOM     11  C   UNL     1     -13.024 -16.509  31.150  1.00  0.00     0.091 A 
ATOM     12  C   UNL     1     -13.033 -17.899  31.333  1.00  0.00     0.068 A 
ATOM     13  C   UNL     1     -12.911 -18.771  30.245  1.00  0.00     0.162 A 
ATOM     14  C   UNL     1     -12.852 -15.993  29.856  1.00  0.00     0.068 A 
ATOM     15  C   UNL     1     -12.762 -18.243  28.940  1.00  0.00     0.200 A 
ATOM     16  C   UNL     1     -12.728 -16.853  28.758  1.00  0.00     0.162 A 
BRANCH  13  17
ATOM     17  O   UNL     1     -12.943 -20.142  30.505  1.00  0.00    -0.504 OA
ATOM     18  H   UNL     1     -12.479 -20.581  31.287  1.00  0.00     0.293 HD
ENDBRANCH  13  17
BRANCH  15  19
ATOM     19  O   UNL     1     -12.641 -19.056  27.811  1.00  0.00    -0.502 OA
ATOM     20  H   UNL     1     -12.238 -19.982  27.820  1.00  0.00     0.293 HD
ENDBRANCH  15  19
BRANCH  16  21
ATOM     21  O   UNL     1     -12.566 -16.333  27.475  1.00  0.00    -0.504 OA
ATOM     22  H   UNL     1     -11.841 -15.656  27.264  1.00  0.00     0.293 HD
ENDBRANCH  16  21
ENDBRANCH   1  11
BRANCH  10  23
ATOM     23  O   UNL     1     -15.360 -14.854  31.692  1.00  0.00    -0.500 OA
ATOM     24  H   UNL     1     -16.224 -15.316  31.953  1.00  0.00     0.294 HD
ENDBRANCH  10  23
BRANCH   5  25
ATOM     25  O   UNL     1      -9.879 -14.134  37.148  1.00  0.00    -0.507 OA
ATOM     26  H   UNL     1      -9.569 -13.313  37.654  1.00  0.00     0.293 HD
ENDBRANCH   5  25
BRANCH   7  27
ATOM     27  O   UNL     1     -14.182 -12.284  36.097  1.00  0.00    -0.507 OA
ATOM     28  H   UNL     1     -14.890 -12.483  36.790  1.00  0.00     0.293 HD
ENDBRANCH   7  27
TORSDOF 7
ENDMDL
MODEL 2
REMARK VINA RESULT:    -4.947      0.122      1.803
REMARK INTER + INTRA:          -6.408
REMARK INTER:                  -6.122
REMARK INTRA:                  -0.286
REMARK UNBOUND:                -0.304
REMARK SMILES Oc1cc(O)c2cc(O)c(-c3cc(O)c(O)c(O)c3)[o+]c2c1
REMARK SMILES IDX 10 1 20 2 21 3 22 4 2 5 3 6 4 7 6 8 7 9 8 10 11 11 12 12
REMARK SMILES IDX 13 13 19 14 15 15 17 16 14 17 16 19 18 21 9 23 1 25 5 27
REMARK H PARENT 14 18 16 20 18 22 9 24 1 26 5 28
REMARK Flexibility Score: inf
ROOT
ATOM      1  C   UNL     1     -13.095 -15.636  32.348  1.00  0.00     0.402 A 
ATOM      2  O   UNL     1     -12.089 -15.557  33.217  1.00  0.00    -0.202 OA
ATOM      3  C   UNL     1     -12.098 -14.751  34.272  1.00  0.00     0.368 A 
ATOM      4  C   UNL     1     -10.992 -14.737  35.126  1.00  0.00     0.162 A 
ATOM      5  C   UNL     1     -10.975 -13.896  36.243  1.00  0.00     0.128 A 
ATOM      6  C   UNL     1     -12.066 -13.065  36.506  1.00  0.00     0.093 A 
ATOM      7  C   UNL     1     -13.186 -13.060  35.665  1.00  0.00     0.136 A 
ATOM      8  C   UNL     1     -13.211 -13.914  34.531  1.00  0.00     0.125 A 
ATOM      9  C   UNL     1     -14.295 -13.985  33.641  1.00  0.00     0.078 A 
ATOM     10  C   UNL     1     -14.249 -14.855  32.548  1.00  0.00     0.223 A 
ENDROOT
BRANCH   1  11
ATOM     11  C   UNL     1     -12.961 -16.567  31.204  1.00  0.00     0.091 A 
ATOM     12  C   UNL     1     -12.825 -16.052  29.907  1.00  0.00     0.068 A 
ATOM     13  C   UNL     1     -12.717 -16.903  28.801  1.00  0.00     0.162 A 
ATOM     14  C   UNL     1     -13.025 -17.957  31.383  1.00  0.00     0.068 A 
ATOM     15  C   UNL     1     -12.758 -18.305  28.992  1.00  0.00     0.200 A 
ATOM     16  C   UNL     1     -12.918 -18.821  30.286  1.00  0.00     0.162 A 
BRANCH  13  17
ATOM     17  O   UNL     1     -12.571 -16.317  27.542  1.00  0.00    -0.504 OA
ATOM     18  H   UNL     1     -12.299 -16.822  26.711  1.00  0.00     0.293 HD
ENDBRANCH  13  17
BRANCH  15  19
ATOM     19  O   UNL     1     -12.650 -19.210  27.933  1.00  0.00    -0.502 OA
ATOM     20  H   UNL     1     -12.083 -20.046  27.958  1.00  0.00     0.293 HD
ENDBRANCH  15  19
BRANCH  16  21
ATOM     21  O   UNL     1     -12.975 -20.201  30.472  1.00  0.00    -0.504 OA
ATOM     22  H   UNL     1     -12.380 -20.832  29.946  1.00  0.00     0.293 HD
ENDBRANCH  16  21
ENDBRANCH   1  11
BRANCH  10  23
ATOM     23  O   UNL     1     -15.345 -14.964  31.692  1.00  0.00    -0.500 OA
ATOM     24  H   UNL     1     -15.400 -14.435  30.829  1.00  0.00     0.294 HD
ENDBRANCH  10  23
BRANCH   5  25
ATOM     25  O   UNL     1      -9.876 -13.877  37.100  1.00  0.00    -0.507 OA
ATOM     26  H   UNL     1      -9.990 -13.874  38.106  1.00  0.00     0.293 HD
ENDBRANCH   5  25
BRANCH   7  27
ATOM     27  O   UNL     1     -14.235 -12.198  35.995  1.00  0.00    -0.507 OA
ATOM     28  H   UNL     1     -15.066 -12.475  36.499  1.00  0.00     0.293 HD
ENDBRANCH   7  27
TORSDOF 7
ENDMDL
MODEL 3
REMARK VINA RESULT:    -4.592      1.002      2.562
REMARK INTER + INTRA:          -5.970
REMARK INTER:                  -5.652
REMARK INTRA:                  -0.318
REMARK UNBOUND:                -0.304
REMARK SMILES Oc1cc(O)c2cc(O)c(-c3cc(O)c(O)c(O)c3)[o+]c2c1
REMARK SMILES IDX 10 1 20 2 21 3 22 4 2 5 3 6 4 7 6 8 7 9 8 10 11 11 12 12
REMARK SMILES IDX 13 13 19 14 15 15 17 16 14 17 16 19 18 21 9 23 1 25 5 27
REMARK H PARENT 14 18 16 20 18 22 9 24 1 26 5 28
REMARK Flexibility Score: inf
ROOT
ATOM      1  C   UNL     1     -12.049 -16.133  32.484  1.00  0.00     0.402 A 
ATOM      2  O   UNL     1     -12.874 -15.244  33.034  1.00  0.00    -0.202 OA
ATOM      3  C   UNL     1     -12.583 -14.562  34.135  1.00  0.00     0.368 A 
ATOM      4  C   UNL     1     -13.517 -13.652  34.638  1.00  0.00     0.162 A 
ATOM      5  C   UNL     1     -13.237 -12.923  35.798  1.00  0.00     0.128 A 
ATOM      6  C   UNL     1     -12.019 -13.105  36.457  1.00  0.00     0.093 A 
ATOM      7  C   UNL     1     -11.067 -14.011  35.974  1.00  0.00     0.136 A 
ATOM      8  C   UNL     1     -11.344 -14.752  34.795  1.00  0.00     0.125 A 
ATOM      9  C   UNL     1     -10.445 -15.672  34.231  1.00  0.00     0.078 A 
ATOM     10  C   UNL     1     -10.787 -16.361  33.065  1.00  0.00     0.223 A 
ENDROOT
BRANCH   1  11
ATOM     11  C   UNL     1     -12.493 -16.838  31.260  1.00  0.00     0.091 A 
ATOM     12  C   UNL     1     -12.859 -18.189  31.335  1.00  0.00     0.068 A 
ATOM     13  C   UNL     1     -13.264 -18.891  30.194  1.00  0.00     0.162 A 
ATOM     14  C   UNL     1     -12.502 -16.197  30.012  1.00  0.00     0.068 A 
ATOM     15  C   UNL     1     -13.293 -18.232  28.942  1.00  0.00     0.200 A 
ATOM     16  C   UNL     1     -12.905 -16.887  28.861  1.00  0.00     0.162 A 
BRANCH  13  17
ATOM     17  O   UNL     1     -13.625 -20.231  30.350  1.00  0.00    -0.504 OA
ATOM     18  H   UNL     1     -13.346 -20.970  29.720  1.00  0.00     0.293 HD
ENDBRANCH  13  17
BRANCH  15  19
ATOM     19  O   UNL     1     -13.692 -18.872  27.766  1.00  0.00    -0.502 OA
ATOM     20  H   UNL     1     -14.228 -18.428  27.034  1.00  0.00     0.293 HD
ENDBRANCH  15  19
BRANCH  16  21
ATOM     21  O   UNL     1     -12.919 -16.242  27.626  1.00  0.00    -0.504 OA
ATOM     22  H   UNL     1     -13.692 -15.649  27.345  1.00  0.00     0.293 HD
ENDBRANCH  16  21
ENDBRANCH   1  11
BRANCH  10  23
ATOM     23  O   UNL     1      -9.875 -17.237  32.476  1.00  0.00    -0.500 OA
ATOM     24  H   UNL     1      -9.904 -17.448  31.485  1.00  0.00     0.294 HD
ENDBRANCH  10  23
BRANCH   5  25
ATOM     25  O   UNL     1     -14.162 -12.013  36.305  1.00  0.00    -0.507 OA
ATOM     26  H   UNL     1     -14.002 -11.527  37.179  1.00  0.00     0.293 HD
ENDBRANCH   5  25
BRANCH   7  27
ATOM     27  O   UNL     1      -9.875 -14.137  36.693  1.00  0.00    -0.507 OA
ATOM     28  H   UNL     1      -9.823 -14.374  37.674  1.00  0.00     0.293 HD
ENDBRANCH   7  27
TORSDOF 7
ENDMDL
MODEL 4
REMARK VINA RESULT:    -4.432      1.029      3.139
REMARK INTER + INTRA:          -5.773
REMARK INTER:                  -5.454
REMARK INTRA:                  -0.319
REMARK UNBOUND:                -0.304
REMARK SMILES Oc1cc(O)c2cc(O)c(-c3cc(O)c(O)c(O)c3)[o+]c2c1
REMARK SMILES IDX 10 1 20 2 21 3 22 4 2 5 3 6 4 7 6 8 7 9 8 10 11 11 12 12
REMARK SMILES IDX 13 13 19 14 15 15 17 16 14 17 16 19 18 21 9 23 1 25 5 27
REMARK H PARENT 14 18 16 20 18 22 9 24 1 26 5 28
REMARK Flexibility Score: inf
ROOT
ATOM      1  C   UNL     1     -12.037 -16.190  32.498  1.00  0.00     0.402 A 
ATOM      2  O   UNL     1     -12.857 -15.285  33.029  1.00  0.00    -0.202 OA
ATOM      3  C   UNL     1     -12.567 -14.593  34.125  1.00  0.00     0.368 A 
ATOM      4  C   UNL     1     -13.495 -13.667  34.609  1.00  0.00     0.162 A 
ATOM      5  C   UNL     1     -13.216 -12.926  35.761  1.00  0.00     0.128 A 
ATOM      6  C   UNL     1     -12.006 -13.112  36.433  1.00  0.00     0.093 A 
ATOM      7  C   UNL     1     -11.059 -14.034  35.968  1.00  0.00     0.136 A 
ATOM      8  C   UNL     1     -11.336 -14.787  34.797  1.00  0.00     0.125 A 
ATOM      9  C   UNL     1     -10.442 -15.723  34.252  1.00  0.00     0.078 A 
ATOM     10  C   UNL     1     -10.782 -16.424  33.091  1.00  0.00     0.223 A 
ENDROOT
BRANCH   1  11
ATOM     11  C   UNL     1     -12.479 -16.905  31.279  1.00  0.00     0.091 A 
ATOM     12  C   UNL     1     -12.590 -16.204  30.070  1.00  0.00     0.068 A 
ATOM     13  C   UNL     1     -13.024 -16.844  28.903  1.00  0.00     0.162 A 
ATOM     14  C   UNL     1     -12.845 -18.259  31.319  1.00  0.00     0.068 A 
ATOM     15  C   UNL     1     -13.369 -18.216  28.945  1.00  0.00     0.200 A 
ATOM     16  C   UNL     1     -13.281 -18.912  30.160  1.00  0.00     0.162 A 
BRANCH  13  17
ATOM     17  O   UNL     1     -13.097 -16.084  27.734  1.00  0.00    -0.504 OA
ATOM     18  H   UNL     1     -12.803 -16.412  26.826  1.00  0.00     0.293 HD
ENDBRANCH  13  17
BRANCH  15  19
ATOM     19  O   UNL     1     -13.804 -18.916  27.817  1.00  0.00    -0.502 OA
ATOM     20  H   UNL     1     -14.228 -18.482  27.010  1.00  0.00     0.293 HD
ENDBRANCH  15  19
BRANCH  16  21
ATOM     21  O   UNL     1     -13.636 -20.259  30.205  1.00  0.00    -0.504 OA
ATOM     22  H   UNL     1     -14.209 -20.632  30.954  1.00  0.00     0.293 HD
ENDBRANCH  16  21
ENDBRANCH   1  11
BRANCH  10  23
ATOM     23  O   UNL     1      -9.875 -17.317  32.521  1.00  0.00    -0.500 OA
ATOM     24  H   UNL     1      -9.733 -18.246  32.901  1.00  0.00     0.294 HD
ENDBRANCH  10  23
BRANCH   5  25
ATOM     25  O   UNL     1     -14.136 -12.000  36.250  1.00  0.00    -0.507 OA
ATOM     26  H   UNL     1     -14.360 -11.156  35.737  1.00  0.00     0.293 HD
ENDBRANCH   5  25
BRANCH   7  27
ATOM     27  O   UNL     1      -9.875 -14.164  36.699  1.00  0.00    -0.507 OA
ATOM     28  H   UNL     1      -8.972 -14.363  36.292  1.00  0.00     0.293 HD
ENDBRANCH   7  27
TORSDOF 7
ENDMDL
MODEL 5
REMARK VINA RESULT:    -4.079      1.434      7.063
REMARK INTER + INTRA:          -5.337
REMARK INTER:                  -5.103
REMARK INTRA:                  -0.234
REMARK UNBOUND:                -0.304
REMARK SMILES Oc1cc(O)c2cc(O)c(-c3cc(O)c(O)c(O)c3)[o+]c2c1
REMARK SMILES IDX 10 1 20 2 21 3 22 4 2 5 3 6 4 7 6 8 7 9 8 10 11 11 12 12
REMARK SMILES IDX 13 13 19 14 15 15 17 16 14 17 16 19 18 21 9 23 1 25 5 27
REMARK H PARENT 14 18 16 20 18 22 9 24 1 26 5 28
REMARK Flexibility Score: inf
ROOT
ATOM      1  C   UNL     1     -12.642 -16.054  32.350  1.00  0.00     0.402 A 
ATOM      2  O   UNL     1     -11.871 -15.866  31.281  1.00  0.00    -0.202 OA
ATOM      3  C   UNL     1     -11.948 -16.613  30.186  1.00  0.00     0.368 A 
ATOM      4  C   UNL     1     -11.093 -16.341  29.115  1.00  0.00     0.162 A 
ATOM      5  C   UNL     1     -11.152 -17.113  27.951  1.00  0.00     0.128 A 
ATOM      6  C   UNL     1     -12.068 -18.163  27.858  1.00  0.00     0.093 A 
ATOM      7  C   UNL     1     -12.937 -18.456  28.917  1.00  0.00     0.136 A 
ATOM      8  C   UNL     1     -12.884 -17.674  30.100  1.00  0.00     0.125 A 
ATOM      9  C   UNL     1     -13.722 -17.887  31.206  1.00  0.00     0.078 A 
ATOM     10  C   UNL     1     -13.615 -17.071  32.336  1.00  0.00     0.223 A 
ENDROOT
BRANCH   1  11
ATOM     11  C   UNL     1     -12.453 -15.160  33.516  1.00  0.00     0.091 A 
ATOM     12  C   UNL     1     -11.279 -15.256  34.276  1.00  0.00     0.068 A 
ATOM     13  C   UNL     1     -11.077 -14.441  35.396  1.00  0.00     0.162 A 
ATOM     14  C   UNL     1     -13.450 -14.255  33.911  1.00  0.00     0.068 A 
ATOM     15  C   UNL     1     -12.077 -13.514  35.776  1.00  0.00     0.200 A 
ATOM     16  C   UNL     1     -13.261 -13.433  35.030  1.00  0.00     0.162 A 
BRANCH  13  17
ATOM     17  O   UNL     1      -9.877 -14.585  36.096  1.00  0.00    -0.504 OA
ATOM     18  H   UNL     1      -9.816 -14.699  37.097  1.00  0.00     0.293 HD
ENDBRANCH  13  17
BRANCH  15  19
ATOM     19  O   UNL     1     -11.936 -12.667  36.878  1.00  0.00    -0.502 OA
ATOM     20  H   UNL     1     -12.699 -12.383  37.475  1.00  0.00     0.293 HD
ENDBRANCH  15  19
BRANCH  16  21
ATOM     21  O   UNL     1     -14.252 -12.531  35.412  1.00  0.00    -0.504 OA
ATOM     22  H   UNL     1     -14.048 -11.548  35.558  1.00  0.00     0.293 HD
ENDBRANCH  16  21
ENDBRANCH   1  11
BRANCH  10  23
ATOM     23  O   UNL     1     -14.481 -17.249  33.414  1.00  0.00    -0.500 OA
ATOM     24  H   UNL     1     -15.488 -17.228  33.297  1.00  0.00     0.294 HD
ENDBRANCH  10  23
BRANCH   5  25
ATOM     25  O   UNL     1     -10.302 -16.847  26.879  1.00  0.00    -0.507 OA
ATOM     26  H   UNL     1      -9.412 -16.382  27.013  1.00  0.00     0.293 HD
ENDBRANCH   5  25
BRANCH   7  27
ATOM     27  O   UNL     1     -13.822 -19.525  28.747  1.00  0.00    -0.507 OA
ATOM     28  H   UNL     1     -14.657 -19.490  28.179  1.00  0.00     0.293 HD
ENDBRANCH   7  27
TORSDOF 7
ENDMDL
MODEL 6
REMARK VINA RESULT:    -3.814      1.542      7.225
REMARK INTER + INTRA:          -5.011
REMARK INTER:                  -4.702
REMARK INTRA:                  -0.309
REMARK UNBOUND:                -0.304
REMARK SMILES Oc1cc(O)c2cc(O)c(-c3cc(O)c(O)c(O)c3)[o+]c2c1
REMARK SMILES IDX 10 1 20 2 21 3 22 4 2 5 3 6 4 7 6 8 7 9 8 10 11 11 12 12
REMARK SMILES IDX 13 13 19 14 15 15 17 16 14 17 16 19 18 21 9 23 1 25 5 27
REMARK H PARENT 14 18 16 20 18 22 9 24 1 26 5 28
REMARK Flexibility Score: inf
ROOT
ATOM      1  C   UNL     1     -12.533 -16.404  31.935  1.00  0.00     0.402 A 
ATOM      2  O   UNL     1     -11.920 -16.033  30.812  1.00  0.00    -0.202 OA
ATOM      3  C   UNL     1     -11.972 -16.736  29.686  1.00  0.00     0.368 A 
ATOM      4  C   UNL     1     -11.293 -16.266  28.559  1.00  0.00     0.162 A 
ATOM      5  C   UNL     1     -11.329 -16.987  27.362  1.00  0.00     0.128 A 
ATOM      6  C   UNL     1     -12.046 -18.184  27.293  1.00  0.00     0.093 A 
ATOM      7  C   UNL     1     -12.734 -18.677  28.408  1.00  0.00     0.136 A 
ATOM      8  C   UNL     1     -12.704 -17.947  29.625  1.00  0.00     0.125 A 
ATOM      9  C   UNL     1     -13.374 -18.357  30.789  1.00  0.00     0.078 A 
ATOM     10  C   UNL     1     -13.302 -17.582  31.950  1.00  0.00     0.223 A 
ENDROOT
BRANCH   1  11
ATOM     11  C   UNL     1     -12.391 -15.539  33.128  1.00  0.00     0.091 A 
ATOM     12  C   UNL     1     -13.456 -14.713  33.512  1.00  0.00     0.068 A 
ATOM     13  C   UNL     1     -13.349 -13.867  34.623  1.00  0.00     0.162 A 
ATOM     14  C   UNL     1     -11.190 -15.485  33.852  1.00  0.00     0.068 A 
ATOM     15  C   UNL     1     -12.143 -13.835  35.363  1.00  0.00     0.200 A 
ATOM     16  C   UNL     1     -11.068 -14.643  34.966  1.00  0.00     0.162 A 
BRANCH  13  17
ATOM     17  O   UNL     1     -14.457 -13.083  34.952  1.00  0.00    -0.504 OA
ATOM     18  H   UNL     1     -15.027 -12.596  34.275  1.00  0.00     0.293 HD
ENDBRANCH  13  17
BRANCH  15  19
ATOM     19  O   UNL     1     -11.971 -13.020  36.484  1.00  0.00    -0.502 OA
ATOM     20  H   UNL     1     -11.125 -12.982  37.033  1.00  0.00     0.293 HD
ENDBRANCH  15  19
BRANCH  16  21
ATOM     21  O   UNL     1      -9.875 -14.600  35.685  1.00  0.00    -0.504 OA
ATOM     22  H   UNL     1      -9.691 -15.244  36.447  1.00  0.00     0.293 HD
ENDBRANCH  16  21
ENDBRANCH   1  11
BRANCH  10  23
ATOM     23  O   UNL     1     -14.008 -17.962  33.091  1.00  0.00    -0.500 OA
ATOM     24  H   UNL     1     -13.933 -18.897  33.476  1.00  0.00     0.294 HD
ENDBRANCH  10  23
BRANCH   5  25
ATOM     25  O   UNL     1     -10.654 -16.525  26.234  1.00  0.00    -0.507 OA
ATOM     26  H   UNL     1     -10.652 -17.049  25.367  1.00  0.00     0.293 HD
ENDBRANCH   5  25
BRANCH   7  27
ATOM     27  O   UNL     1     -13.424 -19.883  28.257  1.00  0.00    -0.507 OA
ATOM     28  H   UNL     1     -13.013 -20.736  27.904  1.00  0.00     0.293 HD
ENDBRANCH   7  27
TORSDOF 7
ENDMDL
MODEL 7
REMARK VINA RESULT:    -3.026      2.072      7.577
REMARK INTER + INTRA:          -4.038
REMARK INTER:                  -4.220
REMARK INTRA:                   0.182
REMARK UNBOUND:                -0.304
REMARK SMILES Oc1cc(O)c2cc(O)c(-c3cc(O)c(O)c(O)c3)[o+]c2c1
REMARK SMILES IDX 10 1 20 2 21 3 22 4 2 5 3 6 4 7 6 8 7 9 8 10 11 11 12 12
REMARK SMILES IDX 13 13 19 14 15 15 17 16 14 17 16 19 18 21 9 23 1 25 5 27
REMARK H PARENT 14 18 16 20 18 22 9 24 1 26 5 28
REMARK Flexibility Score: inf
ROOT
ATOM      1  C   UNL     1     -11.771 -16.124  30.880  1.00  0.00     0.402 A 
ATOM      2  O   UNL     1     -12.615 -15.744  29.923  1.00  0.00    -0.202 OA
ATOM      3  C   UNL     1     -12.522 -16.155  28.663  1.00  0.00     0.368 A 
ATOM      4  C   UNL     1     -13.455 -15.697  27.729  1.00  0.00     0.162 A 
ATOM      5  C   UNL     1     -13.379 -16.112  26.395  1.00  0.00     0.128 A 
ATOM      6  C   UNL     1     -12.366 -16.985  25.995  1.00  0.00     0.093 A 
ATOM      7  C   UNL     1     -11.418 -17.458  26.912  1.00  0.00     0.136 A 
ATOM      8  C   UNL     1     -11.493 -17.043  28.268  1.00  0.00     0.125 A 
ATOM      9  C   UNL     1     -10.595 -17.474  29.258  1.00  0.00     0.078 A 
ATOM     10  C   UNL     1     -10.735 -17.026  30.575  1.00  0.00     0.223 A 
ENDROOT
BRANCH   1  11
ATOM     11  C   UNL     1     -11.974 -15.589  32.245  1.00  0.00     0.091 A 
ATOM     12  C   UNL     1     -13.256 -15.185  32.645  1.00  0.00     0.068 A 
ATOM     13  C   UNL     1     -13.480 -14.656  33.922  1.00  0.00     0.162 A 
ATOM     14  C   UNL     1     -10.899 -15.422  33.132  1.00  0.00     0.068 A 
ATOM     15  C   UNL     1     -12.394 -14.512  34.819  1.00  0.00     0.200 A 
ATOM     16  C   UNL     1     -11.108 -14.893  34.412  1.00  0.00     0.162 A 
BRANCH  13  17
ATOM     17  O   UNL     1     -14.786 -14.288  34.252  1.00  0.00    -0.504 OA
ATOM     18  H   UNL     1     -15.134 -13.341  34.213  1.00  0.00     0.293 HD
ENDBRANCH  13  17
BRANCH  15  19
ATOM     19  O   UNL     1     -12.549 -13.997  36.108  1.00  0.00    -0.502 OA
ATOM     20  H   UNL     1     -12.467 -13.018  36.340  1.00  0.00     0.293 HD
ENDBRANCH  15  19
BRANCH  16  21
ATOM     21  O   UNL     1     -10.037 -14.738  35.290  1.00  0.00    -0.504 OA
ATOM     22  H   UNL     1      -9.076 -14.777  34.967  1.00  0.00     0.293 HD
ENDBRANCH  16  21
ENDBRANCH   1  11
BRANCH  10  23
ATOM     23  O   UNL     1      -9.875 -17.493  31.569  1.00  0.00    -0.500 OA
ATOM     24  H   UNL     1     -10.222 -17.801  32.470  1.00  0.00     0.294 HD
ENDBRANCH  10  23
BRANCH   5  25
ATOM     25  O   UNL     1     -14.306 -15.661  25.458  1.00  0.00    -0.507 OA
ATOM     26  H   UNL     1     -15.301 -15.790  25.593  1.00  0.00     0.293 HD
ENDBRANCH   5  25
BRANCH   7  27
ATOM     27  O   UNL     1     -10.434 -18.326  26.432  1.00  0.00    -0.507 OA
ATOM     28  H   UNL     1     -10.580 -19.004  25.697  1.00  0.00     0.293 HD
ENDBRANCH   7  27
TORSDOF 7
ENDMDL
MODEL 8
REMARK VINA RESULT:    -2.642      1.360      6.920
REMARK INTER + INTRA:          -3.565
REMARK INTER:                  -3.913
REMARK INTRA:                   0.349
REMARK UNBOUND:                -0.304
REMARK SMILES Oc1cc(O)c2cc(O)c(-c3cc(O)c(O)c(O)c3)[o+]c2c1
REMARK SMILES IDX 10 1 20 2 21 3 22 4 2 5 3 6 4 7 6 8 7 9 8 10 11 11 12 12
REMARK SMILES IDX 13 13 19 14 15 15 17 16 14 17 16 19 18 21 9 23 1 25 5 27
REMARK H PARENT 14 18 16 20 18 22 9 24 1 26 5 28
REMARK Flexibility Score: inf
ROOT
ATOM      1  C   UNL     1     -12.589 -15.377  33.037  1.00  0.00     0.402 A 
ATOM      2  O   UNL     1     -11.707 -16.353  32.825  1.00  0.00    -0.202 OA
ATOM      3  C   UNL     1     -11.770 -17.179  31.787  1.00  0.00     0.368 A 
ATOM      4  C   UNL     1     -10.800 -18.175  31.651  1.00  0.00     0.162 A 
ATOM      5  C   UNL     1     -10.843 -19.059  30.569  1.00  0.00     0.128 A 
ATOM      6  C   UNL     1     -11.862 -18.948  29.620  1.00  0.00     0.093 A 
ATOM      7  C   UNL     1     -12.846 -17.958  29.733  1.00  0.00     0.136 A 
ATOM      8  C   UNL     1     -12.805 -17.056  30.828  1.00  0.00     0.125 A 
ATOM      9  C   UNL     1     -13.742 -16.026  31.016  1.00  0.00     0.078 A 
ATOM     10  C   UNL     1     -13.633 -15.172  32.117  1.00  0.00     0.223 A 
ENDROOT
BRANCH   1  11
ATOM     11  C   UNL     1     -12.417 -14.528  34.238  1.00  0.00     0.091 A 
ATOM     12  C   UNL     1     -11.253 -14.650  35.009  1.00  0.00     0.068 A 
ATOM     13  C   UNL     1     -11.066 -13.878  36.162  1.00  0.00     0.162 A 
ATOM     14  C   UNL     1     -13.421 -13.641  34.655  1.00  0.00     0.068 A 
ATOM     15  C   UNL     1     -12.074 -12.969  36.564  1.00  0.00     0.200 A 
ATOM     16  C   UNL     1     -13.249 -12.862  35.807  1.00  0.00     0.162 A 
BRANCH  13  17
ATOM     17  O   UNL     1      -9.875 -14.046  36.871  1.00  0.00    -0.504 OA
ATOM     18  H   UNL     1      -9.612 -13.495  37.675  1.00  0.00     0.293 HD
ENDBRANCH  13  17
BRANCH  15  19
ATOM     19  O   UNL     1     -11.949 -12.164  37.699  1.00  0.00    -0.502 OA
ATOM     20  H   UNL     1     -12.703 -11.619  38.092  1.00  0.00     0.293 HD
ENDBRANCH  15  19
BRANCH  16  21
ATOM     21  O   UNL     1     -14.248 -11.978  36.211  1.00  0.00    -0.504 OA
ATOM     22  H   UNL     1     -14.377 -11.734  37.187  1.00  0.00     0.293 HD
ENDBRANCH  16  21
ENDBRANCH   1  11
BRANCH  10  23
ATOM     23  O   UNL     1     -14.533 -14.118  32.278  1.00  0.00    -0.500 OA
ATOM     24  H   UNL     1     -15.499 -14.279  32.540  1.00  0.00     0.294 HD
ENDBRANCH  10  23
BRANCH   5  25
ATOM     25  O   UNL     1      -9.879 -20.055  30.426  1.00  0.00    -0.507 OA
ATOM     26  H   UNL     1      -9.514 -20.311  29.517  1.00  0.00     0.293 HD
ENDBRANCH   5  25
BRANCH   7  27
ATOM     27  O   UNL     1     -13.833 -17.916  28.744  1.00  0.00    -0.507 OA
ATOM     28  H   UNL     1     -14.193 -18.727  28.261  1.00  0.00     0.293 HD
ENDBRANCH   7  27
TORSDOF 7
ENDMDL
MODEL 9
REMARK VINA RESULT:    -2.565      1.735      7.399
REMARK INTER + INTRA:          -3.469
REMARK INTER:                  -3.338
REMARK INTRA:                  -0.131
REMARK UNBOUND:                -0.304
REMARK SMILES Oc1cc(O)c2cc(O)c(-c3cc(O)c(O)c(O)c3)[o+]c2c1
REMARK SMILES IDX 10 1 20 2 21 3 22 4 2 5 3 6 4 7 6 8 7 9 8 10 11 11 12 12
REMARK SMILES IDX 13 13 19 14 15 15 17 16 14 17 16 19 18 21 9 23 1 25 5 27
REMARK H PARENT 14 18 16 20 18 22 9 24 1 26 5 28
REMARK Flexibility Score: inf
ROOT
ATOM      1  C   UNL     1     -11.797 -16.127  31.675  1.00  0.00     0.402 A 
ATOM      2  O   UNL     1     -12.642 -17.119  31.405  1.00  0.00    -0.202 OA
ATOM      3  C   UNL     1     -12.633 -17.794  30.261  1.00  0.00     0.368 A 
ATOM      4  C   UNL     1     -13.563 -18.819  30.069  1.00  0.00     0.162 A 
ATOM      5  C   UNL     1     -13.577 -19.544  28.873  1.00  0.00     0.128 A 
ATOM      6  C   UNL     1     -12.658 -19.242  27.866  1.00  0.00     0.093 A 
ATOM      7  C   UNL     1     -11.716 -18.220  28.034  1.00  0.00     0.136 A 
ATOM      8  C   UNL     1     -11.695 -17.482  29.247  1.00  0.00     0.125 A 
ATOM      9  C   UNL     1     -10.780 -16.450  29.508  1.00  0.00     0.078 A 
ATOM     10  C   UNL     1     -10.817 -15.772  30.729  1.00  0.00     0.223 A 
ENDROOT
BRANCH   1  11
ATOM     11  C   UNL     1     -11.914 -15.444  32.983  1.00  0.00     0.091 A 
ATOM     12  C   UNL     1     -13.113 -14.801  33.322  1.00  0.00     0.068 A 
ATOM     13  C   UNL     1     -13.252 -14.128  34.541  1.00  0.00     0.162 A 
ATOM     14  C   UNL     1     -10.830 -15.377  33.872  1.00  0.00     0.068 A 
ATOM     15  C   UNL     1     -12.161 -14.084  35.443  1.00  0.00     0.200 A 
ATOM     16  C   UNL     1     -10.954 -14.707  35.096  1.00  0.00     0.162 A 
BRANCH  13  17
ATOM     17  O   UNL     1     -14.480 -13.523  34.813  1.00  0.00    -0.504 OA
ATOM     18  H   UNL     1     -14.789 -13.258  35.738  1.00  0.00     0.293 HD
ENDBRANCH  13  17
BRANCH  15  19
ATOM     19  O   UNL     1     -12.234 -13.436  36.678  1.00  0.00    -0.502 OA
ATOM     20  H   UNL     1     -11.948 -13.851  37.553  1.00  0.00     0.293 HD
ENDBRANCH  15  19
BRANCH  16  21
ATOM     21  O   UNL     1      -9.875 -14.651  35.977  1.00  0.00    -0.504 OA
ATOM     22  H   UNL     1      -9.654 -13.805  36.491  1.00  0.00     0.293 HD
ENDBRANCH  16  21
ENDBRANCH   1  11
BRANCH  10  23
ATOM     23  O   UNL     1      -9.876 -14.780  31.009  1.00  0.00    -0.500 OA
ATOM     24  H   UNL     1     -10.154 -13.848  31.293  1.00  0.00     0.294 HD
ENDBRANCH  10  23
BRANCH   5  25
ATOM     25  O   UNL     1     -14.501 -20.567  28.675  1.00  0.00    -0.507 OA
ATOM     26  H   UNL     1     -14.741 -21.215  29.416  1.00  0.00     0.293 HD
ENDBRANCH   5  25
BRANCH   7  27
ATOM     27  O   UNL     1     -10.834 -17.977  26.977  1.00  0.00    -0.507 OA
ATOM     28  H   UNL     1     -10.002 -17.408  27.047  1.00  0.00     0.293 HD
ENDBRANCH   7  27
TORSDOF 7
ENDMDL
