MODEL 1
REMARK VINA RESULT:    -5.700      0.000      0.000
REMARK INTER + INTRA:          -7.181
REMARK INTER:                  -6.866
REMARK INTRA:                  -0.315
REMARK UNBOUND:                -0.315
REMARK SMILES O=c1c(O)c(-c2ccc(O)c(O)c2)oc2cc(O)cc(O)c12
REMARK SMILES IDX 5 1 3 2 2 3 1 4 22 5 20 6 19 7 17 8 16 9 15 10 14 11 6 12
REMARK SMILES IDX 7 13 8 14 9 15 13 16 11 17 10 18 12 20 4 22 21 24 18 26
REMARK H PARENT 10 19 12 21 4 23 21 25 18 27
REMARK Flexibility Score: inf
ROOT
ATOM      1  C   UNL     1      24.515   7.255 -21.902  1.00  0.00     0.180 A 
ATOM      2  C   UNL     1      25.784   7.857 -21.938  1.00  0.00     0.208 A 
ATOM      3  C   UNL     1      26.445   7.976 -23.172  1.00  0.00     0.238 A 
ATOM      4  O   UNL     1      27.604   8.467 -23.190  1.00  0.00    -0.285 OA
ATOM      5  C   UNL     1      25.822   7.508 -24.353  1.00  0.00     0.111 A 
ATOM      6  C   UNL     1      26.383   7.615 -25.662  1.00  0.00     0.134 A 
ATOM      7  C   UNL     1      25.737   7.001 -26.742  1.00  0.00     0.093 A 
ATOM      8  C   UNL     1      24.518   6.339 -26.571  1.00  0.00     0.123 A 
ATOM      9  C   UNL     1      23.934   6.282 -25.308  1.00  0.00     0.094 A 
ATOM     10  C   UNL     1      24.572   6.853 -24.205  1.00  0.00     0.146 A 
ATOM     11  O   UNL     1      23.985   6.767 -23.017  1.00  0.00    -0.452 OA
ENDROOT
BRANCH   1  12
ATOM     12  C   UNL     1      23.745   7.116 -20.644  1.00  0.00     0.025 A 
ATOM     13  C   UNL     1      23.710   5.875 -19.989  1.00  0.00     0.016 A 
ATOM     14  C   UNL     1      22.973   5.715 -18.813  1.00  0.00     0.051 A 
ATOM     15  C   UNL     1      22.250   6.787 -18.281  1.00  0.00     0.157 A 
ATOM     16  C   UNL     1      23.000   8.187 -20.119  1.00  0.00     0.062 A 
ATOM     17  C   UNL     1      22.258   8.028 -18.938  1.00  0.00     0.158 A 
BRANCH  15  18
ATOM     18  O   UNL     1      21.525   6.599 -17.104  1.00  0.00    -0.504 OA
ATOM     19  H   UNL     1      21.811   5.931 -16.398  1.00  0.00     0.293 HD
ENDBRANCH  15  18
BRANCH  17  20
ATOM     20  O   UNL     1      21.527   9.097 -18.422  1.00  0.00    -0.504 OA
ATOM     21  H   UNL     1      20.566   9.266 -18.699  1.00  0.00     0.293 HD
ENDBRANCH  17  20
ENDBRANCH   1  12
BRANCH   2  22
ATOM     22  O   UNL     1      26.391   8.292 -20.757  1.00  0.00    -0.502 OA
ATOM     23  H   UNL     1      27.324   8.682 -20.737  1.00  0.00     0.293 HD
ENDBRANCH   2  22
BRANCH   6  24
ATOM     24  O   UNL     1      27.547   8.330 -25.957  1.00  0.00    -0.507 OA
ATOM     25  H   UNL     1      27.905   9.097 -25.407  1.00  0.00     0.293 HD
ENDBRANCH   6  24
BRANCH   8  26
ATOM     26  O   UNL     1      23.875   5.744 -27.653  1.00  0.00    -0.508 OA
ATOM     27  H   UNL     1      23.432   4.836 -27.573  1.00  0.00     0.293 HD
ENDBRANCH   8  26
TORSDOF 6
ENDMDL
MODEL 2
REMARK VINA RESULT:    -5.646      1.627      7.163
REMARK INTER + INTRA:          -7.116
REMARK INTER:                  -6.847
REMARK INTRA:                  -0.269
REMARK UNBOUND:                -0.315
REMARK SMILES O=c1c(O)c(-c2ccc(O)c(O)c2)oc2cc(O)cc(O)c12
REMARK SMILES IDX 5 1 3 2 2 3 1 4 22 5 20 6 19 7 17 8 16 9 15 10 14 11 6 12
REMARK SMILES IDX 7 13 8 14 9 15 13 16 11 17 10 18 12 20 4 22 21 24 18 26
REMARK H PARENT 10 19 12 21 4 23 21 25 18 27
REMARK Flexibility Score: inf
ROOT
ATOM      1  C   UNL     1      24.329   5.994 -22.675  1.00  0.00     0.180 A 
ATOM      2  C   UNL     1      24.430   4.722 -22.085  1.00  0.00     0.208 A 
ATOM      3  C   UNL     1      23.951   4.539 -20.777  1.00  0.00     0.238 A 
ATOM      4  O   UNL     1      24.093   3.412 -20.235  1.00  0.00    -0.285 OA
ATOM      5  C   UNL     1      23.363   5.624 -20.083  1.00  0.00     0.111 A 
ATOM      6  C   UNL     1      22.808   5.541 -18.770  1.00  0.00     0.134 A 
ATOM      7  C   UNL     1      22.371   6.708 -18.131  1.00  0.00     0.093 A 
ATOM      8  C   UNL     1      22.409   7.944 -18.781  1.00  0.00     0.123 A 
ATOM      9  C   UNL     1      22.894   8.025 -20.085  1.00  0.00     0.094 A 
ATOM     10  C   UNL     1      23.370   6.885 -20.736  1.00  0.00     0.146 A 
ATOM     11  O   UNL     1      23.833   7.007 -21.974  1.00  0.00    -0.452 OA
ENDROOT
BRANCH   1  12
ATOM     12  C   UNL     1      24.789   6.260 -24.057  1.00  0.00     0.025 A 
ATOM     13  C   UNL     1      25.939   7.037 -24.266  1.00  0.00     0.016 A 
ATOM     14  C   UNL     1      26.378   7.317 -25.562  1.00  0.00     0.051 A 
ATOM     15  C   UNL     1      25.670   6.839 -26.668  1.00  0.00     0.157 A 
ATOM     16  C   UNL     1      24.066   5.796 -25.170  1.00  0.00     0.062 A 
ATOM     17  C   UNL     1      24.505   6.078 -26.473  1.00  0.00     0.158 A 
BRANCH  15  18
ATOM     18  O   UNL     1      26.134   7.132 -27.950  1.00  0.00    -0.504 OA
ATOM     19  H   UNL     1      25.509   7.217 -28.742  1.00  0.00     0.293 HD
ENDBRANCH  15  18
BRANCH  17  20
ATOM     20  O   UNL     1      23.785   5.610 -27.572  1.00  0.00    -0.504 OA
ATOM     21  H   UNL     1      23.260   6.239 -28.169  1.00  0.00     0.293 HD
ENDBRANCH  17  20
ENDBRANCH   1  12
BRANCH   2  22
ATOM     22  O   UNL     1      25.034   3.671 -22.779  1.00  0.00    -0.502 OA
ATOM     23  H   UNL     1      26.028   3.488 -22.731  1.00  0.00     0.293 HD
ENDBRANCH   2  22
BRANCH   6  24
ATOM     24  O   UNL     1      22.640   4.344 -18.068  1.00  0.00    -0.507 OA
ATOM     25  H   UNL     1      21.749   3.913 -17.874  1.00  0.00     0.293 HD
ENDBRANCH   6  24
BRANCH   8  26
ATOM     26  O   UNL     1      21.958   9.097 -18.144  1.00  0.00    -0.508 OA
ATOM     27  H   UNL     1      21.591   9.071 -17.199  1.00  0.00     0.293 HD
ENDBRANCH   8  26
TORSDOF 6
ENDMDL
MODEL 3
REMARK VINA RESULT:    -5.439      2.525      3.370
REMARK INTER + INTRA:          -6.866
REMARK INTER:                  -6.578
REMARK INTRA:                  -0.288
REMARK UNBOUND:                -0.315
REMARK SMILES O=c1c(O)c(-c2ccc(O)c(O)c2)oc2cc(O)cc(O)c12
REMARK SMILES IDX 5 1 3 2 2 3 1 4 22 5 20 6 19 7 17 8 16 9 15 10 14 11 6 12
REMARK SMILES IDX 7 13 8 14 9 15 13 16 11 17 10 18 12 20 4 22 21 24 18 26
REMARK H PARENT 10 19 12 21 4 23 21 25 18 27
REMARK Flexibility Score: inf
ROOT
ATOM      1  C   UNL     1      23.645   5.422 -22.346  1.00  0.00     0.180 A 
ATOM      2  C   UNL     1      24.971   5.413 -22.811  1.00  0.00     0.208 A 
ATOM      3  C   UNL     1      25.265   4.755 -24.016  1.00  0.00     0.238 A 
ATOM      4  O   UNL     1      26.463   4.704 -24.400  1.00  0.00    -0.285 OA
ATOM      5  C   UNL     1      24.228   4.129 -24.748  1.00  0.00     0.111 A 
ATOM      6  C   UNL     1      24.405   3.468 -26.002  1.00  0.00     0.134 A 
ATOM      7  C   UNL     1      23.333   2.771 -26.573  1.00  0.00     0.093 A 
ATOM      8  C   UNL     1      22.074   2.766 -25.968  1.00  0.00     0.123 A 
ATOM      9  C   UNL     1      21.876   3.457 -24.775  1.00  0.00     0.094 A 
ATOM     10  C   UNL     1      22.935   4.131 -24.163  1.00  0.00     0.146 A 
ATOM     11  O   UNL     1      22.706   4.770 -23.022  1.00  0.00    -0.452 OA
ENDROOT
BRANCH   1  12
ATOM     12  C   UNL     1      23.252   6.116 -21.098  1.00  0.00     0.025 A 
ATOM     13  C   UNL     1      23.103   7.512 -21.100  1.00  0.00     0.016 A 
ATOM     14  C   UNL     1      22.754   8.189 -19.930  1.00  0.00     0.051 A 
ATOM     15  C   UNL     1      22.562   7.485 -18.736  1.00  0.00     0.157 A 
ATOM     16  C   UNL     1      23.079   5.413 -19.893  1.00  0.00     0.062 A 
ATOM     17  C   UNL     1      22.730   6.091 -18.715  1.00  0.00     0.158 A 
BRANCH  15  18
ATOM     18  O   UNL     1      22.212   8.188 -17.584  1.00  0.00    -0.504 OA
ATOM     19  H   UNL     1      21.250   8.418 -17.365  1.00  0.00     0.293 HD
ENDBRANCH  15  18
BRANCH  17  20
ATOM     20  O   UNL     1      22.555   5.385 -17.525  1.00  0.00    -0.504 OA
ATOM     21  H   UNL     1      22.381   4.387 -17.521  1.00  0.00     0.293 HD
ENDBRANCH  17  20
ENDBRANCH   1  12
BRANCH   2  22
ATOM     22  O   UNL     1      25.983   6.018 -22.061  1.00  0.00    -0.502 OA
ATOM     23  H   UNL     1      26.809   5.517 -21.758  1.00  0.00     0.293 HD
ENDBRANCH   2  22
BRANCH   6  24
ATOM     24  O   UNL     1      25.596   3.489 -26.734  1.00  0.00    -0.507 OA
ATOM     25  H   UNL     1      26.467   3.086 -26.424  1.00  0.00     0.293 HD
ENDBRANCH   6  24
BRANCH   8  26
ATOM     26  O   UNL     1      21.009   2.083 -26.550  1.00  0.00    -0.508 OA
ATOM     27  H   UNL     1      21.076   1.100 -26.790  1.00  0.00     0.293 HD
ENDBRANCH   8  26
TORSDOF 6
ENDMDL
MODEL 4
REMARK VINA RESULT:    -5.228      1.517      6.473
REMARK INTER + INTRA:          -6.612
REMARK INTER:                  -6.808
REMARK INTRA:                   0.196
REMARK UNBOUND:                -0.315
REMARK SMILES O=c1c(O)c(-c2ccc(O)c(O)c2)oc2cc(O)cc(O)c12
REMARK SMILES IDX 5 1 3 2 2 3 1 4 22 5 20 6 19 7 17 8 16 9 15 10 14 11 6 12
REMARK SMILES IDX 7 13 8 14 9 15 13 16 11 17 10 18 12 20 4 22 21 24 18 26
REMARK H PARENT 10 19 12 21 4 23 21 25 18 27
REMARK Flexibility Score: inf
ROOT
ATOM      1  C   UNL     1      24.287   6.587 -22.686  1.00  0.00     0.180 A 
ATOM      2  C   UNL     1      25.438   7.377 -22.523  1.00  0.00     0.208 A 
ATOM      3  C   UNL     1      25.647   8.030 -21.297  1.00  0.00     0.238 A 
ATOM      4  O   UNL     1      26.651   8.779 -21.176  1.00  0.00    -0.285 OA
ATOM      5  C   UNL     1      24.714   7.870 -20.245  1.00  0.00     0.111 A 
ATOM      6  C   UNL     1      24.847   8.451 -18.948  1.00  0.00     0.134 A 
ATOM      7  C   UNL     1      23.798   8.333 -18.027  1.00  0.00     0.093 A 
ATOM      8  C   UNL     1      22.649   7.600 -18.334  1.00  0.00     0.123 A 
ATOM      9  C   UNL     1      22.536   6.979 -19.576  1.00  0.00     0.094 A 
ATOM     10  C   UNL     1      23.549   7.109 -20.528  1.00  0.00     0.146 A 
ATOM     11  O   UNL     1      23.397   6.510 -21.703  1.00  0.00    -0.452 OA
ENDROOT
BRANCH   1  12
ATOM     12  C   UNL     1      24.009   5.849 -23.939  1.00  0.00     0.025 A 
ATOM     13  C   UNL     1      23.472   4.553 -23.874  1.00  0.00     0.016 A 
ATOM     14  C   UNL     1      23.222   3.831 -25.043  1.00  0.00     0.051 A 
ATOM     15  C   UNL     1      23.515   4.385 -26.293  1.00  0.00     0.157 A 
ATOM     16  C   UNL     1      24.323   6.396 -25.195  1.00  0.00     0.062 A 
ATOM     17  C   UNL     1      24.073   5.672 -26.371  1.00  0.00     0.158 A 
BRANCH  15  18
ATOM     18  O   UNL     1      23.252   3.641 -27.443  1.00  0.00    -0.504 OA
ATOM     19  H   UNL     1      23.049   4.080 -28.333  1.00  0.00     0.293 HD
ENDBRANCH  15  18
BRANCH  17  20
ATOM     20  O   UNL     1      24.383   6.224 -27.614  1.00  0.00    -0.504 OA
ATOM     21  H   UNL     1      23.810   6.047 -28.431  1.00  0.00     0.293 HD
ENDBRANCH  17  20
ENDBRANCH   1  12
BRANCH   2  22
ATOM     22  O   UNL     1      26.335   7.539 -23.582  1.00  0.00    -0.502 OA
ATOM     23  H   UNL     1      26.276   6.994 -24.432  1.00  0.00     0.293 HD
ENDBRANCH   2  22
BRANCH   6  24
ATOM     24  O   UNL     1      25.990   9.125 -18.508  1.00  0.00    -0.507 OA
ATOM     25  H   UNL     1      26.043   9.677 -17.666  1.00  0.00     0.293 HD
ENDBRANCH   6  24
BRANCH   8  26
ATOM     26  O   UNL     1      21.618   7.475 -17.407  1.00  0.00    -0.508 OA
ATOM     27  H   UNL     1      20.680   7.213 -17.689  1.00  0.00     0.293 HD
ENDBRANCH   8  26
TORSDOF 6
ENDMDL
MODEL 5
REMARK VINA RESULT:    -5.206     16.664     17.939
REMARK INTER + INTRA:          -6.587
REMARK INTER:                  -6.252
REMARK INTRA:                  -0.334
REMARK UNBOUND:                -0.315
REMARK SMILES O=c1c(O)c(-c2ccc(O)c(O)c2)oc2cc(O)cc(O)c12
REMARK SMILES IDX 5 1 3 2 2 3 1 4 22 5 20 6 19 7 17 8 16 9 15 10 14 11 6 12
REMARK SMILES IDX 7 13 8 14 9 15 13 16 11 17 10 18 12 20 4 22 21 24 18 26
REMARK H PARENT 10 19 12 21 4 23 21 25 18 27
REMARK Flexibility Score: inf
ROOT
ATOM      1  C   UNL     1      31.738  -8.409 -27.322  1.00  0.00     0.180 A 
ATOM      2  C   UNL     1      32.897  -8.507 -28.110  1.00  0.00     0.208 A 
ATOM      3  C   UNL     1      32.794  -8.327 -29.499  1.00  0.00     0.238 A 
ATOM      4  O   UNL     1      33.826  -8.470 -30.205  1.00  0.00    -0.285 OA
ATOM      5  C   UNL     1      31.537  -8.034 -30.080  1.00  0.00     0.111 A 
ATOM      6  C   UNL     1      31.323  -7.791 -31.470  1.00  0.00     0.134 A 
ATOM      7  C   UNL     1      30.017  -7.640 -31.952  1.00  0.00     0.093 A 
ATOM      8  C   UNL     1      28.922  -7.657 -31.084  1.00  0.00     0.123 A 
ATOM      9  C   UNL     1      29.126  -7.833 -29.718  1.00  0.00     0.094 A 
ATOM     10  C   UNL     1      30.414  -8.023 -29.212  1.00  0.00     0.146 A 
ATOM     11  O   UNL     1      30.562  -8.198 -27.904  1.00  0.00    -0.452 OA
ENDROOT
BRANCH   1  12
ATOM     12  C   UNL     1      31.770  -8.562 -25.850  1.00  0.00     0.025 A 
ATOM     13  C   UNL     1      31.525  -9.822 -25.280  1.00  0.00     0.016 A 
ATOM     14  C   UNL     1      31.529  -9.984 -23.893  1.00  0.00     0.051 A 
ATOM     15  C   UNL     1      31.765  -8.892 -23.053  1.00  0.00     0.157 A 
ATOM     16  C   UNL     1      31.987  -7.460 -25.004  1.00  0.00     0.062 A 
ATOM     17  C   UNL     1      31.991  -7.621 -23.609  1.00  0.00     0.158 A 
BRANCH  15  18
ATOM     18  O   UNL     1      31.767  -9.085 -21.672  1.00  0.00    -0.504 OA
ATOM     19  H   UNL     1      31.652 -10.002 -21.257  1.00  0.00     0.293 HD
ENDBRANCH  15  18
BRANCH  17  20
ATOM     20  O   UNL     1      32.211  -6.524 -22.778  1.00  0.00    -0.504 OA
ATOM     21  H   UNL     1      31.451  -5.928 -22.473  1.00  0.00     0.293 HD
ENDBRANCH  17  20
ENDBRANCH   1  12
BRANCH   2  22
ATOM     22  O   UNL     1      34.124  -8.820 -27.519  1.00  0.00    -0.502 OA
ATOM     23  H   UNL     1      34.699  -9.591 -27.834  1.00  0.00     0.293 HD
ENDBRANCH   2  22
BRANCH   6  24
ATOM     24  O   UNL     1      32.353  -7.664 -32.408  1.00  0.00    -0.507 OA
ATOM     25  H   UNL     1      33.315  -7.916 -32.241  1.00  0.00     0.293 HD
ENDBRANCH   6  24
BRANCH   8  26
ATOM     26  O   UNL     1      27.628  -7.490 -31.570  1.00  0.00    -0.508 OA
ATOM     27  H   UNL     1      27.139  -8.240 -32.047  1.00  0.00     0.293 HD
ENDBRANCH   8  26
TORSDOF 6
ENDMDL
MODEL 6
REMARK VINA RESULT:    -5.177      3.040      4.093
REMARK INTER + INTRA:          -6.551
REMARK INTER:                  -6.269
REMARK INTRA:                  -0.282
REMARK UNBOUND:                -0.315
REMARK SMILES O=c1c(O)c(-c2ccc(O)c(O)c2)oc2cc(O)cc(O)c12
REMARK SMILES IDX 5 1 3 2 2 3 1 4 22 5 20 6 19 7 17 8 16 9 15 10 14 11 6 12
REMARK SMILES IDX 7 13 8 14 9 15 13 16 11 17 10 18 12 20 4 22 21 24 18 26
REMARK H PARENT 10 19 12 21 4 23 21 25 18 27
REMARK Flexibility Score: inf
ROOT
ATOM      1  C   UNL     1      23.078   5.058 -22.680  1.00  0.00     0.180 A 
ATOM      2  C   UNL     1      24.136   5.172 -23.599  1.00  0.00     0.208 A 
ATOM      3  C   UNL     1      24.038   4.513 -24.835  1.00  0.00     0.238 A 
ATOM      4  O   UNL     1      25.011   4.575 -25.630  1.00  0.00    -0.285 OA
ATOM      5  C   UNL     1      22.879   3.761 -25.143  1.00  0.00     0.111 A 
ATOM      6  C   UNL     1      22.657   3.086 -26.381  1.00  0.00     0.134 A 
ATOM      7  C   UNL     1      21.532   2.265 -26.527  1.00  0.00     0.093 A 
ATOM      8  C   UNL     1      20.588   2.146 -25.504  1.00  0.00     0.123 A 
ATOM      9  C   UNL     1      20.766   2.849 -24.315  1.00  0.00     0.094 A 
ATOM     10  C   UNL     1      21.896   3.647 -24.125  1.00  0.00     0.146 A 
ATOM     11  O   UNL     1      22.033   4.291 -22.972  1.00  0.00    -0.452 OA
ENDROOT
BRANCH   1  12
ATOM     12  C   UNL     1      23.096   5.743 -21.368  1.00  0.00     0.025 A 
ATOM     13  C   UNL     1      23.297   4.993 -20.198  1.00  0.00     0.016 A 
ATOM     14  C   UNL     1      23.297   5.616 -18.949  1.00  0.00     0.051 A 
ATOM     15  C   UNL     1      23.082   6.994 -18.845  1.00  0.00     0.157 A 
ATOM     16  C   UNL     1      22.860   7.125 -21.261  1.00  0.00     0.062 A 
ATOM     17  C   UNL     1      22.858   7.753 -20.006  1.00  0.00     0.158 A 
BRANCH  15  18
ATOM     18  O   UNL     1      23.090   7.589 -17.584  1.00  0.00    -0.504 OA
ATOM     19  H   UNL     1      23.940   7.944 -17.162  1.00  0.00     0.293 HD
ENDBRANCH  15  18
BRANCH  17  20
ATOM     20  O   UNL     1      22.628   9.125 -19.909  1.00  0.00    -0.504 OA
ATOM     21  H   UNL     1      23.314   9.802 -20.222  1.00  0.00     0.293 HD
ENDBRANCH  17  20
ENDBRANCH   1  12
BRANCH   2  22
ATOM     22  O   UNL     1      25.280   5.901 -23.265  1.00  0.00    -0.502 OA
ATOM     23  H   UNL     1      25.420   6.303 -22.347  1.00  0.00     0.293 HD
ENDBRANCH   2  22
BRANCH   6  24
ATOM     24  O   UNL     1      23.489   3.209 -27.498  1.00  0.00    -0.507 OA
ATOM     25  H   UNL     1      24.130   3.971 -27.655  1.00  0.00     0.293 HD
ENDBRANCH   6  24
BRANCH   8  26
ATOM     26  O   UNL     1      19.464   1.340 -25.663  1.00  0.00    -0.508 OA
ATOM     27  H   UNL     1      19.524   0.329 -25.607  1.00  0.00     0.293 HD
ENDBRANCH   8  26
TORSDOF 6
ENDMDL
MODEL 7
REMARK VINA RESULT:    -5.109     12.667     14.699
REMARK INTER + INTRA:          -6.469
REMARK INTER:                  -6.352
REMARK INTRA:                  -0.117
REMARK UNBOUND:                -0.315
REMARK SMILES O=c1c(O)c(-c2ccc(O)c(O)c2)oc2cc(O)cc(O)c12
REMARK SMILES IDX 5 1 3 2 2 3 1 4 22 5 20 6 19 7 17 8 16 9 15 10 14 11 6 12
REMARK SMILES IDX 7 13 8 14 9 15 13 16 11 17 10 18 12 20 4 22 21 24 18 26
REMARK H PARENT 10 19 12 21 4 23 21 25 18 27
REMARK Flexibility Score: inf
ROOT
ATOM      1  C   UNL     1      26.698  -5.131 -28.627  1.00  0.00     0.180 A 
ATOM      2  C   UNL     1      27.738  -4.186 -28.658  1.00  0.00     0.208 A 
ATOM      3  C   UNL     1      28.840  -4.415 -29.498  1.00  0.00     0.238 A 
ATOM      4  O   UNL     1      29.793  -3.593 -29.481  1.00  0.00    -0.285 OA
ATOM      5  C   UNL     1      28.880  -5.575 -30.308  1.00  0.00     0.111 A 
ATOM      6  C   UNL     1      29.928  -5.887 -31.226  1.00  0.00     0.134 A 
ATOM      7  C   UNL     1      29.927  -7.126 -31.879  1.00  0.00     0.093 A 
ATOM      8  C   UNL     1      28.883  -8.037 -31.697  1.00  0.00     0.123 A 
ATOM      9  C   UNL     1      27.826  -7.716 -30.848  1.00  0.00     0.094 A 
ATOM     10  C   UNL     1      27.817  -6.504 -30.155  1.00  0.00     0.146 A 
ATOM     11  O   UNL     1      26.795  -6.241 -29.349  1.00  0.00    -0.452 OA
ENDROOT
BRANCH   1  12
ATOM     12  C   UNL     1      25.493  -4.948 -27.786  1.00  0.00     0.025 A 
ATOM     13  C   UNL     1      24.674  -3.825 -27.986  1.00  0.00     0.016 A 
ATOM     14  C   UNL     1      23.544  -3.622 -27.190  1.00  0.00     0.051 A 
ATOM     15  C   UNL     1      23.222  -4.528 -26.175  1.00  0.00     0.157 A 
ATOM     16  C   UNL     1      25.179  -5.847 -26.751  1.00  0.00     0.062 A 
ATOM     17  C   UNL     1      24.045  -5.644 -25.950  1.00  0.00     0.158 A 
BRANCH  15  18
ATOM     18  O   UNL     1      22.086  -4.300 -25.398  1.00  0.00    -0.504 OA
ATOM     19  H   UNL     1      21.152  -4.330 -25.789  1.00  0.00     0.293 HD
ENDBRANCH  15  18
BRANCH  17  20
ATOM     20  O   UNL     1      23.738  -6.543 -24.929  1.00  0.00    -0.504 OA
ATOM     21  H   UNL     1      24.263  -7.401 -24.802  1.00  0.00     0.293 HD
ENDBRANCH  17  20
ENDBRANCH   1  12
BRANCH   2  22
ATOM     22  O   UNL     1      27.689  -3.059 -27.834  1.00  0.00    -0.502 OA
ATOM     23  H   UNL     1      27.295  -3.083 -26.902  1.00  0.00     0.293 HD
ENDBRANCH   2  22
BRANCH   6  24
ATOM     24  O   UNL     1      30.968  -5.012 -31.550  1.00  0.00    -0.507 OA
ATOM     25  H   UNL     1      31.661  -4.678 -30.898  1.00  0.00     0.293 HD
ENDBRANCH   6  24
BRANCH   8  26
ATOM     26  O   UNL     1      28.883  -9.260 -32.362  1.00  0.00    -0.508 OA
ATOM     27  H   UNL     1      28.492 -10.094 -31.938  1.00  0.00     0.293 HD
ENDBRANCH   8  26
TORSDOF 6
ENDMDL
MODEL 8
REMARK VINA RESULT:    -5.107     16.765     18.089
REMARK INTER + INTRA:          -6.466
REMARK INTER:                  -6.168
REMARK INTRA:                  -0.298
REMARK UNBOUND:                -0.315
REMARK SMILES O=c1c(O)c(-c2ccc(O)c(O)c2)oc2cc(O)cc(O)c12
REMARK SMILES IDX 5 1 3 2 2 3 1 4 22 5 20 6 19 7 17 8 16 9 15 10 14 11 6 12
REMARK SMILES IDX 7 13 8 14 9 15 13 16 11 17 10 18 12 20 4 22 21 24 18 26
REMARK H PARENT 10 19 12 21 4 23 21 25 18 27
REMARK Flexibility Score: inf
ROOT
ATOM      1  C   UNL     1      31.709  -7.955 -27.031  1.00  0.00     0.180 A 
ATOM      2  C   UNL     1      30.368  -7.570 -27.200  1.00  0.00     0.208 A 
ATOM      3  C   UNL     1      29.862  -7.422 -28.501  1.00  0.00     0.238 A 
ATOM      4  O   UNL     1      28.676  -7.025 -28.646  1.00  0.00    -0.285 OA
ATOM      5  C   UNL     1      30.697  -7.677 -29.616  1.00  0.00     0.111 A 
ATOM      6  C   UNL     1      30.277  -7.598 -30.978  1.00  0.00     0.134 A 
ATOM      7  C   UNL     1      31.221  -7.743 -32.001  1.00  0.00     0.093 A 
ATOM      8  C   UNL     1      32.558  -8.030 -31.712  1.00  0.00     0.123 A 
ATOM      9  C   UNL     1      32.965  -8.168 -30.388  1.00  0.00     0.094 A 
ATOM     10  C   UNL     1      32.054  -7.992 -29.344  1.00  0.00     0.146 A 
ATOM     11  O   UNL     1      32.485  -8.123 -28.095  1.00  0.00    -0.452 OA
ENDROOT
BRANCH   1  12
ATOM     12  C   UNL     1      32.308  -8.156 -25.691  1.00  0.00     0.025 A 
ATOM     13  C   UNL     1      33.183  -7.187 -25.173  1.00  0.00     0.016 A 
ATOM     14  C   UNL     1      33.776  -7.367 -23.921  1.00  0.00     0.051 A 
ATOM     15  C   UNL     1      33.516  -8.519 -23.174  1.00  0.00     0.157 A 
ATOM     16  C   UNL     1      32.064  -9.324 -24.948  1.00  0.00     0.062 A 
ATOM     17  C   UNL     1      32.660  -9.506 -23.690  1.00  0.00     0.158 A 
BRANCH  15  18
ATOM     18  O   UNL     1      34.120  -8.669 -21.926  1.00  0.00    -0.504 OA
ATOM     19  H   UNL     1      34.491  -7.881 -21.410  1.00  0.00     0.293 HD
ENDBRANCH  15  18
BRANCH  17  20
ATOM     20  O   UNL     1      32.409 -10.665 -22.957  1.00  0.00    -0.504 OA
ATOM     21  H   UNL     1      31.686 -11.321 -23.232  1.00  0.00     0.293 HD
ENDBRANCH  17  20
ENDBRANCH   1  12
BRANCH   2  22
ATOM     22  O   UNL     1      29.568  -7.302 -26.086  1.00  0.00    -0.502 OA
ATOM     23  H   UNL     1      28.828  -7.924 -25.786  1.00  0.00     0.293 HD
ENDBRANCH   2  22
BRANCH   6  24
ATOM     24  O   UNL     1      28.950  -7.407 -31.376  1.00  0.00    -0.507 OA
ATOM     25  H   UNL     1      28.664  -6.875 -32.184  1.00  0.00     0.293 HD
ENDBRANCH   6  24
BRANCH   8  26
ATOM     26  O   UNL     1      33.488  -8.188 -32.736  1.00  0.00    -0.508 OA
ATOM     27  H   UNL     1      34.375  -8.655 -32.581  1.00  0.00     0.293 HD
ENDBRANCH   8  26
TORSDOF 6
ENDMDL
MODEL 9
REMARK VINA RESULT:    -4.976     14.254     16.401
REMARK INTER + INTRA:          -6.310
REMARK INTER:                  -5.982
REMARK INTRA:                  -0.328
REMARK UNBOUND:                -0.315
REMARK SMILES O=c1c(O)c(-c2ccc(O)c(O)c2)oc2cc(O)cc(O)c12
REMARK SMILES IDX 5 1 3 2 2 3 1 4 22 5 20 6 19 7 17 8 16 9 15 10 14 11 6 12
REMARK SMILES IDX 7 13 8 14 9 15 13 16 11 17 10 18 12 20 4 22 21 24 18 26
REMARK H PARENT 10 19 12 21 4 23 21 25 18 27
REMARK Flexibility Score: inf
ROOT
ATOM      1  C   UNL     1      28.023  -6.804 -28.739  1.00  0.00     0.180 A 
ATOM      2  C   UNL     1      27.915  -7.436 -29.990  1.00  0.00     0.208 A 
ATOM      3  C   UNL     1      29.083  -7.684 -30.729  1.00  0.00     0.238 A 
ATOM      4  O   UNL     1      28.976  -8.201 -31.872  1.00  0.00    -0.285 OA
ATOM      5  C   UNL     1      30.344  -7.314 -30.201  1.00  0.00     0.111 A 
ATOM      6  C   UNL     1      31.595  -7.555 -30.846  1.00  0.00     0.134 A 
ATOM      7  C   UNL     1      32.769  -7.029 -30.293  1.00  0.00     0.093 A 
ATOM      8  C   UNL     1      32.745  -6.327 -29.085  1.00  0.00     0.123 A 
ATOM      9  C   UNL     1      31.536  -6.138 -28.419  1.00  0.00     0.094 A 
ATOM     10  C   UNL     1      30.344  -6.619 -28.964  1.00  0.00     0.146 A 
ATOM     11  O   UNL     1      29.213  -6.409 -28.301  1.00  0.00    -0.452 OA
ENDROOT
BRANCH   1  12
ATOM     12  C   UNL     1      26.840  -6.530 -27.891  1.00  0.00     0.025 A 
ATOM     13  C   UNL     1      26.160  -5.309 -28.026  1.00  0.00     0.016 A 
ATOM     14  C   UNL     1      25.055  -5.022 -27.221  1.00  0.00     0.051 A 
ATOM     15  C   UNL     1      24.621  -5.941 -26.261  1.00  0.00     0.157 A 
ATOM     16  C   UNL     1      26.415  -7.445 -26.911  1.00  0.00     0.062 A 
ATOM     17  C   UNL     1      25.305  -7.157 -26.101  1.00  0.00     0.158 A 
BRANCH  15  18
ATOM     18  O   UNL     1      23.513  -5.628 -25.474  1.00  0.00    -0.504 OA
ATOM     19  H   UNL     1      22.698  -6.226 -25.430  1.00  0.00     0.293 HD
ENDBRANCH  15  18
BRANCH  17  20
ATOM     20  O   UNL     1      24.887  -8.072 -25.135  1.00  0.00    -0.504 OA
ATOM     21  H   UNL     1      25.446  -8.883 -24.895  1.00  0.00     0.293 HD
ENDBRANCH  17  20
ENDBRANCH   1  12
BRANCH   2  22
ATOM     22  O   UNL     1      26.660  -7.773 -30.502  1.00  0.00    -0.502 OA
ATOM     23  H   UNL     1      26.335  -8.730 -30.559  1.00  0.00     0.293 HD
ENDBRANCH   2  22
BRANCH   6  24
ATOM     24  O   UNL     1      31.740  -8.321 -32.006  1.00  0.00    -0.507 OA
ATOM     25  H   UNL     1      30.976  -8.658 -32.571  1.00  0.00     0.293 HD
ENDBRANCH   6  24
BRANCH   8  26
ATOM     26  O   UNL     1      33.919  -5.820 -28.534  1.00  0.00    -0.508 OA
ATOM     27  H   UNL     1      34.596  -6.424 -28.082  1.00  0.00     0.293 HD
ENDBRANCH   8  26
TORSDOF 6
ENDMDL
