MODEL 1
REMARK VINA RESULT:    -4.275      0.000      0.000
REMARK INTER + INTRA:         -12.990
REMARK INTER:                 -10.772
REMARK INTRA:                  -2.218
REMARK UNBOUND:                -2.218
REMARK SMILES CCCCCCCCCCCCCCCCCCCCCCCCCCCC(=O)[O-]
REMARK SMILES IDX 15 1 16 2 17 3 18 4 19 5 20 6 21 7 22 8 23 9 24 10 25 11
REMARK SMILES IDX 26 12 27 13 28 14 29 15 30 16 14 17 13 18 12 19 11 20 10 21
REMARK SMILES IDX 9 22 8 23 7 24 6 25 5 26 4 27 3 28 2 29 1 30
REMARK H PARENT
REMARK Flexibility Score: inf
ROOT
ATOM      1  C   UNL     1       4.278   9.162  15.327  1.00  0.00     0.000 C 
ENDROOT
BRANCH   1   2
ATOM      2  C   UNL     1       3.521  10.060  14.329  1.00  0.00     0.000 C 
BRANCH   2   3
ATOM      3  C   UNL     1       2.217   9.448  13.766  1.00  0.00     0.000 C 
BRANCH   3   4
ATOM      4  C   UNL     1       2.145   7.906  13.767  1.00  0.00     0.000 C 
BRANCH   4   5
ATOM      5  C   UNL     1       2.452   7.290  12.390  1.00  0.00     0.000 C 
BRANCH   5   6
ATOM      6  C   UNL     1       2.546   8.342  11.273  1.00  0.00     0.000 C 
BRANCH   6   7
ATOM      7  C   UNL     1       3.231   7.811  10.001  1.00  0.00     0.000 C 
BRANCH   7   8
ATOM      8  C   UNL     1       4.722   7.499  10.233  1.00  0.00     0.000 C 
BRANCH   8   9
ATOM      9  C   UNL     1       5.418   8.579  11.083  1.00  0.00     0.000 C 
BRANCH   9  10
ATOM     10  C   UNL     1       6.284   9.536  10.242  1.00  0.00     0.000 C 
BRANCH  10  11
ATOM     11  C   UNL     1       7.788   9.509  10.572  1.00  0.00     0.000 C 
BRANCH  11  12
ATOM     12  C   UNL     1       8.213   8.235  11.323  1.00  0.00     0.006 C 
BRANCH  12  13
ATOM     13  C   UNL     1       8.026   6.969  10.470  1.00  0.00     0.053 C 
BRANCH  13  14
ATOM     14  C   UNL     1       9.220   6.069  10.548  1.00  0.00     0.041 C 
ATOM     15  O   UNL     1       9.511   5.499  11.630  1.00  0.00    -0.550 OA
ATOM     16  O   UNL     1       9.992   5.829   9.416  1.00  0.00    -0.550 OA
ENDBRANCH  13  14
ENDBRANCH  12  13
ENDBRANCH  11  12
ENDBRANCH  10  11
ENDBRANCH   9  10
ENDBRANCH   8   9
ENDBRANCH   7   8
ENDBRANCH   6   7
ENDBRANCH   5   6
ENDBRANCH   4   5
ENDBRANCH   3   4
ENDBRANCH   2   3
ENDBRANCH   1   2
BRANCH   1  17
ATOM     17  C   UNL     1       3.847   9.412  16.784  1.00  0.00     0.000 C 
BRANCH  17  18
ATOM     18  C   UNL     1       2.437   8.872  17.080  1.00  0.00     0.000 C 
BRANCH  18  19
ATOM     19  C   UNL     1       2.121   8.744  18.584  1.00  0.00     0.000 C 
BRANCH  19  20
ATOM     20  C   UNL     1       2.853   7.593  19.310  1.00  0.00     0.000 C 
BRANCH  20  21
ATOM     21  C   UNL     1       2.106   6.241  19.251  1.00  0.00     0.000 C 
BRANCH  21  22
ATOM     22  C   UNL     1       1.971   5.679  17.826  1.00  0.00    -0.000 C 
BRANCH  22  23
ATOM     23  C   UNL     1       3.134   4.739  17.452  1.00  0.00    -0.000 C 
BRANCH  23  24
ATOM     24  C   UNL     1       4.509   5.308  17.857  1.00  0.00    -0.000 C 
BRANCH  24  25
ATOM     25  C   UNL     1       5.167   6.202  16.790  1.00  0.00    -0.000 C 
BRANCH  25  26
ATOM     26  C   UNL     1       5.249   5.518  15.412  1.00  0.00    -0.000 C 
BRANCH  26  27
ATOM     27  C   UNL     1       6.004   6.363  14.372  1.00  0.00    -0.000 C 
BRANCH  27  28
ATOM     28  C   UNL     1       7.386   5.817  13.959  1.00  0.00    -0.000 C 
BRANCH  28  29
ATOM     29  C   UNL     1       8.352   5.584  15.140  1.00  0.00    -0.003 C 
ATOM     30  C   UNL     1       9.522   4.658  14.787  1.00  0.00     0.004 C 
ENDBRANCH  28  29
ENDBRANCH  27  28
ENDBRANCH  26  27
ENDBRANCH  25  26
ENDBRANCH  24  25
ENDBRANCH  23  24
ENDBRANCH  22  23
ENDBRANCH  21  22
ENDBRANCH  20  21
ENDBRANCH  19  20
ENDBRANCH  18  19
ENDBRANCH  17  18
ENDBRANCH   1  17
TORSDOF 26
ENDMDL
MODEL 2
REMARK VINA RESULT:    -4.075      2.059      6.125
REMARK INTER + INTRA:         -12.486
REMARK INTER:                  -8.550
REMARK INTRA:                  -3.936
REMARK UNBOUND:                -2.218
REMARK SMILES CCCCCCCCCCCCCCCCCCCCCCCCCCCC(=O)[O-]
REMARK SMILES IDX 15 1 16 2 17 3 18 4 19 5 20 6 21 7 22 8 23 9 24 10 25 11
REMARK SMILES IDX 26 12 27 13 28 14 29 15 30 16 14 17 13 18 12 19 11 20 10 21
REMARK SMILES IDX 9 22 8 23 7 24 6 25 5 26 4 27 3 28 2 29 1 30
REMARK H PARENT
REMARK Flexibility Score: inf
ROOT
ATOM      1  C   UNL     1       4.056   9.476  16.086  1.00  0.00     0.000 C 
ENDROOT
BRANCH   1   2
ATOM      2  C   UNL     1       3.258   8.733  17.174  1.00  0.00     0.000 C 
BRANCH   2   3
ATOM      3  C   UNL     1       1.909   8.142  16.698  1.00  0.00     0.000 C 
BRANCH   3   4
ATOM      4  C   UNL     1       1.971   6.712  16.121  1.00  0.00     0.000 C 
BRANCH   4   5
ATOM      5  C   UNL     1       2.384   5.659  17.165  1.00  0.00     0.000 C 
BRANCH   5   6
ATOM      6  C   UNL     1       3.699   4.948  16.807  1.00  0.00     0.000 C 
BRANCH   6   7
ATOM      7  C   UNL     1       4.907   5.480  17.598  1.00  0.00     0.000 C 
BRANCH   7   8
ATOM      8  C   UNL     1       5.804   6.393  16.742  1.00  0.00     0.000 C 
BRANCH   8   9
ATOM      9  C   UNL     1       6.135   5.768  15.374  1.00  0.00     0.000 C 
BRANCH   9  10
ATOM     10  C   UNL     1       7.375   6.399  14.712  1.00  0.00     0.000 C 
BRANCH  10  11
ATOM     11  C   UNL     1       8.514   5.413  14.396  1.00  0.00     0.000 C 
BRANCH  11  12
ATOM     12  C   UNL     1       9.507   5.252  15.561  1.00  0.00     0.006 C 
BRANCH  12  13
ATOM     13  C   UNL     1      10.630   4.255  15.232  1.00  0.00     0.053 C 
BRANCH  13  14
ATOM     14  C   UNL     1      11.753   4.344  16.218  1.00  0.00     0.041 C 
ATOM     15  O   UNL     1      12.430   5.400  16.309  1.00  0.00    -0.550 OA
ATOM     16  O   UNL     1      12.031   3.274  17.063  1.00  0.00    -0.550 OA
ENDBRANCH  13  14
ENDBRANCH  12  13
ENDBRANCH  11  12
ENDBRANCH  10  11
ENDBRANCH   9  10
ENDBRANCH   8   9
ENDBRANCH   7   8
ENDBRANCH   6   7
ENDBRANCH   5   6
ENDBRANCH   4   5
ENDBRANCH   3   4
ENDBRANCH   2   3
ENDBRANCH   1   2
BRANCH   1  17
ATOM     17  C   UNL     1       3.191   9.830  14.861  1.00  0.00     0.000 C 
BRANCH  17  18
ATOM     18  C   UNL     1       3.845   9.399  13.537  1.00  0.00     0.000 C 
BRANCH  18  19
ATOM     19  C   UNL     1       3.970   7.871  13.371  1.00  0.00     0.000 C 
BRANCH  19  20
ATOM     20  C   UNL     1       4.865   7.412  12.199  1.00  0.00     0.000 C 
BRANCH  20  21
ATOM     21  C   UNL     1       4.075   6.938  10.958  1.00  0.00     0.000 C 
BRANCH  21  22
ATOM     22  C   UNL     1       4.322   7.802   9.710  1.00  0.00    -0.000 C 
BRANCH  22  23
ATOM     23  C   UNL     1       4.873   9.199  10.061  1.00  0.00    -0.000 C 
BRANCH  23  24
ATOM     24  C   UNL     1       5.847   9.737   8.993  1.00  0.00    -0.000 C 
BRANCH  24  25
ATOM     25  C   UNL     1       7.299   9.895   9.480  1.00  0.00    -0.000 C 
BRANCH  25  26
ATOM     26  C   UNL     1       7.433   9.748  11.006  1.00  0.00    -0.000 C 
BRANCH  26  27
ATOM     27  C   UNL     1       8.272   8.525  11.415  1.00  0.00    -0.000 C 
BRANCH  27  28
ATOM     28  C   UNL     1       7.963   7.227  10.642  1.00  0.00    -0.000 C 
BRANCH  28  29
ATOM     29  C   UNL     1       8.919   6.059  10.959  1.00  0.00    -0.003 C 
ATOM     30  C   UNL     1       9.717   5.584   9.739  1.00  0.00     0.004 C 
ENDBRANCH  28  29
ENDBRANCH  27  28
ENDBRANCH  26  27
ENDBRANCH  25  26
ENDBRANCH  24  25
ENDBRANCH  23  24
ENDBRANCH  22  23
ENDBRANCH  21  22
ENDBRANCH  20  21
ENDBRANCH  19  20
ENDBRANCH  18  19
ENDBRANCH  17  18
ENDBRANCH   1  17
TORSDOF 26
ENDMDL
MODEL 3
REMARK VINA RESULT:    -3.955      1.052      1.923
REMARK INTER + INTRA:         -12.183
REMARK INTER:                  -9.689
REMARK INTRA:                  -2.494
REMARK UNBOUND:                -2.218
REMARK SMILES CCCCCCCCCCCCCCCCCCCCCCCCCCCC(=O)[O-]
REMARK SMILES IDX 15 1 16 2 17 3 18 4 19 5 20 6 21 7 22 8 23 9 24 10 25 11
REMARK SMILES IDX 26 12 27 13 28 14 29 15 30 16 14 17 13 18 12 19 11 20 10 21
REMARK SMILES IDX 9 22 8 23 7 24 6 25 5 26 4 27 3 28 2 29 1 30
REMARK H PARENT
REMARK Flexibility Score: inf
ROOT
ATOM      1  C   UNL     1       3.109   8.187  13.936  1.00  0.00     0.000 C 
ENDROOT
BRANCH   1   2
ATOM      2  C   UNL     1       1.912   8.306  12.973  1.00  0.00     0.000 C 
BRANCH   2   3
ATOM      3  C   UNL     1       2.262   8.850  11.568  1.00  0.00     0.000 C 
BRANCH   3   4
ATOM      4  C   UNL     1       2.275   7.808  10.430  1.00  0.00     0.000 C 
BRANCH   4   5
ATOM      5  C   UNL     1       3.508   6.886  10.472  1.00  0.00     0.000 C 
BRANCH   5   6
ATOM      6  C   UNL     1       4.641   7.365   9.551  1.00  0.00     0.000 C 
BRANCH   6   7
ATOM      7  C   UNL     1       4.610   8.883   9.295  1.00  0.00     0.000 C 
BRANCH   7   8
ATOM      8  C   UNL     1       6.024   9.475   9.147  1.00  0.00     0.000 C 
BRANCH   8   9
ATOM      9  C   UNL     1       6.678   9.769  10.510  1.00  0.00     0.000 C 
BRANCH   9  10
ATOM     10  C   UNL     1       6.440   8.651  11.543  1.00  0.00     0.000 C 
BRANCH  10  11
ATOM     11  C   UNL     1       7.698   8.187  12.299  1.00  0.00     0.000 C 
BRANCH  11  12
ATOM     12  C   UNL     1       8.860   7.822  11.359  1.00  0.00     0.006 C 
BRANCH  12  13
ATOM     13  C   UNL     1       9.113   6.306  11.310  1.00  0.00     0.053 C 
BRANCH  13  14
ATOM     14  C   UNL     1       8.968   5.767   9.921  1.00  0.00     0.041 C 
ATOM     15  O   UNL     1       9.988   5.532   9.225  1.00  0.00    -0.550 OA
ATOM     16  O   UNL     1       7.705   5.486   9.406  1.00  0.00    -0.550 OA
ENDBRANCH  13  14
ENDBRANCH  12  13
ENDBRANCH  11  12
ENDBRANCH  10  11
ENDBRANCH   9  10
ENDBRANCH   8   9
ENDBRANCH   7   8
ENDBRANCH   6   7
ENDBRANCH   5   6
ENDBRANCH   4   5
ENDBRANCH   3   4
ENDBRANCH   2   3
ENDBRANCH   1   2
BRANCH   1  17
ATOM     17  C   UNL     1       2.688   8.300  15.413  1.00  0.00     0.000 C 
BRANCH  17  18
ATOM     18  C   UNL     1       3.450   9.409  16.158  1.00  0.00     0.000 C 
BRANCH  18  19
ATOM     19  C   UNL     1       2.874   9.733  17.552  1.00  0.00     0.000 C 
BRANCH  19  20
ATOM     20  C   UNL     1       1.875   8.692  18.104  1.00  0.00     0.000 C 
BRANCH  20  21
ATOM     21  C   UNL     1       2.255   8.137  19.496  1.00  0.00     0.000 C 
BRANCH  21  22
ATOM     22  C   UNL     1       2.939   6.762  19.439  1.00  0.00    -0.000 C 
BRANCH  22  23
ATOM     23  C   UNL     1       2.104   5.721  18.668  1.00  0.00    -0.000 C 
BRANCH  23  24
ATOM     24  C   UNL     1       2.808   5.228  17.387  1.00  0.00    -0.000 C 
BRANCH  24  25
ATOM     25  C   UNL     1       4.266   5.701  17.241  1.00  0.00    -0.000 C 
BRANCH  25  26
ATOM     26  C   UNL     1       4.895   5.279  15.900  1.00  0.00    -0.000 C 
BRANCH  26  27
ATOM     27  C   UNL     1       5.676   6.419  15.224  1.00  0.00    -0.000 C 
BRANCH  27  28
ATOM     28  C   UNL     1       7.209   6.341  15.369  1.00  0.00    -0.000 C 
BRANCH  28  29
ATOM     29  C   UNL     1       7.910   5.535  14.256  1.00  0.00    -0.003 C 
ATOM     30  C   UNL     1       9.083   4.692  14.770  1.00  0.00     0.004 C 
ENDBRANCH  28  29
ENDBRANCH  27  28
ENDBRANCH  26  27
ENDBRANCH  25  26
ENDBRANCH  24  25
ENDBRANCH  23  24
ENDBRANCH  22  23
ENDBRANCH  21  22
ENDBRANCH  20  21
ENDBRANCH  19  20
ENDBRANCH  18  19
ENDBRANCH  17  18
ENDBRANCH   1  17
TORSDOF 26
ENDMDL
MODEL 4
REMARK VINA RESULT:    -3.706      3.037      6.495
REMARK INTER + INTRA:         -11.557
REMARK INTER:                  -8.499
REMARK INTRA:                  -3.058
REMARK UNBOUND:                -2.218
REMARK SMILES CCCCCCCCCCCCCCCCCCCCCCCCCCCC(=O)[O-]
REMARK SMILES IDX 15 1 16 2 17 3 18 4 19 5 20 6 21 7 22 8 23 9 24 10 25 11
REMARK SMILES IDX 26 12 27 13 28 14 29 15 30 16 14 17 13 18 12 19 11 20 10 21
REMARK SMILES IDX 9 22 8 23 7 24 6 25 5 26 4 27 3 28 2 29 1 30
REMARK H PARENT
REMARK Flexibility Score: inf
ROOT
ATOM      1  C   UNL     1       7.639  10.125  10.595  1.00  0.00     0.000 C 
ENDROOT
BRANCH   1   2
ATOM      2  C   UNL     1       6.838   9.484   9.446  1.00  0.00     0.000 C 
BRANCH   2   3
ATOM      3  C   UNL     1       5.343   9.881   9.397  1.00  0.00     0.000 C 
BRANCH   3   4
ATOM      4  C   UNL     1       4.353   8.731   9.118  1.00  0.00     0.000 C 
BRANCH   4   5
ATOM      5  C   UNL     1       4.612   7.489   9.991  1.00  0.00     0.000 C 
BRANCH   5   6
ATOM      6  C   UNL     1       3.334   6.949  10.652  1.00  0.00     0.000 C 
BRANCH   6   7
ATOM      7  C   UNL     1       2.333   8.057  11.025  1.00  0.00     0.000 C 
BRANCH   7   8
ATOM      8  C   UNL     1       2.189   8.219  12.550  1.00  0.00     0.000 C 
BRANCH   8   9
ATOM      9  C   UNL     1       3.466   8.782  13.200  1.00  0.00     0.000 C 
BRANCH   9  10
ATOM     10  C   UNL     1       3.310   9.030  14.713  1.00  0.00     0.000 C 
BRANCH  10  11
ATOM     11  C   UNL     1       1.968   8.569  15.310  1.00  0.00     0.000 C 
BRANCH  11  12
ATOM     12  C   UNL     1       2.049   7.175  15.958  1.00  0.00     0.006 C 
BRANCH  12  13
ATOM     13  C   UNL     1       3.491   6.791  16.329  1.00  0.00     0.053 C 
BRANCH  13  14
ATOM     14  C   UNL     1       3.599   6.373  17.763  1.00  0.00     0.041 C 
ATOM     15  O   UNL     1       4.578   5.685  18.147  1.00  0.00    -0.550 OA
ATOM     16  O   UNL     1       2.638   6.776  18.685  1.00  0.00    -0.550 OA
ENDBRANCH  13  14
ENDBRANCH  12  13
ENDBRANCH  11  12
ENDBRANCH  10  11
ENDBRANCH   9  10
ENDBRANCH   8   9
ENDBRANCH   7   8
ENDBRANCH   6   7
ENDBRANCH   5   6
ENDBRANCH   4   5
ENDBRANCH   3   4
ENDBRANCH   2   3
ENDBRANCH   1   2
BRANCH   1  17
ATOM     17  C   UNL     1       8.426   9.085  11.414  1.00  0.00     0.000 C 
BRANCH  17  18
ATOM     18  C   UNL     1       8.428   7.696  10.752  1.00  0.00     0.000 C 
BRANCH  18  19
ATOM     19  C   UNL     1       7.580   6.647  11.501  1.00  0.00     0.000 C 
BRANCH  19  20
ATOM     20  C   UNL     1       6.817   7.183  12.732  1.00  0.00     0.000 C 
BRANCH  20  21
ATOM     21  C   UNL     1       5.775   6.194  13.301  1.00  0.00     0.000 C 
BRANCH  21  22
ATOM     22  C   UNL     1       6.211   5.540  14.623  1.00  0.00    -0.000 C 
BRANCH  22  23
ATOM     23  C   UNL     1       7.594   6.031  15.094  1.00  0.00    -0.000 C 
BRANCH  23  24
ATOM     24  C   UNL     1       8.727   5.050  14.731  1.00  0.00    -0.000 C 
BRANCH  24  25
ATOM     25  C   UNL     1       9.751   4.816  15.857  1.00  0.00    -0.000 C 
BRANCH  25  26
ATOM     26  C   UNL     1      11.200   4.763  15.339  1.00  0.00    -0.000 C 
BRANCH  26  27
ATOM     27  C   UNL     1      12.226   4.546  16.464  1.00  0.00    -0.000 C 
BRANCH  27  28
ATOM     28  C   UNL     1      12.337   3.098  16.983  1.00  0.00    -0.000 C 
BRANCH  28  29
ATOM     29  C   UNL     1      12.404   2.031  15.871  1.00  0.00    -0.003 C 
ATOM     30  C   UNL     1      13.637   1.126  15.977  1.00  0.00     0.004 C 
ENDBRANCH  28  29
ENDBRANCH  27  28
ENDBRANCH  26  27
ENDBRANCH  25  26
ENDBRANCH  24  25
ENDBRANCH  23  24
ENDBRANCH  22  23
ENDBRANCH  21  22
ENDBRANCH  20  21
ENDBRANCH  19  20
ENDBRANCH  18  19
ENDBRANCH  17  18
ENDBRANCH   1  17
TORSDOF 26
ENDMDL
MODEL 5
REMARK VINA RESULT:    -3.515      1.447      2.970
REMARK INTER + INTRA:         -11.075
REMARK INTER:                  -8.545
REMARK INTRA:                  -2.530
REMARK UNBOUND:                -2.218
REMARK SMILES CCCCCCCCCCCCCCCCCCCCCCCCCCCC(=O)[O-]
REMARK SMILES IDX 15 1 16 2 17 3 18 4 19 5 20 6 21 7 22 8 23 9 24 10 25 11
REMARK SMILES IDX 26 12 27 13 28 14 29 15 30 16 14 17 13 18 12 19 11 20 10 21
REMARK SMILES IDX 9 22 8 23 7 24 6 25 5 26 4 27 3 28 2 29 1 30
REMARK H PARENT
REMARK Flexibility Score: inf
ROOT
ATOM      1  C   UNL     1       2.289   7.632  15.631  1.00  0.00     0.000 C 
ENDROOT
BRANCH   1   2
ATOM      2  C   UNL     1       2.021   8.994  14.963  1.00  0.00     0.000 C 
BRANCH   2   3
ATOM      3  C   UNL     1       2.850   9.265  13.686  1.00  0.00     0.000 C 
BRANCH   3   4
ATOM      4  C   UNL     1       2.136   8.974  12.349  1.00  0.00     0.000 C 
BRANCH   4   5
ATOM      5  C   UNL     1       1.988   7.469  12.061  1.00  0.00     0.000 C 
BRANCH   5   6
ATOM      6  C   UNL     1       2.759   7.024  10.807  1.00  0.00     0.000 C 
BRANCH   6   7
ATOM      7  C   UNL     1       2.980   8.165   9.799  1.00  0.00     0.000 C 
BRANCH   7   8
ATOM      8  C   UNL     1       4.395   8.134   9.190  1.00  0.00     0.000 C 
BRANCH   8   9
ATOM      9  C   UNL     1       5.373   7.294  10.032  1.00  0.00     0.000 C 
BRANCH   9  10
ATOM     10  C   UNL     1       6.224   8.149  10.991  1.00  0.00     0.000 C 
BRANCH  10  11
ATOM     11  C   UNL     1       7.690   8.342  10.561  1.00  0.00     0.000 C 
BRANCH  11  12
ATOM     12  C   UNL     1       8.690   7.711  11.545  1.00  0.00     0.006 C 
BRANCH  12  13
ATOM     13  C   UNL     1       8.729   6.179  11.430  1.00  0.00     0.053 C 
BRANCH  13  14
ATOM     14  C   UNL     1       8.942   5.736  10.016  1.00  0.00     0.041 C 
ATOM     15  O   UNL     1       8.004   5.198   9.375  1.00  0.00    -0.550 OA
ATOM     16  O   UNL     1      10.168   5.950   9.391  1.00  0.00    -0.550 OA
ENDBRANCH  13  14
ENDBRANCH  12  13
ENDBRANCH  11  12
ENDBRANCH  10  11
ENDBRANCH   9  10
ENDBRANCH   8   9
ENDBRANCH   7   8
ENDBRANCH   6   7
ENDBRANCH   5   6
ENDBRANCH   4   5
ENDBRANCH   3   4
ENDBRANCH   2   3
ENDBRANCH   1   2
BRANCH   1  17
ATOM     17  C   UNL     1       2.008   7.655  17.145  1.00  0.00     0.000 C 
BRANCH  17  18
ATOM     18  C   UNL     1       2.425   6.347  17.839  1.00  0.00     0.000 C 
BRANCH  18  19
ATOM     19  C   UNL     1       3.278   5.415  16.953  1.00  0.00     0.000 C 
BRANCH  19  20
ATOM     20  C   UNL     1       4.699   5.129  17.484  1.00  0.00     0.000 C 
BRANCH  20  21
ATOM     21  C   UNL     1       5.746   6.188  17.070  1.00  0.00     0.000 C 
BRANCH  21  22
ATOM     22  C   UNL     1       5.343   6.992  15.823  1.00  0.00    -0.000 C 
BRANCH  22  23
ATOM     23  C   UNL     1       6.267   6.715  14.620  1.00  0.00    -0.000 C 
BRANCH  23  24
ATOM     24  C   UNL     1       6.689   5.235  14.525  1.00  0.00    -0.000 C 
BRANCH  24  25
ATOM     25  C   UNL     1       8.169   5.017  14.159  1.00  0.00    -0.000 C 
BRANCH  25  26
ATOM     26  C   UNL     1       9.121   5.339  15.324  1.00  0.00    -0.000 C 
BRANCH  26  27
ATOM     27  C   UNL     1      10.296   4.351  15.424  1.00  0.00    -0.000 C 
BRANCH  27  28
ATOM     28  C   UNL     1      11.582   4.920  16.058  1.00  0.00    -0.000 C 
BRANCH  28  29
ATOM     29  C   UNL     1      12.425   3.877  16.820  1.00  0.00    -0.003 C 
ATOM     30  C   UNL     1      12.041   2.431  16.488  1.00  0.00     0.004 C 
ENDBRANCH  28  29
ENDBRANCH  27  28
ENDBRANCH  26  27
ENDBRANCH  25  26
ENDBRANCH  24  25
ENDBRANCH  23  24
ENDBRANCH  22  23
ENDBRANCH  21  22
ENDBRANCH  20  21
ENDBRANCH  19  20
ENDBRANCH  18  19
ENDBRANCH  17  18
ENDBRANCH   1  17
TORSDOF 26
ENDMDL
MODEL 6
REMARK VINA RESULT:    -3.479      3.786      6.773
REMARK INTER + INTRA:         -10.986
REMARK INTER:                  -8.537
REMARK INTRA:                  -2.449
REMARK UNBOUND:                -2.218
REMARK SMILES CCCCCCCCCCCCCCCCCCCCCCCCCCCC(=O)[O-]
REMARK SMILES IDX 15 1 16 2 17 3 18 4 19 5 20 6 21 7 22 8 23 9 24 10 25 11
REMARK SMILES IDX 26 12 27 13 28 14 29 15 30 16 14 17 13 18 12 19 11 20 10 21
REMARK SMILES IDX 9 22 8 23 7 24 6 25 5 26 4 27 3 28 2 29 1 30
REMARK H PARENT
REMARK Flexibility Score: inf
ROOT
ATOM      1  C   UNL     1       5.414   5.407  15.604  1.00  0.00     0.000 C 
ENDROOT
BRANCH   1   2
ATOM      2  C   UNL     1       4.757   5.570  16.988  1.00  0.00     0.000 C 
BRANCH   2   3
ATOM      3  C   UNL     1       3.294   5.074  17.073  1.00  0.00     0.000 C 
BRANCH   3   4
ATOM      4  C   UNL     1       2.255   6.125  17.517  1.00  0.00     0.000 C 
BRANCH   4   5
ATOM      5  C   UNL     1       2.464   7.497  16.850  1.00  0.00     0.000 C 
BRANCH   5   6
ATOM      6  C   UNL     1       2.040   7.512  15.372  1.00  0.00     0.000 C 
BRANCH   6   7
ATOM      7  C   UNL     1       2.884   8.470  14.512  1.00  0.00     0.000 C 
BRANCH   7   8
ATOM      8  C   UNL     1       2.781   8.143  13.010  1.00  0.00     0.000 C 
BRANCH   8   9
ATOM      9  C   UNL     1       3.988   7.330  12.507  1.00  0.00     0.000 C 
BRANCH   9  10
ATOM     10  C   UNL     1       3.776   6.759  11.091  1.00  0.00     0.000 C 
BRANCH  10  11
ATOM     11  C   UNL     1       4.491   7.530   9.967  1.00  0.00     0.000 C 
BRANCH  11  12
ATOM     12  C   UNL     1       5.948   7.882  10.314  1.00  0.00     0.006 C 
BRANCH  12  13
ATOM     13  C   UNL     1       6.904   6.705  10.064  1.00  0.00     0.053 C 
BRANCH  13  14
ATOM     14  C   UNL     1       8.261   6.962  10.643  1.00  0.00     0.041 C 
ATOM     15  O   UNL     1       8.606   8.133  10.946  1.00  0.00    -0.550 OA
ATOM     16  O   UNL     1       9.133   5.905  10.885  1.00  0.00    -0.550 OA
ENDBRANCH  13  14
ENDBRANCH  12  13
ENDBRANCH  11  12
ENDBRANCH  10  11
ENDBRANCH   9  10
ENDBRANCH   8   9
ENDBRANCH   7   8
ENDBRANCH   6   7
ENDBRANCH   5   6
ENDBRANCH   4   5
ENDBRANCH   3   4
ENDBRANCH   2   3
ENDBRANCH   1   2
BRANCH   1  17
ATOM     17  C   UNL     1       6.351   6.579  15.257  1.00  0.00     0.000 C 
BRANCH  17  18
ATOM     18  C   UNL     1       7.201   6.300  14.005  1.00  0.00     0.000 C 
BRANCH  18  19
ATOM     19  C   UNL     1       8.238   5.174  14.195  1.00  0.00     0.000 C 
BRANCH  19  20
ATOM     20  C   UNL     1       9.203   5.368  15.385  1.00  0.00     0.000 C 
BRANCH  20  21
ATOM     21  C   UNL     1      10.484   4.507  15.298  1.00  0.00     0.000 C 
BRANCH  21  22
ATOM     22  C   UNL     1      11.547   4.885  16.343  1.00  0.00    -0.000 C 
BRANCH  22  23
ATOM     23  C   UNL     1      12.570   3.755  16.575  1.00  0.00    -0.000 C 
BRANCH  23  24
ATOM     24  C   UNL     1      11.901   2.377  16.753  1.00  0.00    -0.000 C 
BRANCH  24  25
ATOM     25  C   UNL     1      12.768   1.186  16.304  1.00  0.00    -0.000 C 
BRANCH  25  26
ATOM     26  C   UNL     1      14.076   1.629  15.622  1.00  0.00    -0.000 C 
BRANCH  26  27
ATOM     27  C   UNL     1      15.161   0.539  15.651  1.00  0.00    -0.000 C 
BRANCH  27  28
ATOM     28  C   UNL     1      16.608   1.056  15.779  1.00  0.00    -0.000 C 
BRANCH  28  29
ATOM     29  C   UNL     1      17.667  -0.057  15.923  1.00  0.00    -0.003 C 
ATOM     30  C   UNL     1      18.406  -0.016  17.265  1.00  0.00     0.004 C 
ENDBRANCH  28  29
ENDBRANCH  27  28
ENDBRANCH  26  27
ENDBRANCH  25  26
ENDBRANCH  24  25
ENDBRANCH  23  24
ENDBRANCH  22  23
ENDBRANCH  21  22
ENDBRANCH  20  21
ENDBRANCH  19  20
ENDBRANCH  18  19
ENDBRANCH  17  18
ENDBRANCH   1  17
TORSDOF 26
ENDMDL
MODEL 7
REMARK VINA RESULT:    -3.474      1.667      3.502
REMARK INTER + INTRA:         -10.972
REMARK INTER:                  -7.767
REMARK INTRA:                  -3.206
REMARK UNBOUND:                -2.218
REMARK SMILES CCCCCCCCCCCCCCCCCCCCCCCCCCCC(=O)[O-]
REMARK SMILES IDX 15 1 16 2 17 3 18 4 19 5 20 6 21 7 22 8 23 9 24 10 25 11
REMARK SMILES IDX 26 12 27 13 28 14 29 15 30 16 14 17 13 18 12 19 11 20 10 21
REMARK SMILES IDX 9 22 8 23 7 24 6 25 5 26 4 27 3 28 2 29 1 30
REMARK H PARENT
REMARK Flexibility Score: inf
ROOT
ATOM      1  C   UNL     1       3.307   9.582  13.050  1.00  0.00     0.000 C 
ENDROOT
BRANCH   1   2
ATOM      2  C   UNL     1       4.130   8.379  12.551  1.00  0.00     0.000 C 
BRANCH   2   3
ATOM      3  C   UNL     1       3.293   7.232  11.935  1.00  0.00     0.000 C 
BRANCH   3   4
ATOM      4  C   UNL     1       3.750   6.741  10.546  1.00  0.00     0.000 C 
BRANCH   4   5
ATOM      5  C   UNL     1       4.849   7.623   9.927  1.00  0.00     0.000 C 
BRANCH   5   6
ATOM      6  C   UNL     1       4.296   8.916   9.306  1.00  0.00     0.000 C 
BRANCH   6   7
ATOM      7  C   UNL     1       5.272  10.102   9.414  1.00  0.00     0.000 C 
BRANCH   7   8
ATOM      8  C   UNL     1       6.668   9.754   8.865  1.00  0.00     0.000 C 
BRANCH   8   9
ATOM      9  C   UNL     1       7.788  10.076   9.872  1.00  0.00     0.000 C 
BRANCH   9  10
ATOM     10  C   UNL     1       7.453   9.621  11.305  1.00  0.00     0.000 C 
BRANCH  10  11
ATOM     11  C   UNL     1       8.395   8.548  11.882  1.00  0.00     0.000 C 
BRANCH  11  12
ATOM     12  C   UNL     1       8.014   7.122  11.451  1.00  0.00     0.006 C 
BRANCH  12  13
ATOM     13  C   UNL     1       9.248   6.263  11.129  1.00  0.00     0.053 C 
BRANCH  13  14
ATOM     14  C   UNL     1       9.133   5.613   9.785  1.00  0.00     0.041 C 
ATOM     15  O   UNL     1      10.169   5.315   9.138  1.00  0.00    -0.550 OA
ATOM     16  O   UNL     1       7.882   5.302   9.261  1.00  0.00    -0.550 OA
ENDBRANCH  13  14
ENDBRANCH  12  13
ENDBRANCH  11  12
ENDBRANCH  10  11
ENDBRANCH   9  10
ENDBRANCH   8   9
ENDBRANCH   7   8
ENDBRANCH   6   7
ENDBRANCH   5   6
ENDBRANCH   4   5
ENDBRANCH   3   4
ENDBRANCH   2   3
ENDBRANCH   1   2
BRANCH   1  17
ATOM     17  C   UNL     1       3.734  10.042  14.457  1.00  0.00     0.000 C 
BRANCH  17  18
ATOM     18  C   UNL     1       3.104   9.188  15.570  1.00  0.00     0.000 C 
BRANCH  18  19
ATOM     19  C   UNL     1       4.118   8.685  16.619  1.00  0.00     0.000 C 
BRANCH  19  20
ATOM     20  C   UNL     1       3.978   7.195  16.999  1.00  0.00     0.000 C 
BRANCH  20  21
ATOM     21  C   UNL     1       5.156   6.315  16.523  1.00  0.00     0.000 C 
BRANCH  21  22
ATOM     22  C   UNL     1       5.362   6.340  15.000  1.00  0.00    -0.000 C 
BRANCH  22  23
ATOM     23  C   UNL     1       6.836   6.564  14.609  1.00  0.00    -0.000 C 
BRANCH  23  24
ATOM     24  C   UNL     1       7.801   5.640  15.380  1.00  0.00    -0.000 C 
BRANCH  24  25
ATOM     25  C   UNL     1       9.071   5.254  14.600  1.00  0.00    -0.000 C 
BRANCH  25  26
ATOM     26  C   UNL     1       9.994   4.314  15.397  1.00  0.00    -0.000 C 
BRANCH  26  27
ATOM     27  C   UNL     1      11.376   4.929  15.672  1.00  0.00    -0.000 C 
BRANCH  27  28
ATOM     28  C   UNL     1      12.220   4.200  16.737  1.00  0.00    -0.000 C 
BRANCH  28  29
ATOM     29  C   UNL     1      12.796   2.847  16.270  1.00  0.00    -0.003 C 
ATOM     30  C   UNL     1      12.005   1.642  16.794  1.00  0.00     0.004 C 
ENDBRANCH  28  29
ENDBRANCH  27  28
ENDBRANCH  26  27
ENDBRANCH  25  26
ENDBRANCH  24  25
ENDBRANCH  23  24
ENDBRANCH  22  23
ENDBRANCH  21  22
ENDBRANCH  20  21
ENDBRANCH  19  20
ENDBRANCH  18  19
ENDBRANCH  17  18
ENDBRANCH   1  17
TORSDOF 26
ENDMDL
MODEL 8
REMARK VINA RESULT:    -3.412      2.551      6.002
REMARK INTER + INTRA:         -10.817
REMARK INTER:                  -7.696
REMARK INTRA:                  -3.121
REMARK UNBOUND:                -2.218
REMARK SMILES CCCCCCCCCCCCCCCCCCCCCCCCCCCC(=O)[O-]
REMARK SMILES IDX 15 1 16 2 17 3 18 4 19 5 20 6 21 7 22 8 23 9 24 10 25 11
REMARK SMILES IDX 26 12 27 13 28 14 29 15 30 16 14 17 13 18 12 19 11 20 10 21
REMARK SMILES IDX 9 22 8 23 7 24 6 25 5 26 4 27 3 28 2 29 1 30
REMARK H PARENT
REMARK Flexibility Score: inf
ROOT
ATOM      1  C   UNL     1       2.166   5.098  17.170  1.00  0.00     0.000 C 
ENDROOT
BRANCH   1   2
ATOM      2  C   UNL     1       3.648   4.772  16.904  1.00  0.00     0.000 C 
BRANCH   2   3
ATOM      3  C   UNL     1       4.639   5.375  17.927  1.00  0.00     0.000 C 
BRANCH   3   4
ATOM      4  C   UNL     1       5.816   6.173  17.330  1.00  0.00     0.000 C 
BRANCH   4   5
ATOM      5  C   UNL     1       5.612   6.527  15.846  1.00  0.00     0.000 C 
BRANCH   5   6
ATOM      6  C   UNL     1       6.936   6.761  15.101  1.00  0.00     0.000 C 
BRANCH   6   7
ATOM      7  C   UNL     1       7.131   5.811  13.905  1.00  0.00     0.000 C 
BRANCH   7   8
ATOM      8  C   UNL     1       8.290   4.823  14.135  1.00  0.00     0.000 C 
BRANCH   8   9
ATOM      9  C   UNL     1       9.283   5.325  15.199  1.00  0.00     0.000 C 
BRANCH   9  10
ATOM     10  C   UNL     1      10.622   4.562  15.177  1.00  0.00     0.000 C 
BRANCH  10  11
ATOM     11  C   UNL     1      11.555   4.855  16.366  1.00  0.00     0.000 C 
BRANCH  11  12
ATOM     12  C   UNL     1      12.592   3.743  16.600  1.00  0.00     0.006 C 
BRANCH  12  13
ATOM     13  C   UNL     1      11.953   2.345  16.604  1.00  0.00     0.053 C 
BRANCH  13  14
ATOM     14  C   UNL     1      12.923   1.292  16.166  1.00  0.00     0.041 C 
ATOM     15  O   UNL     1      12.688   0.079  16.399  1.00  0.00    -0.550 OA
ATOM     16  O   UNL     1      14.073   1.646  15.465  1.00  0.00    -0.550 OA
ENDBRANCH  13  14
ENDBRANCH  12  13
ENDBRANCH  11  12
ENDBRANCH  10  11
ENDBRANCH   9  10
ENDBRANCH   8   9
ENDBRANCH   7   8
ENDBRANCH   6   7
ENDBRANCH   5   6
ENDBRANCH   4   5
ENDBRANCH   3   4
ENDBRANCH   2   3
ENDBRANCH   1   2
BRANCH   1  17
ATOM     17  C   UNL     1       1.990   6.293  18.126  1.00  0.00     0.000 C 
BRANCH  17  18
ATOM     18  C   UNL     1       1.881   7.633  17.377  1.00  0.00     0.000 C 
BRANCH  18  19
ATOM     19  C   UNL     1       2.531   8.817  18.120  1.00  0.00     0.000 C 
BRANCH  19  20
ATOM     20  C   UNL     1       3.078   9.939  17.210  1.00  0.00     0.000 C 
BRANCH  20  21
ATOM     21  C   UNL     1       4.167   9.465  16.221  1.00  0.00     0.000 C 
BRANCH  21  22
ATOM     22  C   UNL     1       3.798   9.697  14.747  1.00  0.00    -0.000 C 
BRANCH  22  23
ATOM     23  C   UNL     1       3.213   8.435  14.081  1.00  0.00    -0.000 C 
BRANCH  23  24
ATOM     24  C   UNL     1       4.081   7.926  12.912  1.00  0.00    -0.000 C 
BRANCH  24  25
ATOM     25  C   UNL     1       3.313   7.722  11.593  1.00  0.00    -0.000 C 
BRANCH  25  26
ATOM     26  C   UNL     1       4.058   6.801  10.610  1.00  0.00    -0.000 C 
BRANCH  26  27
ATOM     27  C   UNL     1       5.556   7.132  10.502  1.00  0.00    -0.000 C 
BRANCH  27  28
ATOM     28  C   UNL     1       5.884   8.503   9.876  1.00  0.00    -0.000 C 
BRANCH  28  29
ATOM     29  C   UNL     1       7.297   9.027  10.206  1.00  0.00    -0.003 C 
ATOM     30  C   UNL     1       7.937   8.322  11.407  1.00  0.00     0.004 C 
ENDBRANCH  28  29
ENDBRANCH  27  28
ENDBRANCH  26  27
ENDBRANCH  25  26
ENDBRANCH  24  25
ENDBRANCH  23  24
ENDBRANCH  22  23
ENDBRANCH  21  22
ENDBRANCH  20  21
ENDBRANCH  19  20
ENDBRANCH  18  19
ENDBRANCH  17  18
ENDBRANCH   1  17
TORSDOF 26
ENDMDL
MODEL 9
REMARK VINA RESULT:    -3.352      2.575      6.958
REMARK INTER + INTRA:         -10.665
REMARK INTER:                  -8.478
REMARK INTRA:                  -2.187
REMARK UNBOUND:                -2.218
REMARK SMILES CCCCCCCCCCCCCCCCCCCCCCCCCCCC(=O)[O-]
REMARK SMILES IDX 15 1 16 2 17 3 18 4 19 5 20 6 21 7 22 8 23 9 24 10 25 11
REMARK SMILES IDX 26 12 27 13 28 14 29 15 30 16 14 17 13 18 12 19 11 20 10 21
REMARK SMILES IDX 9 22 8 23 7 24 6 25 5 26 4 27 3 28 2 29 1 30
REMARK H PARENT
REMARK Flexibility Score: inf
ROOT
ATOM      1  C   UNL     1       7.389   9.839   9.238  1.00  0.00     0.000 C 
ENDROOT
BRANCH   1   2
ATOM      2  C   UNL     1       7.622  10.120  10.735  1.00  0.00     0.000 C 
BRANCH   2   3
ATOM      3  C   UNL     1       8.036   8.886  11.570  1.00  0.00     0.000 C 
BRANCH   3   4
ATOM      4  C   UNL     1       7.681   7.514  10.959  1.00  0.00     0.000 C 
BRANCH   4   5
ATOM      5  C   UNL     1       8.906   6.598  10.785  1.00  0.00     0.000 C 
BRANCH   5   6
ATOM      6  C   UNL     1       9.105   5.637  11.968  1.00  0.00     0.000 C 
BRANCH   6   7
ATOM      7  C   UNL     1       8.068   5.836  13.087  1.00  0.00     0.000 C 
BRANCH   7   8
ATOM      8  C   UNL     1       8.314   4.891  14.279  1.00  0.00     0.000 C 
BRANCH   8   9
ATOM      9  C   UNL     1       9.355   5.453  15.263  1.00  0.00     0.000 C 
BRANCH   9  10
ATOM     10  C   UNL     1      10.377   4.394  15.723  1.00  0.00     0.000 C 
BRANCH  10  11
ATOM     11  C   UNL     1      11.803   4.926  15.954  1.00  0.00     0.000 C 
BRANCH  11  12
ATOM     12  C   UNL     1      12.743   3.874  16.567  1.00  0.00     0.006 C 
BRANCH  12  13
ATOM     13  C   UNL     1      12.062   2.503  16.713  1.00  0.00     0.053 C 
BRANCH  13  14
ATOM     14  C   UNL     1      12.895   1.407  16.123  1.00  0.00     0.041 C 
ATOM     15  O   UNL     1      13.959   1.682  15.514  1.00  0.00    -0.550 OA
ATOM     16  O   UNL     1      12.515   0.077  16.279  1.00  0.00    -0.550 OA
ENDBRANCH  13  14
ENDBRANCH  12  13
ENDBRANCH  11  12
ENDBRANCH  10  11
ENDBRANCH   9  10
ENDBRANCH   8   9
ENDBRANCH   7   8
ENDBRANCH   6   7
ENDBRANCH   5   6
ENDBRANCH   4   5
ENDBRANCH   3   4
ENDBRANCH   2   3
ENDBRANCH   1   2
BRANCH   1  17
ATOM     17  C   UNL     1       5.933  10.105   8.810  1.00  0.00     0.000 C 
BRANCH  17  18
ATOM     18  C   UNL     1       4.914   9.429   9.743  1.00  0.00     0.000 C 
BRANCH  18  19
ATOM     19  C   UNL     1       4.648   7.947   9.407  1.00  0.00     0.000 C 
BRANCH  19  20
ATOM     20  C   UNL     1       4.053   7.112  10.561  1.00  0.00     0.000 C 
BRANCH  20  21
ATOM     21  C   UNL     1       2.563   7.408  10.843  1.00  0.00     0.000 C 
BRANCH  21  22
ATOM     22  C   UNL     1       2.291   7.859  12.288  1.00  0.00    -0.000 C 
BRANCH  22  23
ATOM     23  C   UNL     1       3.560   8.387  12.987  1.00  0.00    -0.000 C 
BRANCH  23  24
ATOM     24  C   UNL     1       3.601   8.030  14.487  1.00  0.00    -0.000 C 
BRANCH  24  25
ATOM     25  C   UNL     1       4.792   7.145  14.898  1.00  0.00    -0.000 C 
BRANCH  25  26
ATOM     26  C   UNL     1       5.050   7.165  16.416  1.00  0.00    -0.000 C 
BRANCH  26  27
ATOM     27  C   UNL     1       4.994   5.765  17.049  1.00  0.00    -0.000 C 
BRANCH  27  28
ATOM     28  C   UNL     1       3.646   5.030  16.901  1.00  0.00    -0.000 C 
BRANCH  28  29
ATOM     29  C   UNL     1       2.597   5.414  17.964  1.00  0.00    -0.003 C 
ATOM     30  C   UNL     1       3.014   6.618  18.817  1.00  0.00     0.004 C 
ENDBRANCH  28  29
ENDBRANCH  27  28
ENDBRANCH  26  27
ENDBRANCH  25  26
ENDBRANCH  24  25
ENDBRANCH  23  24
ENDBRANCH  22  23
ENDBRANCH  21  22
ENDBRANCH  20  21
ENDBRANCH  19  20
ENDBRANCH  18  19
ENDBRANCH  17  18
ENDBRANCH   1  17
TORSDOF 26
ENDMDL
