MODEL 1
REMARK VINA RESULT:    -3.960      0.000      0.000
REMARK INTER + INTRA:          -9.659
REMARK INTER:                  -7.433
REMARK INTRA:                  -2.226
REMARK UNBOUND:                -2.226
REMARK SMILES CCCCCCCCC=CCCCCCCCC(=O)[O-]
REMARK SMILES IDX 10 1 9 2 11 3 12 4 13 5 14 6 15 7 16 8 17 9 18 10 19 11
REMARK SMILES IDX 20 12 8 13 7 14 6 15 5 16 4 17 3 18 2 19 1 20
REMARK H PARENT
REMARK Flexibility Score: inf
ROOT
ATOM      1  C   UNL     1      17.314  10.038   1.470  1.00  0.00    -0.031 C 
ATOM      2  C   UNL     1      16.819  10.064   2.722  1.00  0.00    -0.031 C 
ENDROOT
BRANCH   1   3
ATOM      3  C   UNL     1      17.140  11.141   0.458  1.00  0.00     0.027 C 
BRANCH   3   4
ATOM      4  C   UNL     1      16.529  10.594  -0.842  1.00  0.00     0.004 C 
BRANCH   4   5
ATOM      5  C   UNL     1      17.333   9.420  -1.422  1.00  0.00     0.000 C 
BRANCH   5   6
ATOM      6  C   UNL     1      16.434   8.270  -1.902  1.00  0.00     0.000 C 
BRANCH   6   7
ATOM      7  C   UNL     1      17.067   6.909  -1.577  1.00  0.00     0.000 C 
BRANCH   7   8
ATOM      8  C   UNL     1      18.104   6.988  -0.442  1.00  0.00     0.006 C 
BRANCH   8   9
ATOM      9  C   UNL     1      17.599   6.467   0.914  1.00  0.00     0.053 C 
BRANCH   9  10
ATOM     10  C   UNL     1      18.567   5.512   1.544  1.00  0.00     0.041 C 
ATOM     11  O   UNL     1      19.605   5.944   2.110  1.00  0.00    -0.550 OA
ATOM     12  O   UNL     1      18.336   4.144   1.478  1.00  0.00    -0.550 OA
ENDBRANCH   9  10
ENDBRANCH   8   9
ENDBRANCH   7   8
ENDBRANCH   6   7
ENDBRANCH   5   6
ENDBRANCH   4   5
ENDBRANCH   3   4
ENDBRANCH   1   3
BRANCH   2  13
ATOM     13  C   UNL     1      15.947  11.163   3.275  1.00  0.00     0.027 C 
BRANCH  13  14
ATOM     14  C   UNL     1      16.326  11.480   4.726  1.00  0.00     0.004 C 
BRANCH  14  15
ATOM     15  C   UNL     1      17.191  12.746   4.803  1.00  0.00     0.000 C 
BRANCH  15  16
ATOM     16  C   UNL     1      18.657  12.489   4.416  1.00  0.00     0.000 C 
BRANCH  16  17
ATOM     17  C   UNL     1      19.041  13.073   3.038  1.00  0.00    -0.000 C 
BRANCH  17  18
ATOM     18  C   UNL     1      18.435  14.463   2.776  1.00  0.00    -0.000 C 
BRANCH  18  19
ATOM     19  C   UNL     1      17.555  14.486   1.519  1.00  0.00    -0.003 C 
ATOM     20  C   UNL     1      16.076  14.568   1.883  1.00  0.00     0.004 C 
ENDBRANCH  18  19
ENDBRANCH  17  18
ENDBRANCH  16  17
ENDBRANCH  15  16
ENDBRANCH  14  15
ENDBRANCH  13  14
ENDBRANCH   2  13
TORSDOF 15
ENDMDL
MODEL 2
REMARK VINA RESULT:    -3.679      1.672      3.649
REMARK INTER + INTRA:          -9.130
REMARK INTER:                  -7.387
REMARK INTRA:                  -1.743
REMARK UNBOUND:                -2.226
REMARK SMILES CCCCCCCCC=CCCCCCCCC(=O)[O-]
REMARK SMILES IDX 10 1 9 2 11 3 12 4 13 5 14 6 15 7 16 8 17 9 18 10 19 11
REMARK SMILES IDX 20 12 8 13 7 14 6 15 5 16 4 17 3 18 2 19 1 20
REMARK H PARENT
REMARK Flexibility Score: inf
ROOT
ATOM      1  C   UNL     1      18.251  11.757   4.565  1.00  0.00    -0.031 C 
ATOM      2  C   UNL     1      18.955  12.799   4.082  1.00  0.00    -0.031 C 
ENDROOT
BRANCH   1   3
ATOM      3  C   UNL     1      16.745  11.676   4.582  1.00  0.00     0.027 C 
BRANCH   3   4
ATOM      4  C   UNL     1      16.226  10.959   3.326  1.00  0.00     0.004 C 
BRANCH   4   5
ATOM      5  C   UNL     1      17.283  10.042   2.691  1.00  0.00     0.000 C 
BRANCH   5   6
ATOM      6  C   UNL     1      17.585  10.412   1.232  1.00  0.00     0.000 C 
BRANCH   6   7
ATOM      7  C   UNL     1      17.174   9.276   0.283  1.00  0.00     0.000 C 
BRANCH   7   8
ATOM      8  C   UNL     1      17.381   7.880   0.898  1.00  0.00     0.006 C 
BRANCH   8   9
ATOM      9  C   UNL     1      18.060   6.869  -0.040  1.00  0.00     0.053 C 
BRANCH   9  10
ATOM     10  C   UNL     1      18.635   5.706   0.709  1.00  0.00     0.041 C 
ATOM     11  O   UNL     1      18.527   4.539   0.247  1.00  0.00    -0.550 OA
ATOM     12  O   UNL     1      19.261   5.907   1.932  1.00  0.00    -0.550 OA
ENDBRANCH   9  10
ENDBRANCH   8   9
ENDBRANCH   7   8
ENDBRANCH   6   7
ENDBRANCH   5   6
ENDBRANCH   4   5
ENDBRANCH   3   4
ENDBRANCH   1   3
BRANCH   2  13
ATOM     13  C   UNL     1      18.346  14.075   3.559  1.00  0.00     0.027 C 
BRANCH  13  14
ATOM     14  C   UNL     1      18.078  13.973   2.053  1.00  0.00     0.004 C 
BRANCH  14  15
ATOM     15  C   UNL     1      16.653  14.432   1.718  1.00  0.00     0.000 C 
BRANCH  15  16
ATOM     16  C   UNL     1      16.272  14.166   0.251  1.00  0.00     0.000 C 
BRANCH  16  17
ATOM     17  C   UNL     1      16.185  15.449  -0.605  1.00  0.00    -0.000 C 
BRANCH  17  18
ATOM     18  C   UNL     1      16.432  16.736   0.202  1.00  0.00    -0.000 C 
BRANCH  18  19
ATOM     19  C   UNL     1      17.455  17.658  -0.475  1.00  0.00    -0.003 C 
ATOM     20  C   UNL     1      18.709  17.813   0.380  1.00  0.00     0.004 C 
ENDBRANCH  18  19
ENDBRANCH  17  18
ENDBRANCH  16  17
ENDBRANCH  15  16
ENDBRANCH  14  15
ENDBRANCH  13  14
ENDBRANCH   2  13
TORSDOF 15
ENDMDL
MODEL 3
REMARK VINA RESULT:    -3.651      3.013      7.370
REMARK INTER + INTRA:          -9.078
REMARK INTER:                  -7.200
REMARK INTRA:                  -1.878
REMARK UNBOUND:                -2.226
REMARK SMILES CCCCCCCCC=CCCCCCCCC(=O)[O-]
REMARK SMILES IDX 10 1 9 2 11 3 12 4 13 5 14 6 15 7 16 8 17 9 18 10 19 11
REMARK SMILES IDX 20 12 8 13 7 14 6 15 5 16 4 17 3 18 2 19 1 20
REMARK H PARENT
REMARK Flexibility Score: inf
ROOT
ATOM      1  C   UNL     1      15.937  10.899   0.247  1.00  0.00    -0.031 C 
ATOM      2  C   UNL     1      16.138  10.837  -1.083  1.00  0.00    -0.031 C 
ENDROOT
BRANCH   1   3
ATOM      3  C   UNL     1      15.919   9.704   1.166  1.00  0.00     0.027 C 
BRANCH   3   4
ATOM      4  C   UNL     1      17.342   9.346   1.620  1.00  0.00     0.004 C 
BRANCH   4   5
ATOM      5  C   UNL     1      17.873  10.300   2.701  1.00  0.00     0.000 C 
BRANCH   5   6
ATOM      6  C   UNL     1      16.811  10.648   3.754  1.00  0.00     0.000 C 
BRANCH   6   7
ATOM      7  C   UNL     1      17.213  11.903   4.544  1.00  0.00     0.000 C 
BRANCH   7   8
ATOM      8  C   UNL     1      18.648  12.368   4.235  1.00  0.00     0.006 C 
BRANCH   8   9
ATOM      9  C   UNL     1      18.802  13.891   4.090  1.00  0.00     0.053 C 
BRANCH   9  10
ATOM     10  C   UNL     1      18.638  14.339   2.669  1.00  0.00     0.041 C 
ATOM     11  O   UNL     1      19.349  15.273   2.213  1.00  0.00    -0.550 OA
ATOM     12  O   UNL     1      17.677  13.745   1.860  1.00  0.00    -0.550 OA
ENDBRANCH   9  10
ENDBRANCH   8   9
ENDBRANCH   7   8
ENDBRANCH   6   7
ENDBRANCH   5   6
ENDBRANCH   4   5
ENDBRANCH   3   4
ENDBRANCH   1   3
BRANCH   2  13
ATOM     13  C   UNL     1      16.293   9.559  -1.867  1.00  0.00     0.027 C 
BRANCH  13  14
ATOM     14  C   UNL     1      17.774   9.202  -2.039  1.00  0.00     0.004 C 
BRANCH  14  15
ATOM     15  C   UNL     1      18.056   7.777  -1.545  1.00  0.00     0.000 C 
BRANCH  15  16
ATOM     16  C   UNL     1      16.773   6.952  -1.343  1.00  0.00     0.000 C 
BRANCH  16  17
ATOM     17  C   UNL     1      17.017   5.426  -1.336  1.00  0.00    -0.000 C 
BRANCH  17  18
ATOM     18  C   UNL     1      18.085   4.987  -0.318  1.00  0.00    -0.000 C 
BRANCH  18  19
ATOM     19  C   UNL     1      17.741   5.427   1.111  1.00  0.00    -0.003 C 
ATOM     20  C   UNL     1      18.945   6.066   1.796  1.00  0.00     0.004 C 
ENDBRANCH  18  19
ENDBRANCH  17  18
ENDBRANCH  16  17
ENDBRANCH  15  16
ENDBRANCH  14  15
ENDBRANCH  13  14
ENDBRANCH   2  13
TORSDOF 15
ENDMDL
MODEL 4
REMARK VINA RESULT:    -3.588      4.284      8.084
REMARK INTER + INTRA:          -8.960
REMARK INTER:                  -7.214
REMARK INTRA:                  -1.746
REMARK UNBOUND:                -2.226
REMARK SMILES CCCCCCCCC=CCCCCCCCC(=O)[O-]
REMARK SMILES IDX 10 1 9 2 11 3 12 4 13 5 14 6 15 7 16 8 17 9 18 10 19 11
REMARK SMILES IDX 20 12 8 13 7 14 6 15 5 16 4 17 3 18 2 19 1 20
REMARK H PARENT
REMARK Flexibility Score: inf
ROOT
ATOM      1  C   UNL     1      18.329  10.892   4.029  1.00  0.00    -0.031 C 
ATOM      2  C   UNL     1      17.982  10.165   2.949  1.00  0.00    -0.031 C 
ENDROOT
BRANCH   1   3
ATOM      3  C   UNL     1      17.597  12.122   4.502  1.00  0.00     0.027 C 
BRANCH   3   4
ATOM      4  C   UNL     1      18.496  13.364   4.392  1.00  0.00     0.004 C 
BRANCH   4   5
ATOM      5  C   UNL     1      18.419  14.026   3.007  1.00  0.00     0.000 C 
BRANCH   5   6
ATOM      6  C   UNL     1      16.982  14.111   2.473  1.00  0.00     0.000 C 
BRANCH   6   7
ATOM      7  C   UNL     1      16.971  14.541   0.998  1.00  0.00     0.000 C 
BRANCH   7   8
ATOM      8  C   UNL     1      16.189  15.846   0.763  1.00  0.00     0.006 C 
BRANCH   8   9
ATOM      9  C   UNL     1      16.632  16.634  -0.480  1.00  0.00     0.053 C 
BRANCH   9  10
ATOM     10  C   UNL     1      17.461  17.829  -0.121  1.00  0.00     0.041 C 
ATOM     11  O   UNL     1      18.610  17.679   0.371  1.00  0.00    -0.550 OA
ATOM     12  O   UNL     1      16.951  19.109  -0.301  1.00  0.00    -0.550 OA
ENDBRANCH   9  10
ENDBRANCH   8   9
ENDBRANCH   7   8
ENDBRANCH   6   7
ENDBRANCH   5   6
ENDBRANCH   4   5
ENDBRANCH   3   4
ENDBRANCH   1   3
BRANCH   2  13
ATOM     13  C   UNL     1      16.862  10.516   2.004  1.00  0.00     0.027 C 
BRANCH  13  14
ATOM     14  C   UNL     1      17.407  10.832   0.607  1.00  0.00     0.004 C 
BRANCH  14  15
ATOM     15  C   UNL     1      16.601  10.101  -0.475  1.00  0.00     0.000 C 
BRANCH  15  16
ATOM     16  C   UNL     1      17.435   9.055  -1.233  1.00  0.00     0.000 C 
BRANCH  16  17
ATOM     17  C   UNL     1      17.130   7.600  -0.810  1.00  0.00    -0.000 C 
BRANCH  17  18
ATOM     18  C   UNL     1      18.377   6.698  -0.792  1.00  0.00    -0.000 C 
BRANCH  18  19
ATOM     19  C   UNL     1      18.499   5.903   0.515  1.00  0.00    -0.003 C 
ATOM     20  C   UNL     1      18.098   6.753   1.716  1.00  0.00     0.004 C 
ENDBRANCH  18  19
ENDBRANCH  17  18
ENDBRANCH  16  17
ENDBRANCH  15  16
ENDBRANCH  14  15
ENDBRANCH  13  14
ENDBRANCH   2  13
TORSDOF 15
ENDMDL
MODEL 5
REMARK VINA RESULT:    -3.539      2.653      7.249
REMARK INTER + INTRA:          -8.868
REMARK INTER:                  -7.106
REMARK INTRA:                  -1.763
REMARK UNBOUND:                -2.226
REMARK SMILES CCCCCCCCC=CCCCCCCCC(=O)[O-]
REMARK SMILES IDX 10 1 9 2 11 3 12 4 13 5 14 6 15 7 16 8 17 9 18 10 19 11
REMARK SMILES IDX 20 12 8 13 7 14 6 15 5 16 4 17 3 18 2 19 1 20
REMARK H PARENT
REMARK Flexibility Score: inf
ROOT
ATOM      1  C   UNL     1      16.895   9.578   1.313  1.00  0.00    -0.031 C 
ATOM      2  C   UNL     1      16.316   8.538   0.684  1.00  0.00    -0.031 C 
ENDROOT
BRANCH   1   3
ATOM      3  C   UNL     1      17.284  10.873   0.645  1.00  0.00     0.027 C 
BRANCH   3   4
ATOM      4  C   UNL     1      16.138  11.893   0.727  1.00  0.00     0.004 C 
BRANCH   4   5
ATOM      5  C   UNL     1      16.643  13.344   0.774  1.00  0.00     0.000 C 
BRANCH   5   6
ATOM      6  C   UNL     1      16.783  13.873   2.209  1.00  0.00     0.000 C 
BRANCH   6   7
ATOM      7  C   UNL     1      18.261  13.957   2.620  1.00  0.00     0.000 C 
BRANCH   7   8
ATOM      8  C   UNL     1      18.505  13.493   4.068  1.00  0.00     0.006 C 
BRANCH   8   9
ATOM      9  C   UNL     1      18.112  12.032   4.340  1.00  0.00     0.053 C 
BRANCH   9  10
ATOM     10  C   UNL     1      16.670  11.901   4.726  1.00  0.00     0.041 C 
ATOM     11  O   UNL     1      16.180  12.650   5.612  1.00  0.00    -0.550 OA
ATOM     12  O   UNL     1      15.875  10.931   4.128  1.00  0.00    -0.550 OA
ENDBRANCH   9  10
ENDBRANCH   8   9
ENDBRANCH   7   8
ENDBRANCH   6   7
ENDBRANCH   5   6
ENDBRANCH   4   5
ENDBRANCH   3   4
ENDBRANCH   1   3
BRANCH   2  13
ATOM     13  C   UNL     1      16.045   8.476  -0.798  1.00  0.00     0.027 C 
BRANCH  13  14
ATOM     14  C   UNL     1      17.006   7.502  -1.487  1.00  0.00     0.004 C 
BRANCH  14  15
ATOM     15  C   UNL     1      16.260   6.258  -1.989  1.00  0.00     0.000 C 
BRANCH  15  16
ATOM     16  C   UNL     1      16.677   4.975  -1.251  1.00  0.00     0.000 C 
BRANCH  16  17
ATOM     17  C   UNL     1      16.077   4.859   0.168  1.00  0.00    -0.000 C 
BRANCH  17  18
ATOM     18  C   UNL     1      17.127   4.539   1.248  1.00  0.00    -0.000 C 
BRANCH  18  19
ATOM     19  C   UNL     1      18.501   5.136   0.916  1.00  0.00    -0.003 C 
ATOM     20  C   UNL     1      18.876   6.237   1.904  1.00  0.00     0.004 C 
ENDBRANCH  18  19
ENDBRANCH  17  18
ENDBRANCH  16  17
ENDBRANCH  15  16
ENDBRANCH  14  15
ENDBRANCH  13  14
ENDBRANCH   2  13
TORSDOF 15
ENDMDL
MODEL 6
REMARK VINA RESULT:    -3.537      4.272      7.729
REMARK INTER + INTRA:          -8.866
REMARK INTER:                  -7.116
REMARK INTRA:                  -1.749
REMARK UNBOUND:                -2.226
REMARK SMILES CCCCCCCCC=CCCCCCCCC(=O)[O-]
REMARK SMILES IDX 10 1 9 2 11 3 12 4 13 5 14 6 15 7 16 8 17 9 18 10 19 11
REMARK SMILES IDX 20 12 8 13 7 14 6 15 5 16 4 17 3 18 2 19 1 20
REMARK H PARENT
REMARK Flexibility Score: inf
ROOT
ATOM      1  C   UNL     1      18.985  12.562   4.329  1.00  0.00    -0.031 C 
ATOM      2  C   UNL     1      18.221  11.467   4.502  1.00  0.00    -0.031 C 
ENDROOT
BRANCH   1   3
ATOM      3  C   UNL     1      18.454  13.931   3.986  1.00  0.00     0.027 C 
BRANCH   3   4
ATOM      4  C   UNL     1      18.285  14.083   2.466  1.00  0.00     0.004 C 
BRANCH   4   5
ATOM      5  C   UNL     1      16.819  14.287   2.054  1.00  0.00     0.000 C 
BRANCH   5   6
ATOM      6  C   UNL     1      16.503  13.679   0.679  1.00  0.00     0.000 C 
BRANCH   6   7
ATOM      7  C   UNL     1      16.118  14.774  -0.327  1.00  0.00     0.000 C 
BRANCH   7   8
ATOM      8  C   UNL     1      16.221  16.192   0.264  1.00  0.00     0.006 C 
BRANCH   8   9
ATOM      9  C   UNL     1      16.948  17.202  -0.639  1.00  0.00     0.053 C 
BRANCH   9  10
ATOM     10  C   UNL     1      18.001  17.966   0.106  1.00  0.00     0.041 C 
ATOM     11  O   UNL     1      17.951  19.222   0.164  1.00  0.00    -0.550 OA
ATOM     12  O   UNL     1      19.054  17.289   0.709  1.00  0.00    -0.550 OA
ENDBRANCH   9  10
ENDBRANCH   8   9
ENDBRANCH   7   8
ENDBRANCH   6   7
ENDBRANCH   5   6
ENDBRANCH   4   5
ENDBRANCH   3   4
ENDBRANCH   1   3
BRANCH   2  13
ATOM     13  C   UNL     1      16.728  11.424   4.300  1.00  0.00     0.027 C 
BRANCH  13  14
ATOM     14  C   UNL     1      16.373  10.657   3.021  1.00  0.00     0.004 C 
BRANCH  14  15
ATOM     15  C   UNL     1      17.640  10.237   2.264  1.00  0.00     0.000 C 
BRANCH  15  16
ATOM     16  C   UNL     1      17.383   9.978   0.770  1.00  0.00     0.000 C 
BRANCH  16  17
ATOM     17  C   UNL     1      16.826   8.567   0.476  1.00  0.00    -0.000 C 
BRANCH  17  18
ATOM     18  C   UNL     1      17.822   7.665  -0.274  1.00  0.00    -0.000 C 
BRANCH  18  19
ATOM     19  C   UNL     1      18.078   6.344   0.465  1.00  0.00    -0.003 C 
ATOM     20  C   UNL     1      18.614   6.595   1.871  1.00  0.00     0.004 C 
ENDBRANCH  18  19
ENDBRANCH  17  18
ENDBRANCH  16  17
ENDBRANCH  15  16
ENDBRANCH  14  15
ENDBRANCH  13  14
ENDBRANCH   2  13
TORSDOF 15
ENDMDL
MODEL 7
REMARK VINA RESULT:    -3.483      1.622      2.501
REMARK INTER + INTRA:          -8.763
REMARK INTER:                  -6.702
REMARK INTRA:                  -2.060
REMARK UNBOUND:                -2.226
REMARK SMILES CCCCCCCCC=CCCCCCCCC(=O)[O-]
REMARK SMILES IDX 10 1 9 2 11 3 12 4 13 5 14 6 15 7 16 8 17 9 18 10 19 11
REMARK SMILES IDX 20 12 8 13 7 14 6 15 5 16 4 17 3 18 2 19 1 20
REMARK H PARENT
REMARK Flexibility Score: inf
ROOT
ATOM      1  C   UNL     1      17.763  10.180   2.737  1.00  0.00    -0.031 C 
ATOM      2  C   UNL     1      18.331  10.827   3.773  1.00  0.00    -0.031 C 
ENDROOT
BRANCH   1   3
ATOM      3  C   UNL     1      16.286  10.178   2.435  1.00  0.00     0.027 C 
BRANCH   3   4
ATOM      4  C   UNL     1      15.997  10.945   1.135  1.00  0.00     0.004 C 
BRANCH   4   5
ATOM      5  C   UNL     1      17.111  10.776   0.090  1.00  0.00     0.000 C 
BRANCH   5   6
ATOM      6  C   UNL     1      16.606  10.139  -1.212  1.00  0.00     0.000 C 
BRANCH   6   7
ATOM      7  C   UNL     1      16.515   8.612  -1.076  1.00  0.00     0.000 C 
BRANCH   7   8
ATOM      8  C   UNL     1      17.711   8.009  -0.318  1.00  0.00     0.006 C 
BRANCH   8   9
ATOM      9  C   UNL     1      18.196   6.659  -0.872  1.00  0.00     0.053 C 
BRANCH   9  10
ATOM     10  C   UNL     1      17.126   5.611  -0.815  1.00  0.00     0.041 C 
ATOM     11  O   UNL     1      16.646   5.138  -1.878  1.00  0.00    -0.550 OA
ATOM     12  O   UNL     1      16.638   5.182   0.413  1.00  0.00    -0.550 OA
ENDBRANCH   9  10
ENDBRANCH   8   9
ENDBRANCH   7   8
ENDBRANCH   6   7
ENDBRANCH   5   6
ENDBRANCH   4   5
ENDBRANCH   3   4
ENDBRANCH   1   3
BRANCH   2  13
ATOM     13  C   UNL     1      17.568  11.579   4.834  1.00  0.00     0.027 C 
BRANCH  13  14
ATOM     14  C   UNL     1      17.212  12.990   4.351  1.00  0.00     0.004 C 
BRANCH  14  15
ATOM     15  C   UNL     1      18.436  13.687   3.743  1.00  0.00     0.000 C 
BRANCH  15  16
ATOM     16  C   UNL     1      18.215  14.114   2.283  1.00  0.00     0.000 C 
BRANCH  16  17
ATOM     17  C   UNL     1      16.735  14.399   1.942  1.00  0.00    -0.000 C 
BRANCH  17  18
ATOM     18  C   UNL     1      16.505  14.722   0.455  1.00  0.00    -0.000 C 
BRANCH  18  19
ATOM     19  C   UNL     1      15.981  16.149   0.244  1.00  0.00    -0.003 C 
ATOM     20  C   UNL     1      17.126  17.123  -0.017  1.00  0.00     0.004 C 
ENDBRANCH  18  19
ENDBRANCH  17  18
ENDBRANCH  16  17
ENDBRANCH  15  16
ENDBRANCH  14  15
ENDBRANCH  13  14
ENDBRANCH   2  13
TORSDOF 15
ENDMDL
MODEL 8
REMARK VINA RESULT:    -3.389      2.379      4.019
REMARK INTER + INTRA:          -8.588
REMARK INTER:                  -7.137
REMARK INTRA:                  -1.451
REMARK UNBOUND:                -2.226
REMARK SMILES CCCCCCCCC=CCCCCCCCC(=O)[O-]
REMARK SMILES IDX 10 1 9 2 11 3 12 4 13 5 14 6 15 7 16 8 17 9 18 10 19 11
REMARK SMILES IDX 20 12 8 13 7 14 6 15 5 16 4 17 3 18 2 19 1 20
REMARK H PARENT
REMARK Flexibility Score: inf
ROOT
ATOM      1  C   UNL     1      18.668  12.814   3.800  1.00  0.00    -0.031 C 
ATOM      2  C   UNL     1      17.922  13.752   3.185  1.00  0.00    -0.031 C 
ENDROOT
BRANCH   1   3
ATOM      3  C   UNL     1      18.125  11.528   4.371  1.00  0.00     0.027 C 
BRANCH   3   4
ATOM      4  C   UNL     1      18.375  10.358   3.407  1.00  0.00     0.004 C 
BRANCH   4   5
ATOM      5  C   UNL     1      17.113   9.958   2.627  1.00  0.00     0.000 C 
BRANCH   5   6
ATOM      6  C   UNL     1      17.069  10.574   1.221  1.00  0.00     0.000 C 
BRANCH   6   7
ATOM      7  C   UNL     1      17.298   9.502   0.145  1.00  0.00     0.000 C 
BRANCH   7   8
ATOM      8  C   UNL     1      16.941   8.085   0.630  1.00  0.00     0.006 C 
BRANCH   8   9
ATOM      9  C   UNL     1      17.984   7.013   0.272  1.00  0.00     0.053 C 
BRANCH   9  10
ATOM     10  C   UNL     1      18.478   6.283   1.484  1.00  0.00     0.041 C 
ATOM     11  O   UNL     1      18.806   6.921   2.518  1.00  0.00    -0.550 OA
ATOM     12  O   UNL     1      18.605   4.899   1.458  1.00  0.00    -0.550 OA
ENDBRANCH   9  10
ENDBRANCH   8   9
ENDBRANCH   7   8
ENDBRANCH   6   7
ENDBRANCH   5   6
ENDBRANCH   4   5
ENDBRANCH   3   4
ENDBRANCH   1   3
BRANCH   2  13
ATOM     13  C   UNL     1      16.422  13.697   3.047  1.00  0.00     0.027 C 
BRANCH  13  14
ATOM     14  C   UNL     1      15.983  14.226   1.676  1.00  0.00     0.004 C 
BRANCH  14  15
ATOM     15  C   UNL     1      17.085  15.082   1.039  1.00  0.00     0.000 C 
BRANCH  15  16
ATOM     16  C   UNL     1      16.561  15.984  -0.091  1.00  0.00     0.000 C 
BRANCH  16  17
ATOM     17  C   UNL     1      16.864  17.483   0.127  1.00  0.00    -0.000 C 
BRANCH  17  18
ATOM     18  C   UNL     1      18.364  17.817   0.052  1.00  0.00    -0.000 C 
BRANCH  18  19
ATOM     19  C   UNL     1      18.619  19.219  -0.520  1.00  0.00    -0.003 C 
ATOM     20  C   UNL     1      19.641  19.174  -1.652  1.00  0.00     0.004 C 
ENDBRANCH  18  19
ENDBRANCH  17  18
ENDBRANCH  16  17
ENDBRANCH  15  16
ENDBRANCH  14  15
ENDBRANCH  13  14
ENDBRANCH   2  13
TORSDOF 15
ENDMDL
MODEL 9
REMARK VINA RESULT:    -3.322      1.718      4.041
REMARK INTER + INTRA:          -8.461
REMARK INTER:                  -7.065
REMARK INTRA:                  -1.396
REMARK UNBOUND:                -2.226
REMARK SMILES CCCCCCCCC=CCCCCCCCC(=O)[O-]
REMARK SMILES IDX 10 1 9 2 11 3 12 4 13 5 14 6 15 7 16 8 17 9 18 10 19 11
REMARK SMILES IDX 20 12 8 13 7 14 6 15 5 16 4 17 3 18 2 19 1 20
REMARK H PARENT
REMARK Flexibility Score: inf
ROOT
ATOM      1  C   UNL     1      17.388   7.735  -1.419  1.00  0.00    -0.031 C 
ATOM      2  C   UNL     1      17.382   9.078  -1.523  1.00  0.00    -0.031 C 
ENDROOT
BRANCH   1   3
ATOM      3  C   UNL     1      16.378   6.822  -2.067  1.00  0.00     0.027 C 
BRANCH   3   4
ATOM      4  C   UNL     1      15.931   5.725  -1.089  1.00  0.00     0.004 C 
BRANCH   4   5
ATOM      5  C   UNL     1      16.323   4.317  -1.564  1.00  0.00     0.000 C 
BRANCH   5   6
ATOM      6  C   UNL     1      16.850   3.434  -0.422  1.00  0.00     0.000 C 
BRANCH   6   7
ATOM      7  C   UNL     1      18.248   3.889   0.020  1.00  0.00     0.000 C 
BRANCH   7   8
ATOM      8  C   UNL     1      18.253   4.530   1.421  1.00  0.00     0.006 C 
BRANCH   8   9
ATOM      9  C   UNL     1      18.823   5.957   1.462  1.00  0.00     0.053 C 
BRANCH   9  10
ATOM     10  C   UNL     1      17.924   6.900   2.202  1.00  0.00     0.041 C 
ATOM     11  O   UNL     1      18.412   7.865   2.847  1.00  0.00    -0.550 OA
ATOM     12  O   UNL     1      16.550   6.693   2.204  1.00  0.00    -0.550 OA
ENDBRANCH   9  10
ENDBRANCH   8   9
ENDBRANCH   7   8
ENDBRANCH   6   7
ENDBRANCH   5   6
ENDBRANCH   4   5
ENDBRANCH   3   4
ENDBRANCH   1   3
BRANCH   2  13
ATOM     13  C   UNL     1      16.319   9.876  -2.233  1.00  0.00     0.027 C 
BRANCH  13  14
ATOM     14  C   UNL     1      15.963  11.137  -1.437  1.00  0.00     0.004 C 
BRANCH  14  15
ATOM     15  C   UNL     1      16.505  11.052  -0.004  1.00  0.00     0.000 C 
BRANCH  15  16
ATOM     16  C   UNL     1      16.680  12.433   0.650  1.00  0.00     0.000 C 
BRANCH  16  17
ATOM     17  C   UNL     1      17.172  12.365   2.113  1.00  0.00    -0.000 C 
BRANCH  17  18
ATOM     18  C   UNL     1      18.003  13.590   2.532  1.00  0.00    -0.000 C 
BRANCH  18  19
ATOM     19  C   UNL     1      18.483  13.496   3.987  1.00  0.00    -0.003 C 
ATOM     20  C   UNL     1      18.563  12.044   4.448  1.00  0.00     0.004 C 
ENDBRANCH  18  19
ENDBRANCH  17  18
ENDBRANCH  16  17
ENDBRANCH  15  16
ENDBRANCH  14  15
ENDBRANCH  13  14
ENDBRANCH   2  13
TORSDOF 15
ENDMDL
