MODEL 1
REMARK VINA RESULT:    -3.805      0.000      0.000
REMARK INTER + INTRA:          -9.621
REMARK INTER:                  -7.365
REMARK INTRA:                  -2.256
REMARK UNBOUND:                -2.256
REMARK SMILES CCCCCCCCCCCCCCCCCC(=O)[O-]
REMARK SMILES IDX 10 1 11 2 12 3 13 4 14 5 15 6 16 7 17 8 18 9 19 10 20 11
REMARK SMILES IDX 9 12 8 13 7 14 6 15 5 16 4 17 3 18 2 19 1 20
REMARK H PARENT
REMARK Flexibility Score: inf
ROOT
ATOM      1  C   UNL     1      61.429  25.704  22.896  1.00  0.00     0.000 C 
ENDROOT
BRANCH   1   2
ATOM      2  C   UNL     1      60.646  24.407  23.178  1.00  0.00     0.000 C 
BRANCH   2   3
ATOM      3  C   UNL     1      60.511  24.100  24.677  1.00  0.00     0.000 C 
BRANCH   3   4
ATOM      4  C   UNL     1      59.286  23.228  24.999  1.00  0.00     0.000 C 
BRANCH   4   5
ATOM      5  C   UNL     1      59.617  21.728  25.159  1.00  0.00     0.000 C 
BRANCH   5   6
ATOM      6  C   UNL     1      59.232  20.916  23.913  1.00  0.00     0.000 C 
BRANCH   6   7
ATOM      7  C   UNL     1      58.178  21.652  23.078  1.00  0.00     0.006 C 
BRANCH   7   8
ATOM      8  C   UNL     1      56.825  20.937  23.146  1.00  0.00     0.053 C 
BRANCH   8   9
ATOM      9  C   UNL     1      55.705  21.927  23.082  1.00  0.00     0.041 C 
ATOM     10  O   UNL     1      55.899  23.071  22.592  1.00  0.00    -0.550 OA
ATOM     11  O   UNL     1      54.461  21.604  23.607  1.00  0.00    -0.550 OA
ENDBRANCH   8   9
ENDBRANCH   7   8
ENDBRANCH   6   7
ENDBRANCH   5   6
ENDBRANCH   4   5
ENDBRANCH   3   4
ENDBRANCH   2   3
ENDBRANCH   1   2
BRANCH   1  12
ATOM     12  C   UNL     1      62.902  25.697  23.343  1.00  0.00     0.000 C 
BRANCH  12  13
ATOM     13  C   UNL     1      63.788  24.779  22.482  1.00  0.00    -0.000 C 
BRANCH  13  14
ATOM     14  C   UNL     1      64.079  23.432  23.163  1.00  0.00    -0.000 C 
BRANCH  14  15
ATOM     15  C   UNL     1      64.001  22.245  22.189  1.00  0.00    -0.000 C 
BRANCH  15  16
ATOM     16  C   UNL     1      62.842  21.308  22.561  1.00  0.00    -0.000 C 
BRANCH  16  17
ATOM     17  C   UNL     1      61.998  20.886  21.344  1.00  0.00    -0.000 C 
BRANCH  17  18
ATOM     18  C   UNL     1      61.070  21.981  20.786  1.00  0.00    -0.000 C 
BRANCH  18  19
ATOM     19  C   UNL     1      61.486  22.466  19.391  1.00  0.00    -0.003 C 
ATOM     20  C   UNL     1      62.739  21.741  18.907  1.00  0.00     0.004 C 
ENDBRANCH  18  19
ENDBRANCH  17  18
ENDBRANCH  16  17
ENDBRANCH  15  16
ENDBRANCH  14  15
ENDBRANCH  13  14
ENDBRANCH  12  13
ENDBRANCH   1  12
TORSDOF 16
ENDMDL
MODEL 2
REMARK VINA RESULT:    -3.503      1.295      3.779
REMARK INTER + INTRA:          -9.036
REMARK INTER:                  -6.992
REMARK INTRA:                  -2.044
REMARK UNBOUND:                -2.256
REMARK SMILES CCCCCCCCCCCCCCCCCC(=O)[O-]
REMARK SMILES IDX 10 1 11 2 12 3 13 4 14 5 15 6 16 7 17 8 18 9 19 10 20 11
REMARK SMILES IDX 9 12 8 13 7 14 6 15 5 16 4 17 3 18 2 19 1 20
REMARK H PARENT
REMARK Flexibility Score: inf
ROOT
ATOM      1  C   UNL     1      63.545  22.238  20.984  1.00  0.00     0.000 C 
ENDROOT
BRANCH   1   2
ATOM      2  C   UNL     1      62.788  21.983  19.667  1.00  0.00     0.000 C 
BRANCH   2   3
ATOM      3  C   UNL     1      61.282  21.755  19.874  1.00  0.00     0.000 C 
BRANCH   3   4
ATOM      4  C   UNL     1      60.715  22.557  21.058  1.00  0.00     0.000 C 
BRANCH   4   5
ATOM      5  C   UNL     1      59.452  21.927  21.685  1.00  0.00     0.000 C 
BRANCH   5   6
ATOM      6  C   UNL     1      58.925  22.748  22.870  1.00  0.00     0.000 C 
BRANCH   6   7
ATOM      7  C   UNL     1      58.177  21.857  23.869  1.00  0.00     0.006 C 
BRANCH   7   8
ATOM      8  C   UNL     1      57.054  21.077  23.177  1.00  0.00     0.053 C 
BRANCH   8   9
ATOM      9  C   UNL     1      55.805  21.898  23.118  1.00  0.00     0.041 C 
ATOM     10  O   UNL     1      55.856  23.102  22.755  1.00  0.00    -0.550 OA
ATOM     11  O   UNL     1      54.593  21.347  23.512  1.00  0.00    -0.550 OA
ENDBRANCH   8   9
ENDBRANCH   7   8
ENDBRANCH   6   7
ENDBRANCH   5   6
ENDBRANCH   4   5
ENDBRANCH   3   4
ENDBRANCH   2   3
ENDBRANCH   1   2
BRANCH   1  12
ATOM     12  C   UNL     1      64.125  23.656  21.148  1.00  0.00     0.000 C 
BRANCH  12  13
ATOM     13  C   UNL     1      64.055  24.170  22.597  1.00  0.00    -0.000 C 
BRANCH  13  14
ATOM     14  C   UNL     1      63.164  25.416  22.738  1.00  0.00    -0.000 C 
BRANCH  14  15
ATOM     15  C   UNL     1      63.283  26.077  24.120  1.00  0.00    -0.000 C 
BRANCH  15  16
ATOM     16  C   UNL     1      62.978  25.068  25.237  1.00  0.00    -0.000 C 
BRANCH  16  17
ATOM     17  C   UNL     1      61.492  24.670  25.297  1.00  0.00    -0.000 C 
BRANCH  17  18
ATOM     18  C   UNL     1      61.228  23.199  25.669  1.00  0.00    -0.000 C 
BRANCH  18  19
ATOM     19  C   UNL     1      62.434  22.288  25.407  1.00  0.00    -0.003 C 
ATOM     20  C   UNL     1      62.153  21.318  24.264  1.00  0.00     0.004 C 
ENDBRANCH  18  19
ENDBRANCH  17  18
ENDBRANCH  16  17
ENDBRANCH  15  16
ENDBRANCH  14  15
ENDBRANCH  13  14
ENDBRANCH  12  13
ENDBRANCH   1  12
TORSDOF 16
ENDMDL
MODEL 3
REMARK VINA RESULT:    -3.305      1.426      3.454
REMARK INTER + INTRA:          -8.652
REMARK INTER:                  -6.594
REMARK INTRA:                  -2.058
REMARK UNBOUND:                -2.256
REMARK SMILES CCCCCCCCCCCCCCCCCC(=O)[O-]
REMARK SMILES IDX 10 1 11 2 12 3 13 4 14 5 15 6 16 7 17 8 18 9 19 10 20 11
REMARK SMILES IDX 9 12 8 13 7 14 6 15 5 16 4 17 3 18 2 19 1 20
REMARK H PARENT
REMARK Flexibility Score: inf
ROOT
ATOM      1  C   UNL     1      61.940  22.532  20.503  1.00  0.00     0.000 C 
ENDROOT
BRANCH   1   2
ATOM      2  C   UNL     1      60.555  21.883  20.679  1.00  0.00     0.000 C 
BRANCH   2   3
ATOM      3  C   UNL     1      60.124  21.772  22.150  1.00  0.00     0.000 C 
BRANCH   3   4
ATOM      4  C   UNL     1      59.653  23.114  22.735  1.00  0.00     0.000 C 
BRANCH   4   5
ATOM      5  C   UNL     1      58.500  22.976  23.753  1.00  0.00     0.000 C 
BRANCH   5   6
ATOM      6  C   UNL     1      58.007  21.527  23.874  1.00  0.00     0.000 C 
BRANCH   6   7
ATOM      7  C   UNL     1      56.668  21.338  23.152  1.00  0.00     0.006 C 
BRANCH   7   8
ATOM      8  C   UNL     1      55.666  22.423  23.559  1.00  0.00     0.053 C 
BRANCH   8   9
ATOM      9  C   UNL     1      54.278  21.866  23.597  1.00  0.00     0.041 C 
ATOM     10  O   UNL     1      53.973  20.875  22.882  1.00  0.00    -0.550 OA
ATOM     11  O   UNL     1      53.308  22.472  24.385  1.00  0.00    -0.550 OA
ENDBRANCH   8   9
ENDBRANCH   7   8
ENDBRANCH   6   7
ENDBRANCH   5   6
ENDBRANCH   4   5
ENDBRANCH   3   4
ENDBRANCH   2   3
ENDBRANCH   1   2
BRANCH   1  12
ATOM     12  C   UNL     1      63.053  21.591  20.005  1.00  0.00     0.000 C 
BRANCH  12  13
ATOM     13  C   UNL     1      63.869  20.966  21.149  1.00  0.00    -0.000 C 
BRANCH  13  14
ATOM     14  C   UNL     1      64.069  21.932  22.328  1.00  0.00    -0.000 C 
BRANCH  14  15
ATOM     15  C   UNL     1      63.514  21.380  23.650  1.00  0.00    -0.000 C 
BRANCH  15  16
ATOM     16  C   UNL     1      63.677  22.405  24.783  1.00  0.00    -0.000 C 
BRANCH  16  17
ATOM     17  C   UNL     1      62.336  22.812  25.421  1.00  0.00    -0.000 C 
BRANCH  17  18
ATOM     18  C   UNL     1      61.878  24.248  25.108  1.00  0.00    -0.000 C 
BRANCH  18  19
ATOM     19  C   UNL     1      62.742  24.935  24.042  1.00  0.00    -0.003 C 
ATOM     20  C   UNL     1      61.891  25.794  23.113  1.00  0.00     0.004 C 
ENDBRANCH  18  19
ENDBRANCH  17  18
ENDBRANCH  16  17
ENDBRANCH  15  16
ENDBRANCH  14  15
ENDBRANCH  13  14
ENDBRANCH  12  13
ENDBRANCH   1  12
TORSDOF 16
ENDMDL
MODEL 4
REMARK VINA RESULT:    -3.261      1.375      4.148
REMARK INTER + INTRA:          -8.568
REMARK INTER:                  -6.570
REMARK INTRA:                  -1.998
REMARK UNBOUND:                -2.256
REMARK SMILES CCCCCCCCCCCCCCCCCC(=O)[O-]
REMARK SMILES IDX 10 1 11 2 12 3 13 4 14 5 15 6 16 7 17 8 18 9 19 10 20 11
REMARK SMILES IDX 9 12 8 13 7 14 6 15 5 16 4 17 3 18 2 19 1 20
REMARK H PARENT
REMARK Flexibility Score: inf
ROOT
ATOM      1  C   UNL     1      63.329  22.646  22.076  1.00  0.00     0.000 C 
ENDROOT
BRANCH   1   2
ATOM      2  C   UNL     1      63.580  22.387  20.578  1.00  0.00     0.000 C 
BRANCH   2   3
ATOM      3  C   UNL     1      62.291  22.094  19.794  1.00  0.00     0.000 C 
BRANCH   3   4
ATOM      4  C   UNL     1      61.256  21.312  20.621  1.00  0.00     0.000 C 
BRANCH   4   5
ATOM      5  C   UNL     1      60.028  22.154  21.033  1.00  0.00     0.000 C 
BRANCH   5   6
ATOM      6  C   UNL     1      59.405  21.661  22.347  1.00  0.00     0.000 C 
BRANCH   6   7
ATOM      7  C   UNL     1      58.613  22.779  23.035  1.00  0.00     0.006 C 
BRANCH   7   8
ATOM      8  C   UNL     1      57.463  22.206  23.870  1.00  0.00     0.053 C 
BRANCH   8   9
ATOM      9  C   UNL     1      56.156  22.412  23.174  1.00  0.00     0.041 C 
ATOM     10  O   UNL     1      56.126  22.913  22.019  1.00  0.00    -0.550 OA
ATOM     11  O   UNL     1      54.967  22.097  23.819  1.00  0.00    -0.550 OA
ENDBRANCH   8   9
ENDBRANCH   7   8
ENDBRANCH   6   7
ENDBRANCH   5   6
ENDBRANCH   4   5
ENDBRANCH   3   4
ENDBRANCH   2   3
ENDBRANCH   1   2
BRANCH   1  12
ATOM     12  C   UNL     1      63.898  21.583  23.034  1.00  0.00     0.000 C 
BRANCH  12  13
ATOM     13  C   UNL     1      62.828  20.966  23.952  1.00  0.00    -0.000 C 
BRANCH  13  14
ATOM     14  C   UNL     1      62.656  21.747  25.265  1.00  0.00    -0.000 C 
BRANCH  14  15
ATOM     15  C   UNL     1      61.242  22.326  25.430  1.00  0.00    -0.000 C 
BRANCH  15  16
ATOM     16  C   UNL     1      61.300  23.778  25.928  1.00  0.00    -0.000 C 
BRANCH  16  17
ATOM     17  C   UNL     1      61.891  24.746  24.887  1.00  0.00    -0.000 C 
BRANCH  17  18
ATOM     18  C   UNL     1      63.107  25.557  25.370  1.00  0.00    -0.000 C 
BRANCH  18  19
ATOM     19  C   UNL     1      63.653  26.514  24.301  1.00  0.00    -0.003 C 
ATOM     20  C   UNL     1      63.534  25.906  22.907  1.00  0.00     0.004 C 
ENDBRANCH  18  19
ENDBRANCH  17  18
ENDBRANCH  16  17
ENDBRANCH  15  16
ENDBRANCH  14  15
ENDBRANCH  13  14
ENDBRANCH  12  13
ENDBRANCH   1  12
TORSDOF 16
ENDMDL
MODEL 5
REMARK VINA RESULT:    -3.123      1.393      2.273
REMARK INTER + INTRA:          -8.301
REMARK INTER:                  -6.212
REMARK INTRA:                  -2.089
REMARK UNBOUND:                -2.256
REMARK SMILES CCCCCCCCCCCCCCCCCC(=O)[O-]
REMARK SMILES IDX 10 1 11 2 12 3 13 4 14 5 15 6 16 7 17 8 18 9 19 10 20 11
REMARK SMILES IDX 9 12 8 13 7 14 6 15 5 16 4 17 3 18 2 19 1 20
REMARK H PARENT
REMARK Flexibility Score: inf
ROOT
ATOM      1  C   UNL     1      61.680  23.826  25.975  1.00  0.00     0.000 C 
ENDROOT
BRANCH   1   2
ATOM      2  C   UNL     1      62.644  22.633  26.122  1.00  0.00     0.000 C 
BRANCH   2   3
ATOM      3  C   UNL     1      61.974  21.280  25.835  1.00  0.00     0.000 C 
BRANCH   3   4
ATOM      4  C   UNL     1      61.243  21.252  24.483  1.00  0.00     0.000 C 
BRANCH   4   5
ATOM      5  C   UNL     1      59.704  21.236  24.610  1.00  0.00     0.000 C 
BRANCH   5   6
ATOM      6  C   UNL     1      59.049  22.402  23.854  1.00  0.00     0.000 C 
BRANCH   6   7
ATOM      7  C   UNL     1      57.547  22.475  24.148  1.00  0.00     0.006 C 
BRANCH   7   8
ATOM      8  C   UNL     1      56.766  21.489  23.273  1.00  0.00     0.053 C 
BRANCH   8   9
ATOM      9  C   UNL     1      55.317  21.860  23.230  1.00  0.00     0.041 C 
ATOM     10  O   UNL     1      54.970  23.012  22.859  1.00  0.00    -0.550 OA
ATOM     11  O   UNL     1      54.355  20.950  23.647  1.00  0.00    -0.550 OA
ENDBRANCH   8   9
ENDBRANCH   7   8
ENDBRANCH   6   7
ENDBRANCH   5   6
ENDBRANCH   4   5
ENDBRANCH   3   4
ENDBRANCH   2   3
ENDBRANCH   1   2
BRANCH   1  12
ATOM     12  C   UNL     1      62.256  25.055  25.248  1.00  0.00     0.000 C 
BRANCH  12  13
ATOM     13  C   UNL     1      61.968  25.049  23.736  1.00  0.00    -0.000 C 
BRANCH  13  14
ATOM     14  C   UNL     1      63.071  25.747  22.923  1.00  0.00    -0.000 C 
BRANCH  14  15
ATOM     15  C   UNL     1      63.926  24.760  22.114  1.00  0.00    -0.000 C 
BRANCH  15  16
ATOM     16  C   UNL     1      64.125  23.447  22.886  1.00  0.00    -0.000 C 
BRANCH  16  17
ATOM     17  C   UNL     1      63.751  22.202  22.062  1.00  0.00    -0.000 C 
BRANCH  17  18
ATOM     18  C   UNL     1      63.519  22.461  20.562  1.00  0.00    -0.000 C 
BRANCH  18  19
ATOM     19  C   UNL     1      62.230  21.817  20.034  1.00  0.00    -0.003 C 
ATOM     20  C   UNL     1      60.998  22.441  20.680  1.00  0.00     0.004 C 
ENDBRANCH  18  19
ENDBRANCH  17  18
ENDBRANCH  16  17
ENDBRANCH  15  16
ENDBRANCH  14  15
ENDBRANCH  13  14
ENDBRANCH  12  13
ENDBRANCH   1  12
TORSDOF 16
ENDMDL
MODEL 6
REMARK VINA RESULT:    -3.037      3.119      6.076
REMARK INTER + INTRA:          -8.135
REMARK INTER:                  -6.369
REMARK INTRA:                  -1.766
REMARK UNBOUND:                -2.256
REMARK SMILES CCCCCCCCCCCCCCCCCC(=O)[O-]
REMARK SMILES IDX 10 1 11 2 12 3 13 4 14 5 15 6 16 7 17 8 18 9 19 10 20 11
REMARK SMILES IDX 9 12 8 13 7 14 6 15 5 16 4 17 3 18 2 19 1 20
REMARK H PARENT
REMARK Flexibility Score: inf
ROOT
ATOM      1  C   UNL     1      57.907  22.254  22.872  1.00  0.00     0.000 C 
ENDROOT
BRANCH   1   2
ATOM      2  C   UNL     1      58.535  20.884  22.556  1.00  0.00     0.000 C 
BRANCH   2   3
ATOM      3  C   UNL     1      60.057  20.953  22.350  1.00  0.00     0.000 C 
BRANCH   3   4
ATOM      4  C   UNL     1      60.530  22.331  21.859  1.00  0.00     0.000 C 
BRANCH   4   5
ATOM      5  C   UNL     1      60.691  22.422  20.326  1.00  0.00     0.000 C 
BRANCH   5   6
ATOM      6  C   UNL     1      62.141  22.178  19.882  1.00  0.00     0.000 C 
BRANCH   6   7
ATOM      7  C   UNL     1      62.688  20.875  20.475  1.00  0.00     0.006 C 
BRANCH   7   8
ATOM      8  C   UNL     1      64.120  21.062  20.987  1.00  0.00     0.053 C 
BRANCH   8   9
ATOM      9  C   UNL     1      64.125  21.867  22.248  1.00  0.00     0.041 C 
ATOM     10  O   UNL     1      64.112  21.290  23.367  1.00  0.00    -0.550 OA
ATOM     11  O   UNL     1      64.094  23.254  22.187  1.00  0.00    -0.550 OA
ENDBRANCH   8   9
ENDBRANCH   7   8
ENDBRANCH   6   7
ENDBRANCH   5   6
ENDBRANCH   4   5
ENDBRANCH   3   4
ENDBRANCH   2   3
ENDBRANCH   1   2
BRANCH   1  12
ATOM     12  C   UNL     1      57.391  22.428  24.313  1.00  0.00     0.000 C 
BRANCH  12  13
ATOM     13  C   UNL     1      57.883  23.726  24.976  1.00  0.00    -0.000 C 
BRANCH  13  14
ATOM     14  C   UNL     1      58.928  23.469  26.073  1.00  0.00    -0.000 C 
BRANCH  14  15
ATOM     15  C   UNL     1      59.664  22.132  25.890  1.00  0.00    -0.000 C 
BRANCH  15  16
ATOM     16  C   UNL     1      61.162  22.362  25.637  1.00  0.00    -0.000 C 
BRANCH  16  17
ATOM     17  C   UNL     1      61.583  23.832  25.822  1.00  0.00    -0.000 C 
BRANCH  17  18
ATOM     18  C   UNL     1      62.796  24.270  24.981  1.00  0.00    -0.000 C 
BRANCH  18  19
ATOM     19  C   UNL     1      62.680  25.713  24.469  1.00  0.00    -0.003 C 
ATOM     20  C   UNL     1      62.028  25.757  23.091  1.00  0.00     0.004 C 
ENDBRANCH  18  19
ENDBRANCH  17  18
ENDBRANCH  16  17
ENDBRANCH  15  16
ENDBRANCH  14  15
ENDBRANCH  13  14
ENDBRANCH  12  13
ENDBRANCH   1  12
TORSDOF 16
ENDMDL
MODEL 7
REMARK VINA RESULT:    -3.032      3.135      4.943
REMARK INTER + INTRA:          -8.124
REMARK INTER:                  -5.966
REMARK INTRA:                  -2.158
REMARK UNBOUND:                -2.256
REMARK SMILES CCCCCCCCCCCCCCCCCC(=O)[O-]
REMARK SMILES IDX 10 1 11 2 12 3 13 4 14 5 15 6 16 7 17 8 18 9 19 10 20 11
REMARK SMILES IDX 9 12 8 13 7 14 6 15 5 16 4 17 3 18 2 19 1 20
REMARK H PARENT
REMARK Flexibility Score: inf
ROOT
ATOM      1  C   UNL     1      58.881  24.420  25.784  1.00  0.00     0.000 C 
ENDROOT
BRANCH   1   2
ATOM      2  C   UNL     1      57.828  23.372  25.378  1.00  0.00     0.000 C 
BRANCH   2   3
ATOM      3  C   UNL     1      58.031  22.835  23.952  1.00  0.00     0.000 C 
BRANCH   3   4
ATOM      4  C   UNL     1      58.826  21.519  23.919  1.00  0.00     0.000 C 
BRANCH   4   5
ATOM      5  C   UNL     1      59.497  21.235  22.558  1.00  0.00     0.000 C 
BRANCH   5   6
ATOM      6  C   UNL     1      59.624  22.502  21.700  1.00  0.00     0.000 C 
BRANCH   6   7
ATOM      7  C   UNL     1      61.024  22.616  21.087  1.00  0.00     0.006 C 
BRANCH   7   8
ATOM      8  C   UNL     1      61.078  21.945  19.710  1.00  0.00     0.053 C 
BRANCH   8   9
ATOM      9  C   UNL     1      62.485  21.903  19.202  1.00  0.00     0.041 C 
ATOM     10  O   UNL     1      62.773  22.423  18.093  1.00  0.00    -0.550 OA
ATOM     11  O   UNL     1      63.467  21.246  19.932  1.00  0.00    -0.550 OA
ENDBRANCH   8   9
ENDBRANCH   7   8
ENDBRANCH   6   7
ENDBRANCH   5   6
ENDBRANCH   4   5
ENDBRANCH   3   4
ENDBRANCH   2   3
ENDBRANCH   1   2
BRANCH   1  12
ATOM     12  C   UNL     1      60.345  23.943  25.722  1.00  0.00     0.000 C 
BRANCH  12  13
ATOM     13  C   UNL     1      61.102  24.482  24.496  1.00  0.00    -0.000 C 
BRANCH  13  14
ATOM     14  C   UNL     1      62.293  25.373  24.883  1.00  0.00    -0.000 C 
BRANCH  14  15
ATOM     15  C   UNL     1      63.416  25.352  23.833  1.00  0.00    -0.000 C 
BRANCH  15  16
ATOM     16  C   UNL     1      63.182  24.235  22.805  1.00  0.00    -0.000 C 
BRANCH  16  17
ATOM     17  C   UNL     1      64.122  23.032  23.000  1.00  0.00    -0.000 C 
BRANCH  17  18
ATOM     18  C   UNL     1      63.441  21.751  23.513  1.00  0.00    -0.000 C 
BRANCH  18  19
ATOM     19  C   UNL     1      63.357  21.688  25.045  1.00  0.00    -0.003 C 
ATOM     20  C   UNL     1      62.108  20.939  25.497  1.00  0.00     0.004 C 
ENDBRANCH  18  19
ENDBRANCH  17  18
ENDBRANCH  16  17
ENDBRANCH  15  16
ENDBRANCH  14  15
ENDBRANCH  13  14
ENDBRANCH  12  13
ENDBRANCH   1  12
TORSDOF 16
ENDMDL
MODEL 8
REMARK VINA RESULT:    -3.008      2.774      5.178
REMARK INTER + INTRA:          -8.079
REMARK INTER:                  -6.350
REMARK INTRA:                  -1.729
REMARK UNBOUND:                -2.256
REMARK SMILES CCCCCCCCCCCCCCCCCC(=O)[O-]
REMARK SMILES IDX 10 1 11 2 12 3 13 4 14 5 15 6 16 7 17 8 18 9 19 10 20 11
REMARK SMILES IDX 9 12 8 13 7 14 6 15 5 16 4 17 3 18 2 19 1 20
REMARK H PARENT
REMARK Flexibility Score: inf
ROOT
ATOM      1  C   UNL     1      61.038  24.946  24.090  1.00  0.00     0.000 C 
ENDROOT
BRANCH   1   2
ATOM      2  C   UNL     1      61.745  26.013  23.233  1.00  0.00     0.000 C 
BRANCH   2   3
ATOM      3  C   UNL     1      62.876  25.435  22.367  1.00  0.00     0.000 C 
BRANCH   3   4
ATOM      4  C   UNL     1      63.613  24.270  23.049  1.00  0.00     0.000 C 
BRANCH   4   5
ATOM      5  C   UNL     1      63.837  23.053  22.126  1.00  0.00     0.000 C 
BRANCH   5   6
ATOM      6  C   UNL     1      62.702  22.024  22.242  1.00  0.00     0.000 C 
BRANCH   6   7
ATOM      7  C   UNL     1      61.409  22.556  21.615  1.00  0.00     0.006 C 
BRANCH   7   8
ATOM      8  C   UNL     1      61.012  21.729  20.387  1.00  0.00     0.053 C 
BRANCH   8   9
ATOM      9  C   UNL     1      62.019  21.898  19.294  1.00  0.00     0.041 C 
ATOM     10  O   UNL     1      61.820  22.734  18.374  1.00  0.00    -0.550 OA
ATOM     11  O   UNL     1      63.153  21.097  19.265  1.00  0.00    -0.550 OA
ENDBRANCH   8   9
ENDBRANCH   7   8
ENDBRANCH   6   7
ENDBRANCH   5   6
ENDBRANCH   4   5
ENDBRANCH   3   4
ENDBRANCH   2   3
ENDBRANCH   1   2
BRANCH   1  12
ATOM     12  C   UNL     1      61.662  24.691  25.475  1.00  0.00     0.000 C 
BRANCH  12  13
ATOM     13  C   UNL     1      61.186  23.376  26.116  1.00  0.00    -0.000 C 
BRANCH  13  14
ATOM     14  C   UNL     1      62.099  22.187  25.772  1.00  0.00    -0.000 C 
BRANCH  14  15
ATOM     15  C   UNL     1      61.318  20.884  25.544  1.00  0.00    -0.000 C 
BRANCH  15  16
ATOM     16  C   UNL     1      59.804  21.145  25.555  1.00  0.00    -0.000 C 
BRANCH  16  17
ATOM     17  C   UNL     1      59.192  21.183  24.143  1.00  0.00    -0.000 C 
BRANCH  17  18
ATOM     18  C   UNL     1      58.122  22.269  23.928  1.00  0.00    -0.000 C 
BRANCH  18  19
ATOM     19  C   UNL     1      57.203  21.978  22.733  1.00  0.00    -0.003 C 
ATOM     20  C   UNL     1      55.850  22.661  22.899  1.00  0.00     0.004 C 
ENDBRANCH  18  19
ENDBRANCH  17  18
ENDBRANCH  16  17
ENDBRANCH  15  16
ENDBRANCH  14  15
ENDBRANCH  13  14
ENDBRANCH  12  13
ENDBRANCH   1  12
TORSDOF 16
ENDMDL
MODEL 9
REMARK VINA RESULT:    -2.810      2.634      5.200
REMARK INTER + INTRA:          -7.694
REMARK INTER:                  -6.736
REMARK INTRA:                  -0.958
REMARK UNBOUND:                -2.256
REMARK SMILES CCCCCCCCCCCCCCCCCC(=O)[O-]
REMARK SMILES IDX 10 1 11 2 12 3 13 4 14 5 15 6 16 7 17 8 18 9 19 10 20 11
REMARK SMILES IDX 9 12 8 13 7 14 6 15 5 16 4 17 3 18 2 19 1 20
REMARK H PARENT
REMARK Flexibility Score: inf
ROOT
ATOM      1  C   UNL     1      58.874  22.969  23.301  1.00  0.00     0.000 C 
ENDROOT
BRANCH   1   2
ATOM      2  C   UNL     1      58.610  23.561  24.698  1.00  0.00     0.000 C 
BRANCH   2   3
ATOM      3  C   UNL     1      59.407  22.859  25.809  1.00  0.00     0.000 C 
BRANCH   3   4
ATOM      4  C   UNL     1      60.924  22.885  25.561  1.00  0.00     0.000 C 
BRANCH   4   5
ATOM      5  C   UNL     1      61.619  24.153  26.102  1.00  0.00     0.000 C 
BRANCH   5   6
ATOM      6  C   UNL     1      63.014  24.353  25.491  1.00  0.00     0.000 C 
BRANCH   6   7
ATOM      7  C   UNL     1      63.416  25.833  25.506  1.00  0.00     0.006 C 
BRANCH   7   8
ATOM      8  C   UNL     1      63.555  26.379  24.081  1.00  0.00     0.053 C 
BRANCH   8   9
ATOM      9  C   UNL     1      62.636  25.655  23.150  1.00  0.00     0.041 C 
ATOM     10  O   UNL     1      63.099  24.830  22.319  1.00  0.00    -0.550 OA
ATOM     11  O   UNL     1      61.274  25.927  23.166  1.00  0.00    -0.550 OA
ENDBRANCH   8   9
ENDBRANCH   7   8
ENDBRANCH   6   7
ENDBRANCH   5   6
ENDBRANCH   4   5
ENDBRANCH   3   4
ENDBRANCH   2   3
ENDBRANCH   1   2
BRANCH   1  12
ATOM     12  C   UNL     1      58.282  21.569  23.054  1.00  0.00     0.000 C 
BRANCH  12  13
ATOM     13  C   UNL     1      58.876  20.875  21.816  1.00  0.00    -0.000 C 
BRANCH  13  14
ATOM     14  C   UNL     1      60.393  21.092  21.689  1.00  0.00    -0.000 C 
BRANCH  14  15
ATOM     15  C   UNL     1      60.747  22.342  20.868  1.00  0.00    -0.000 C 
BRANCH  15  16
ATOM     16  C   UNL     1      61.058  21.968  19.411  1.00  0.00    -0.000 C 
BRANCH  16  17
ATOM     17  C   UNL     1      62.567  21.842  19.132  1.00  0.00    -0.000 C 
BRANCH  17  18
ATOM     18  C   UNL     1      63.481  22.310  20.279  1.00  0.00    -0.000 C 
BRANCH  18  19
ATOM     19  C   UNL     1      64.114  21.146  21.054  1.00  0.00    -0.003 C 
ATOM     20  C   UNL     1      63.938  21.326  22.558  1.00  0.00     0.004 C 
ENDBRANCH  18  19
ENDBRANCH  17  18
ENDBRANCH  16  17
ENDBRANCH  15  16
ENDBRANCH  14  15
ENDBRANCH  13  14
ENDBRANCH  12  13
ENDBRANCH   1  12
TORSDOF 16
ENDMDL
