MODEL 1
REMARK VINA RESULT:    -5.840      0.000      0.000
REMARK INTER + INTRA:         -10.495
REMARK INTER:                  -8.571
REMARK INTRA:                  -1.923
REMARK UNBOUND:                -1.923
REMARK SMILES O=c1c(O[C@@H]2O[C@@H](CO)[C@H](O)[C@@H](O)[C@@H]2O)c(-c2ccc(O)c(O)c2)oc2cc(O)cc(O)c12
REMARK SMILES IDX 4 1 3 2 16 3 25 4 2 5 26 6 1 7 33 8 27 9 31 10 28 11 30 12
REMARK SMILES IDX 17 13 18 14 19 15 20 16 24 17 22 18 21 19 23 21 32 23 29 25
REMARK SMILES IDX 5 27 14 28 6 29 12 30 7 31 10 32 15 33 13 35 8 37 9 38 11 40
REMARK H PARENT 21 20 23 22 32 24 29 26 15 34 13 36 9 39 11 41
REMARK Flexibility Score: inf
ROOT
ATOM      1  O   UNL     1      -5.173 -38.506 -29.894  1.00  0.00    -0.454 OA
ENDROOT
BRANCH   1   2
ATOM      2  C   UNL     1      -5.393 -37.269 -30.531  1.00  0.00     0.214 A 
ATOM      3  C   UNL     1      -4.311 -36.524 -31.037  1.00  0.00     0.180 A 
ATOM      4  O   UNL     1      -4.538 -35.464 -31.793  1.00  0.00    -0.452 OA
ATOM      5  C   UNL     1      -6.682 -36.715 -30.618  1.00  0.00     0.239 A 
ATOM      6  C   UNL     1      -5.761 -34.998 -32.044  1.00  0.00     0.146 A 
ATOM      7  O   UNL     1      -7.593 -37.205 -29.905  1.00  0.00    -0.285 OA
ATOM      8  C   UNL     1      -6.904 -35.587 -31.454  1.00  0.00     0.111 A 
ATOM      9  C   UNL     1      -5.879 -33.880 -32.873  1.00  0.00     0.094 A 
ATOM     10  C   UNL     1      -8.190 -35.032 -31.752  1.00  0.00     0.134 A 
ATOM     11  C   UNL     1      -7.134 -33.345 -33.161  1.00  0.00     0.123 A 
ATOM     12  C   UNL     1      -8.276 -33.922 -32.607  1.00  0.00     0.093 A 
BRANCH   3  13
ATOM     13  C   UNL     1      -2.907 -36.818 -30.670  1.00  0.00     0.025 A 
ATOM     14  C   UNL     1      -2.342 -36.180 -29.556  1.00  0.00     0.016 A 
ATOM     15  C   UNL     1      -1.007 -36.394 -29.227  1.00  0.00     0.051 A 
ATOM     16  C   UNL     1      -0.211 -37.268 -29.986  1.00  0.00     0.157 A 
ATOM     17  C   UNL     1      -2.119 -37.685 -31.445  1.00  0.00     0.062 A 
ATOM     18  C   UNL     1      -0.790 -37.941 -31.091  1.00  0.00     0.158 A 
BRANCH  16  19
ATOM     19  O   UNL     1       1.118 -37.447 -29.608  1.00  0.00    -0.504 OA
ATOM     20  H   UNL     1       1.517 -38.359 -29.413  1.00  0.00     0.293 HD
ENDBRANCH  16  19
BRANCH  18  21
ATOM     21  O   UNL     1      -0.071 -38.845 -31.875  1.00  0.00    -0.504 OA
ATOM     22  H   UNL     1      -0.030 -38.804 -32.894  1.00  0.00     0.293 HD
ENDBRANCH  18  21
ENDBRANCH   3  13
BRANCH  10  23
ATOM     23  O   UNL     1      -9.401 -35.520 -31.255  1.00  0.00    -0.507 OA
ATOM     24  H   UNL     1     -10.076 -34.999 -30.722  1.00  0.00     0.293 HD
ENDBRANCH  10  23
BRANCH  11  25
ATOM     25  O   UNL     1      -7.260 -32.215 -33.982  1.00  0.00    -0.508 OA
ATOM     26  H   UNL     1      -6.469 -31.607 -34.161  1.00  0.00     0.293 HD
ENDBRANCH  11  25
ENDBRANCH   1   2
BRANCH   1  27
ATOM     27  C   UNL     1      -5.183 -38.787 -28.468  1.00  0.00     0.339 C 
ATOM     28  C   UNL     1      -6.030 -39.983 -27.953  1.00  0.00     0.214 C 
ATOM     29  O   UNL     1      -3.845 -38.929 -27.988  1.00  0.00    -0.332 OA
ATOM     30  C   UNL     1      -5.449 -41.317 -28.458  1.00  0.00     0.180 C 
ATOM     31  C   UNL     1      -3.224 -40.074 -28.551  1.00  0.00     0.179 C 
ATOM     32  C   UNL     1      -3.945 -41.393 -28.145  1.00  0.00     0.177 C 
BRANCH  28  33
ATOM     33  O   UNL     1      -7.379 -39.848 -28.291  1.00  0.00    -0.384 OA
ATOM     34  H   UNL     1      -7.551 -40.423 -29.085  1.00  0.00     0.211 HD
ENDBRANCH  28  33
BRANCH  30  35
ATOM     35  O   UNL     1      -6.111 -42.416 -27.875  1.00  0.00    -0.387 OA
ATOM     36  H   UNL     1      -6.998 -42.106 -27.543  1.00  0.00     0.211 HD
ENDBRANCH  30  35
BRANCH  31  37
ATOM     37  C   UNL     1      -1.733 -40.097 -28.156  1.00  0.00     0.191 C 
BRANCH  37  38
ATOM     38  O   UNL     1      -0.962 -40.537 -29.244  1.00  0.00    -0.394 OA
ATOM     39  H   UNL     1      -1.418 -40.209 -30.065  1.00  0.00     0.210 HD
ENDBRANCH  37  38
ENDBRANCH  31  37
BRANCH  32  40
ATOM     40  O   UNL     1      -3.405 -42.479 -28.855  1.00  0.00    -0.387 OA
ATOM     41  H   UNL     1      -2.732 -42.913 -28.271  1.00  0.00     0.211 HD
ENDBRANCH  32  40
ENDBRANCH   1  27
TORSDOF 12
ENDMDL
MODEL 2
REMARK VINA RESULT:    -5.599      1.934      8.278
REMARK INTER + INTRA:         -10.141
REMARK INTER:                  -8.124
REMARK INTRA:                  -2.017
REMARK UNBOUND:                -1.923
REMARK SMILES O=c1c(O[C@@H]2O[C@@H](CO)[C@H](O)[C@@H](O)[C@@H]2O)c(-c2ccc(O)c(O)c2)oc2cc(O)cc(O)c12
REMARK SMILES IDX 4 1 3 2 16 3 25 4 2 5 26 6 1 7 33 8 27 9 31 10 28 11 30 12
REMARK SMILES IDX 17 13 18 14 19 15 20 16 24 17 22 18 21 19 23 21 32 23 29 25
REMARK SMILES IDX 5 27 14 28 6 29 12 30 7 31 10 32 15 33 13 35 8 37 9 38 11 40
REMARK H PARENT 21 20 23 22 32 24 29 26 15 34 13 36 9 39 11 41
REMARK Flexibility Score: inf
ROOT
ATOM      1  O   UNL     1      -4.165 -35.301 -32.003  1.00  0.00    -0.454 OA
ENDROOT
BRANCH   1   2
ATOM      2  C   UNL     1      -4.202 -36.488 -31.245  1.00  0.00     0.214 A 
ATOM      3  C   UNL     1      -5.430 -37.008 -30.794  1.00  0.00     0.180 A 
ATOM      4  O   UNL     1      -5.475 -38.211 -30.248  1.00  0.00    -0.452 OA
ATOM      5  C   UNL     1      -3.020 -37.146 -30.863  1.00  0.00     0.239 A 
ATOM      6  C   UNL     1      -4.388 -38.948 -30.021  1.00  0.00     0.146 A 
ATOM      7  O   UNL     1      -1.930 -36.533 -30.984  1.00  0.00    -0.285 OA
ATOM      8  C   UNL     1      -3.093 -38.447 -30.298  1.00  0.00     0.111 A 
ATOM      9  C   UNL     1      -4.559 -40.213 -29.456  1.00  0.00     0.094 A 
ATOM     10  C   UNL     1      -1.963 -39.281 -30.018  1.00  0.00     0.134 A 
ATOM     11  C   UNL     1      -3.455 -41.022 -29.187  1.00  0.00     0.123 A 
ATOM     12  C   UNL     1      -2.172 -40.557 -29.472  1.00  0.00     0.093 A 
BRANCH   3  13
ATOM     13  C   UNL     1      -6.679 -36.213 -30.806  1.00  0.00     0.025 A 
ATOM     14  C   UNL     1      -7.069 -35.529 -29.646  1.00  0.00     0.016 A 
ATOM     15  C   UNL     1      -8.269 -34.826 -29.615  1.00  0.00     0.051 A 
ATOM     16  C   UNL     1      -9.096 -34.766 -30.748  1.00  0.00     0.157 A 
ATOM     17  C   UNL     1      -7.503 -36.172 -31.944  1.00  0.00     0.062 A 
ATOM     18  C   UNL     1      -8.687 -35.427 -31.934  1.00  0.00     0.158 A 
BRANCH  16  19
ATOM     19  O   UNL     1     -10.284 -34.043 -30.662  1.00  0.00    -0.504 OA
ATOM     20  H   UNL     1     -11.142 -34.338 -31.115  1.00  0.00     0.293 HD
ENDBRANCH  16  19
BRANCH  18  21
ATOM     21  O   UNL     1      -9.441 -35.390 -33.108  1.00  0.00    -0.504 OA
ATOM     22  H   UNL     1     -10.307 -35.913 -33.243  1.00  0.00     0.293 HD
ENDBRANCH  18  21
ENDBRANCH   3  13
BRANCH  10  23
ATOM     23  O   UNL     1      -0.634 -38.924 -30.256  1.00  0.00    -0.507 OA
ATOM     24  H   UNL     1      -0.059 -39.250 -31.013  1.00  0.00     0.293 HD
ENDBRANCH  10  23
BRANCH  11  25
ATOM     25  O   UNL     1      -3.619 -42.288 -28.608  1.00  0.00    -0.508 OA
ATOM     26  H   UNL     1      -4.499 -42.562 -28.186  1.00  0.00     0.293 HD
ENDBRANCH  11  25
ENDBRANCH   1   2
BRANCH   1  27
ATOM     27  C   UNL     1      -3.841 -33.961 -31.542  1.00  0.00     0.339 C 
ATOM     28  C   UNL     1      -2.802 -33.131 -32.346  1.00  0.00     0.214 C 
ATOM     29  O   UNL     1      -5.036 -33.191 -31.398  1.00  0.00    -0.332 OA
ATOM     30  C   UNL     1      -3.351 -32.781 -33.742  1.00  0.00     0.180 C 
ATOM     31  C   UNL     1      -5.652 -32.973 -32.658  1.00  0.00     0.179 C 
ATOM     32  C   UNL     1      -4.747 -32.148 -33.620  1.00  0.00     0.177 C 
BRANCH  28  33
ATOM     33  O   UNL     1      -1.568 -33.780 -32.425  1.00  0.00    -0.384 OA
ATOM     34  H   UNL     1      -0.944 -33.185 -32.923  1.00  0.00     0.211 HD
ENDBRANCH  28  33
BRANCH  30  35
ATOM     35  O   UNL     1      -2.488 -31.899 -34.423  1.00  0.00    -0.387 OA
ATOM     36  H   UNL     1      -2.232 -32.319 -35.289  1.00  0.00     0.211 HD
ENDBRANCH  30  35
BRANCH  31  37
ATOM     37  C   UNL     1      -7.024 -32.299 -32.450  1.00  0.00     0.191 C 
BRANCH  37  38
ATOM     38  O   UNL     1      -7.901 -32.685 -33.476  1.00  0.00    -0.394 OA
ATOM     39  H   UNL     1      -7.476 -32.406 -34.331  1.00  0.00     0.210 HD
ENDBRANCH  37  38
ENDBRANCH  31  37
BRANCH  32  40
ATOM     40  O   UNL     1      -5.320 -32.100 -34.902  1.00  0.00    -0.387 OA
ATOM     41  H   UNL     1      -6.304 -32.058 -34.789  1.00  0.00     0.211 HD
ENDBRANCH  32  40
ENDBRANCH   1  27
TORSDOF 12
ENDMDL
MODEL 3
REMARK VINA RESULT:    -5.545      2.470      6.537
REMARK INTER + INTRA:         -10.061
REMARK INTER:                  -8.882
REMARK INTRA:                  -1.179
REMARK UNBOUND:                -1.923
REMARK SMILES O=c1c(O[C@@H]2O[C@@H](CO)[C@H](O)[C@@H](O)[C@@H]2O)c(-c2ccc(O)c(O)c2)oc2cc(O)cc(O)c12
REMARK SMILES IDX 4 1 3 2 16 3 25 4 2 5 26 6 1 7 33 8 27 9 31 10 28 11 30 12
REMARK SMILES IDX 17 13 18 14 19 15 20 16 24 17 22 18 21 19 23 21 32 23 29 25
REMARK SMILES IDX 5 27 14 28 6 29 12 30 7 31 10 32 15 33 13 35 8 37 9 38 11 40
REMARK H PARENT 21 20 23 22 32 24 29 26 15 34 13 36 9 39 11 41
REMARK Flexibility Score: inf
ROOT
ATOM      1  O   UNL     1      -4.920 -35.653 -32.174  1.00  0.00    -0.454 OA
ENDROOT
BRANCH   1   2
ATOM      2  C   UNL     1      -3.527 -35.794 -32.018  1.00  0.00     0.214 A 
ATOM      3  C   UNL     1      -2.955 -37.067 -31.832  1.00  0.00     0.180 A 
ATOM      4  O   UNL     1      -1.641 -37.211 -31.874  1.00  0.00    -0.452 OA
ATOM      5  C   UNL     1      -2.682 -34.672 -31.976  1.00  0.00     0.239 A 
ATOM      6  C   UNL     1      -0.801 -36.185 -32.005  1.00  0.00     0.146 A 
ATOM      7  O   UNL     1      -3.201 -33.538 -31.824  1.00  0.00    -0.285 OA
ATOM      8  C   UNL     1      -1.274 -34.852 -32.044  1.00  0.00     0.111 A 
ATOM      9  C   UNL     1       0.567 -36.461 -32.056  1.00  0.00     0.094 A 
ATOM     10  C   UNL     1      -0.320 -33.792 -32.172  1.00  0.00     0.134 A 
ATOM     11  C   UNL     1       1.492 -35.424 -32.182  1.00  0.00     0.123 A 
ATOM     12  C   UNL     1       1.047 -34.105 -32.244  1.00  0.00     0.093 A 
BRANCH   3  13
ATOM     13  C   UNL     1      -3.765 -38.256 -31.481  1.00  0.00     0.025 A 
ATOM     14  C   UNL     1      -3.934 -38.597 -30.131  1.00  0.00     0.016 A 
ATOM     15  C   UNL     1      -4.639 -39.743 -29.779  1.00  0.00     0.051 A 
ATOM     16  C   UNL     1      -5.215 -40.562 -30.764  1.00  0.00     0.157 A 
ATOM     17  C   UNL     1      -4.324 -39.073 -32.477  1.00  0.00     0.062 A 
ATOM     18  C   UNL     1      -5.076 -40.201 -32.128  1.00  0.00     0.158 A 
BRANCH  16  19
ATOM     19  O   UNL     1      -5.915 -41.695 -30.354  1.00  0.00    -0.504 OA
ATOM     20  H   UNL     1      -5.506 -42.624 -30.350  1.00  0.00     0.293 HD
ENDBRANCH  16  19
BRANCH  18  21
ATOM     21  O   UNL     1      -5.643 -40.949 -33.161  1.00  0.00    -0.504 OA
ATOM     22  H   UNL     1      -5.337 -41.889 -33.414  1.00  0.00     0.293 HD
ENDBRANCH  18  21
ENDBRANCH   3  13
BRANCH  10  23
ATOM     23  O   UNL     1      -0.644 -32.434 -32.239  1.00  0.00    -0.507 OA
ATOM     24  H   UNL     1      -1.526 -32.023 -31.989  1.00  0.00     0.293 HD
ENDBRANCH  10  23
BRANCH  11  25
ATOM     25  O   UNL     1       2.867 -35.692 -32.221  1.00  0.00    -0.508 OA
ATOM     26  H   UNL     1       3.347 -36.092 -31.422  1.00  0.00     0.293 HD
ENDBRANCH  11  25
ENDBRANCH   1   2
BRANCH   1  27
ATOM     27  C   UNL     1      -5.792 -34.681 -31.536  1.00  0.00     0.339 C 
ATOM     28  C   UNL     1      -7.072 -34.225 -32.290  1.00  0.00     0.214 C 
ATOM     29  O   UNL     1      -6.162 -35.136 -30.233  1.00  0.00    -0.332 OA
ATOM     30  C   UNL     1      -8.067 -35.393 -32.425  1.00  0.00     0.180 C 
ATOM     31  C   UNL     1      -6.963 -36.305 -30.314  1.00  0.00     0.179 C 
ATOM     32  C   UNL     1      -8.309 -36.044 -31.052  1.00  0.00     0.177 C 
BRANCH  28  33
ATOM     33  O   UNL     1      -6.769 -33.661 -33.531  1.00  0.00    -0.384 OA
ATOM     34  H   UNL     1      -7.624 -33.359 -33.943  1.00  0.00     0.211 HD
ENDBRANCH  28  33
BRANCH  30  35
ATOM     35  O   UNL     1      -9.293 -34.958 -32.966  1.00  0.00    -0.387 OA
ATOM     36  H   UNL     1      -9.203 -33.997 -33.213  1.00  0.00     0.211 HD
ENDBRANCH  30  35
BRANCH  31  37
ATOM     37  C   UNL     1      -7.193 -36.870 -28.897  1.00  0.00     0.191 C 
BRANCH  37  38
ATOM     38  O   UNL     1      -7.637 -38.199 -28.983  1.00  0.00    -0.394 OA
ATOM     39  H   UNL     1      -7.385 -38.523 -29.890  1.00  0.00     0.210 HD
ENDBRANCH  37  38
ENDBRANCH  31  37
BRANCH  32  40
ATOM     40  O   UNL     1      -8.991 -37.256 -31.258  1.00  0.00    -0.387 OA
ATOM     41  H   UNL     1      -9.844 -37.045 -31.719  1.00  0.00     0.211 HD
ENDBRANCH  32  40
ENDBRANCH   1  27
TORSDOF 12
ENDMDL
MODEL 4
REMARK VINA RESULT:    -5.328      1.848      5.445
REMARK INTER + INTRA:          -9.743
REMARK INTER:                  -9.023
REMARK INTRA:                  -0.721
REMARK UNBOUND:                -1.923
REMARK SMILES O=c1c(O[C@@H]2O[C@@H](CO)[C@H](O)[C@@H](O)[C@@H]2O)c(-c2ccc(O)c(O)c2)oc2cc(O)cc(O)c12
REMARK SMILES IDX 4 1 3 2 16 3 25 4 2 5 26 6 1 7 33 8 27 9 31 10 28 11 30 12
REMARK SMILES IDX 17 13 18 14 19 15 20 16 24 17 22 18 21 19 23 21 32 23 29 25
REMARK SMILES IDX 5 27 14 28 6 29 12 30 7 31 10 32 15 33 13 35 8 37 9 38 11 40
REMARK H PARENT 21 20 23 22 32 24 29 26 15 34 13 36 9 39 11 41
REMARK Flexibility Score: inf
ROOT
ATOM      1  O   UNL     1      -4.326 -38.099 -30.516  1.00  0.00    -0.454 OA
ENDROOT
BRANCH   1   2
ATOM      2  C   UNL     1      -3.466 -37.221 -31.204  1.00  0.00     0.214 A 
ATOM      3  C   UNL     1      -3.944 -35.990 -31.692  1.00  0.00     0.180 A 
ATOM      4  O   UNL     1      -3.094 -35.096 -32.168  1.00  0.00    -0.452 OA
ATOM      5  C   UNL     1      -2.134 -37.575 -31.481  1.00  0.00     0.239 A 
ATOM      6  C   UNL     1      -1.788 -35.327 -32.292  1.00  0.00     0.146 A 
ATOM      7  O   UNL     1      -1.792 -38.775 -31.336  1.00  0.00    -0.285 OA
ATOM      8  C   UNL     1      -1.235 -36.591 -31.972  1.00  0.00     0.111 A 
ATOM      9  C   UNL     1      -0.984 -34.300 -32.790  1.00  0.00     0.094 A 
ATOM     10  C   UNL     1       0.174 -36.782 -32.140  1.00  0.00     0.134 A 
ATOM     11  C   UNL     1       0.388 -34.491 -32.950  1.00  0.00     0.123 A 
ATOM     12  C   UNL     1       0.957 -35.721 -32.621  1.00  0.00     0.093 A 
BRANCH   3  13
ATOM     13  C   UNL     1      -5.389 -35.687 -31.795  1.00  0.00     0.025 A 
ATOM     14  C   UNL     1      -5.800 -34.359 -31.979  1.00  0.00     0.016 A 
ATOM     15  C   UNL     1      -7.154 -34.042 -32.018  1.00  0.00     0.051 A 
ATOM     16  C   UNL     1      -8.130 -35.045 -31.900  1.00  0.00     0.157 A 
ATOM     17  C   UNL     1      -6.355 -36.699 -31.663  1.00  0.00     0.062 A 
ATOM     18  C   UNL     1      -7.718 -36.393 -31.748  1.00  0.00     0.158 A 
BRANCH  16  19
ATOM     19  O   UNL     1      -9.472 -34.670 -31.950  1.00  0.00    -0.504 OA
ATOM     20  H   UNL     1     -10.233 -35.339 -31.897  1.00  0.00     0.293 HD
ENDBRANCH  16  19
BRANCH  18  21
ATOM     21  O   UNL     1      -8.628 -37.446 -31.653  1.00  0.00    -0.504 OA
ATOM     22  H   UNL     1      -8.359 -38.413 -31.467  1.00  0.00     0.293 HD
ENDBRANCH  18  21
ENDBRANCH   3  13
BRANCH  10  23
ATOM     23  O   UNL     1       0.856 -37.966 -31.850  1.00  0.00    -0.507 OA
ATOM     24  H   UNL     1       1.721 -38.044 -31.345  1.00  0.00     0.293 HD
ENDBRANCH  10  23
BRANCH  11  25
ATOM     25  O   UNL     1       1.199 -33.469 -33.462  1.00  0.00    -0.508 OA
ATOM     26  H   UNL     1       1.718 -32.852 -32.847  1.00  0.00     0.293 HD
ENDBRANCH  11  25
ENDBRANCH   1   2
BRANCH   1  27
ATOM     27  C   UNL     1      -4.610 -38.131 -29.091  1.00  0.00     0.339 C 
ATOM     28  C   UNL     1      -5.798 -38.998 -28.590  1.00  0.00     0.214 C 
ATOM     29  O   UNL     1      -3.434 -38.495 -28.366  1.00  0.00    -0.332 OA
ATOM     30  C   UNL     1      -5.509 -40.494 -28.812  1.00  0.00     0.180 C 
ATOM     31  C   UNL     1      -3.051 -39.829 -28.661  1.00  0.00     0.179 C 
ATOM     32  C   UNL     1      -4.133 -40.861 -28.229  1.00  0.00     0.177 C 
BRANCH  28  33
ATOM     33  O   UNL     1      -7.005 -38.613 -29.178  1.00  0.00    -0.384 OA
ATOM     34  H   UNL     1      -7.735 -39.120 -28.729  1.00  0.00     0.211 HD
ENDBRANCH  28  33
BRANCH  30  35
ATOM     35  O   UNL     1      -6.504 -41.299 -28.224  1.00  0.00    -0.387 OA
ATOM     36  H   UNL     1      -6.684 -42.069 -28.830  1.00  0.00     0.211 HD
ENDBRANCH  30  35
BRANCH  31  37
ATOM     37  C   UNL     1      -1.686 -40.130 -28.007  1.00  0.00     0.191 C 
BRANCH  37  38
ATOM     38  O   UNL     1      -0.710 -40.295 -29.002  1.00  0.00    -0.394 OA
ATOM     39  H   UNL     1      -1.192 -40.306 -29.872  1.00  0.00     0.210 HD
ENDBRANCH  37  38
ENDBRANCH  31  37
BRANCH  32  40
ATOM     40  O   UNL     1      -3.791 -42.144 -28.690  1.00  0.00    -0.387 OA
ATOM     41  H   UNL     1      -3.938 -42.780 -27.942  1.00  0.00     0.211 HD
ENDBRANCH  32  40
ENDBRANCH   1  27
TORSDOF 12
ENDMDL
MODEL 5
REMARK VINA RESULT:    -5.240      2.035      2.876
REMARK INTER + INTRA:          -9.613
REMARK INTER:                  -8.882
REMARK INTRA:                  -0.731
REMARK UNBOUND:                -1.923
REMARK SMILES O=c1c(O[C@@H]2O[C@@H](CO)[C@H](O)[C@@H](O)[C@@H]2O)c(-c2ccc(O)c(O)c2)oc2cc(O)cc(O)c12
REMARK SMILES IDX 4 1 3 2 16 3 25 4 2 5 26 6 1 7 33 8 27 9 31 10 28 11 30 12
REMARK SMILES IDX 17 13 18 14 19 15 20 16 24 17 22 18 21 19 23 21 32 23 29 25
REMARK SMILES IDX 5 27 14 28 6 29 12 30 7 31 10 32 15 33 13 35 8 37 9 38 11 40
REMARK H PARENT 21 20 23 22 32 24 29 26 15 34 13 36 9 39 11 41
REMARK Flexibility Score: inf
ROOT
ATOM      1  O   UNL     1      -3.552 -37.975 -29.532  1.00  0.00    -0.454 OA
ENDROOT
BRANCH   1   2
ATOM      2  C   UNL     1      -4.542 -37.159 -30.111  1.00  0.00     0.214 A 
ATOM      3  C   UNL     1      -4.188 -36.134 -31.009  1.00  0.00     0.180 A 
ATOM      4  O   UNL     1      -5.128 -35.499 -31.689  1.00  0.00    -0.452 OA
ATOM      5  C   UNL     1      -5.897 -37.298 -29.761  1.00  0.00     0.239 A 
ATOM      6  C   UNL     1      -6.430 -35.721 -31.510  1.00  0.00     0.146 A 
ATOM      7  O   UNL     1      -6.184 -37.978 -28.745  1.00  0.00    -0.285 OA
ATOM      8  C   UNL     1      -6.889 -36.621 -30.519  1.00  0.00     0.111 A 
ATOM      9  C   UNL     1      -7.332 -35.004 -32.299  1.00  0.00     0.094 A 
ATOM     10  C   UNL     1      -8.301 -36.807 -30.366  1.00  0.00     0.134 A 
ATOM     11  C   UNL     1      -8.705 -35.189 -32.147  1.00  0.00     0.123 A 
ATOM     12  C   UNL     1      -9.180 -36.087 -31.192  1.00  0.00     0.093 A 
BRANCH   3  13
ATOM     13  C   UNL     1      -2.795 -35.655 -31.153  1.00  0.00     0.025 A 
ATOM     14  C   UNL     1      -2.269 -34.775 -30.196  1.00  0.00     0.016 A 
ATOM     15  C   UNL     1      -0.984 -34.264 -30.342  1.00  0.00     0.051 A 
ATOM     16  C   UNL     1      -0.183 -34.637 -31.434  1.00  0.00     0.157 A 
ATOM     17  C   UNL     1      -2.009 -36.026 -32.257  1.00  0.00     0.062 A 
ATOM     18  C   UNL     1      -0.698 -35.553 -32.385  1.00  0.00     0.158 A 
BRANCH  16  19
ATOM     19  O   UNL     1       1.099 -34.097 -31.528  1.00  0.00    -0.504 OA
ATOM     20  H   UNL     1       1.271 -33.124 -31.756  1.00  0.00     0.293 HD
ENDBRANCH  16  19
BRANCH  18  21
ATOM     21  O   UNL     1       0.047 -35.992 -33.480  1.00  0.00    -0.504 OA
ATOM     22  H   UNL     1       0.493 -35.365 -34.151  1.00  0.00     0.293 HD
ENDBRANCH  18  21
ENDBRANCH   3  13
BRANCH  10  23
ATOM     23  O   UNL     1      -8.895 -37.672 -29.444  1.00  0.00    -0.507 OA
ATOM     24  H   UNL     1      -8.554 -38.580 -29.180  1.00  0.00     0.293 HD
ENDBRANCH  10  23
BRANCH  11  25
ATOM     25  O   UNL     1      -9.617 -34.463 -32.926  1.00  0.00    -0.508 OA
ATOM     26  H   UNL     1      -9.401 -34.205 -33.882  1.00  0.00     0.293 HD
ENDBRANCH  11  25
ENDBRANCH   1   2
BRANCH   1  27
ATOM     27  C   UNL     1      -2.829 -39.074 -30.152  1.00  0.00     0.339 C 
ATOM     28  C   UNL     1      -2.599 -40.369 -29.327  1.00  0.00     0.214 C 
ATOM     29  O   UNL     1      -3.441 -39.420 -31.396  1.00  0.00    -0.332 OA
ATOM     30  C   UNL     1      -3.936 -41.083 -29.052  1.00  0.00     0.180 C 
ATOM     31  C   UNL     1      -4.742 -39.948 -31.189  1.00  0.00     0.179 C 
ATOM     32  C   UNL     1      -4.717 -41.268 -30.364  1.00  0.00     0.177 C 
BRANCH  28  33
ATOM     33  O   UNL     1      -1.898 -40.114 -28.145  1.00  0.00    -0.384 OA
ATOM     34  H   UNL     1      -1.959 -39.138 -27.961  1.00  0.00     0.211 HD
ENDBRANCH  28  33
BRANCH  30  35
ATOM     35  O   UNL     1      -3.729 -42.336 -28.441  1.00  0.00    -0.387 OA
ATOM     36  H   UNL     1      -2.875 -42.298 -27.931  1.00  0.00     0.211 HD
ENDBRANCH  30  35
BRANCH  31  37
ATOM     37  C   UNL     1      -5.440 -40.143 -32.551  1.00  0.00     0.191 C 
BRANCH  37  38
ATOM     38  O   UNL     1      -4.485 -40.119 -33.580  1.00  0.00    -0.394 OA
ATOM     39  H   UNL     1      -4.391 -41.057 -33.901  1.00  0.00     0.210 HD
ENDBRANCH  37  38
ENDBRANCH  31  37
BRANCH  32  40
ATOM     40  O   UNL     1      -6.027 -41.662 -30.041  1.00  0.00    -0.387 OA
ATOM     41  H   UNL     1      -6.109 -41.644 -29.052  1.00  0.00     0.211 HD
ENDBRANCH  32  40
ENDBRANCH   1  27
TORSDOF 12
ENDMDL
MODEL 6
REMARK VINA RESULT:    -5.131      2.755      6.897
REMARK INTER + INTRA:          -9.454
REMARK INTER:                  -7.989
REMARK INTRA:                  -1.465
REMARK UNBOUND:                -1.923
REMARK SMILES O=c1c(O[C@@H]2O[C@@H](CO)[C@H](O)[C@@H](O)[C@@H]2O)c(-c2ccc(O)c(O)c2)oc2cc(O)cc(O)c12
REMARK SMILES IDX 4 1 3 2 16 3 25 4 2 5 26 6 1 7 33 8 27 9 31 10 28 11 30 12
REMARK SMILES IDX 17 13 18 14 19 15 20 16 24 17 22 18 21 19 23 21 32 23 29 25
REMARK SMILES IDX 5 27 14 28 6 29 12 30 7 31 10 32 15 33 13 35 8 37 9 38 11 40
REMARK H PARENT 21 20 23 22 32 24 29 26 15 34 13 36 9 39 11 41
REMARK Flexibility Score: inf
ROOT
ATOM      1  O   UNL     1      -4.479 -34.448 -32.713  1.00  0.00    -0.454 OA
ENDROOT
BRANCH   1   2
ATOM      2  C   UNL     1      -5.361 -35.293 -32.012  1.00  0.00     0.214 A 
ATOM      3  C   UNL     1      -4.868 -36.398 -31.291  1.00  0.00     0.180 A 
ATOM      4  O   UNL     1      -5.674 -37.072 -30.488  1.00  0.00    -0.452 OA
ATOM      5  C   UNL     1      -6.752 -35.100 -32.066  1.00  0.00     0.239 A 
ATOM      6  C   UNL     1      -6.977 -36.812 -30.379  1.00  0.00     0.146 A 
ATOM      7  O   UNL     1      -7.214 -34.329 -32.944  1.00  0.00    -0.285 OA
ATOM      8  C   UNL     1      -7.595 -35.822 -31.179  1.00  0.00     0.111 A 
ATOM      9  C   UNL     1      -7.726 -37.579 -29.484  1.00  0.00     0.094 A 
ATOM     10  C   UNL     1      -9.001 -35.599 -31.025  1.00  0.00     0.134 A 
ATOM     11  C   UNL     1      -9.094 -37.357 -29.337  1.00  0.00     0.123 A 
ATOM     12  C   UNL     1      -9.720 -36.371 -30.099  1.00  0.00     0.093 A 
BRANCH   3  13
ATOM     13  C   UNL     1      -3.493 -36.913 -31.473  1.00  0.00     0.025 A 
ATOM     14  C   UNL     1      -3.272 -37.987 -32.347  1.00  0.00     0.016 A 
ATOM     15  C   UNL     1      -1.998 -38.528 -32.489  1.00  0.00     0.051 A 
ATOM     16  C   UNL     1      -0.909 -37.993 -31.782  1.00  0.00     0.157 A 
ATOM     17  C   UNL     1      -2.414 -36.377 -30.750  1.00  0.00     0.062 A 
ATOM     18  C   UNL     1      -1.122 -36.885 -30.924  1.00  0.00     0.158 A 
BRANCH  16  19
ATOM     19  O   UNL     1       0.346 -38.571 -31.966  1.00  0.00    -0.504 OA
ATOM     20  H   UNL     1       0.795 -39.148 -31.262  1.00  0.00     0.293 HD
ENDBRANCH  16  19
BRANCH  18  21
ATOM     21  O   UNL     1      -0.085 -36.282 -30.211  1.00  0.00    -0.504 OA
ATOM     22  H   UNL     1      -0.079 -36.182 -29.195  1.00  0.00     0.293 HD
ENDBRANCH  18  21
ENDBRANCH   3  13
BRANCH  10  23
ATOM     23  O   UNL     1      -9.737 -34.646 -31.734  1.00  0.00    -0.507 OA
ATOM     24  H   UNL     1      -9.715 -33.652 -31.589  1.00  0.00     0.293 HD
ENDBRANCH  10  23
BRANCH  11  25
ATOM     25  O   UNL     1      -9.855 -38.132 -28.451  1.00  0.00    -0.508 OA
ATOM     26  H   UNL     1      -9.417 -38.647 -27.696  1.00  0.00     0.293 HD
ENDBRANCH  11  25
ENDBRANCH   1   2
BRANCH   1  27
ATOM     27  C   UNL     1      -3.940 -33.169 -32.281  1.00  0.00     0.339 C 
ATOM     28  C   UNL     1      -2.616 -32.668 -32.919  1.00  0.00     0.214 C 
ATOM     29  O   UNL     1      -4.933 -32.150 -32.416  1.00  0.00    -0.332 OA
ATOM     30  C   UNL     1      -2.818 -32.352 -34.413  1.00  0.00     0.180 C 
ATOM     31  C   UNL     1      -5.254 -31.934 -33.781  1.00  0.00     0.179 C 
ATOM     32  C   UNL     1      -4.031 -31.425 -34.599  1.00  0.00     0.177 C 
BRANCH  28  33
ATOM     33  O   UNL     1      -1.569 -33.571 -32.720  1.00  0.00    -0.384 OA
ATOM     34  H   UNL     1      -0.722 -33.050 -32.683  1.00  0.00     0.211 HD
ENDBRANCH  28  33
BRANCH  30  35
ATOM     35  O   UNL     1      -1.671 -31.751 -34.967  1.00  0.00    -0.387 OA
ATOM     36  H   UNL     1      -0.943 -32.430 -34.993  1.00  0.00     0.211 HD
ENDBRANCH  30  35
BRANCH  31  37
ATOM     37  C   UNL     1      -6.449 -30.964 -33.882  1.00  0.00     0.191 C 
BRANCH  37  38
ATOM     38  O   UNL     1      -7.579 -31.540 -33.280  1.00  0.00    -0.394 OA
ATOM     39  H   UNL     1      -7.289 -32.420 -32.919  1.00  0.00     0.210 HD
ENDBRANCH  37  38
ENDBRANCH  31  37
BRANCH  32  40
ATOM     40  O   UNL     1      -4.346 -31.387 -35.968  1.00  0.00    -0.387 OA
ATOM     41  H   UNL     1      -4.222 -30.453 -36.278  1.00  0.00     0.211 HD
ENDBRANCH  32  40
ENDBRANCH   1  27
TORSDOF 12
ENDMDL
MODEL 7
REMARK VINA RESULT:    -5.111      2.001      5.095
REMARK INTER + INTRA:          -9.425
REMARK INTER:                  -7.673
REMARK INTRA:                  -1.751
REMARK UNBOUND:                -1.923
REMARK SMILES O=c1c(O[C@@H]2O[C@@H](CO)[C@H](O)[C@@H](O)[C@@H]2O)c(-c2ccc(O)c(O)c2)oc2cc(O)cc(O)c12
REMARK SMILES IDX 4 1 3 2 16 3 25 4 2 5 26 6 1 7 33 8 27 9 31 10 28 11 30 12
REMARK SMILES IDX 17 13 18 14 19 15 20 16 24 17 22 18 21 19 23 21 32 23 29 25
REMARK SMILES IDX 5 27 14 28 6 29 12 30 7 31 10 32 15 33 13 35 8 37 9 38 11 40
REMARK H PARENT 21 20 23 22 32 24 29 26 15 34 13 36 9 39 11 41
REMARK Flexibility Score: inf
ROOT
ATOM      1  O   UNL     1      -2.269 -36.278 -31.085  1.00  0.00    -0.454 OA
ENDROOT
BRANCH   1   2
ATOM      2  C   UNL     1      -3.377 -35.590 -31.618  1.00  0.00     0.214 A 
ATOM      3  C   UNL     1      -4.670 -36.142 -31.528  1.00  0.00     0.180 A 
ATOM      4  O   UNL     1      -5.721 -35.412 -31.859  1.00  0.00    -0.452 OA
ATOM      5  C   UNL     1      -3.218 -34.376 -32.307  1.00  0.00     0.239 A 
ATOM      6  C   UNL     1      -5.624 -34.181 -32.362  1.00  0.00     0.146 A 
ATOM      7  O   UNL     1      -2.061 -34.039 -32.665  1.00  0.00    -0.285 OA
ATOM      8  C   UNL     1      -4.362 -33.600 -32.633  1.00  0.00     0.111 A 
ATOM      9  C   UNL     1      -6.805 -33.498 -32.657  1.00  0.00     0.094 A 
ATOM     10  C   UNL     1      -4.324 -32.279 -33.187  1.00  0.00     0.134 A 
ATOM     11  C   UNL     1      -6.761 -32.212 -33.195  1.00  0.00     0.123 A 
ATOM     12  C   UNL     1      -5.530 -31.611 -33.450  1.00  0.00     0.093 A 
BRANCH   3  13
ATOM     13  C   UNL     1      -4.902 -37.560 -31.174  1.00  0.00     0.025 A 
ATOM     14  C   UNL     1      -4.944 -37.932 -29.823  1.00  0.00     0.016 A 
ATOM     15  C   UNL     1      -5.100 -39.267 -29.466  1.00  0.00     0.051 A 
ATOM     16  C   UNL     1      -5.244 -40.261 -30.449  1.00  0.00     0.157 A 
ATOM     17  C   UNL     1      -5.032 -38.545 -32.168  1.00  0.00     0.062 A 
ATOM     18  C   UNL     1      -5.237 -39.884 -31.815  1.00  0.00     0.158 A 
BRANCH  16  19
ATOM     19  O   UNL     1      -5.402 -41.582 -30.034  1.00  0.00    -0.504 OA
ATOM     20  H   UNL     1      -6.286 -41.954 -29.705  1.00  0.00     0.293 HD
ENDBRANCH  16  19
BRANCH  18  21
ATOM     21  O   UNL     1      -5.403 -40.809 -32.847  1.00  0.00    -0.504 OA
ATOM     22  H   UNL     1      -4.954 -41.725 -32.864  1.00  0.00     0.293 HD
ENDBRANCH  18  21
ENDBRANCH   3  13
BRANCH  10  23
ATOM     23  O   UNL     1      -3.154 -31.578 -33.489  1.00  0.00    -0.507 OA
ATOM     24  H   UNL     1      -2.245 -31.979 -33.639  1.00  0.00     0.293 HD
ENDBRANCH  10  23
BRANCH  11  25
ATOM     25  O   UNL     1      -7.943 -31.525 -33.506  1.00  0.00    -0.508 OA
ATOM     26  H   UNL     1      -8.725 -31.999 -33.945  1.00  0.00     0.293 HD
ENDBRANCH  11  25
ENDBRANCH   1   2
BRANCH   1  27
ATOM     27  C   UNL     1      -1.479 -37.319 -31.721  1.00  0.00     0.339 C 
ATOM     28  C   UNL     1       0.034 -37.060 -31.961  1.00  0.00     0.214 C 
ATOM     29  O   UNL     1      -1.630 -38.550 -31.012  1.00  0.00    -0.332 OA
ATOM     30  C   UNL     1       0.788 -36.968 -30.622  1.00  0.00     0.180 C 
ATOM     31  C   UNL     1      -1.073 -38.454 -29.710  1.00  0.00     0.179 C 
ATOM     32  C   UNL     1       0.460 -38.188 -29.744  1.00  0.00     0.177 C 
BRANCH  28  33
ATOM     33  O   UNL     1       0.248 -35.928 -32.752  1.00  0.00    -0.384 OA
ATOM     34  H   UNL     1      -0.639 -35.613 -33.076  1.00  0.00     0.211 HD
ENDBRANCH  28  33
BRANCH  30  35
ATOM     35  O   UNL     1       2.180 -36.889 -30.824  1.00  0.00    -0.387 OA
ATOM     36  H   UNL     1       2.555 -37.811 -30.787  1.00  0.00     0.211 HD
ENDBRANCH  30  35
BRANCH  31  37
ATOM     37  C   UNL     1      -1.410 -39.731 -28.911  1.00  0.00     0.191 C 
BRANCH  37  38
ATOM     38  O   UNL     1      -1.809 -40.749 -29.792  1.00  0.00    -0.394 OA
ATOM     39  H   UNL     1      -2.670 -40.454 -30.194  1.00  0.00     0.210 HD
ENDBRANCH  37  38
ENDBRANCH  31  37
BRANCH  32  40
ATOM     40  O   UNL     1       0.937 -37.934 -28.446  1.00  0.00    -0.387 OA
ATOM     41  H   UNL     1       0.273 -37.354 -27.992  1.00  0.00     0.211 HD
ENDBRANCH  32  40
ENDBRANCH   1  27
TORSDOF 12
ENDMDL
MODEL 8
REMARK VINA RESULT:    -5.109      2.329      6.876
REMARK INTER + INTRA:          -9.422
REMARK INTER:                  -7.859
REMARK INTRA:                  -1.562
REMARK UNBOUND:                -1.923
REMARK SMILES O=c1c(O[C@@H]2O[C@@H](CO)[C@H](O)[C@@H](O)[C@@H]2O)c(-c2ccc(O)c(O)c2)oc2cc(O)cc(O)c12
REMARK SMILES IDX 4 1 3 2 16 3 25 4 2 5 26 6 1 7 33 8 27 9 31 10 28 11 30 12
REMARK SMILES IDX 17 13 18 14 19 15 20 16 24 17 22 18 21 19 23 21 32 23 29 25
REMARK SMILES IDX 5 27 14 28 6 29 12 30 7 31 10 32 15 33 13 35 8 37 9 38 11 40
REMARK H PARENT 21 20 23 22 32 24 29 26 15 34 13 36 9 39 11 41
REMARK Flexibility Score: inf
ROOT
ATOM      1  O   UNL     1      -5.006 -35.712 -30.975  1.00  0.00    -0.454 OA
ENDROOT
BRANCH   1   2
ATOM      2  C   UNL     1      -3.613 -35.896 -31.074  1.00  0.00     0.214 A 
ATOM      3  C   UNL     1      -3.075 -37.180 -31.282  1.00  0.00     0.180 A 
ATOM      4  O   UNL     1      -1.790 -37.319 -31.559  1.00  0.00    -0.452 OA
ATOM      5  C   UNL     1      -2.723 -34.822 -30.901  1.00  0.00     0.239 A 
ATOM      6  C   UNL     1      -0.935 -36.297 -31.573  1.00  0.00     0.146 A 
ATOM      7  O   UNL     1      -3.164 -33.753 -30.408  1.00  0.00    -0.285 OA
ATOM      8  C   UNL     1      -1.350 -34.990 -31.224  1.00  0.00     0.111 A 
ATOM      9  C   UNL     1       0.398 -36.562 -31.898  1.00  0.00     0.094 A 
ATOM     10  C   UNL     1      -0.380 -33.937 -31.245  1.00  0.00     0.134 A 
ATOM     11  C   UNL     1       1.338 -35.532 -31.917  1.00  0.00     0.123 A 
ATOM     12  C   UNL     1       0.946 -34.233 -31.598  1.00  0.00     0.093 A 
BRANCH   3  13
ATOM     13  C   UNL     1      -3.875 -38.412 -31.100  1.00  0.00     0.025 A 
ATOM     14  C   UNL     1      -4.096 -38.902 -29.804  1.00  0.00     0.016 A 
ATOM     15  C   UNL     1      -4.792 -40.090 -29.611  1.00  0.00     0.051 A 
ATOM     16  C   UNL     1      -5.308 -40.805 -30.704  1.00  0.00     0.157 A 
ATOM     17  C   UNL     1      -4.375 -39.125 -32.203  1.00  0.00     0.062 A 
ATOM     18  C   UNL     1      -5.117 -40.295 -32.013  1.00  0.00     0.158 A 
BRANCH  16  19
ATOM     19  O   UNL     1      -6.002 -41.988 -30.452  1.00  0.00    -0.504 OA
ATOM     20  H   UNL     1      -5.544 -42.842 -30.152  1.00  0.00     0.293 HD
ENDBRANCH  16  19
BRANCH  18  21
ATOM     21  O   UNL     1      -5.624 -40.934 -33.145  1.00  0.00    -0.504 OA
ATOM     22  H   UNL     1      -6.201 -40.471 -33.848  1.00  0.00     0.293 HD
ENDBRANCH  18  21
ENDBRANCH   3  13
BRANCH  10  23
ATOM     23  O   UNL     1      -0.651 -32.600 -30.941  1.00  0.00    -0.507 OA
ATOM     24  H   UNL     1      -0.093 -31.808 -31.205  1.00  0.00     0.293 HD
ENDBRANCH  10  23
BRANCH  11  25
ATOM     25  O   UNL     1       2.679 -35.793 -32.229  1.00  0.00    -0.508 OA
ATOM     26  H   UNL     1       2.933 -36.515 -32.894  1.00  0.00     0.293 HD
ENDBRANCH  11  25
ENDBRANCH   1   2
BRANCH   1  27
ATOM     27  C   UNL     1      -5.998 -35.846 -32.030  1.00  0.00     0.339 C 
ATOM     28  C   UNL     1      -7.409 -36.377 -31.658  1.00  0.00     0.214 C 
ATOM     29  O   UNL     1      -6.139 -34.607 -32.728  1.00  0.00    -0.332 OA
ATOM     30  C   UNL     1      -8.148 -35.370 -30.758  1.00  0.00     0.180 C 
ATOM     31  C   UNL     1      -6.684 -33.608 -31.880  1.00  0.00     0.179 C 
ATOM     32  C   UNL     1      -8.118 -33.969 -31.392  1.00  0.00     0.177 C 
BRANCH  28  33
ATOM     33  O   UNL     1      -7.349 -37.644 -31.074  1.00  0.00    -0.384 OA
ATOM     34  H   UNL     1      -7.452 -38.318 -31.799  1.00  0.00     0.211 HD
ENDBRANCH  28  33
BRANCH  30  35
ATOM     35  O   UNL     1      -9.483 -35.764 -30.540  1.00  0.00    -0.387 OA
ATOM     36  H   UNL     1      -9.501 -36.751 -30.409  1.00  0.00     0.211 HD
ENDBRANCH  30  35
BRANCH  31  37
ATOM     37  C   UNL     1      -6.657 -32.246 -32.604  1.00  0.00     0.191 C 
BRANCH  37  38
ATOM     38  O   UNL     1      -7.881 -32.033 -33.258  1.00  0.00    -0.394 OA
ATOM     39  H   UNL     1      -7.744 -32.295 -34.207  1.00  0.00     0.210 HD
ENDBRANCH  37  38
ENDBRANCH  31  37
BRANCH  32  40
ATOM     40  O   UNL     1      -8.550 -33.043 -30.428  1.00  0.00    -0.387 OA
ATOM     41  H   UNL     1      -7.743 -32.675 -29.983  1.00  0.00     0.211 HD
ENDBRANCH  32  40
ENDBRANCH   1  27
TORSDOF 12
ENDMDL
MODEL 9
REMARK VINA RESULT:    -4.947      2.262      3.811
REMARK INTER + INTRA:          -9.185
REMARK INTER:                  -7.228
REMARK INTRA:                  -1.957
REMARK UNBOUND:                -1.923
REMARK SMILES O=c1c(O[C@@H]2O[C@@H](CO)[C@H](O)[C@@H](O)[C@@H]2O)c(-c2ccc(O)c(O)c2)oc2cc(O)cc(O)c12
REMARK SMILES IDX 4 1 3 2 16 3 25 4 2 5 26 6 1 7 33 8 27 9 31 10 28 11 30 12
REMARK SMILES IDX 17 13 18 14 19 15 20 16 24 17 22 18 21 19 23 21 32 23 29 25
REMARK SMILES IDX 5 27 14 28 6 29 12 30 7 31 10 32 15 33 13 35 8 37 9 38 11 40
REMARK H PARENT 21 20 23 22 32 24 29 26 15 34 13 36 9 39 11 41
REMARK Flexibility Score: inf
ROOT
ATOM      1  O   UNL     1      -2.649 -37.411 -30.361  1.00  0.00    -0.454 OA
ENDROOT
BRANCH   1   2
ATOM      2  C   UNL     1      -3.805 -36.719 -30.772  1.00  0.00     0.214 A 
ATOM      3  C   UNL     1      -3.705 -35.617 -31.643  1.00  0.00     0.180 A 
ATOM      4  O   UNL     1      -4.799 -35.093 -32.170  1.00  0.00    -0.452 OA
ATOM      5  C   UNL     1      -5.075 -37.064 -30.277  1.00  0.00     0.239 A 
ATOM      6  C   UNL     1      -6.027 -35.505 -31.856  1.00  0.00     0.146 A 
ATOM      7  O   UNL     1      -5.140 -37.821 -29.276  1.00  0.00    -0.285 OA
ATOM      8  C   UNL     1      -6.236 -36.503 -30.874  1.00  0.00     0.111 A 
ATOM      9  C   UNL     1      -7.108 -34.889 -32.491  1.00  0.00     0.094 A 
ATOM     10  C   UNL     1      -7.580 -36.892 -30.570  1.00  0.00     0.134 A 
ATOM     11  C   UNL     1      -8.414 -35.273 -32.192  1.00  0.00     0.123 A 
ATOM     12  C   UNL     1      -8.642 -36.269 -31.244  1.00  0.00     0.093 A 
BRANCH   3  13
ATOM     13  C   UNL     1      -2.418 -34.940 -31.918  1.00  0.00     0.025 A 
ATOM     14  C   UNL     1      -2.124 -33.734 -31.266  1.00  0.00     0.016 A 
ATOM     15  C   UNL     1      -0.949 -33.048 -31.553  1.00  0.00     0.051 A 
ATOM     16  C   UNL     1      -0.026 -33.562 -32.480  1.00  0.00     0.157 A 
ATOM     17  C   UNL     1      -1.510 -35.458 -32.857  1.00  0.00     0.062 A 
ATOM     18  C   UNL     1      -0.304 -34.798 -33.115  1.00  0.00     0.158 A 
BRANCH  16  19
ATOM     19  O   UNL     1       1.137 -32.835 -32.726  1.00  0.00    -0.504 OA
ATOM     20  H   UNL     1       1.164 -31.821 -32.723  1.00  0.00     0.293 HD
ENDBRANCH  16  19
BRANCH  18  21
ATOM     21  O   UNL     1       0.576 -35.385 -34.025  1.00  0.00    -0.504 OA
ATOM     22  H   UNL     1       0.320 -36.152 -34.648  1.00  0.00     0.293 HD
ENDBRANCH  18  21
ENDBRANCH   3  13
BRANCH  10  23
ATOM     23  O   UNL     1      -7.933 -37.872 -29.639  1.00  0.00    -0.507 OA
ATOM     24  H   UNL     1      -8.531 -37.743 -28.842  1.00  0.00     0.293 HD
ENDBRANCH  10  23
BRANCH  11  25
ATOM     25  O   UNL     1      -9.504 -34.650 -32.816  1.00  0.00    -0.508 OA
ATOM     26  H   UNL     1      -9.973 -33.860 -32.388  1.00  0.00     0.293 HD
ENDBRANCH  11  25
ENDBRANCH   1   2
BRANCH   1  27
ATOM     27  C   UNL     1      -1.987 -37.347 -29.068  1.00  0.00     0.339 C 
ATOM     28  C   UNL     1      -1.617 -38.677 -28.357  1.00  0.00     0.214 C 
ATOM     29  O   UNL     1      -0.817 -36.530 -29.159  1.00  0.00    -0.332 OA
ATOM     30  C   UNL     1      -0.531 -39.432 -29.148  1.00  0.00     0.180 C 
ATOM     31  C   UNL     1       0.153 -37.128 -30.004  1.00  0.00     0.179 C 
ATOM     32  C   UNL     1       0.651 -38.496 -29.451  1.00  0.00     0.177 C 
BRANCH  28  33
ATOM     33  O   UNL     1      -2.740 -39.476 -28.133  1.00  0.00    -0.384 OA
ATOM     34  H   UNL     1      -3.519 -38.871 -27.993  1.00  0.00     0.211 HD
ENDBRANCH  28  33
BRANCH  30  35
ATOM     35  O   UNL     1      -0.074 -40.560 -28.439  1.00  0.00    -0.387 OA
ATOM     36  H   UNL     1       0.195 -41.256 -29.097  1.00  0.00     0.211 HD
ENDBRANCH  30  35
BRANCH  31  37
ATOM     37  C   UNL     1       1.321 -36.144 -30.223  1.00  0.00     0.191 C 
BRANCH  37  38
ATOM     38  O   UNL     1       2.004 -36.475 -31.404  1.00  0.00    -0.394 OA
ATOM     39  H   UNL     1       2.970 -36.321 -31.225  1.00  0.00     0.210 HD
ENDBRANCH  37  38
ENDBRANCH  31  37
BRANCH  32  40
ATOM     40  O   UNL     1       1.478 -39.128 -30.395  1.00  0.00    -0.387 OA
ATOM     41  H   UNL     1       1.797 -38.433 -31.027  1.00  0.00     0.211 HD
ENDBRANCH  32  40
ENDBRANCH   1  27
TORSDOF 12
ENDMDL
