MODEL 1
REMARK VINA RESULT:    -4.462      0.000      0.000
REMARK INTER + INTRA:          -8.110
REMARK INTER:                  -7.071
REMARK INTRA:                  -1.040
REMARK UNBOUND:                -1.040
REMARK SMILES CCCCCCCCCCCC(=O)[O-]
REMARK SMILES IDX 7 1 8 2 9 3 10 4 11 5 12 6 13 7 14 8 6 9 5 10 4 11 3 12 2 13
REMARK SMILES IDX 1 14
REMARK H PARENT
REMARK Flexibility Score: inf
ROOT
ATOM      1  C   UNL     1      29.133   1.153  29.285  1.00  0.00     0.000 C 
ENDROOT
BRANCH   1   2
ATOM      2  C   UNL     1      28.393  -0.113  28.820  1.00  0.00     0.000 C 
BRANCH   2   3
ATOM      3  C   UNL     1      26.882  -0.045  29.089  1.00  0.00     0.000 C 
BRANCH   3   4
ATOM      4  C   UNL     1      26.462  -0.883  30.309  1.00  0.00     0.006 C 
BRANCH   4   5
ATOM      5  C   UNL     1      27.557  -1.868  30.739  1.00  0.00     0.053 C 
BRANCH   5   6
ATOM      6  C   UNL     1      27.061  -3.283  30.740  1.00  0.00     0.041 C 
ATOM      7  O   UNL     1      27.873  -4.240  30.837  1.00  0.00    -0.550 OA
ATOM      8  O   UNL     1      25.698  -3.541  30.670  1.00  0.00    -0.550 OA
ENDBRANCH   5   6
ENDBRANCH   4   5
ENDBRANCH   3   4
ENDBRANCH   2   3
ENDBRANCH   1   2
BRANCH   1   9
ATOM      9  C   UNL     1      29.783   0.982  30.667  1.00  0.00     0.000 C 
BRANCH   9  10
ATOM     10  C   UNL     1      29.132   1.869  31.739  1.00  0.00    -0.000 C 
BRANCH  10  11
ATOM     11  C   UNL     1      28.090   2.807  31.117  1.00  0.00    -0.000 C 
BRANCH  11  12
ATOM     12  C   UNL     1      28.205   4.222  31.703  1.00  0.00    -0.000 C 
BRANCH  12  13
ATOM     13  C   UNL     1      27.848   5.315  30.683  1.00  0.00    -0.003 C 
ATOM     14  C   UNL     1      27.535   4.750  29.298  1.00  0.00     0.004 C 
ENDBRANCH  12  13
ENDBRANCH  11  12
ENDBRANCH  10  11
ENDBRANCH   9  10
ENDBRANCH   1   9
TORSDOF 10
ENDMDL
MODEL 2
REMARK VINA RESULT:    -4.421      3.433      6.356
REMARK INTER + INTRA:          -8.046
REMARK INTER:                  -6.975
REMARK INTRA:                  -1.071
REMARK UNBOUND:                -1.040
REMARK SMILES CCCCCCCCCCCC(=O)[O-]
REMARK SMILES IDX 7 1 8 2 9 3 10 4 11 5 12 6 13 7 14 8 6 9 5 10 4 11 3 12 2 13
REMARK SMILES IDX 1 14
REMARK H PARENT
REMARK Flexibility Score: inf
ROOT
ATOM      1  C   UNL     1      28.464  -0.229  28.839  1.00  0.00     0.000 C 
ENDROOT
BRANCH   1   2
ATOM      2  C   UNL     1      29.130   1.103  29.223  1.00  0.00     0.000 C 
BRANCH   2   3
ATOM      3  C   UNL     1      29.879   1.023  30.563  1.00  0.00     0.000 C 
BRANCH   3   4
ATOM      4  C   UNL     1      29.061   1.603  31.731  1.00  0.00     0.006 C 
BRANCH   4   5
ATOM      5  C   UNL     1      28.033   2.639  31.258  1.00  0.00     0.053 C 
BRANCH   5   6
ATOM      6  C   UNL     1      28.377   4.018  31.735  1.00  0.00     0.041 C 
ATOM      7  O   UNL     1      27.685   5.006  31.374  1.00  0.00    -0.550 OA
ATOM      8  O   UNL     1      29.441   4.206  32.607  1.00  0.00    -0.550 OA
ENDBRANCH   5   6
ENDBRANCH   4   5
ENDBRANCH   3   4
ENDBRANCH   2   3
ENDBRANCH   1   2
BRANCH   1   9
ATOM      9  C   UNL     1      26.944  -0.218  29.071  1.00  0.00     0.000 C 
BRANCH   9  10
ATOM     10  C   UNL     1      26.542  -0.905  30.384  1.00  0.00    -0.000 C 
BRANCH  10  11
ATOM     11  C   UNL     1      27.553  -1.992  30.767  1.00  0.00    -0.000 C 
BRANCH  11  12
ATOM     12  C   UNL     1      26.895  -3.380  30.766  1.00  0.00    -0.000 C 
BRANCH  12  13
ATOM     13  C   UNL     1      27.923  -4.521  30.815  1.00  0.00    -0.003 C 
ATOM     14  C   UNL     1      29.125  -4.273  29.905  1.00  0.00     0.004 C 
ENDBRANCH  12  13
ENDBRANCH  11  12
ENDBRANCH  10  11
ENDBRANCH   9  10
ENDBRANCH   1   9
TORSDOF 10
ENDMDL
MODEL 3
REMARK VINA RESULT:    -4.324      2.825      4.709
REMARK INTER + INTRA:          -7.892
REMARK INTER:                  -7.205
REMARK INTRA:                  -0.686
REMARK UNBOUND:                -1.040
REMARK SMILES CCCCCCCCCCCC(=O)[O-]
REMARK SMILES IDX 7 1 8 2 9 3 10 4 11 5 12 6 13 7 14 8 6 9 5 10 4 11 3 12 2 13
REMARK SMILES IDX 1 14
REMARK H PARENT
REMARK Flexibility Score: inf
ROOT
ATOM      1  C   UNL     1      27.519  -2.110  30.632  1.00  0.00     0.000 C 
ENDROOT
BRANCH   1   2
ATOM      2  C   UNL     1      26.819  -3.471  30.791  1.00  0.00     0.000 C 
BRANCH   2   3
ATOM      3  C   UNL     1      27.790  -4.588  31.206  1.00  0.00     0.000 C 
BRANCH   3   4
ATOM      4  C   UNL     1      27.864  -5.720  30.167  1.00  0.00     0.006 C 
BRANCH   4   5
ATOM      5  C   UNL     1      29.175  -6.511  30.266  1.00  0.00     0.053 C 
BRANCH   5   6
ATOM      6  C   UNL     1      28.942  -7.915  30.737  1.00  0.00     0.041 C 
ATOM      7  O   UNL     1      28.468  -8.129  31.883  1.00  0.00    -0.550 OA
ATOM      8  O   UNL     1      29.214  -8.984  29.894  1.00  0.00    -0.550 OA
ENDBRANCH   5   6
ENDBRANCH   4   5
ENDBRANCH   3   4
ENDBRANCH   2   3
ENDBRANCH   1   2
BRANCH   1   9
ATOM      9  C   UNL     1      26.527  -0.956  30.416  1.00  0.00     0.000 C 
BRANCH   9  10
ATOM     10  C   UNL     1      26.873  -0.100  29.189  1.00  0.00    -0.000 C 
BRANCH  10  11
ATOM     11  C   UNL     1      28.356  -0.240  28.824  1.00  0.00    -0.000 C 
BRANCH  11  12
ATOM     12  C   UNL     1      29.159   0.973  29.317  1.00  0.00    -0.000 C 
BRANCH  12  13
ATOM     13  C   UNL     1      30.241   0.590  30.338  1.00  0.00    -0.003 C 
ATOM     14  C   UNL     1      29.734   0.632  31.780  1.00  0.00     0.004 C 
ENDBRANCH  12  13
ENDBRANCH  11  12
ENDBRANCH  10  11
ENDBRANCH   9  10
ENDBRANCH   1   9
TORSDOF 10
ENDMDL
MODEL 4
REMARK VINA RESULT:    -4.318      4.920      7.224
REMARK INTER + INTRA:          -7.882
REMARK INTER:                  -7.037
REMARK INTRA:                  -0.846
REMARK UNBOUND:                -1.040
REMARK SMILES CCCCCCCCCCCC(=O)[O-]
REMARK SMILES IDX 7 1 8 2 9 3 10 4 11 5 12 6 13 7 14 8 6 9 5 10 4 11 3 12 2 13
REMARK SMILES IDX 1 14
REMARK H PARENT
REMARK Flexibility Score: inf
ROOT
ATOM      1  C   UNL     1      28.275   2.921  30.926  1.00  0.00     0.000 C 
ENDROOT
BRANCH   1   2
ATOM      2  C   UNL     1      28.279   4.099  31.915  1.00  0.00     0.000 C 
BRANCH   2   3
ATOM      3  C   UNL     1      28.618   5.436  31.237  1.00  0.00     0.000 C 
BRANCH   3   4
ATOM      4  C   UNL     1      27.925   5.597  29.873  1.00  0.00     0.006 C 
BRANCH   4   5
ATOM      5  C   UNL     1      26.742   6.573  29.936  1.00  0.00     0.053 C 
BRANCH   5   6
ATOM      6  C   UNL     1      27.190   7.966  30.260  1.00  0.00     0.041 C 
ATOM      7  O   UNL     1      26.672   8.592  31.222  1.00  0.00    -0.550 OA
ATOM      8  O   UNL     1      28.204   8.560  29.520  1.00  0.00    -0.550 OA
ENDBRANCH   5   6
ENDBRANCH   4   5
ENDBRANCH   3   4
ENDBRANCH   2   3
ENDBRANCH   1   2
BRANCH   1   9
ATOM      9  C   UNL     1      28.992   1.680  31.482  1.00  0.00     0.000 C 
BRANCH   9  10
ATOM     10  C   UNL     1      29.733   0.888  30.395  1.00  0.00    -0.000 C 
BRANCH  10  11
ATOM     11  C   UNL     1      28.997   0.981  29.052  1.00  0.00    -0.000 C 
BRANCH  11  12
ATOM     12  C   UNL     1      27.985  -0.164  28.900  1.00  0.00    -0.000 C 
BRANCH  12  13
ATOM     13  C   UNL     1      26.532   0.334  28.856  1.00  0.00    -0.003 C 
ATOM     14  C   UNL     1      25.811   0.171  30.194  1.00  0.00     0.004 C 
ENDBRANCH  12  13
ENDBRANCH  11  12
ENDBRANCH  10  11
ENDBRANCH   9  10
ENDBRANCH   1   9
TORSDOF 10
ENDMDL
MODEL 5
REMARK VINA RESULT:    -4.291      3.108      4.393
REMARK INTER + INTRA:          -7.839
REMARK INTER:                  -7.181
REMARK INTRA:                  -0.658
REMARK UNBOUND:                -1.040
REMARK SMILES CCCCCCCCCCCC(=O)[O-]
REMARK SMILES IDX 7 1 8 2 9 3 10 4 11 5 12 6 13 7 14 8 6 9 5 10 4 11 3 12 2 13
REMARK SMILES IDX 1 14
REMARK H PARENT
REMARK Flexibility Score: inf
ROOT
ATOM      1  C   UNL     1      29.135  -1.922  29.716  1.00  0.00     0.000 C 
ENDROOT
BRANCH   1   2
ATOM      2  C   UNL     1      29.671  -3.364  29.725  1.00  0.00     0.000 C 
BRANCH   2   3
ATOM      3  C   UNL     1      28.622  -4.379  30.205  1.00  0.00     0.000 C 
BRANCH   3   4
ATOM      4  C   UNL     1      29.258  -5.663  30.768  1.00  0.00     0.006 C 
BRANCH   4   5
ATOM      5  C   UNL     1      28.598  -6.930  30.207  1.00  0.00     0.053 C 
BRANCH   5   6
ATOM      6  C   UNL     1      28.943  -8.141  31.019  1.00  0.00     0.041 C 
ATOM      7  O   UNL     1      29.753  -8.995  30.572  1.00  0.00    -0.550 OA
ATOM      8  O   UNL     1      28.397  -8.307  32.285  1.00  0.00    -0.550 OA
ENDBRANCH   5   6
ENDBRANCH   4   5
ENDBRANCH   3   4
ENDBRANCH   2   3
ENDBRANCH   1   2
BRANCH   1   9
ATOM      9  C   UNL     1      30.102  -0.928  30.379  1.00  0.00     0.000 C 
BRANCH   9  10
ATOM     10  C   UNL     1      29.373   0.227  31.082  1.00  0.00    -0.000 C 
BRANCH  10  11
ATOM     11  C   UNL     1      28.071  -0.259  31.729  1.00  0.00    -0.000 C 
BRANCH  11  12
ATOM     12  C   UNL     1      26.894   0.652  31.348  1.00  0.00    -0.000 C 
BRANCH  12  13
ATOM     13  C   UNL     1      26.059   0.086  30.189  1.00  0.00    -0.003 C 
ATOM     14  C   UNL     1      26.510   0.608  28.826  1.00  0.00     0.004 C 
ENDBRANCH  12  13
ENDBRANCH  11  12
ENDBRANCH  10  11
ENDBRANCH   9  10
ENDBRANCH   1   9
TORSDOF 10
ENDMDL
MODEL 6
REMARK VINA RESULT:    -4.278      4.692      6.866
REMARK INTER + INTRA:          -7.819
REMARK INTER:                  -6.990
REMARK INTRA:                  -0.829
REMARK UNBOUND:                -1.040
REMARK SMILES CCCCCCCCCCCC(=O)[O-]
REMARK SMILES IDX 7 1 8 2 9 3 10 4 11 5 12 6 13 7 14 8 6 9 5 10 4 11 3 12 2 13
REMARK SMILES IDX 1 14
REMARK H PARENT
REMARK Flexibility Score: inf
ROOT
ATOM      1  C   UNL     1      26.882   1.484  28.926  1.00  0.00     0.000 C 
ENDROOT
BRANCH   1   2
ATOM      2  C   UNL     1      27.631   2.723  29.446  1.00  0.00     0.000 C 
BRANCH   2   3
ATOM      3  C   UNL     1      27.258   4.002  28.679  1.00  0.00     0.000 C 
BRANCH   3   4
ATOM      4  C   UNL     1      26.962   5.186  29.616  1.00  0.00     0.006 C 
BRANCH   4   5
ATOM      5  C   UNL     1      28.199   6.065  29.846  1.00  0.00     0.053 C 
BRANCH   5   6
ATOM      6  C   UNL     1      27.824   7.496  30.088  1.00  0.00     0.041 C 
ATOM      7  O   UNL     1      28.308   8.409  29.369  1.00  0.00    -0.550 OA
ATOM      8  O   UNL     1      26.913   7.816  31.086  1.00  0.00    -0.550 OA
ENDBRANCH   5   6
ENDBRANCH   4   5
ENDBRANCH   3   4
ENDBRANCH   2   3
ENDBRANCH   1   2
BRANCH   1   9
ATOM      9  C   UNL     1      26.154   0.722  30.044  1.00  0.00     0.000 C 
BRANCH   9  10
ATOM     10  C   UNL     1      26.571  -0.755  30.122  1.00  0.00    -0.000 C 
BRANCH  10  11
ATOM     11  C   UNL     1      28.035  -0.889  30.559  1.00  0.00    -0.000 C 
BRANCH  11  12
ATOM     12  C   UNL     1      28.283  -0.149  31.883  1.00  0.00    -0.000 C 
BRANCH  12  13
ATOM     13  C   UNL     1      29.614   0.619  31.889  1.00  0.00    -0.003 C 
ATOM     14  C   UNL     1      30.372   0.499  30.568  1.00  0.00     0.004 C 
ENDBRANCH  12  13
ENDBRANCH  11  12
ENDBRANCH  10  11
ENDBRANCH   9  10
ENDBRANCH   1   9
TORSDOF 10
ENDMDL
MODEL 7
REMARK VINA RESULT:    -4.268      2.527      3.524
REMARK INTER + INTRA:          -7.802
REMARK INTER:                  -7.151
REMARK INTRA:                  -0.651
REMARK UNBOUND:                -1.040
REMARK SMILES CCCCCCCCCCCC(=O)[O-]
REMARK SMILES IDX 7 1 8 2 9 3 10 4 11 5 12 6 13 7 14 8 6 9 5 10 4 11 3 12 2 13
REMARK SMILES IDX 1 14
REMARK H PARENT
REMARK Flexibility Score: inf
ROOT
ATOM      1  C   UNL     1      27.714   2.671  29.264  1.00  0.00     0.000 C 
ENDROOT
BRANCH   1   2
ATOM      2  C   UNL     1      26.848   1.445  28.929  1.00  0.00     0.000 C 
BRANCH   2   3
ATOM      3  C   UNL     1      26.466   0.634  30.178  1.00  0.00     0.000 C 
BRANCH   3   4
ATOM      4  C   UNL     1      27.305   1.019  31.409  1.00  0.00     0.006 C 
BRANCH   4   5
ATOM      5  C   UNL     1      28.255  -0.108  31.837  1.00  0.00     0.053 C 
BRANCH   5   6
ATOM      6  C   UNL     1      29.362  -0.305  30.845  1.00  0.00     0.041 C 
ATOM      7  O   UNL     1      29.408  -1.350  30.144  1.00  0.00    -0.550 OA
ATOM      8  O   UNL     1      30.323   0.682  30.672  1.00  0.00    -0.550 OA
ENDBRANCH   5   6
ENDBRANCH   4   5
ENDBRANCH   3   4
ENDBRANCH   2   3
ENDBRANCH   1   2
BRANCH   1   9
ATOM      9  C   UNL     1      27.066   3.992  28.817  1.00  0.00     0.000 C 
BRANCH   9  10
ATOM     10  C   UNL     1      27.877   5.223  29.246  1.00  0.00    -0.000 C 
BRANCH  10  11
ATOM     11  C   UNL     1      27.591   5.586  30.709  1.00  0.00    -0.000 C 
BRANCH  11  12
ATOM     12  C   UNL     1      27.172   7.058  30.838  1.00  0.00    -0.000 C 
BRANCH  12  13
ATOM     13  C   UNL     1      27.974   7.984  29.912  1.00  0.00    -0.003 C 
ATOM     14  C   UNL     1      27.991   9.434  30.396  1.00  0.00     0.004 C 
ENDBRANCH  12  13
ENDBRANCH  11  12
ENDBRANCH  10  11
ENDBRANCH   9  10
ENDBRANCH   1   9
TORSDOF 10
ENDMDL
MODEL 8
REMARK VINA RESULT:    -4.267      5.442      7.999
REMARK INTER + INTRA:          -7.801
REMARK INTER:                  -7.299
REMARK INTRA:                  -0.502
REMARK UNBOUND:                -1.040
REMARK SMILES CCCCCCCCCCCC(=O)[O-]
REMARK SMILES IDX 7 1 8 2 9 3 10 4 11 5 12 6 13 7 14 8 6 9 5 10 4 11 3 12 2 13
REMARK SMILES IDX 1 14
REMARK H PARENT
REMARK Flexibility Score: inf
ROOT
ATOM      1  C   UNL     1      27.357   3.681  28.924  1.00  0.00     0.000 C 
ENDROOT
BRANCH   1   2
ATOM      2  C   UNL     1      27.631   4.718  30.027  1.00  0.00     0.000 C 
BRANCH   2   3
ATOM      3  C   UNL     1      26.910   6.051  29.776  1.00  0.00     0.000 C 
BRANCH   3   4
ATOM      4  C   UNL     1      27.220   7.102  30.857  1.00  0.00     0.006 C 
BRANCH   4   5
ATOM      5  C   UNL     1      27.196   8.531  30.299  1.00  0.00     0.053 C 
BRANCH   5   6
ATOM      6  C   UNL     1      26.319   9.430  31.118  1.00  0.00     0.041 C 
ATOM      7  O   UNL     1      25.843  10.481  30.614  1.00  0.00    -0.550 OA
ATOM      8  O   UNL     1      26.002   9.088  32.426  1.00  0.00    -0.550 OA
ENDBRANCH   5   6
ENDBRANCH   4   5
ENDBRANCH   3   4
ENDBRANCH   2   3
ENDBRANCH   1   2
BRANCH   1   9
ATOM      9  C   UNL     1      27.915   2.291  29.267  1.00  0.00     0.000 C 
BRANCH   9  10
ATOM     10  C   UNL     1      26.935   1.159  28.924  1.00  0.00    -0.000 C 
BRANCH  10  11
ATOM     11  C   UNL     1      26.244   0.630  30.186  1.00  0.00    -0.000 C 
BRANCH  11  12
ATOM     12  C   UNL     1      27.071   0.950  31.440  1.00  0.00    -0.000 C 
BRANCH  12  13
ATOM     13  C   UNL     1      28.007  -0.201  31.840  1.00  0.00    -0.003 C 
ATOM     14  C   UNL     1      29.480   0.208  31.841  1.00  0.00     0.004 C 
ENDBRANCH  12  13
ENDBRANCH  11  12
ENDBRANCH  10  11
ENDBRANCH   9  10
ENDBRANCH   1   9
TORSDOF 10
ENDMDL
MODEL 9
REMARK VINA RESULT:    -4.185      3.292      7.334
REMARK INTER + INTRA:          -7.671
REMARK INTER:                  -7.077
REMARK INTRA:                  -0.594
REMARK UNBOUND:                -1.040
REMARK SMILES CCCCCCCCCCCC(=O)[O-]
REMARK SMILES IDX 7 1 8 2 9 3 10 4 11 5 12 6 13 7 14 8 6 9 5 10 4 11 3 12 2 13
REMARK SMILES IDX 1 14
REMARK H PARENT
REMARK Flexibility Score: inf
ROOT
ATOM      1  C   UNL     1      27.522  -2.111  30.730  1.00  0.00     0.000 C 
ENDROOT
BRANCH   1   2
ATOM      2  C   UNL     1      26.471  -1.046  30.370  1.00  0.00     0.000 C 
BRANCH   2   3
ATOM      3  C   UNL     1      26.908  -0.164  29.190  1.00  0.00     0.000 C 
BRANCH   3   4
ATOM      4  C   UNL     1      28.430  -0.188  28.968  1.00  0.00     0.006 C 
BRANCH   4   5
ATOM      5  C   UNL     1      29.089   1.152  29.323  1.00  0.00     0.053 C 
BRANCH   5   6
ATOM      6  C   UNL     1      29.134   1.371  30.805  1.00  0.00     0.041 C 
ATOM      7  O   UNL     1      29.770   0.576  31.545  1.00  0.00    -0.550 OA
ATOM      8  O   UNL     1      28.503   2.475  31.363  1.00  0.00    -0.550 OA
ENDBRANCH   5   6
ENDBRANCH   4   5
ENDBRANCH   3   4
ENDBRANCH   2   3
ENDBRANCH   1   2
BRANCH   1   9
ATOM      9  C   UNL     1      26.931  -3.530  30.781  1.00  0.00     0.000 C 
BRANCH   9  10
ATOM     10  C   UNL     1      27.982  -4.596  31.126  1.00  0.00    -0.000 C 
BRANCH  10  11
ATOM     11  C   UNL     1      28.568  -5.220  29.853  1.00  0.00    -0.000 C 
BRANCH  11  12
ATOM     12  C   UNL     1      28.334  -6.737  29.827  1.00  0.00    -0.000 C 
BRANCH  12  13
ATOM     13  C   UNL     1      28.664  -7.409  31.169  1.00  0.00    -0.003 C 
ATOM     14  C   UNL     1      29.380  -8.749  30.999  1.00  0.00     0.004 C 
ENDBRANCH  12  13
ENDBRANCH  11  12
ENDBRANCH  10  11
ENDBRANCH   9  10
ENDBRANCH   1   9
TORSDOF 10
ENDMDL
