MODEL 1
REMARK VINA RESULT:    -6.508      0.000      0.000
REMARK INTER + INTRA:          -8.050
REMARK INTER:                  -7.840
REMARK INTRA:                  -0.210
REMARK UNBOUND:                -0.210
REMARK SMILES O=c1c(O)c(-c2ccc(O)c(O)c2)oc2cc(O)cc(O)c12
REMARK SMILES IDX 5 1 3 2 2 3 1 4 22 5 20 6 19 7 17 8 16 9 15 10 14 11 6 12
REMARK SMILES IDX 7 13 8 14 9 15 13 16 11 17 10 18 12 20 4 22 21 24 18 26
REMARK H PARENT 10 19 12 21 4 23 21 25 18 27
REMARK Flexibility Score: inf
ROOT
ATOM      1  C   UNL     1       4.803 -60.211 189.961  1.00  0.00     0.180 A 
ATOM      2  C   UNL     1       3.475 -60.451 189.567  1.00  0.00     0.208 A 
ATOM      3  C   UNL     1       3.183 -61.607 188.826  1.00  0.00     0.238 A 
ATOM      4  O   UNL     1       2.002 -61.790 188.430  1.00  0.00    -0.285 OA
ATOM      5  C   UNL     1       4.218 -62.517 188.503  1.00  0.00     0.111 A 
ATOM      6  C   UNL     1       4.029 -63.740 187.792  1.00  0.00     0.134 A 
ATOM      7  C   UNL     1       5.144 -64.499 187.413  1.00  0.00     0.093 A 
ATOM      8  C   UNL     1       6.434 -64.113 187.776  1.00  0.00     0.123 A 
ATOM      9  C   UNL     1       6.626 -62.950 188.523  1.00  0.00     0.094 A 
ATOM     10  C   UNL     1       5.535 -62.154 188.883  1.00  0.00     0.146 A 
ATOM     11  O   UNL     1       5.762 -61.049 189.585  1.00  0.00    -0.452 OA
ENDROOT
BRANCH   1  12
ATOM     12  C   UNL     1       5.185 -59.027 190.764  1.00  0.00     0.025 A 
ATOM     13  C   UNL     1       5.180 -57.757 190.167  1.00  0.00     0.016 A 
ATOM     14  C   UNL     1       5.557 -56.629 190.901  1.00  0.00     0.051 A 
ATOM     15  C   UNL     1       5.960 -56.758 192.237  1.00  0.00     0.157 A 
ATOM     16  C   UNL     1       5.609 -59.155 192.099  1.00  0.00     0.062 A 
ATOM     17  C   UNL     1       5.990 -58.023 192.835  1.00  0.00     0.158 A 
BRANCH  15  18
ATOM     18  O   UNL     1       6.335 -55.635 192.973  1.00  0.00    -0.504 OA
ATOM     19  H   UNL     1       7.017 -55.694 193.719  1.00  0.00     0.293 HD
ENDBRANCH  15  18
BRANCH  17  20
ATOM     20  O   UNL     1       6.405 -58.151 194.160  1.00  0.00    -0.504 OA
ATOM     21  H   UNL     1       6.178 -57.451 194.857  1.00  0.00     0.293 HD
ENDBRANCH  17  20
ENDBRANCH   1  12
BRANCH   2  22
ATOM     22  O   UNL     1       2.472 -59.529 189.878  1.00  0.00    -0.502 OA
ATOM     23  H   UNL     1       2.032 -59.491 190.789  1.00  0.00     0.293 HD
ENDBRANCH   2  22
BRANCH   6  24
ATOM     24  O   UNL     1       2.777 -64.265 187.460  1.00  0.00    -0.507 OA
ATOM     25  H   UNL     1       2.410 -64.328 186.521  1.00  0.00     0.293 HD
ENDBRANCH   6  24
BRANCH   8  26
ATOM     26  O   UNL     1       7.519 -64.901 187.396  1.00  0.00    -0.508 OA
ATOM     27  H   UNL     1       8.040 -64.709 186.548  1.00  0.00     0.293 HD
ENDBRANCH   8  26
TORSDOF 6
ENDMDL
MODEL 2
REMARK VINA RESULT:    -6.504      0.579      1.423
REMARK INTER + INTRA:          -8.045
REMARK INTER:                  -7.738
REMARK INTRA:                  -0.307
REMARK UNBOUND:                -0.210
REMARK SMILES O=c1c(O)c(-c2ccc(O)c(O)c2)oc2cc(O)cc(O)c12
REMARK SMILES IDX 5 1 3 2 2 3 1 4 22 5 20 6 19 7 17 8 16 9 15 10 14 11 6 12
REMARK SMILES IDX 7 13 8 14 9 15 13 16 11 17 10 18 12 20 4 22 21 24 18 26
REMARK H PARENT 10 19 12 21 4 23 21 25 18 27
REMARK Flexibility Score: inf
ROOT
ATOM      1  C   UNL     1       4.913 -60.231 190.006  1.00  0.00     0.180 A 
ATOM      2  C   UNL     1       3.578 -60.437 189.619  1.00  0.00     0.208 A 
ATOM      3  C   UNL     1       3.254 -61.578 188.869  1.00  0.00     0.238 A 
ATOM      4  O   UNL     1       2.067 -61.729 188.479  1.00  0.00    -0.285 OA
ATOM      5  C   UNL     1       4.266 -62.508 188.530  1.00  0.00     0.111 A 
ATOM      6  C   UNL     1       4.044 -63.719 187.807  1.00  0.00     0.134 A 
ATOM      7  C   UNL     1       5.139 -64.500 187.413  1.00  0.00     0.093 A 
ATOM      8  C   UNL     1       6.439 -64.147 187.771  1.00  0.00     0.123 A 
ATOM      9  C   UNL     1       6.663 -62.997 188.528  1.00  0.00     0.094 A 
ATOM     10  C   UNL     1       5.594 -62.179 188.904  1.00  0.00     0.146 A 
ATOM     11  O   UNL     1       5.851 -61.087 189.615  1.00  0.00    -0.452 OA
ENDROOT
BRANCH   1  12
ATOM     12  C   UNL     1       5.329 -59.065 190.818  1.00  0.00     0.025 A 
ATOM     13  C   UNL     1       5.410 -59.188 192.214  1.00  0.00     0.016 A 
ATOM     14  C   UNL     1       5.779 -58.094 193.001  1.00  0.00     0.051 A 
ATOM     15  C   UNL     1       6.058 -56.858 192.404  1.00  0.00     0.157 A 
ATOM     16  C   UNL     1       5.590 -57.816 190.225  1.00  0.00     0.062 A 
ATOM     17  C   UNL     1       5.959 -56.717 191.015  1.00  0.00     0.158 A 
BRANCH  15  18
ATOM     18  O   UNL     1       6.429 -55.765 193.185  1.00  0.00    -0.504 OA
ATOM     19  H   UNL     1       5.842 -55.427 193.938  1.00  0.00     0.293 HD
ENDBRANCH  15  18
BRANCH  17  20
ATOM     20  O   UNL     1       6.223 -55.482 190.425  1.00  0.00    -0.504 OA
ATOM     21  H   UNL     1       7.042 -55.333 189.848  1.00  0.00     0.293 HD
ENDBRANCH  17  20
ENDBRANCH   1  12
BRANCH   2  22
ATOM     22  O   UNL     1       2.599 -59.494 189.946  1.00  0.00    -0.502 OA
ATOM     23  H   UNL     1       2.355 -58.728 189.331  1.00  0.00     0.293 HD
ENDBRANCH   2  22
BRANCH   6  24
ATOM     24  O   UNL     1       2.777 -64.211 187.479  1.00  0.00    -0.507 OA
ATOM     25  H   UNL     1       1.919 -63.685 187.552  1.00  0.00     0.293 HD
ENDBRANCH   6  24
BRANCH   8  26
ATOM     26  O   UNL     1       7.504 -64.955 187.375  1.00  0.00    -0.508 OA
ATOM     27  H   UNL     1       7.457 -65.965 187.449  1.00  0.00     0.293 HD
ENDBRANCH   8  26
TORSDOF 6
ENDMDL
MODEL 3
REMARK VINA RESULT:    -6.425      1.371      2.936
REMARK INTER + INTRA:          -7.949
REMARK INTER:                  -7.935
REMARK INTRA:                  -0.014
REMARK UNBOUND:                -0.210
REMARK SMILES O=c1c(O)c(-c2ccc(O)c(O)c2)oc2cc(O)cc(O)c12
REMARK SMILES IDX 5 1 3 2 2 3 1 4 22 5 20 6 19 7 17 8 16 9 15 10 14 11 6 12
REMARK SMILES IDX 7 13 8 14 9 15 13 16 11 17 10 18 12 20 4 22 21 24 18 26
REMARK H PARENT 10 19 12 21 4 23 21 25 18 27
REMARK Flexibility Score: inf
ROOT
ATOM      1  C   UNL     1       5.627 -61.005 189.957  1.00  0.00     0.180 A 
ATOM      2  C   UNL     1       6.877 -61.648 189.979  1.00  0.00     0.208 A 
ATOM      3  C   UNL     1       7.059 -62.808 189.211  1.00  0.00     0.238 A 
ATOM      4  O   UNL     1       8.163 -63.410 189.276  1.00  0.00    -0.285 OA
ATOM      5  C   UNL     1       5.995 -63.302 188.417  1.00  0.00     0.111 A 
ATOM      6  C   UNL     1       6.081 -64.448 187.570  1.00  0.00     0.134 A 
ATOM      7  C   UNL     1       4.929 -64.923 186.931  1.00  0.00     0.093 A 
ATOM      8  C   UNL     1       3.710 -64.258 187.058  1.00  0.00     0.123 A 
ATOM      9  C   UNL     1       3.628 -63.103 187.837  1.00  0.00     0.094 A 
ATOM     10  C   UNL     1       4.752 -62.626 188.515  1.00  0.00     0.146 A 
ATOM     11  O   UNL     1       4.629 -61.530 189.255  1.00  0.00    -0.452 OA
ENDROOT
BRANCH   1  12
ATOM     12  C   UNL     1       5.365 -59.763 190.720  1.00  0.00     0.025 A 
ATOM     13  C   UNL     1       4.890 -58.626 190.048  1.00  0.00     0.016 A 
ATOM     14  C   UNL     1       4.656 -57.438 190.746  1.00  0.00     0.051 A 
ATOM     15  C   UNL     1       4.909 -57.367 192.123  1.00  0.00     0.157 A 
ATOM     16  C   UNL     1       5.636 -59.681 192.098  1.00  0.00     0.062 A 
ATOM     17  C   UNL     1       5.403 -58.488 192.799  1.00  0.00     0.158 A 
BRANCH  15  18
ATOM     18  O   UNL     1       4.674 -56.184 192.822  1.00  0.00    -0.504 OA
ATOM     19  H   UNL     1       5.060 -55.300 192.513  1.00  0.00     0.293 HD
ENDBRANCH  15  18
BRANCH  17  20
ATOM     20  O   UNL     1       5.667 -58.410 194.165  1.00  0.00    -0.504 OA
ATOM     21  H   UNL     1       5.533 -59.205 194.778  1.00  0.00     0.293 HD
ENDBRANCH  17  20
ENDBRANCH   1  12
BRANCH   2  22
ATOM     22  O   UNL     1       7.906 -61.155 190.786  1.00  0.00    -0.502 OA
ATOM     23  H   UNL     1       7.797 -61.021 191.784  1.00  0.00     0.293 HD
ENDBRANCH   2  22
BRANCH   6  24
ATOM     24  O   UNL     1       7.270 -65.132 187.300  1.00  0.00    -0.507 OA
ATOM     25  H   UNL     1       8.168 -64.904 187.699  1.00  0.00     0.293 HD
ENDBRANCH   6  24
BRANCH   8  26
ATOM     26  O   UNL     1       2.586 -64.750 186.396  1.00  0.00    -0.508 OA
ATOM     27  H   UNL     1       2.470 -64.637 185.396  1.00  0.00     0.293 HD
ENDBRANCH   8  26
TORSDOF 6
ENDMDL
MODEL 4
REMARK VINA RESULT:    -6.420      1.279      6.693
REMARK INTER + INTRA:          -7.943
REMARK INTER:                  -8.153
REMARK INTRA:                   0.210
REMARK UNBOUND:                -0.210
REMARK SMILES O=c1c(O)c(-c2ccc(O)c(O)c2)oc2cc(O)cc(O)c12
REMARK SMILES IDX 5 1 3 2 2 3 1 4 22 5 20 6 19 7 17 8 16 9 15 10 14 11 6 12
REMARK SMILES IDX 7 13 8 14 9 15 13 16 11 17 10 18 12 20 4 22 21 24 18 26
REMARK H PARENT 10 19 12 21 4 23 21 25 18 27
REMARK Flexibility Score: inf
ROOT
ATOM      1  C   UNL     1       5.060 -60.957 189.613  1.00  0.00     0.180 A 
ATOM      2  C   UNL     1       3.916 -60.305 189.121  1.00  0.00     0.208 A 
ATOM      3  C   UNL     1       3.456 -59.151 189.774  1.00  0.00     0.238 A 
ATOM      4  O   UNL     1       2.400 -58.603 189.361  1.00  0.00    -0.285 OA
ATOM      5  C   UNL     1       4.153 -58.653 190.900  1.00  0.00     0.111 A 
ATOM      6  C   UNL     1       3.798 -57.470 191.615  1.00  0.00     0.134 A 
ATOM      7  C   UNL     1       4.481 -57.143 192.794  1.00  0.00     0.093 A 
ATOM      8  C   UNL     1       5.546 -57.921 193.247  1.00  0.00     0.123 A 
ATOM      9  C   UNL     1       5.939 -59.047 192.524  1.00  0.00     0.094 A 
ATOM     10  C   UNL     1       5.254 -59.418 191.365  1.00  0.00     0.146 A 
ATOM     11  O   UNL     1       5.654 -60.504 190.712  1.00  0.00    -0.452 OA
ENDROOT
BRANCH   1  12
ATOM     12  C   UNL     1       5.621 -62.164 188.965  1.00  0.00     0.025 A 
ATOM     13  C   UNL     1       7.014 -62.317 188.877  1.00  0.00     0.016 A 
ATOM     14  C   UNL     1       7.563 -63.439 188.250  1.00  0.00     0.051 A 
ATOM     15  C   UNL     1       6.728 -64.415 187.690  1.00  0.00     0.157 A 
ATOM     16  C   UNL     1       4.787 -63.136 188.384  1.00  0.00     0.062 A 
ATOM     17  C   UNL     1       5.339 -64.262 187.753  1.00  0.00     0.158 A 
BRANCH  15  18
ATOM     18  O   UNL     1       7.273 -65.536 187.067  1.00  0.00    -0.504 OA
ATOM     19  H   UNL     1       8.105 -65.472 186.491  1.00  0.00     0.293 HD
ENDBRANCH  15  18
BRANCH  17  20
ATOM     20  O   UNL     1       4.510 -65.227 187.183  1.00  0.00    -0.504 OA
ATOM     21  H   UNL     1       3.549 -65.024 186.937  1.00  0.00     0.293 HD
ENDBRANCH  17  20
ENDBRANCH   1  12
BRANCH   2  22
ATOM     22  O   UNL     1       3.230 -60.826 188.020  1.00  0.00    -0.502 OA
ATOM     23  H   UNL     1       3.708 -61.224 187.220  1.00  0.00     0.293 HD
ENDBRANCH   2  22
BRANCH   6  24
ATOM     24  O   UNL     1       2.810 -56.573 191.199  1.00  0.00    -0.507 OA
ATOM     25  H   UNL     1       2.690 -55.640 191.564  1.00  0.00     0.293 HD
ENDBRANCH   6  24
BRANCH   8  26
ATOM     26  O   UNL     1       6.213 -57.558 194.416  1.00  0.00    -0.508 OA
ATOM     27  H   UNL     1       5.744 -57.554 195.314  1.00  0.00     0.293 HD
ENDBRANCH   8  26
TORSDOF 6
ENDMDL
MODEL 5
REMARK VINA RESULT:    -6.263      1.915      6.648
REMARK INTER + INTRA:          -7.754
REMARK INTER:                  -8.112
REMARK INTRA:                   0.358
REMARK UNBOUND:                -0.210
REMARK SMILES O=c1c(O)c(-c2ccc(O)c(O)c2)oc2cc(O)cc(O)c12
REMARK SMILES IDX 5 1 3 2 2 3 1 4 22 5 20 6 19 7 17 8 16 9 15 10 14 11 6 12
REMARK SMILES IDX 7 13 8 14 9 15 13 16 11 17 10 18 12 20 4 22 21 24 18 26
REMARK H PARENT 10 19 12 21 4 23 21 25 18 27
REMARK Flexibility Score: inf
ROOT
ATOM      1  C   UNL     1       5.300 -60.231 190.725  1.00  0.00     0.180 A 
ATOM      2  C   UNL     1       3.897 -60.150 190.723  1.00  0.00     0.208 A 
ATOM      3  C   UNL     1       3.275 -59.108 191.429  1.00  0.00     0.238 A 
ATOM      4  O   UNL     1       2.017 -59.072 191.469  1.00  0.00    -0.285 OA
ATOM      5  C   UNL     1       4.063 -58.153 192.114  1.00  0.00     0.111 A 
ATOM      6  C   UNL     1       3.539 -57.034 192.829  1.00  0.00     0.134 A 
ATOM      7  C   UNL     1       4.404 -56.227 193.580  1.00  0.00     0.093 A 
ATOM      8  C   UNL     1       5.778 -56.459 193.589  1.00  0.00     0.123 A 
ATOM      9  C   UNL     1       6.308 -57.515 192.846  1.00  0.00     0.094 A 
ATOM     10  C   UNL     1       5.466 -58.359 192.117  1.00  0.00     0.146 A 
ATOM     11  O   UNL     1       6.009 -59.359 191.432  1.00  0.00    -0.452 OA
ENDROOT
BRANCH   1  12
ATOM     12  C   UNL     1       6.030 -61.285 189.984  1.00  0.00     0.025 A 
ATOM     13  C   UNL     1       5.431 -61.883 188.863  1.00  0.00     0.016 A 
ATOM     14  C   UNL     1       6.094 -62.894 188.162  1.00  0.00     0.051 A 
ATOM     15  C   UNL     1       7.357 -63.332 188.580  1.00  0.00     0.157 A 
ATOM     16  C   UNL     1       7.290 -61.742 190.412  1.00  0.00     0.062 A 
ATOM     17  C   UNL     1       7.954 -62.759 189.709  1.00  0.00     0.158 A 
BRANCH  15  18
ATOM     18  O   UNL     1       8.022 -64.338 187.882  1.00  0.00    -0.504 OA
ATOM     19  H   UNL     1       8.807 -64.835 188.286  1.00  0.00     0.293 HD
ENDBRANCH  15  18
BRANCH  17  20
ATOM     20  O   UNL     1       9.205 -63.206 190.131  1.00  0.00    -0.504 OA
ATOM     21  H   UNL     1       9.753 -62.689 190.809  1.00  0.00     0.293 HD
ENDBRANCH  17  20
ENDBRANCH   1  12
BRANCH   2  22
ATOM     22  O   UNL     1       3.138 -61.116 190.057  1.00  0.00    -0.502 OA
ATOM     23  H   UNL     1       3.356 -61.428 189.118  1.00  0.00     0.293 HD
ENDBRANCH   2  22
BRANCH   6  24
ATOM     24  O   UNL     1       2.193 -56.657 192.813  1.00  0.00    -0.507 OA
ATOM     25  H   UNL     1       1.496 -56.983 193.466  1.00  0.00     0.293 HD
ENDBRANCH   6  24
BRANCH   8  26
ATOM     26  O   UNL     1       6.611 -55.627 194.334  1.00  0.00    -0.508 OA
ATOM     27  H   UNL     1       6.828 -54.685 194.030  1.00  0.00     0.293 HD
ENDBRANCH   8  26
TORSDOF 6
ENDMDL
MODEL 6
REMARK VINA RESULT:    -6.099      9.752     11.864
REMARK INTER + INTRA:          -7.557
REMARK INTER:                  -7.437
REMARK INTRA:                  -0.120
REMARK UNBOUND:                -0.210
REMARK SMILES O=c1c(O)c(-c2ccc(O)c(O)c2)oc2cc(O)cc(O)c12
REMARK SMILES IDX 5 1 3 2 2 3 1 4 22 5 20 6 19 7 17 8 16 9 15 10 14 11 6 12
REMARK SMILES IDX 7 13 8 14 9 15 13 16 11 17 10 18 12 20 4 22 21 24 18 26
REMARK H PARENT 10 19 12 21 4 23 21 25 18 27
REMARK Flexibility Score: inf
ROOT
ATOM      1  C   UNL     1      11.425 -56.393 197.415  1.00  0.00     0.180 A 
ATOM      2  C   UNL     1      10.527 -56.295 196.338  1.00  0.00     0.208 A 
ATOM      3  C   UNL     1      10.996 -55.820 195.103  1.00  0.00     0.238 A 
ATOM      4  O   UNL     1      10.176 -55.683 194.157  1.00  0.00    -0.285 OA
ATOM      5  C   UNL     1      12.358 -55.466 194.954  1.00  0.00     0.111 A 
ATOM      6  C   UNL     1      12.949 -55.011 193.737  1.00  0.00     0.134 A 
ATOM      7  C   UNL     1      14.277 -54.564 193.739  1.00  0.00     0.093 A 
ATOM      8  C   UNL     1      15.052 -54.615 194.896  1.00  0.00     0.123 A 
ATOM      9  C   UNL     1      14.502 -55.112 196.078  1.00  0.00     0.094 A 
ATOM     10  C   UNL     1      13.170 -55.532 196.116  1.00  0.00     0.146 A 
ATOM     11  O   UNL     1      12.681 -55.990 197.263  1.00  0.00    -0.452 OA
ENDROOT
BRANCH   1  12
ATOM     12  C   UNL     1      11.013 -56.907 198.741  1.00  0.00     0.025 A 
ATOM     13  C   UNL     1      10.051 -56.205 199.485  1.00  0.00     0.016 A 
ATOM     14  C   UNL     1       9.663 -56.662 200.748  1.00  0.00     0.051 A 
ATOM     15  C   UNL     1      10.241 -57.817 201.290  1.00  0.00     0.157 A 
ATOM     16  C   UNL     1      11.606 -58.055 199.298  1.00  0.00     0.062 A 
ATOM     17  C   UNL     1      11.217 -58.512 200.566  1.00  0.00     0.158 A 
BRANCH  15  18
ATOM     18  O   UNL     1       9.855 -58.276 202.548  1.00  0.00    -0.504 OA
ATOM     19  H   UNL     1       9.423 -59.184 202.671  1.00  0.00     0.293 HD
ENDBRANCH  15  18
BRANCH  17  20
ATOM     20  O   UNL     1      11.802 -59.653 201.114  1.00  0.00    -0.504 OA
ATOM     21  H   UNL     1      12.601 -60.100 200.680  1.00  0.00     0.293 HD
ENDBRANCH  17  20
ENDBRANCH   1  12
BRANCH   2  22
ATOM     22  O   UNL     1       9.182 -56.629 196.512  1.00  0.00    -0.502 OA
ATOM     23  H   UNL     1       8.882 -57.563 196.767  1.00  0.00     0.293 HD
ENDBRANCH   2  22
BRANCH   6  24
ATOM     24  O   UNL     1      12.291 -55.006 192.504  1.00  0.00    -0.507 OA
ATOM     25  H   UNL     1      12.373 -54.276 191.812  1.00  0.00     0.293 HD
ENDBRANCH   6  24
BRANCH   8  26
ATOM     26  O   UNL     1      16.374 -54.175 194.858  1.00  0.00    -0.508 OA
ATOM     27  H   UNL     1      16.699 -53.536 194.142  1.00  0.00     0.293 HD
ENDBRANCH   8  26
TORSDOF 6
ENDMDL
MODEL 7
REMARK VINA RESULT:    -6.017      1.961      2.749
REMARK INTER + INTRA:          -7.458
REMARK INTER:                  -7.157
REMARK INTRA:                  -0.300
REMARK UNBOUND:                -0.210
REMARK SMILES O=c1c(O)c(-c2ccc(O)c(O)c2)oc2cc(O)cc(O)c12
REMARK SMILES IDX 5 1 3 2 2 3 1 4 22 5 20 6 19 7 17 8 16 9 15 10 14 11 6 12
REMARK SMILES IDX 7 13 8 14 9 15 13 16 11 17 10 18 12 20 4 22 21 24 18 26
REMARK H PARENT 10 19 12 21 4 23 21 25 18 27
REMARK Flexibility Score: inf
ROOT
ATOM      1  C   UNL     1       5.701 -59.360 192.135  1.00  0.00     0.180 A 
ATOM      2  C   UNL     1       4.535 -59.200 191.367  1.00  0.00     0.208 A 
ATOM      3  C   UNL     1       4.330 -60.037 190.259  1.00  0.00     0.238 A 
ATOM      4  O   UNL     1       3.311 -59.854 189.543  1.00  0.00    -0.285 OA
ATOM      5  C   UNL     1       5.285 -61.032 189.942  1.00  0.00     0.111 A 
ATOM      6  C   UNL     1       5.160 -61.961 188.865  1.00  0.00     0.134 A 
ATOM      7  C   UNL     1       6.228 -62.817 188.563  1.00  0.00     0.093 A 
ATOM      8  C   UNL     1       7.386 -62.823 189.338  1.00  0.00     0.123 A 
ATOM      9  C   UNL     1       7.495 -61.960 190.429  1.00  0.00     0.094 A 
ATOM     10  C   UNL     1       6.462 -61.070 190.732  1.00  0.00     0.146 A 
ATOM     11  O   UNL     1       6.610 -60.258 191.773  1.00  0.00    -0.452 OA
ENDROOT
BRANCH   1  12
ATOM     12  C   UNL     1       5.976 -58.533 193.333  1.00  0.00     0.025 A 
ATOM     13  C   UNL     1       6.919 -57.496 193.255  1.00  0.00     0.016 A 
ATOM     14  C   UNL     1       7.208 -56.717 194.378  1.00  0.00     0.051 A 
ATOM     15  C   UNL     1       6.570 -56.973 195.599  1.00  0.00     0.157 A 
ATOM     16  C   UNL     1       5.352 -58.799 194.565  1.00  0.00     0.062 A 
ATOM     17  C   UNL     1       5.643 -58.018 195.693  1.00  0.00     0.158 A 
BRANCH  15  18
ATOM     18  O   UNL     1       6.854 -56.197 196.721  1.00  0.00    -0.504 OA
ATOM     19  H   UNL     1       7.598 -56.444 197.362  1.00  0.00     0.293 HD
ENDBRANCH  15  18
BRANCH  17  20
ATOM     20  O   UNL     1       5.020 -58.280 196.912  1.00  0.00    -0.504 OA
ATOM     21  H   UNL     1       4.327 -57.651 197.301  1.00  0.00     0.293 HD
ENDBRANCH  17  20
ENDBRANCH   1  12
BRANCH   2  22
ATOM     22  O   UNL     1       3.616 -58.197 191.685  1.00  0.00    -0.502 OA
ATOM     23  H   UNL     1       2.653 -58.221 191.370  1.00  0.00     0.293 HD
ENDBRANCH   2  22
BRANCH   6  24
ATOM     24  O   UNL     1       4.009 -62.102 188.085  1.00  0.00    -0.507 OA
ATOM     25  H   UNL     1       3.355 -61.360 187.886  1.00  0.00     0.293 HD
ENDBRANCH   6  24
BRANCH   8  26
ATOM     26  O   UNL     1       8.423 -63.699 189.019  1.00  0.00    -0.508 OA
ATOM     27  H   UNL     1       9.174 -63.425 188.396  1.00  0.00     0.293 HD
ENDBRANCH   8  26
TORSDOF 6
ENDMDL
MODEL 8
REMARK VINA RESULT:    -5.993      1.964      2.738
REMARK INTER + INTRA:          -7.429
REMARK INTER:                  -7.111
REMARK INTRA:                  -0.317
REMARK UNBOUND:                -0.210
REMARK SMILES O=c1c(O)c(-c2ccc(O)c(O)c2)oc2cc(O)cc(O)c12
REMARK SMILES IDX 5 1 3 2 2 3 1 4 22 5 20 6 19 7 17 8 16 9 15 10 14 11 6 12
REMARK SMILES IDX 7 13 8 14 9 15 13 16 11 17 10 18 12 20 4 22 21 24 18 26
REMARK H PARENT 10 19 12 21 4 23 21 25 18 27
REMARK Flexibility Score: inf
ROOT
ATOM      1  C   UNL     1       5.101 -59.122 191.658  1.00  0.00     0.180 A 
ATOM      2  C   UNL     1       4.127 -59.289 190.659  1.00  0.00     0.208 A 
ATOM      3  C   UNL     1       4.296 -60.306 189.707  1.00  0.00     0.238 A 
ATOM      4  O   UNL     1       3.449 -60.416 188.782  1.00  0.00    -0.285 OA
ATOM      5  C   UNL     1       5.428 -61.153 189.775  1.00  0.00     0.111 A 
ATOM      6  C   UNL     1       5.680 -62.241 188.885  1.00  0.00     0.134 A 
ATOM      7  C   UNL     1       6.897 -62.931 188.965  1.00  0.00     0.093 A 
ATOM      8  C   UNL     1       7.841 -62.615 189.941  1.00  0.00     0.123 A 
ATOM      9  C   UNL     1       7.579 -61.592 190.853  1.00  0.00     0.094 A 
ATOM     10  C   UNL     1       6.390 -60.862 190.775  1.00  0.00     0.146 A 
ATOM     11  O   UNL     1       6.185 -59.889 191.656  1.00  0.00    -0.452 OA
ENDROOT
BRANCH   1  12
ATOM     12  C   UNL     1       4.981 -58.088 192.712  1.00  0.00     0.025 A 
ATOM     13  C   UNL     1       4.218 -58.357 193.860  1.00  0.00     0.016 A 
ATOM     14  C   UNL     1       4.075 -57.387 194.856  1.00  0.00     0.051 A 
ATOM     15  C   UNL     1       4.679 -56.131 194.712  1.00  0.00     0.157 A 
ATOM     16  C   UNL     1       5.569 -56.819 192.562  1.00  0.00     0.062 A 
ATOM     17  C   UNL     1       5.423 -55.845 193.562  1.00  0.00     0.158 A 
BRANCH  15  18
ATOM     18  O   UNL     1       4.540 -55.163 195.705  1.00  0.00    -0.504 OA
ATOM     19  H   UNL     1       4.130 -55.382 196.605  1.00  0.00     0.293 HD
ENDBRANCH  15  18
BRANCH  17  20
ATOM     20  O   UNL     1       6.011 -54.590 193.414  1.00  0.00    -0.504 OA
ATOM     21  H   UNL     1       7.018 -54.473 193.400  1.00  0.00     0.293 HD
ENDBRANCH  17  20
ENDBRANCH   1  12
BRANCH   2  22
ATOM     22  O   UNL     1       3.028 -58.427 190.598  1.00  0.00    -0.502 OA
ATOM     23  H   UNL     1       3.003 -57.543 191.092  1.00  0.00     0.293 HD
ENDBRANCH   2  22
BRANCH   6  24
ATOM     24  O   UNL     1       4.765 -62.699 187.933  1.00  0.00    -0.507 OA
ATOM     25  H   UNL     1       5.016 -63.127 187.054  1.00  0.00     0.293 HD
ENDBRANCH   6  24
BRANCH   8  26
ATOM     26  O   UNL     1       9.034 -63.332 190.000  1.00  0.00    -0.508 OA
ATOM     27  H   UNL     1       9.560 -63.556 189.163  1.00  0.00     0.293 HD
ENDBRANCH   8  26
TORSDOF 6
ENDMDL
MODEL 9
REMARK VINA RESULT:    -5.490      1.950      2.305
REMARK INTER + INTRA:          -6.824
REMARK INTER:                  -7.125
REMARK INTRA:                   0.302
REMARK UNBOUND:                -0.210
REMARK SMILES O=c1c(O)c(-c2ccc(O)c(O)c2)oc2cc(O)cc(O)c12
REMARK SMILES IDX 5 1 3 2 2 3 1 4 22 5 20 6 19 7 17 8 16 9 15 10 14 11 6 12
REMARK SMILES IDX 7 13 8 14 9 15 13 16 11 17 10 18 12 20 4 22 21 24 18 26
REMARK H PARENT 10 19 12 21 4 23 21 25 18 27
REMARK Flexibility Score: inf
ROOT
ATOM      1  C   UNL     1       4.105 -59.904 189.998  1.00  0.00     0.180 A 
ATOM      2  C   UNL     1       3.273 -60.578 189.088  1.00  0.00     0.208 A 
ATOM      3  C   UNL     1       3.745 -61.748 188.472  1.00  0.00     0.238 A 
ATOM      4  O   UNL     1       3.016 -62.317 187.617  1.00  0.00    -0.285 OA
ATOM      5  C   UNL     1       5.035 -62.239 188.785  1.00  0.00     0.111 A 
ATOM      6  C   UNL     1       5.598 -63.436 188.250  1.00  0.00     0.134 A 
ATOM      7  C   UNL     1       6.933 -63.756 188.529  1.00  0.00     0.093 A 
ATOM      8  C   UNL     1       7.703 -62.958 189.374  1.00  0.00     0.123 A 
ATOM      9  C   UNL     1       7.144 -61.816 189.949  1.00  0.00     0.094 A 
ATOM     10  C   UNL     1       5.826 -61.452 189.661  1.00  0.00     0.146 A 
ATOM     11  O   UNL     1       5.335 -60.352 190.221  1.00  0.00    -0.452 OA
ENDROOT
BRANCH   1  12
ATOM     12  C   UNL     1       3.670 -58.679 190.706  1.00  0.00     0.025 A 
ATOM     13  C   UNL     1       2.309 -58.497 191.000  1.00  0.00     0.016 A 
ATOM     14  C   UNL     1       1.875 -57.338 191.649  1.00  0.00     0.051 A 
ATOM     15  C   UNL     1       2.792 -56.339 192.000  1.00  0.00     0.157 A 
ATOM     16  C   UNL     1       4.585 -57.664 191.042  1.00  0.00     0.062 A 
ATOM     17  C   UNL     1       4.148 -56.500 191.692  1.00  0.00     0.158 A 
BRANCH  15  18
ATOM     18  O   UNL     1       2.363 -55.183 192.649  1.00  0.00    -0.504 OA
ATOM     19  H   UNL     1       1.698 -54.549 192.221  1.00  0.00     0.293 HD
ENDBRANCH  15  18
BRANCH  17  20
ATOM     20  O   UNL     1       5.057 -55.498 192.029  1.00  0.00    -0.504 OA
ATOM     21  H   UNL     1       6.044 -55.694 192.148  1.00  0.00     0.293 HD
ENDBRANCH  17  20
ENDBRANCH   1  12
BRANCH   2  22
ATOM     22  O   UNL     1       2.011 -60.065 188.776  1.00  0.00    -0.502 OA
ATOM     23  H   UNL     1       1.846 -59.075 188.641  1.00  0.00     0.293 HD
ENDBRANCH   2  22
BRANCH   6  24
ATOM     24  O   UNL     1       4.888 -64.353 187.470  1.00  0.00    -0.507 OA
ATOM     25  H   UNL     1       4.033 -64.145 186.974  1.00  0.00     0.293 HD
ENDBRANCH   6  24
BRANCH   8  26
ATOM     26  O   UNL     1       9.024 -63.315 189.642  1.00  0.00    -0.508 OA
ATOM     27  H   UNL     1       9.802 -62.787 189.263  1.00  0.00     0.293 HD
ENDBRANCH   8  26
TORSDOF 6
ENDMDL
