MODEL 1
REMARK VINA RESULT:    -3.386      0.000      0.000
REMARK INTER + INTRA:          -6.467
REMARK INTER:                  -5.365
REMARK INTRA:                  -1.102
REMARK UNBOUND:                -1.102
REMARK SMILES CCCCCCCCCCCC(=O)[O-]
REMARK SMILES IDX 7 1 8 2 9 3 10 4 11 5 12 6 13 7 14 8 6 9 5 10 4 11 3 12 2 13
REMARK SMILES IDX 1 14
REMARK H PARENT
REMARK Flexibility Score: inf
ROOT
ATOM      1  C   UNL     1      57.604  27.190  51.393  1.00  0.00     0.000 C 
ENDROOT
BRANCH   1   2
ATOM      2  C   UNL     1      57.292  28.407  50.504  1.00  0.00     0.000 C 
BRANCH   2   3
ATOM      3  C   UNL     1      58.523  29.131  49.923  1.00  0.00     0.000 C 
BRANCH   3   4
ATOM      4  C   UNL     1      59.456  28.251  49.072  1.00  0.00     0.006 C 
BRANCH   4   5
ATOM      5  C   UNL     1      60.823  28.024  49.731  1.00  0.00     0.053 C 
BRANCH   5   6
ATOM      6  C   UNL     1      61.109  26.560  49.846  1.00  0.00     0.041 C 
ATOM      7  O   UNL     1      62.254  26.163  50.190  1.00  0.00    -0.550 OA
ATOM      8  O   UNL     1      60.127  25.631  49.526  1.00  0.00    -0.550 OA
ENDBRANCH   5   6
ENDBRANCH   4   5
ENDBRANCH   3   4
ENDBRANCH   2   3
ENDBRANCH   1   2
BRANCH   1   9
ATOM      9  C   UNL     1      56.667  26.000  51.127  1.00  0.00     0.000 C 
BRANCH   9  10
ATOM     10  C   UNL     1      55.987  26.079  49.750  1.00  0.00    -0.000 C 
BRANCH  10  11
ATOM     11  C   UNL     1      54.506  25.666  49.791  1.00  0.00    -0.000 C 
BRANCH  11  12
ATOM     12  C   UNL     1      53.562  26.854  49.508  1.00  0.00    -0.000 C 
BRANCH  12  13
ATOM     13  C   UNL     1      53.408  27.815  50.699  1.00  0.00    -0.003 C 
ATOM     14  C   UNL     1      53.723  29.266  50.343  1.00  0.00     0.004 C 
ENDBRANCH  12  13
ENDBRANCH  11  12
ENDBRANCH  10  11
ENDBRANCH   9  10
ENDBRANCH   1   9
TORSDOF 10
ENDMDL
MODEL 2
REMARK VINA RESULT:    -3.351     11.916     13.470
REMARK INTER + INTRA:          -6.413
REMARK INTER:                  -5.401
REMARK INTRA:                  -1.011
REMARK UNBOUND:                -1.102
REMARK SMILES CCCCCCCCCCCC(=O)[O-]
REMARK SMILES IDX 7 1 8 2 9 3 10 4 11 5 12 6 13 7 14 8 6 9 5 10 4 11 3 12 2 13
REMARK SMILES IDX 1 14
REMARK H PARENT
REMARK Flexibility Score: inf
ROOT
ATOM      1  C   UNL     1      60.841  31.440  59.924  1.00  0.00     0.000 C 
ENDROOT
BRANCH   1   2
ATOM      2  C   UNL     1      61.144  31.186  61.412  1.00  0.00     0.000 C 
BRANCH   2   3
ATOM      3  C   UNL     1      62.103  30.014  61.699  1.00  0.00     0.000 C 
BRANCH   3   4
ATOM      4  C   UNL     1      63.597  30.383  61.719  1.00  0.00     0.006 C 
BRANCH   4   5
ATOM      5  C   UNL     1      64.391  29.712  60.591  1.00  0.00     0.053 C 
BRANCH   5   6
ATOM      6  C   UNL     1      64.501  30.628  59.413  1.00  0.00     0.041 C 
ATOM      7  O   UNL     1      65.128  31.716  59.514  1.00  0.00    -0.550 OA
ATOM      8  O   UNL     1      63.870  30.305  58.219  1.00  0.00    -0.550 OA
ENDBRANCH   5   6
ENDBRANCH   4   5
ENDBRANCH   3   4
ENDBRANCH   2   3
ENDBRANCH   1   2
BRANCH   1   9
ATOM      9  C   UNL     1      61.445  32.756  59.408  1.00  0.00     0.000 C 
BRANCH   9  10
ATOM     10  C   UNL     1      62.042  33.615  60.535  1.00  0.00    -0.000 C 
BRANCH  10  11
ATOM     11  C   UNL     1      61.496  35.054  60.540  1.00  0.00    -0.000 C 
BRANCH  11  12
ATOM     12  C   UNL     1      62.512  36.060  61.122  1.00  0.00    -0.000 C 
BRANCH  12  13
ATOM     13  C   UNL     1      63.962  35.790  60.688  1.00  0.00    -0.003 C 
ATOM     14  C   UNL     1      64.925  35.656  61.866  1.00  0.00     0.004 C 
ENDBRANCH  12  13
ENDBRANCH  11  12
ENDBRANCH  10  11
ENDBRANCH   9  10
ENDBRANCH   1   9
TORSDOF 10
ENDMDL
MODEL 3
REMARK VINA RESULT:    -3.337      1.799      2.785
REMARK INTER + INTRA:          -6.389
REMARK INTER:                  -5.359
REMARK INTRA:                  -1.030
REMARK UNBOUND:                -1.102
REMARK SMILES CCCCCCCCCCCC(=O)[O-]
REMARK SMILES IDX 7 1 8 2 9 3 10 4 11 5 12 6 13 7 14 8 6 9 5 10 4 11 3 12 2 13
REMARK SMILES IDX 1 14
REMARK H PARENT
REMARK Flexibility Score: inf
ROOT
ATOM      1  C   UNL     1      57.106  25.950  51.362  1.00  0.00     0.000 C 
ENDROOT
BRANCH   1   2
ATOM      2  C   UNL     1      58.417  25.237  50.985  1.00  0.00     0.000 C 
BRANCH   2   3
ATOM      3  C   UNL     1      59.122  25.777  49.725  1.00  0.00     0.000 C 
BRANCH   3   4
ATOM      4  C   UNL     1      60.545  26.319  49.954  1.00  0.00     0.006 C 
BRANCH   4   5
ATOM      5  C   UNL     1      60.773  27.686  49.296  1.00  0.00     0.053 C 
BRANCH   5   6
ATOM      6  C   UNL     1      59.742  28.666  49.759  1.00  0.00     0.041 C 
ATOM      7  O   UNL     1      59.033  29.283  48.921  1.00  0.00    -0.550 OA
ATOM      8  O   UNL     1      59.597  28.935  51.114  1.00  0.00    -0.550 OA
ENDBRANCH   5   6
ENDBRANCH   4   5
ENDBRANCH   3   4
ENDBRANCH   2   3
ENDBRANCH   1   2
BRANCH   1   9
ATOM      9  C   UNL     1      56.516  26.768  50.202  1.00  0.00     0.000 C 
BRANCH   9  10
ATOM     10  C   UNL     1      56.138  28.199  50.620  1.00  0.00    -0.000 C 
BRANCH  10  11
ATOM     11  C   UNL     1      54.662  28.532  50.341  1.00  0.00    -0.000 C 
BRANCH  11  12
ATOM     12  C   UNL     1      53.730  27.339  50.643  1.00  0.00    -0.000 C 
BRANCH  12  13
ATOM     13  C   UNL     1      52.893  26.891  49.433  1.00  0.00    -0.003 C 
ATOM     14  C   UNL     1      53.301  25.520  48.896  1.00  0.00     0.004 C 
ENDBRANCH  12  13
ENDBRANCH  11  12
ENDBRANCH  10  11
ENDBRANCH   9  10
ENDBRANCH   1   9
TORSDOF 10
ENDMDL
MODEL 4
REMARK VINA RESULT:    -3.331      1.579      2.853
REMARK INTER + INTRA:          -6.381
REMARK INTER:                  -5.345
REMARK INTRA:                  -1.036
REMARK UNBOUND:                -1.102
REMARK SMILES CCCCCCCCCCCC(=O)[O-]
REMARK SMILES IDX 7 1 8 2 9 3 10 4 11 5 12 6 13 7 14 8 6 9 5 10 4 11 3 12 2 13
REMARK SMILES IDX 1 14
REMARK H PARENT
REMARK Flexibility Score: inf
ROOT
ATOM      1  C   UNL     1      56.073  29.796  52.870  1.00  0.00     0.000 C 
ENDROOT
BRANCH   1   2
ATOM      2  C   UNL     1      57.234  28.818  52.613  1.00  0.00     0.000 C 
BRANCH   2   3
ATOM      3  C   UNL     1      58.251  29.267  51.546  1.00  0.00     0.000 C 
BRANCH   3   4
ATOM      4  C   UNL     1      57.878  28.910  50.096  1.00  0.00     0.006 C 
BRANCH   4   5
ATOM      5  C   UNL     1      59.063  29.030  49.130  1.00  0.00     0.053 C 
BRANCH   5   6
ATOM      6  C   UNL     1      59.973  27.850  49.272  1.00  0.00     0.041 C 
ATOM      7  O   UNL     1      59.504  26.681  49.241  1.00  0.00    -0.550 OA
ATOM      8  O   UNL     1      61.332  28.041  49.488  1.00  0.00    -0.550 OA
ENDBRANCH   5   6
ENDBRANCH   4   5
ENDBRANCH   3   4
ENDBRANCH   2   3
ENDBRANCH   1   2
BRANCH   1   9
ATOM      9  C   UNL     1      54.704  29.214  52.484  1.00  0.00     0.000 C 
BRANCH   9  10
ATOM     10  C   UNL     1      54.227  29.689  51.102  1.00  0.00    -0.000 C 
BRANCH  10  11
ATOM     11  C   UNL     1      53.994  28.528  50.119  1.00  0.00    -0.000 C 
BRANCH  11  12
ATOM     12  C   UNL     1      54.546  27.191  50.657  1.00  0.00    -0.000 C 
BRANCH  12  13
ATOM     13  C   UNL     1      54.874  26.172  49.554  1.00  0.00    -0.003 C 
ATOM     14  C   UNL     1      53.642  25.431  49.036  1.00  0.00     0.004 C 
ENDBRANCH  12  13
ENDBRANCH  11  12
ENDBRANCH  10  11
ENDBRANCH   9  10
ENDBRANCH   1   9
TORSDOF 10
ENDMDL
MODEL 5
REMARK VINA RESULT:    -3.312      1.581      2.641
REMARK INTER + INTRA:          -6.351
REMARK INTER:                  -5.341
REMARK INTRA:                  -1.010
REMARK UNBOUND:                -1.102
REMARK SMILES CCCCCCCCCCCC(=O)[O-]
REMARK SMILES IDX 7 1 8 2 9 3 10 4 11 5 12 6 13 7 14 8 6 9 5 10 4 11 3 12 2 13
REMARK SMILES IDX 1 14
REMARK H PARENT
REMARK Flexibility Score: inf
ROOT
ATOM      1  C   UNL     1      58.972  29.254  50.991  1.00  0.00     0.000 C 
ENDROOT
BRANCH   1   2
ATOM      2  C   UNL     1      59.063  28.920  49.491  1.00  0.00     0.000 C 
BRANCH   2   3
ATOM      3  C   UNL     1      59.931  27.695  49.141  1.00  0.00     0.000 C 
BRANCH   3   4
ATOM      4  C   UNL     1      60.096  26.666  50.274  1.00  0.00     0.006 C 
BRANCH   4   5
ATOM      5  C   UNL     1      59.222  25.421  50.079  1.00  0.00     0.053 C 
BRANCH   5   6
ATOM      6  C   UNL     1      59.971  24.190  50.482  1.00  0.00     0.041 C 
ATOM      7  O   UNL     1      61.009  23.846  49.857  1.00  0.00    -0.550 OA
ATOM      8  O   UNL     1      59.495  23.394  51.517  1.00  0.00    -0.550 OA
ENDBRANCH   5   6
ENDBRANCH   4   5
ENDBRANCH   3   4
ENDBRANCH   2   3
ENDBRANCH   1   2
BRANCH   1   9
ATOM      9  C   UNL     1      57.569  29.014  51.573  1.00  0.00     0.000 C 
BRANCH   9  10
ATOM     10  C   UNL     1      56.536  28.651  50.494  1.00  0.00    -0.000 C 
BRANCH  10  11
ATOM     11  C   UNL     1      55.704  27.408  50.858  1.00  0.00    -0.000 C 
BRANCH  11  12
ATOM     12  C   UNL     1      55.736  26.340  49.745  1.00  0.00    -0.000 C 
BRANCH  12  13
ATOM     13  C   UNL     1      54.422  25.555  49.607  1.00  0.00    -0.003 C 
ATOM     14  C   UNL     1      53.213  26.451  49.342  1.00  0.00     0.004 C 
ENDBRANCH  12  13
ENDBRANCH  11  12
ENDBRANCH  10  11
ENDBRANCH   9  10
ENDBRANCH   1   9
TORSDOF 10
ENDMDL
MODEL 6
REMARK VINA RESULT:    -3.289     12.326     13.946
REMARK INTER + INTRA:          -6.314
REMARK INTER:                  -5.006
REMARK INTRA:                  -1.308
REMARK UNBOUND:                -1.102
REMARK SMILES CCCCCCCCCCCC(=O)[O-]
REMARK SMILES IDX 7 1 8 2 9 3 10 4 11 5 12 6 13 7 14 8 6 9 5 10 4 11 3 12 2 13
REMARK SMILES IDX 1 14
REMARK H PARENT
REMARK Flexibility Score: inf
ROOT
ATOM      1  C   UNL     1      63.927  32.938  59.790  1.00  0.00     0.000 C 
ENDROOT
BRANCH   1   2
ATOM      2  C   UNL     1      62.466  32.532  59.527  1.00  0.00     0.000 C 
BRANCH   2   3
ATOM      3  C   UNL     1      61.529  32.616  60.749  1.00  0.00     0.000 C 
BRANCH   3   4
ATOM      4  C   UNL     1      61.219  31.269  61.427  1.00  0.00     0.006 C 
BRANCH   4   5
ATOM      5  C   UNL     1      61.659  30.065  60.586  1.00  0.00     0.053 C 
BRANCH   5   6
ATOM      6  C   UNL     1      62.659  29.242  61.336  1.00  0.00     0.041 C 
ATOM      7  O   UNL     1      62.353  28.092  61.748  1.00  0.00    -0.550 OA
ATOM      8  O   UNL     1      63.913  29.765  61.625  1.00  0.00    -0.550 OA
ENDBRANCH   5   6
ENDBRANCH   4   5
ENDBRANCH   3   4
ENDBRANCH   2   3
ENDBRANCH   1   2
BRANCH   1   9
ATOM      9  C   UNL     1      64.194  33.295  61.261  1.00  0.00     0.000 C 
BRANCH   9  10
ATOM     10  C   UNL     1      64.509  34.786  61.460  1.00  0.00    -0.000 C 
BRANCH  10  11
ATOM     11  C   UNL     1      64.602  35.559  60.132  1.00  0.00    -0.000 C 
BRANCH  11  12
ATOM     12  C   UNL     1      63.410  36.520  59.934  1.00  0.00    -0.000 C 
BRANCH  12  13
ATOM     13  C   UNL     1      62.368  36.449  61.062  1.00  0.00    -0.003 C 
ATOM     14  C   UNL     1      60.939  36.281  60.549  1.00  0.00     0.004 C 
ENDBRANCH  12  13
ENDBRANCH  11  12
ENDBRANCH  10  11
ENDBRANCH   9  10
ENDBRANCH   1   9
TORSDOF 10
ENDMDL
MODEL 7
REMARK VINA RESULT:    -3.259     11.963     13.600
REMARK INTER + INTRA:          -6.267
REMARK INTER:                  -5.063
REMARK INTRA:                  -1.204
REMARK UNBOUND:                -1.102
REMARK SMILES CCCCCCCCCCCC(=O)[O-]
REMARK SMILES IDX 7 1 8 2 9 3 10 4 11 5 12 6 13 7 14 8 6 9 5 10 4 11 3 12 2 13
REMARK SMILES IDX 1 14
REMARK H PARENT
REMARK Flexibility Score: inf
ROOT
ATOM      1  C   UNL     1      62.950  32.926  59.137  1.00  0.00     0.000 C 
ENDROOT
BRANCH   1   2
ATOM      2  C   UNL     1      62.735  32.391  60.565  1.00  0.00     0.000 C 
BRANCH   2   3
ATOM      3  C   UNL     1      61.264  32.178  60.973  1.00  0.00     0.000 C 
BRANCH   3   4
ATOM      4  C   UNL     1      60.982  30.874  61.742  1.00  0.00     0.006 C 
BRANCH   4   5
ATOM      5  C   UNL     1      62.224  29.985  61.880  1.00  0.00     0.053 C 
BRANCH   5   6
ATOM      6  C   UNL     1      61.986  28.653  61.241  1.00  0.00     0.041 C 
ATOM      7  O   UNL     1      62.606  27.635  61.649  1.00  0.00    -0.550 OA
ATOM      8  O   UNL     1      61.117  28.543  60.163  1.00  0.00    -0.550 OA
ENDBRANCH   5   6
ENDBRANCH   4   5
ENDBRANCH   3   4
ENDBRANCH   2   3
ENDBRANCH   1   2
BRANCH   1   9
ATOM      9  C   UNL     1      61.775  33.781  58.636  1.00  0.00     0.000 C 
BRANCH   9  10
ATOM     10  C   UNL     1      62.011  35.287  58.837  1.00  0.00    -0.000 C 
BRANCH  10  11
ATOM     11  C   UNL     1      61.339  35.831  60.110  1.00  0.00    -0.000 C 
BRANCH  11  12
ATOM     12  C   UNL     1      62.370  36.212  61.194  1.00  0.00    -0.000 C 
BRANCH  12  13
ATOM     13  C   UNL     1      63.825  36.181  60.699  1.00  0.00    -0.003 C 
ATOM     14  C   UNL     1      64.743  35.340  61.585  1.00  0.00     0.004 C 
ENDBRANCH  12  13
ENDBRANCH  11  12
ENDBRANCH  10  11
ENDBRANCH   9  10
ENDBRANCH   1   9
TORSDOF 10
ENDMDL
MODEL 8
REMARK VINA RESULT:    -3.215      1.760      2.641
REMARK INTER + INTRA:          -6.197
REMARK INTER:                  -4.758
REMARK INTRA:                  -1.440
REMARK UNBOUND:                -1.102
REMARK SMILES CCCCCCCCCCCC(=O)[O-]
REMARK SMILES IDX 7 1 8 2 9 3 10 4 11 5 12 6 13 7 14 8 6 9 5 10 4 11 3 12 2 13
REMARK SMILES IDX 1 14
REMARK H PARENT
REMARK Flexibility Score: inf
ROOT
ATOM      1  C   UNL     1      56.079  25.986  50.717  1.00  0.00     0.000 C 
ENDROOT
BRANCH   1   2
ATOM      2  C   UNL     1      57.470  26.460  50.258  1.00  0.00     0.000 C 
BRANCH   2   3
ATOM      3  C   UNL     1      58.038  27.673  51.021  1.00  0.00     0.000 C 
BRANCH   3   4
ATOM      4  C   UNL     1      57.996  29.006  50.252  1.00  0.00     0.006 C 
BRANCH   4   5
ATOM      5  C   UNL     1      58.979  29.044  49.075  1.00  0.00     0.053 C 
BRANCH   5   6
ATOM      6  C   UNL     1      60.360  28.698  49.538  1.00  0.00     0.041 C 
ATOM      7  O   UNL     1      60.903  27.625  49.163  1.00  0.00    -0.550 OA
ATOM      8  O   UNL     1      61.028  29.535  50.422  1.00  0.00    -0.550 OA
ENDBRANCH   5   6
ENDBRANCH   4   5
ENDBRANCH   3   4
ENDBRANCH   2   3
ENDBRANCH   1   2
BRANCH   1   9
ATOM      9  C   UNL     1      55.020  26.080  49.607  1.00  0.00     0.000 C 
BRANCH   9  10
ATOM     10  C   UNL     1      54.219  27.391  49.663  1.00  0.00    -0.000 C 
BRANCH  10  11
ATOM     11  C   UNL     1      54.092  27.952  51.090  1.00  0.00    -0.000 C 
BRANCH  11  12
ATOM     12  C   UNL     1      54.406  29.462  51.152  1.00  0.00    -0.000 C 
BRANCH  12  13
ATOM     13  C   UNL     1      55.176  29.879  52.416  1.00  0.00    -0.003 C 
ATOM     14  C   UNL     1      55.385  28.727  53.398  1.00  0.00     0.004 C 
ENDBRANCH  12  13
ENDBRANCH  11  12
ENDBRANCH  10  11
ENDBRANCH   9  10
ENDBRANCH   1   9
TORSDOF 10
ENDMDL
MODEL 9
REMARK VINA RESULT:    -3.192      2.952      5.571
REMARK INTER + INTRA:          -6.160
REMARK INTER:                  -5.148
REMARK INTRA:                  -1.012
REMARK UNBOUND:                -1.102
REMARK SMILES CCCCCCCCCCCC(=O)[O-]
REMARK SMILES IDX 7 1 8 2 9 3 10 4 11 5 12 6 13 7 14 8 6 9 5 10 4 11 3 12 2 13
REMARK SMILES IDX 1 14
REMARK H PARENT
REMARK Flexibility Score: inf
ROOT
ATOM      1  C   UNL     1      58.577  29.271  51.028  1.00  0.00     0.000 C 
ENDROOT
BRANCH   1   2
ATOM      2  C   UNL     1      57.172  28.858  51.502  1.00  0.00     0.000 C 
BRANCH   2   3
ATOM      3  C   UNL     1      56.286  28.190  50.432  1.00  0.00     0.000 C 
BRANCH   3   4
ATOM      4  C   UNL     1      54.772  28.244  50.711  1.00  0.00     0.006 C 
BRANCH   4   5
ATOM      5  C   UNL     1      53.958  27.379  49.741  1.00  0.00     0.053 C 
BRANCH   5   6
ATOM      6  C   UNL     1      54.073  25.933  50.110  1.00  0.00     0.041 C 
ATOM      7  O   UNL     1      53.937  25.042  49.231  1.00  0.00    -0.550 OA
ATOM      8  O   UNL     1      54.279  25.568  51.434  1.00  0.00    -0.550 OA
ENDBRANCH   5   6
ENDBRANCH   4   5
ENDBRANCH   3   4
ENDBRANCH   2   3
ENDBRANCH   1   2
BRANCH   1   9
ATOM      9  C   UNL     1      58.827  28.948  49.546  1.00  0.00     0.000 C 
BRANCH   9  10
ATOM     10  C   UNL     1      59.959  27.927  49.346  1.00  0.00    -0.000 C 
BRANCH  10  11
ATOM     11  C   UNL     1      59.454  26.473  49.316  1.00  0.00    -0.000 C 
BRANCH  11  12
ATOM     12  C   UNL     1      60.246  25.562  50.277  1.00  0.00    -0.000 C 
BRANCH  12  13
ATOM     13  C   UNL     1      59.363  24.576  51.058  1.00  0.00    -0.003 C 
ATOM     14  C   UNL     1      58.052  25.195  51.539  1.00  0.00     0.004 C 
ENDBRANCH  12  13
ENDBRANCH  11  12
ENDBRANCH  10  11
ENDBRANCH   9  10
ENDBRANCH   1   9
TORSDOF 10
ENDMDL
