MODEL 1
REMARK VINA RESULT:    -5.623      0.000      0.000
REMARK INTER + INTRA:          -6.902
REMARK INTER:                  -6.609
REMARK INTRA:                  -0.293
REMARK UNBOUND:                -0.293
REMARK SMILES O=c1c(O)c(-c2ccc(O)cc2)oc2cc(O)cc(O)c12
REMARK SMILES IDX 5 1 3 2 2 3 1 4 21 5 19 6 18 7 16 8 15 9 14 10 13 11 6 12
REMARK SMILES IDX 7 13 8 14 9 15 12 16 11 17 10 18 4 20 20 22 17 24
REMARK H PARENT 10 19 4 21 20 23 17 25
REMARK Flexibility Score: inf
ROOT
ATOM      1  C   UNL     1    -105.898 186.802  49.865  1.00  0.00     0.180 A 
ATOM      2  C   UNL     1    -105.928 185.818  50.869  1.00  0.00     0.208 A 
ATOM      3  C   UNL     1    -104.774 185.054  51.107  1.00  0.00     0.238 A 
ATOM      4  O   UNL     1    -104.791 184.212  52.043  1.00  0.00    -0.285 OA
ATOM      5  C   UNL     1    -103.611 185.272  50.330  1.00  0.00     0.111 A 
ATOM      6  C   UNL     1    -102.401 184.527  50.459  1.00  0.00     0.134 A 
ATOM      7  C   UNL     1    -101.270 184.916  49.729  1.00  0.00     0.093 A 
ATOM      8  C   UNL     1    -101.328 185.980  48.825  1.00  0.00     0.123 A 
ATOM      9  C   UNL     1    -102.522 186.674  48.649  1.00  0.00     0.094 A 
ATOM     10  C   UNL     1    -103.656 186.333  49.390  1.00  0.00     0.146 A 
ATOM     11  O   UNL     1    -104.771 187.028  49.199  1.00  0.00    -0.452 OA
ENDROOT
BRANCH   1  12
ATOM     12  C   UNL     1    -107.080 187.631  49.539  1.00  0.00     0.021 A 
ATOM     13  C   UNL     1    -107.187 188.926  50.073  1.00  0.00     0.016 A 
ATOM     14  C   UNL     1    -108.284 189.734  49.759  1.00  0.00     0.047 A 
ATOM     15  C   UNL     1    -109.281 189.262  48.895  1.00  0.00     0.115 A 
ATOM     16  C   UNL     1    -108.076 187.172  48.656  1.00  0.00     0.016 A 
ATOM     17  C   UNL     1    -109.172 187.982  48.343  1.00  0.00     0.047 A 
BRANCH  15  18
ATOM     18  O   UNL     1    -110.379 190.058  48.576  1.00  0.00    -0.508 OA
ATOM     19  H   UNL     1    -111.106 189.732  47.949  1.00  0.00     0.293 HD
ENDBRANCH  15  18
ENDBRANCH   1  12
BRANCH   2  20
ATOM     20  O   UNL     1    -107.080 185.635  51.639  1.00  0.00    -0.502 OA
ATOM     21  H   UNL     1    -107.846 185.044  51.340  1.00  0.00     0.293 HD
ENDBRANCH   2  20
BRANCH   6  22
ATOM     22  O   UNL     1    -102.263 183.392  51.264  1.00  0.00    -0.507 OA
ATOM     23  H   UNL     1    -102.250 182.444  50.921  1.00  0.00     0.293 HD
ENDBRANCH   6  22
BRANCH   8  24
ATOM     24  O   UNL     1    -100.203 186.350  48.090  1.00  0.00    -0.508 OA
ATOM     25  H   UNL     1    -100.242 187.091  47.400  1.00  0.00     0.293 HD
ENDBRANCH   8  24
TORSDOF 5
ENDMDL
MODEL 2
REMARK VINA RESULT:    -5.622      1.139      1.359
REMARK INTER + INTRA:          -6.901
REMARK INTER:                  -6.601
REMARK INTRA:                  -0.300
REMARK UNBOUND:                -0.293
REMARK SMILES O=c1c(O)c(-c2ccc(O)cc2)oc2cc(O)cc(O)c12
REMARK SMILES IDX 5 1 3 2 2 3 1 4 21 5 19 6 18 7 16 8 15 9 14 10 13 11 6 12
REMARK SMILES IDX 7 13 8 14 9 15 12 16 11 17 10 18 4 20 20 22 17 24
REMARK H PARENT 10 19 4 21 20 23 17 25
REMARK Flexibility Score: inf
ROOT
ATOM      1  C   UNL     1    -105.996 186.192  48.824  1.00  0.00     0.180 A 
ATOM      2  C   UNL     1    -106.017 185.339  49.941  1.00  0.00     0.208 A 
ATOM      3  C   UNL     1    -104.802 184.839  50.439  1.00  0.00     0.238 A 
ATOM      4  O   UNL     1    -104.824 184.119  51.471  1.00  0.00    -0.285 OA
ATOM      5  C   UNL     1    -103.585 185.185  49.805  1.00  0.00     0.111 A 
ATOM      6  C   UNL     1    -102.301 184.703  50.200  1.00  0.00     0.134 A 
ATOM      7  C   UNL     1    -101.152 185.215  49.584  1.00  0.00     0.093 A 
ATOM      8  C   UNL     1    -101.246 186.141  48.542  1.00  0.00     0.123 A 
ATOM      9  C   UNL     1    -102.498 186.572  48.110  1.00  0.00     0.094 A 
ATOM     10  C   UNL     1    -103.660 186.107  48.729  1.00  0.00     0.146 A 
ATOM     11  O   UNL     1    -104.832 186.551  48.293  1.00  0.00    -0.452 OA
ENDROOT
BRANCH   1  12
ATOM     12  C   UNL     1    -107.235 186.740  48.227  1.00  0.00     0.021 A 
ATOM     13  C   UNL     1    -107.696 188.005  48.628  1.00  0.00     0.016 A 
ATOM     14  C   UNL     1    -108.851 188.550  48.060  1.00  0.00     0.047 A 
ATOM     15  C   UNL     1    -109.552 187.843  47.074  1.00  0.00     0.115 A 
ATOM     16  C   UNL     1    -107.933 186.045  47.222  1.00  0.00     0.016 A 
ATOM     17  C   UNL     1    -109.088 186.593  46.655  1.00  0.00     0.047 A 
BRANCH  15  18
ATOM     18  O   UNL     1    -110.705 188.377  46.502  1.00  0.00    -0.508 OA
ATOM     19  H   UNL     1    -110.660 189.111  45.805  1.00  0.00     0.293 HD
ENDBRANCH  15  18
ENDBRANCH   1  12
BRANCH   2  20
ATOM     20  O   UNL     1    -107.228 185.028  50.565  1.00  0.00    -0.502 OA
ATOM     21  H   UNL     1    -107.428 185.285  51.524  1.00  0.00     0.293 HD
ENDBRANCH   2  20
BRANCH   6  22
ATOM     22  O   UNL     1    -102.101 183.712  51.166  1.00  0.00    -0.507 OA
ATOM     23  H   UNL     1    -101.376 183.732  51.867  1.00  0.00     0.293 HD
ENDBRANCH   6  22
BRANCH   8  24
ATOM     24  O   UNL     1    -100.098 186.634  47.923  1.00  0.00    -0.508 OA
ATOM     25  H   UNL     1     -99.912 187.628  47.868  1.00  0.00     0.293 HD
ENDBRANCH   8  24
TORSDOF 5
ENDMDL
MODEL 3
REMARK VINA RESULT:    -5.305      3.357      6.547
REMARK INTER + INTRA:          -6.528
REMARK INTER:                  -6.377
REMARK INTRA:                  -0.151
REMARK UNBOUND:                -0.293
REMARK SMILES O=c1c(O)c(-c2ccc(O)cc2)oc2cc(O)cc(O)c12
REMARK SMILES IDX 5 1 3 2 2 3 1 4 21 5 19 6 18 7 16 8 15 9 14 10 13 11 6 12
REMARK SMILES IDX 7 13 8 14 9 15 12 16 11 17 10 18 4 20 20 22 17 24
REMARK H PARENT 10 19 4 21 20 23 17 25
REMARK Flexibility Score: inf
ROOT
ATOM      1  C   UNL     1    -104.881 184.534  51.368  1.00  0.00     0.180 A 
ATOM      2  C   UNL     1    -106.105 184.124  50.811  1.00  0.00     0.208 A 
ATOM      3  C   UNL     1    -107.117 183.653  51.664  1.00  0.00     0.238 A 
ATOM      4  O   UNL     1    -108.229 183.338  51.164  1.00  0.00    -0.285 OA
ATOM      5  C   UNL     1    -106.887 183.583  53.059  1.00  0.00     0.111 A 
ATOM      6  C   UNL     1    -107.827 183.084  54.010  1.00  0.00     0.134 A 
ATOM      7  C   UNL     1    -107.544 183.184  55.378  1.00  0.00     0.093 A 
ATOM      8  C   UNL     1    -106.326 183.704  55.825  1.00  0.00     0.123 A 
ATOM      9  C   UNL     1    -105.379 184.138  54.901  1.00  0.00     0.094 A 
ATOM     10  C   UNL     1    -105.647 184.085  53.531  1.00  0.00     0.146 A 
ATOM     11  O   UNL     1    -104.721 184.519  52.686  1.00  0.00    -0.452 OA
ENDROOT
BRANCH   1  12
ATOM     12  C   UNL     1    -103.759 185.018  50.533  1.00  0.00     0.021 A 
ATOM     13  C   UNL     1    -103.872 186.252  49.870  1.00  0.00     0.016 A 
ATOM     14  C   UNL     1    -102.815 186.739  49.094  1.00  0.00     0.047 A 
ATOM     15  C   UNL     1    -101.626 186.005  48.984  1.00  0.00     0.115 A 
ATOM     16  C   UNL     1    -102.555 184.297  50.434  1.00  0.00     0.016 A 
ATOM     17  C   UNL     1    -101.499 184.787  49.658  1.00  0.00     0.047 A 
BRANCH  15  18
ATOM     18  O   UNL     1    -100.567 186.480  48.214  1.00  0.00    -0.508 OA
ATOM     19  H   UNL     1     -99.644 186.616  48.609  1.00  0.00     0.293 HD
ENDBRANCH  15  18
ENDBRANCH   1  12
BRANCH   2  20
ATOM     20  O   UNL     1    -106.319 184.222  49.433  1.00  0.00    -0.502 OA
ATOM     21  H   UNL     1    -106.786 185.015  49.010  1.00  0.00     0.293 HD
ENDBRANCH   2  20
BRANCH   6  22
ATOM     22  O   UNL     1    -109.032 182.463  53.666  1.00  0.00    -0.507 OA
ATOM     23  H   UNL     1    -109.547 182.641  52.818  1.00  0.00     0.293 HD
ENDBRANCH   6  22
BRANCH   8  24
ATOM     24  O   UNL     1    -106.045 183.785  57.187  1.00  0.00    -0.508 OA
ATOM     25  H   UNL     1    -106.489 184.477  57.779  1.00  0.00     0.293 HD
ENDBRANCH   8  24
TORSDOF 5
ENDMDL
MODEL 4
REMARK VINA RESULT:    -4.920      2.978      5.729
REMARK INTER + INTRA:          -6.076
REMARK INTER:                  -5.893
REMARK INTRA:                  -0.184
REMARK UNBOUND:                -0.293
REMARK SMILES O=c1c(O)c(-c2ccc(O)cc2)oc2cc(O)cc(O)c12
REMARK SMILES IDX 5 1 3 2 2 3 1 4 21 5 19 6 18 7 16 8 15 9 14 10 13 11 6 12
REMARK SMILES IDX 7 13 8 14 9 15 12 16 11 17 10 18 4 20 20 22 17 24
REMARK H PARENT 10 19 4 21 20 23 17 25
REMARK Flexibility Score: inf
ROOT
ATOM      1  C   UNL     1    -105.484 184.143  52.196  1.00  0.00     0.180 A 
ATOM      2  C   UNL     1    -106.532 184.642  51.402  1.00  0.00     0.208 A 
ATOM      3  C   UNL     1    -106.222 185.295  50.198  1.00  0.00     0.238 A 
ATOM      4  O   UNL     1    -107.166 185.691  49.467  1.00  0.00    -0.285 OA
ATOM      5  C   UNL     1    -104.870 185.454  49.811  1.00  0.00     0.111 A 
ATOM      6  C   UNL     1    -104.440 186.135  48.632  1.00  0.00     0.134 A 
ATOM      7  C   UNL     1    -103.085 186.118  48.281  1.00  0.00     0.093 A 
ATOM      8  C   UNL     1    -102.135 185.503  49.101  1.00  0.00     0.123 A 
ATOM      9  C   UNL     1    -102.539 184.887  50.283  1.00  0.00     0.094 A 
ATOM     10  C   UNL     1    -103.888 184.856  50.642  1.00  0.00     0.146 A 
ATOM     11  O   UNL     1    -104.230 184.250  51.772  1.00  0.00    -0.452 OA
ENDROOT
BRANCH   1  12
ATOM     12  C   UNL     1    -105.729 183.465  53.489  1.00  0.00     0.021 A 
ATOM     13  C   UNL     1    -105.420 184.130  54.688  1.00  0.00     0.016 A 
ATOM     14  C   UNL     1    -105.665 183.517  55.921  1.00  0.00     0.047 A 
ATOM     15  C   UNL     1    -106.235 182.238  55.971  1.00  0.00     0.115 A 
ATOM     16  C   UNL     1    -106.320 182.189  53.548  1.00  0.00     0.016 A 
ATOM     17  C   UNL     1    -106.564 181.579  54.783  1.00  0.00     0.047 A 
BRANCH  15  18
ATOM     18  O   UNL     1    -106.483 181.618  57.194  1.00  0.00    -0.508 OA
ATOM     19  H   UNL     1    -106.333 182.100  58.072  1.00  0.00     0.293 HD
ENDBRANCH  15  18
ENDBRANCH   1  12
BRANCH   2  20
ATOM     20  O   UNL     1    -107.860 184.454  51.793  1.00  0.00    -0.502 OA
ATOM     21  H   UNL     1    -108.136 183.741  52.458  1.00  0.00     0.293 HD
ENDBRANCH   2  20
BRANCH   6  22
ATOM     22  O   UNL     1    -105.293 186.859  47.793  1.00  0.00    -0.507 OA
ATOM     23  H   UNL     1    -106.201 187.208  48.061  1.00  0.00     0.293 HD
ENDBRANCH   6  22
BRANCH   8  24
ATOM     24  O   UNL     1    -100.787 185.504  48.752  1.00  0.00    -0.508 OA
ATOM     25  H   UNL     1    -100.424 186.128  48.040  1.00  0.00     0.293 HD
ENDBRANCH   8  24
TORSDOF 5
ENDMDL
MODEL 5
REMARK VINA RESULT:    -4.863      3.240      6.640
REMARK INTER + INTRA:          -6.008
REMARK INTER:                  -5.719
REMARK INTRA:                  -0.289
REMARK UNBOUND:                -0.293
REMARK SMILES O=c1c(O)c(-c2ccc(O)cc2)oc2cc(O)cc(O)c12
REMARK SMILES IDX 5 1 3 2 2 3 1 4 21 5 19 6 18 7 16 8 15 9 14 10 13 11 6 12
REMARK SMILES IDX 7 13 8 14 9 15 12 16 11 17 10 18 4 20 20 22 17 24
REMARK H PARENT 10 19 4 21 20 23 17 25
REMARK Flexibility Score: inf
ROOT
ATOM      1  C   UNL     1    -105.374 185.152  51.261  1.00  0.00     0.180 A 
ATOM      2  C   UNL     1    -106.464 184.482  50.679  1.00  0.00     0.208 A 
ATOM      3  C   UNL     1    -107.624 184.276  51.443  1.00  0.00     0.238 A 
ATOM      4  O   UNL     1    -108.615 183.723  50.899  1.00  0.00    -0.285 OA
ATOM      5  C   UNL     1    -107.674 184.728  52.783  1.00  0.00     0.111 A 
ATOM      6  C   UNL     1    -108.783 184.536  53.661  1.00  0.00     0.134 A 
ATOM      7  C   UNL     1    -108.776 185.140  54.925  1.00  0.00     0.093 A 
ATOM      8  C   UNL     1    -107.670 185.873  55.367  1.00  0.00     0.123 A 
ATOM      9  C   UNL     1    -106.560 186.014  54.539  1.00  0.00     0.094 A 
ATOM     10  C   UNL     1    -106.552 185.454  53.259  1.00  0.00     0.146 A 
ATOM     11  O   UNL     1    -105.477 185.622  52.499  1.00  0.00    -0.452 OA
ENDROOT
BRANCH   1  12
ATOM     12  C   UNL     1    -104.109 185.385  50.528  1.00  0.00     0.021 A 
ATOM     13  C   UNL     1    -103.090 184.419  50.584  1.00  0.00     0.016 A 
ATOM     14  C   UNL     1    -101.896 184.609  49.881  1.00  0.00     0.047 A 
ATOM     15  C   UNL     1    -101.713 185.760  49.102  1.00  0.00     0.115 A 
ATOM     16  C   UNL     1    -103.926 186.528  49.728  1.00  0.00     0.016 A 
ATOM     17  C   UNL     1    -102.731 186.715  49.026  1.00  0.00     0.047 A 
BRANCH  15  18
ATOM     18  O   UNL     1    -100.527 185.959  48.398  1.00  0.00    -0.508 OA
ATOM     19  H   UNL     1     -99.935 186.762  48.574  1.00  0.00     0.293 HD
ENDBRANCH  15  18
ENDBRANCH   1  12
BRANCH   2  20
ATOM     20  O   UNL     1    -106.402 184.064  49.346  1.00  0.00    -0.502 OA
ATOM     21  H   UNL     1    -107.126 183.501  48.918  1.00  0.00     0.293 HD
ENDBRANCH   2  20
BRANCH   6  22
ATOM     22  O   UNL     1    -109.896 183.747  53.354  1.00  0.00    -0.507 OA
ATOM     23  H   UNL     1    -109.973 182.762  53.553  1.00  0.00     0.293 HD
ENDBRANCH   6  22
BRANCH   8  24
ATOM     24  O   UNL     1    -107.664 186.457  56.631  1.00  0.00    -0.508 OA
ATOM     25  H   UNL     1    -107.405 187.427  56.765  1.00  0.00     0.293 HD
ENDBRANCH   8  24
TORSDOF 5
ENDMDL
MODEL 6
REMARK VINA RESULT:    -4.814      2.610      6.862
REMARK INTER + INTRA:          -5.951
REMARK INTER:                  -5.650
REMARK INTRA:                  -0.300
REMARK UNBOUND:                -0.293
REMARK SMILES O=c1c(O)c(-c2ccc(O)cc2)oc2cc(O)cc(O)c12
REMARK SMILES IDX 5 1 3 2 2 3 1 4 21 5 19 6 18 7 16 8 15 9 14 10 13 11 6 12
REMARK SMILES IDX 7 13 8 14 9 15 12 16 11 17 10 18 4 20 20 22 17 24
REMARK H PARENT 10 19 4 21 20 23 17 25
REMARK Flexibility Score: inf
ROOT
ATOM      1  C   UNL     1    -105.345 187.936  50.340  1.00  0.00     0.180 A 
ATOM      2  C   UNL     1    -106.380 188.143  49.411  1.00  0.00     0.208 A 
ATOM      3  C   UNL     1    -107.115 189.339  49.465  1.00  0.00     0.238 A 
ATOM      4  O   UNL     1    -108.004 189.541  48.598  1.00  0.00    -0.285 OA
ATOM      5  C   UNL     1    -106.816 190.305  50.456  1.00  0.00     0.111 A 
ATOM      6  C   UNL     1    -107.523 191.533  50.629  1.00  0.00     0.134 A 
ATOM      7  C   UNL     1    -107.058 192.472  51.557  1.00  0.00     0.093 A 
ATOM      8  C   UNL     1    -105.951 192.200  52.366  1.00  0.00     0.123 A 
ATOM      9  C   UNL     1    -105.292 190.979  52.245  1.00  0.00     0.094 A 
ATOM     10  C   UNL     1    -105.710 190.036  51.303  1.00  0.00     0.146 A 
ATOM     11  O   UNL     1    -105.046 188.890  51.214  1.00  0.00    -0.452 OA
ENDROOT
BRANCH   1  12
ATOM     12  C   UNL     1    -104.543 186.692  50.362  1.00  0.00     0.021 A 
ATOM     13  C   UNL     1    -103.327 186.640  49.659  1.00  0.00     0.016 A 
ATOM     14  C   UNL     1    -102.543 185.483  49.685  1.00  0.00     0.047 A 
ATOM     15  C   UNL     1    -102.958 184.368  50.426  1.00  0.00     0.115 A 
ATOM     16  C   UNL     1    -104.943 185.576  51.119  1.00  0.00     0.016 A 
ATOM     17  C   UNL     1    -104.156 184.420  51.144  1.00  0.00     0.047 A 
BRANCH  15  18
ATOM     18  O   UNL     1    -102.185 183.210  50.459  1.00  0.00    -0.508 OA
ATOM     19  H   UNL     1    -101.397 183.081  49.835  1.00  0.00     0.293 HD
ENDBRANCH  15  18
ENDBRANCH   1  12
BRANCH   2  20
ATOM     20  O   UNL     1    -106.643 187.186  48.427  1.00  0.00    -0.502 OA
ATOM     21  H   UNL     1    -106.060 186.369  48.293  1.00  0.00     0.293 HD
ENDBRANCH   2  20
BRANCH   6  22
ATOM     22  O   UNL     1    -108.692 191.865  49.938  1.00  0.00    -0.507 OA
ATOM     23  H   UNL     1    -108.949 191.498  49.034  1.00  0.00     0.293 HD
ENDBRANCH   6  22
BRANCH   8  24
ATOM     24  O   UNL     1    -105.504 193.133  53.298  1.00  0.00    -0.508 OA
ATOM     25  H   UNL     1    -106.094 193.443  54.062  1.00  0.00     0.293 HD
ENDBRANCH   8  24
TORSDOF 5
ENDMDL
MODEL 7
REMARK VINA RESULT:    -4.641      2.987      6.604
REMARK INTER + INTRA:          -5.748
REMARK INTER:                  -5.474
REMARK INTRA:                  -0.274
REMARK UNBOUND:                -0.293
REMARK SMILES O=c1c(O)c(-c2ccc(O)cc2)oc2cc(O)cc(O)c12
REMARK SMILES IDX 5 1 3 2 2 3 1 4 21 5 19 6 18 7 16 8 15 9 14 10 13 11 6 12
REMARK SMILES IDX 7 13 8 14 9 15 12 16 11 17 10 18 4 20 20 22 17 24
REMARK H PARENT 10 19 4 21 20 23 17 25
REMARK Flexibility Score: inf
ROOT
ATOM      1  C   UNL     1    -105.539 185.155  50.756  1.00  0.00     0.180 A 
ATOM      2  C   UNL     1    -106.092 186.043  51.695  1.00  0.00     0.208 A 
ATOM      3  C   UNL     1    -107.365 185.771  52.222  1.00  0.00     0.238 A 
ATOM      4  O   UNL     1    -107.831 186.540  53.102  1.00  0.00    -0.285 OA
ATOM      5  C   UNL     1    -108.075 184.624  51.793  1.00  0.00     0.111 A 
ATOM      6  C   UNL     1    -109.387 184.273  52.230  1.00  0.00     0.134 A 
ATOM      7  C   UNL     1    -109.940 183.047  51.840  1.00  0.00     0.093 A 
ATOM      8  C   UNL     1    -109.255 182.190  50.974  1.00  0.00     0.123 A 
ATOM      9  C   UNL     1    -107.998 182.552  50.495  1.00  0.00     0.094 A 
ATOM     10  C   UNL     1    -107.405 183.752  50.895  1.00  0.00     0.146 A 
ATOM     11  O   UNL     1    -106.202 184.053  50.424  1.00  0.00    -0.452 OA
ENDROOT
BRANCH   1  12
ATOM     12  C   UNL     1    -104.214 185.387  50.137  1.00  0.00     0.021 A 
ATOM     13  C   UNL     1    -103.105 184.647  50.580  1.00  0.00     0.016 A 
ATOM     14  C   UNL     1    -101.849 184.834  49.994  1.00  0.00     0.047 A 
ATOM     15  C   UNL     1    -101.691 185.753  48.948  1.00  0.00     0.115 A 
ATOM     16  C   UNL     1    -104.051 186.293  49.073  1.00  0.00     0.016 A 
ATOM     17  C   UNL     1    -102.794 186.478  48.488  1.00  0.00     0.047 A 
BRANCH  15  18
ATOM     18  O   UNL     1    -100.444 185.947  48.357  1.00  0.00    -0.508 OA
ATOM     19  H   UNL     1    -100.007 186.861  48.329  1.00  0.00     0.293 HD
ENDBRANCH  15  18
ENDBRANCH   1  12
BRANCH   2  20
ATOM     20  O   UNL     1    -105.365 187.158  52.122  1.00  0.00    -0.502 OA
ATOM     21  H   UNL     1    -105.708 188.104  52.015  1.00  0.00     0.293 HD
ENDBRANCH   2  20
BRANCH   6  22
ATOM     22  O   UNL     1    -110.194 185.098  53.020  1.00  0.00    -0.507 OA
ATOM     23  H   UNL     1    -109.883 185.946  53.468  1.00  0.00     0.293 HD
ENDBRANCH   6  22
BRANCH   8  24
ATOM     24  O   UNL     1    -109.819 180.979  50.578  1.00  0.00    -0.508 OA
ATOM     25  H   UNL     1    -110.537 180.524  51.129  1.00  0.00     0.293 HD
ENDBRANCH   8  24
TORSDOF 5
ENDMDL
MODEL 8
REMARK VINA RESULT:    -4.383      2.011      6.866
REMARK INTER + INTRA:          -5.445
REMARK INTER:                  -5.162
REMARK INTRA:                  -0.283
REMARK UNBOUND:                -0.293
REMARK SMILES O=c1c(O)c(-c2ccc(O)cc2)oc2cc(O)cc(O)c12
REMARK SMILES IDX 5 1 3 2 2 3 1 4 21 5 19 6 18 7 16 8 15 9 14 10 13 11 6 12
REMARK SMILES IDX 7 13 8 14 9 15 12 16 11 17 10 18 4 20 20 22 17 24
REMARK H PARENT 10 19 4 21 20 23 17 25
REMARK Flexibility Score: inf
ROOT
ATOM      1  C   UNL     1    -105.502 187.847  50.093  1.00  0.00     0.180 A 
ATOM      2  C   UNL     1    -105.483 188.903  51.021  1.00  0.00     0.208 A 
ATOM      3  C   UNL     1    -106.311 190.016  50.803  1.00  0.00     0.238 A 
ATOM      4  O   UNL     1    -106.329 190.933  51.665  1.00  0.00    -0.285 OA
ATOM      5  C   UNL     1    -107.136 190.066  49.654  1.00  0.00     0.111 A 
ATOM      6  C   UNL     1    -107.983 191.163  49.313  1.00  0.00     0.134 A 
ATOM      7  C   UNL     1    -108.854 191.050  48.222  1.00  0.00     0.093 A 
ATOM      8  C   UNL     1    -108.858 189.905  47.420  1.00  0.00     0.123 A 
ATOM      9  C   UNL     1    -107.991 188.855  47.710  1.00  0.00     0.094 A 
ATOM     10  C   UNL     1    -107.138 188.923  48.814  1.00  0.00     0.146 A 
ATOM     11  O   UNL     1    -106.336 187.895  49.060  1.00  0.00    -0.452 OA
ENDROOT
BRANCH   1  12
ATOM     12  C   UNL     1    -104.640 186.653  50.241  1.00  0.00     0.021 A 
ATOM     13  C   UNL     1    -103.375 186.633  49.630  1.00  0.00     0.016 A 
ATOM     14  C   UNL     1    -102.536 185.524  49.775  1.00  0.00     0.047 A 
ATOM     15  C   UNL     1    -102.945 184.427  50.546  1.00  0.00     0.115 A 
ATOM     16  C   UNL     1    -105.036 185.557  51.029  1.00  0.00     0.016 A 
ATOM     17  C   UNL     1    -104.194 184.449  51.174  1.00  0.00     0.047 A 
BRANCH  15  18
ATOM     18  O   UNL     1    -102.117 183.317  50.697  1.00  0.00    -0.508 OA
ATOM     19  H   UNL     1    -101.143 183.414  50.957  1.00  0.00     0.293 HD
ENDBRANCH  15  18
ENDBRANCH   1  12
BRANCH   2  20
ATOM     20  O   UNL     1    -104.678 188.823  52.161  1.00  0.00    -0.502 OA
ATOM     21  H   UNL     1    -104.915 189.289  53.028  1.00  0.00     0.293 HD
ENDBRANCH   2  20
BRANCH   6  22
ATOM     22  O   UNL     1    -107.991 192.386  49.992  1.00  0.00    -0.507 OA
ATOM     23  H   UNL     1    -107.275 193.091  49.911  1.00  0.00     0.293 HD
ENDBRANCH   6  22
BRANCH   8  24
ATOM     24  O   UNL     1    -109.716 189.807  46.326  1.00  0.00    -0.508 OA
ATOM     25  H   UNL     1    -109.387 189.962  45.380  1.00  0.00     0.293 HD
ENDBRANCH   8  24
TORSDOF 5
ENDMDL
MODEL 9
REMARK VINA RESULT:    -4.357      2.615      3.442
REMARK INTER + INTRA:          -5.414
REMARK INTER:                  -5.183
REMARK INTRA:                  -0.231
REMARK UNBOUND:                -0.293
REMARK SMILES O=c1c(O)c(-c2ccc(O)cc2)oc2cc(O)cc(O)c12
REMARK SMILES IDX 5 1 3 2 2 3 1 4 21 5 19 6 18 7 16 8 15 9 14 10 13 11 6 12
REMARK SMILES IDX 7 13 8 14 9 15 12 16 11 17 10 18 4 20 20 22 17 24
REMARK H PARENT 10 19 4 21 20 23 17 25
REMARK Flexibility Score: inf
ROOT
ATOM      1  C   UNL     1    -105.938 189.014  51.293  1.00  0.00     0.180 A 
ATOM      2  C   UNL     1    -106.659 188.209  52.192  1.00  0.00     0.208 A 
ATOM      3  C   UNL     1    -106.364 186.838  52.264  1.00  0.00     0.238 A 
ATOM      4  O   UNL     1    -106.976 186.133  53.109  1.00  0.00    -0.285 OA
ATOM      5  C   UNL     1    -105.363 186.287  51.428  1.00  0.00     0.111 A 
ATOM      6  C   UNL     1    -105.012 184.904  51.390  1.00  0.00     0.134 A 
ATOM      7  C   UNL     1    -103.917 184.492  50.619  1.00  0.00     0.093 A 
ATOM      8  C   UNL     1    -103.205 185.402  49.834  1.00  0.00     0.123 A 
ATOM      9  C   UNL     1    -103.580 186.743  49.819  1.00  0.00     0.094 A 
ATOM     10  C   UNL     1    -104.644 187.192  50.605  1.00  0.00     0.146 A 
ATOM     11  O   UNL     1    -104.960 188.480  50.570  1.00  0.00    -0.452 OA
ENDROOT
BRANCH   1  12
ATOM     12  C   UNL     1    -106.207 190.462  51.141  1.00  0.00     0.021 A 
ATOM     13  C   UNL     1    -105.728 191.361  52.110  1.00  0.00     0.016 A 
ATOM     14  C   UNL     1    -105.953 192.734  51.974  1.00  0.00     0.047 A 
ATOM     15  C   UNL     1    -106.646 193.227  50.860  1.00  0.00     0.115 A 
ATOM     16  C   UNL     1    -106.885 190.967  50.016  1.00  0.00     0.016 A 
ATOM     17  C   UNL     1    -107.107 192.342  49.883  1.00  0.00     0.047 A 
BRANCH  15  18
ATOM     18  O   UNL     1    -106.875 194.594  50.715  1.00  0.00    -0.508 OA
ATOM     19  H   UNL     1    -106.307 195.281  51.198  1.00  0.00     0.293 HD
ENDBRANCH  15  18
ENDBRANCH   1  12
BRANCH   2  20
ATOM     20  O   UNL     1    -107.627 188.778  53.024  1.00  0.00    -0.502 OA
ATOM     21  H   UNL     1    -107.784 188.459  53.972  1.00  0.00     0.293 HD
ENDBRANCH   2  20
BRANCH   6  22
ATOM     22  O   UNL     1    -105.714 183.900  52.063  1.00  0.00    -0.507 OA
ATOM     23  H   UNL     1    -106.030 183.040  51.642  1.00  0.00     0.293 HD
ENDBRANCH   6  22
BRANCH   8  24
ATOM     24  O   UNL     1    -102.128 184.981  49.058  1.00  0.00    -0.508 OA
ATOM     25  H   UNL     1    -102.068 185.200  48.070  1.00  0.00     0.293 HD
ENDBRANCH   8  24
TORSDOF 5
ENDMDL
