MODEL 1
REMARK VINA RESULT:    -5.100      0.000      0.000
REMARK INTER + INTRA:         -16.939
REMARK INTER:                 -12.851
REMARK INTRA:                  -4.088
REMARK UNBOUND:                -4.088
REMARK SMILES CCCCCCCCCCCCCCCCCCCCCCCCCCCC(=O)[O-]
REMARK SMILES IDX 15 1 16 2 17 3 18 4 19 5 20 6 21 7 22 8 23 9 24 10 25 11
REMARK SMILES IDX 26 12 27 13 28 14 29 15 30 16 14 17 13 18 12 19 11 20 10 21
REMARK SMILES IDX 9 22 8 23 7 24 6 25 5 26 4 27 3 28 2 29 1 30
REMARK H PARENT
REMARK Flexibility Score: inf
ROOT
ATOM      1  C   UNL     1      60.144  28.112  12.569  1.00  0.00     0.000 C 
ENDROOT
BRANCH   1   2
ATOM      2  C   UNL     1      60.947  28.680  13.752  1.00  0.00     0.000 C 
BRANCH   2   3
ATOM      3  C   UNL     1      62.401  29.002  13.373  1.00  0.00     0.000 C 
BRANCH   3   4
ATOM      4  C   UNL     1      62.776  30.464  13.666  1.00  0.00     0.000 C 
BRANCH   4   5
ATOM      5  C   UNL     1      62.333  31.426  12.548  1.00  0.00     0.000 C 
BRANCH   5   6
ATOM      6  C   UNL     1      61.417  32.576  13.010  1.00  0.00     0.000 C 
BRANCH   6   7
ATOM      7  C   UNL     1      60.165  32.143  13.801  1.00  0.00     0.000 C 
BRANCH   7   8
ATOM      8  C   UNL     1      60.159  32.540  15.288  1.00  0.00     0.000 C 
BRANCH   8   9
ATOM      9  C   UNL     1      60.811  33.910  15.545  1.00  0.00     0.000 C 
BRANCH   9  10
ATOM     10  C   UNL     1      61.790  33.890  16.733  1.00  0.00     0.000 C 
BRANCH  10  11
ATOM     11  C   UNL     1      61.243  34.482  18.049  1.00  0.00     0.000 C 
BRANCH  11  12
ATOM     12  C   UNL     1      61.675  33.737  19.324  1.00  0.00     0.006 C 
BRANCH  12  13
ATOM     13  C   UNL     1      63.194  33.531  19.403  1.00  0.00     0.053 C 
BRANCH  13  14
ATOM     14  C   UNL     1      63.757  34.216  20.609  1.00  0.00     0.041 C 
ATOM     15  O   UNL     1      64.407  35.287  20.484  1.00  0.00    -0.550 OA
ATOM     16  O   UNL     1      63.553  33.679  21.874  1.00  0.00    -0.550 OA
ENDBRANCH  13  14
ENDBRANCH  12  13
ENDBRANCH  11  12
ENDBRANCH  10  11
ENDBRANCH   9  10
ENDBRANCH   8   9
ENDBRANCH   7   8
ENDBRANCH   6   7
ENDBRANCH   5   6
ENDBRANCH   4   5
ENDBRANCH   3   4
ENDBRANCH   2   3
ENDBRANCH   1   2
BRANCH   1  17
ATOM     17  C   UNL     1      59.630  29.204  11.616  1.00  0.00     0.000 C 
BRANCH  17  18
ATOM     18  C   UNL     1      59.910  28.955  10.121  1.00  0.00     0.000 C 
BRANCH  18  19
ATOM     19  C   UNL     1      61.313  28.382   9.832  1.00  0.00     0.000 C 
BRANCH  19  20
ATOM     20  C   UNL     1      62.320  29.470   9.419  1.00  0.00     0.000 C 
BRANCH  20  21
ATOM     21  C   UNL     1      63.773  28.959   9.435  1.00  0.00     0.000 C 
BRANCH  21  22
ATOM     22  C   UNL     1      64.806  30.011   8.989  1.00  0.00    -0.000 C 
BRANCH  22  23
ATOM     23  C   UNL     1      64.423  31.431   9.431  1.00  0.00    -0.000 C 
BRANCH  23  24
ATOM     24  C   UNL     1      65.583  32.109  10.176  1.00  0.00    -0.000 C 
BRANCH  24  25
ATOM     25  C   UNL     1      65.115  32.901  11.408  1.00  0.00    -0.000 C 
BRANCH  25  26
ATOM     26  C   UNL     1      66.065  34.051  11.773  1.00  0.00    -0.000 C 
BRANCH  26  27
ATOM     27  C   UNL     1      66.144  34.234  13.294  1.00  0.00    -0.000 C 
BRANCH  27  28
ATOM     28  C   UNL     1      64.846  33.776  13.975  1.00  0.00    -0.000 C 
BRANCH  28  29
ATOM     29  C   UNL     1      65.068  33.319  15.425  1.00  0.00    -0.003 C 
ATOM     30  C   UNL     1      65.435  31.840  15.532  1.00  0.00     0.004 C 
ENDBRANCH  28  29
ENDBRANCH  27  28
ENDBRANCH  26  27
ENDBRANCH  25  26
ENDBRANCH  24  25
ENDBRANCH  23  24
ENDBRANCH  22  23
ENDBRANCH  21  22
ENDBRANCH  20  21
ENDBRANCH  19  20
ENDBRANCH  18  19
ENDBRANCH  17  18
ENDBRANCH   1  17
TORSDOF 26
ENDMDL
MODEL 2
REMARK VINA RESULT:    -4.608      1.433      3.294
REMARK INTER + INTRA:         -15.699
REMARK INTER:                 -11.079
REMARK INTRA:                  -4.619
REMARK UNBOUND:                -4.088
REMARK SMILES CCCCCCCCCCCCCCCCCCCCCCCCCCCC(=O)[O-]
REMARK SMILES IDX 15 1 16 2 17 3 18 4 19 5 20 6 21 7 22 8 23 9 24 10 25 11
REMARK SMILES IDX 26 12 27 13 28 14 29 15 30 16 14 17 13 18 12 19 11 20 10 21
REMARK SMILES IDX 9 22 8 23 7 24 6 25 5 26 4 27 3 28 2 29 1 30
REMARK H PARENT
REMARK Flexibility Score: inf
ROOT
ATOM      1  C   UNL     1      60.078  29.490  12.559  1.00  0.00     0.000 C 
ENDROOT
BRANCH   1   2
ATOM      2  C   UNL     1      60.971  28.518  13.349  1.00  0.00     0.000 C 
BRANCH   2   3
ATOM      3  C   UNL     1      62.466  28.736  13.068  1.00  0.00     0.000 C 
BRANCH   3   4
ATOM      4  C   UNL     1      63.172  29.505  14.199  1.00  0.00     0.000 C 
BRANCH   4   5
ATOM      5  C   UNL     1      64.706  29.409  14.113  1.00  0.00     0.000 C 
BRANCH   5   6
ATOM      6  C   UNL     1      65.462  30.137  15.242  1.00  0.00     0.000 C 
BRANCH   6   7
ATOM      7  C   UNL     1      65.292  31.669  15.268  1.00  0.00     0.000 C 
BRANCH   7   8
ATOM      8  C   UNL     1      66.298  32.426  16.155  1.00  0.00     0.000 C 
BRANCH   8   9
ATOM      9  C   UNL     1      66.741  33.767  15.545  1.00  0.00     0.000 C 
BRANCH   9  10
ATOM     10  C   UNL     1      65.695  34.882  15.733  1.00  0.00     0.000 C 
BRANCH  10  11
ATOM     11  C   UNL     1      65.047  34.950  17.131  1.00  0.00     0.000 C 
BRANCH  11  12
ATOM     12  C   UNL     1      63.537  34.653  17.161  1.00  0.00     0.006 C 
BRANCH  12  13
ATOM     13  C   UNL     1      63.195  33.405  17.988  1.00  0.00     0.053 C 
BRANCH  13  14
ATOM     14  C   UNL     1      62.400  33.778  19.199  1.00  0.00     0.041 C 
ATOM     15  O   UNL     1      62.981  34.024  20.288  1.00  0.00    -0.550 OA
ATOM     16  O   UNL     1      61.015  33.866  19.124  1.00  0.00    -0.550 OA
ENDBRANCH  13  14
ENDBRANCH  12  13
ENDBRANCH  11  12
ENDBRANCH  10  11
ENDBRANCH   9  10
ENDBRANCH   8   9
ENDBRANCH   7   8
ENDBRANCH   6   7
ENDBRANCH   5   6
ENDBRANCH   4   5
ENDBRANCH   3   4
ENDBRANCH   2   3
ENDBRANCH   1   2
BRANCH   1  17
ATOM     17  C   UNL     1      59.373  28.821  11.366  1.00  0.00     0.000 C 
BRANCH  17  18
ATOM     18  C   UNL     1      59.915  29.217   9.978  1.00  0.00     0.000 C 
BRANCH  18  19
ATOM     19  C   UNL     1      61.212  28.484   9.579  1.00  0.00     0.000 C 
BRANCH  19  20
ATOM     20  C   UNL     1      62.253  29.429   8.953  1.00  0.00     0.000 C 
BRANCH  20  21
ATOM     21  C   UNL     1      63.697  29.022   9.300  1.00  0.00     0.000 C 
BRANCH  21  22
ATOM     22  C   UNL     1      64.550  30.175   9.860  1.00  0.00    -0.000 C 
BRANCH  22  23
ATOM     23  C   UNL     1      63.742  31.110  10.773  1.00  0.00    -0.000 C 
BRANCH  23  24
ATOM     24  C   UNL     1      64.641  32.193  11.388  1.00  0.00    -0.000 C 
BRANCH  24  25
ATOM     25  C   UNL     1      64.034  32.819  12.655  1.00  0.00    -0.000 C 
BRANCH  25  26
ATOM     26  C   UNL     1      62.556  32.454  12.850  1.00  0.00    -0.000 C 
BRANCH  26  27
ATOM     27  C   UNL     1      62.013  33.048  14.155  1.00  0.00    -0.000 C 
BRANCH  27  28
ATOM     28  C   UNL     1      60.479  33.116  14.137  1.00  0.00    -0.000 C 
BRANCH  28  29
ATOM     29  C   UNL     1      59.830  32.062  15.047  1.00  0.00    -0.003 C 
ATOM     30  C   UNL     1      60.826  31.411  16.006  1.00  0.00     0.004 C 
ENDBRANCH  28  29
ENDBRANCH  27  28
ENDBRANCH  26  27
ENDBRANCH  25  26
ENDBRANCH  24  25
ENDBRANCH  23  24
ENDBRANCH  22  23
ENDBRANCH  21  22
ENDBRANCH  20  21
ENDBRANCH  19  20
ENDBRANCH  18  19
ENDBRANCH  17  18
ENDBRANCH   1  17
TORSDOF 26
ENDMDL
MODEL 3
REMARK VINA RESULT:    -4.504      6.377     12.239
REMARK INTER + INTRA:         -15.438
REMARK INTER:                 -12.538
REMARK INTRA:                  -2.900
REMARK UNBOUND:                -4.088
REMARK SMILES CCCCCCCCCCCCCCCCCCCCCCCCCCCC(=O)[O-]
REMARK SMILES IDX 15 1 16 2 17 3 18 4 19 5 20 6 21 7 22 8 23 9 24 10 25 11
REMARK SMILES IDX 26 12 27 13 28 14 29 15 30 16 14 17 13 18 12 19 11 20 10 21
REMARK SMILES IDX 9 22 8 23 7 24 6 25 5 26 4 27 3 28 2 29 1 30
REMARK H PARENT
REMARK Flexibility Score: inf
ROOT
ATOM      1  C   UNL     1      64.149  32.044  23.510  1.00  0.00     0.000 C 
ENDROOT
BRANCH   1   2
ATOM      2  C   UNL     1      64.618  32.963  22.369  1.00  0.00     0.000 C 
BRANCH   2   3
ATOM      3  C   UNL     1      63.474  33.810  21.790  1.00  0.00     0.000 C 
BRANCH   3   4
ATOM      4  C   UNL     1      63.491  33.852  20.252  1.00  0.00     0.000 C 
BRANCH   4   5
ATOM      5  C   UNL     1      62.078  33.836  19.642  1.00  0.00     0.000 C 
BRANCH   5   6
ATOM      6  C   UNL     1      62.040  33.761  18.103  1.00  0.00     0.000 C 
BRANCH   6   7
ATOM      7  C   UNL     1      63.408  33.884  17.403  1.00  0.00     0.000 C 
BRANCH   7   8
ATOM      8  C   UNL     1      63.758  32.735  16.439  1.00  0.00     0.000 C 
BRANCH   8   9
ATOM      9  C   UNL     1      62.529  32.187  15.692  1.00  0.00     0.000 C 
BRANCH   9  10
ATOM     10  C   UNL     1      62.119  33.065  14.495  1.00  0.00     0.000 C 
BRANCH  10  11
ATOM     11  C   UNL     1      60.602  33.292  14.331  1.00  0.00     0.000 C 
BRANCH  11  12
ATOM     12  C   UNL     1      59.762  32.008  14.220  1.00  0.00     0.006 C 
BRANCH  12  13
ATOM     13  C   UNL     1      59.951  31.290  12.876  1.00  0.00     0.053 C 
BRANCH  13  14
ATOM     14  C   UNL     1      60.197  29.829  13.089  1.00  0.00     0.041 C 
ATOM     15  O   UNL     1      59.655  28.979  12.336  1.00  0.00    -0.550 OA
ATOM     16  O   UNL     1      61.036  29.406  14.113  1.00  0.00    -0.550 OA
ENDBRANCH  13  14
ENDBRANCH  12  13
ENDBRANCH  11  12
ENDBRANCH  10  11
ENDBRANCH   9  10
ENDBRANCH   8   9
ENDBRANCH   7   8
ENDBRANCH   6   7
ENDBRANCH   5   6
ENDBRANCH   4   5
ENDBRANCH   3   4
ENDBRANCH   2   3
ENDBRANCH   1   2
BRANCH   1  17
ATOM     17  C   UNL     1      65.043  30.805  23.686  1.00  0.00     0.000 C 
BRANCH  17  18
ATOM     18  C   UNL     1      65.001  30.159  25.085  1.00  0.00     0.000 C 
BRANCH  18  19
ATOM     19  C   UNL     1      63.715  30.467  25.880  1.00  0.00     0.000 C 
BRANCH  19  20
ATOM     20  C   UNL     1      63.950  30.471  27.401  1.00  0.00     0.000 C 
BRANCH  20  21
ATOM     21  C   UNL     1      62.635  30.374  28.197  1.00  0.00     0.000 C 
BRANCH  21  22
ATOM     22  C   UNL     1      62.358  28.973  28.772  1.00  0.00    -0.000 C 
BRANCH  22  23
ATOM     23  C   UNL     1      61.064  28.358  28.216  1.00  0.00    -0.000 C 
BRANCH  23  24
ATOM     24  C   UNL     1      61.373  27.218  27.234  1.00  0.00    -0.000 C 
BRANCH  24  25
ATOM     25  C   UNL     1      61.308  27.667  25.765  1.00  0.00    -0.000 C 
BRANCH  25  26
ATOM     26  C   UNL     1      62.446  27.084  24.914  1.00  0.00    -0.000 C 
BRANCH  26  27
ATOM     27  C   UNL     1      63.646  26.705  25.791  1.00  0.00    -0.000 C 
BRANCH  27  28
ATOM     28  C   UNL     1      64.891  26.426  24.937  1.00  0.00    -0.000 C 
BRANCH  28  29
ATOM     29  C   UNL     1      64.698  26.818  23.464  1.00  0.00    -0.003 C 
ATOM     30  C   UNL     1      66.018  27.104  22.749  1.00  0.00     0.004 C 
ENDBRANCH  28  29
ENDBRANCH  27  28
ENDBRANCH  26  27
ENDBRANCH  25  26
ENDBRANCH  24  25
ENDBRANCH  23  24
ENDBRANCH  22  23
ENDBRANCH  21  22
ENDBRANCH  20  21
ENDBRANCH  19  20
ENDBRANCH  18  19
ENDBRANCH  17  18
ENDBRANCH   1  17
TORSDOF 26
ENDMDL
MODEL 4
REMARK VINA RESULT:    -4.450      5.724     11.392
REMARK INTER + INTRA:         -15.301
REMARK INTER:                 -11.949
REMARK INTRA:                  -3.352
REMARK UNBOUND:                -4.088
REMARK SMILES CCCCCCCCCCCCCCCCCCCCCCCCCCCC(=O)[O-]
REMARK SMILES IDX 15 1 16 2 17 3 18 4 19 5 20 6 21 7 22 8 23 9 24 10 25 11
REMARK SMILES IDX 26 12 27 13 28 14 29 15 30 16 14 17 13 18 12 19 11 20 10 21
REMARK SMILES IDX 9 22 8 23 7 24 6 25 5 26 4 27 3 28 2 29 1 30
REMARK H PARENT
REMARK Flexibility Score: inf
ROOT
ATOM      1  C   UNL     1      66.042  32.664  22.318  1.00  0.00     0.000 C 
ENDROOT
BRANCH   1   2
ATOM      2  C   UNL     1      64.559  32.649  22.724  1.00  0.00     0.000 C 
BRANCH   2   3
ATOM      3  C   UNL     1      63.730  33.691  21.955  1.00  0.00     0.000 C 
BRANCH   3   4
ATOM      4  C   UNL     1      64.510  34.317  20.787  1.00  0.00     0.000 C 
BRANCH   4   5
ATOM      5  C   UNL     1      63.986  33.862  19.412  1.00  0.00     0.000 C 
BRANCH   5   6
ATOM      6  C   UNL     1      62.455  33.718  19.320  1.00  0.00     0.000 C 
BRANCH   6   7
ATOM      7  C   UNL     1      61.825  34.211  18.001  1.00  0.00     0.000 C 
BRANCH   7   8
ATOM      8  C   UNL     1      61.480  33.108  16.985  1.00  0.00     0.000 C 
BRANCH   8   9
ATOM      9  C   UNL     1      61.789  33.514  15.534  1.00  0.00     0.000 C 
BRANCH   9  10
ATOM     10  C   UNL     1      62.934  32.690  14.915  1.00  0.00     0.000 C 
BRANCH  10  11
ATOM     11  C   UNL     1      62.935  31.190  15.272  1.00  0.00     0.000 C 
BRANCH  11  12
ATOM     12  C   UNL     1      61.907  30.340  14.505  1.00  0.00     0.006 C 
BRANCH  12  13
ATOM     13  C   UNL     1      61.834  30.701  13.014  1.00  0.00     0.053 C 
BRANCH  13  14
ATOM     14  C   UNL     1      60.409  30.814  12.569  1.00  0.00     0.041 C 
ATOM     15  O   UNL     1      59.683  31.748  12.998  1.00  0.00    -0.550 OA
ATOM     16  O   UNL     1      59.886  29.894  11.670  1.00  0.00    -0.550 OA
ENDBRANCH  13  14
ENDBRANCH  12  13
ENDBRANCH  11  12
ENDBRANCH  10  11
ENDBRANCH   9  10
ENDBRANCH   8   9
ENDBRANCH   7   8
ENDBRANCH   6   7
ENDBRANCH   5   6
ENDBRANCH   4   5
ENDBRANCH   3   4
ENDBRANCH   2   3
ENDBRANCH   1   2
BRANCH   1  17
ATOM     17  C   UNL     1      66.890  31.656  23.113  1.00  0.00     0.000 C 
BRANCH  17  18
ATOM     18  C   UNL     1      66.701  30.179  22.713  1.00  0.00     0.000 C 
BRANCH  18  19
ATOM     19  C   UNL     1      66.908  29.184  23.873  1.00  0.00     0.000 C 
BRANCH  19  20
ATOM     20  C   UNL     1      66.751  29.847  25.253  1.00  0.00     0.000 C 
BRANCH  20  21
ATOM     21  C   UNL     1      65.722  29.120  26.138  1.00  0.00     0.000 C 
BRANCH  21  22
ATOM     22  C   UNL     1      64.580  30.026  26.635  1.00  0.00    -0.000 C 
BRANCH  22  23
ATOM     23  C   UNL     1      63.657  30.482  25.495  1.00  0.00    -0.000 C 
BRANCH  23  24
ATOM     24  C   UNL     1      62.268  29.837  25.618  1.00  0.00    -0.000 C 
BRANCH  24  25
ATOM     25  C   UNL     1      62.044  28.713  24.594  1.00  0.00    -0.000 C 
BRANCH  25  26
ATOM     26  C   UNL     1      63.144  28.652  23.525  1.00  0.00    -0.000 C 
BRANCH  26  27
ATOM     27  C   UNL     1      63.316  27.222  22.997  1.00  0.00    -0.000 C 
BRANCH  27  28
ATOM     28  C   UNL     1      63.673  26.252  24.132  1.00  0.00    -0.000 C 
BRANCH  28  29
ATOM     29  C   UNL     1      65.178  25.946  24.197  1.00  0.00    -0.003 C 
ATOM     30  C   UNL     1      65.804  25.750  22.817  1.00  0.00     0.004 C 
ENDBRANCH  28  29
ENDBRANCH  27  28
ENDBRANCH  26  27
ENDBRANCH  25  26
ENDBRANCH  24  25
ENDBRANCH  23  24
ENDBRANCH  22  23
ENDBRANCH  21  22
ENDBRANCH  20  21
ENDBRANCH  19  20
ENDBRANCH  18  19
ENDBRANCH  17  18
ENDBRANCH   1  17
TORSDOF 26
ENDMDL
MODEL 5
REMARK VINA RESULT:    -4.443      1.433      5.651
REMARK INTER + INTRA:         -15.284
REMARK INTER:                 -10.707
REMARK INTRA:                  -4.577
REMARK UNBOUND:                -4.088
REMARK SMILES CCCCCCCCCCCCCCCCCCCCCCCCCCCC(=O)[O-]
REMARK SMILES IDX 15 1 16 2 17 3 18 4 19 5 20 6 21 7 22 8 23 9 24 10 25 11
REMARK SMILES IDX 26 12 27 13 28 14 29 15 30 16 14 17 13 18 12 19 11 20 10 21
REMARK SMILES IDX 9 22 8 23 7 24 6 25 5 26 4 27 3 28 2 29 1 30
REMARK H PARENT
REMARK Flexibility Score: inf
ROOT
ATOM      1  C   UNL     1      65.303  32.672  16.578  1.00  0.00     0.000 C 
ENDROOT
BRANCH   1   2
ATOM      2  C   UNL     1      66.271  33.860  16.442  1.00  0.00     0.000 C 
BRANCH   2   3
ATOM      3  C   UNL     1      66.759  34.056  14.998  1.00  0.00     0.000 C 
BRANCH   3   4
ATOM      4  C   UNL     1      66.165  35.313  14.340  1.00  0.00     0.000 C 
BRANCH   4   5
ATOM      5  C   UNL     1      65.667  35.053  12.906  1.00  0.00     0.000 C 
BRANCH   5   6
ATOM      6  C   UNL     1      65.753  33.584  12.449  1.00  0.00     0.000 C 
BRANCH   6   7
ATOM      7  C   UNL     1      64.398  32.867  12.277  1.00  0.00     0.000 C 
BRANCH   7   8
ATOM      8  C   UNL     1      63.340  33.200  13.344  1.00  0.00     0.000 C 
BRANCH   8   9
ATOM      9  C   UNL     1      61.965  32.581  13.036  1.00  0.00     0.000 C 
BRANCH   9  10
ATOM     10  C   UNL     1      60.834  33.190  13.886  1.00  0.00     0.000 C 
BRANCH  10  11
ATOM     11  C   UNL     1      60.339  32.311  15.052  1.00  0.00     0.000 C 
BRANCH  11  12
ATOM     12  C   UNL     1      61.028  32.576  16.402  1.00  0.00     0.006 C 
BRANCH  12  13
ATOM     13  C   UNL     1      61.506  34.027  16.549  1.00  0.00     0.053 C 
BRANCH  13  14
ATOM     14  C   UNL     1      62.222  34.218  17.849  1.00  0.00     0.041 C 
ATOM     15  O   UNL     1      63.066  35.142  17.978  1.00  0.00    -0.550 OA
ATOM     16  O   UNL     1      61.947  33.382  18.924  1.00  0.00    -0.550 OA
ENDBRANCH  13  14
ENDBRANCH  12  13
ENDBRANCH  11  12
ENDBRANCH  10  11
ENDBRANCH   9  10
ENDBRANCH   8   9
ENDBRANCH   7   8
ENDBRANCH   6   7
ENDBRANCH   5   6
ENDBRANCH   4   5
ENDBRANCH   3   4
ENDBRANCH   2   3
ENDBRANCH   1   2
BRANCH   1  17
ATOM     17  C   UNL     1      65.624  31.524  15.606  1.00  0.00     0.000 C 
BRANCH  17  18
ATOM     18  C   UNL     1      64.414  30.673  15.173  1.00  0.00     0.000 C 
BRANCH  18  19
ATOM     19  C   UNL     1      64.750  29.591  14.126  1.00  0.00     0.000 C 
BRANCH  19  20
ATOM     20  C   UNL     1      63.562  29.279  13.199  1.00  0.00     0.000 C 
BRANCH  20  21
ATOM     21  C   UNL     1      62.205  29.532  13.883  1.00  0.00     0.000 C 
BRANCH  21  22
ATOM     22  C   UNL     1      61.127  28.491  13.528  1.00  0.00    -0.000 C 
BRANCH  22  23
ATOM     23  C   UNL     1      59.916  29.121  12.823  1.00  0.00    -0.000 C 
BRANCH  23  24
ATOM     24  C   UNL     1      60.357  29.984  11.632  1.00  0.00    -0.000 C 
BRANCH  24  25
ATOM     25  C   UNL     1      59.957  29.375  10.278  1.00  0.00    -0.000 C 
BRANCH  25  26
ATOM     26  C   UNL     1      60.908  28.259   9.822  1.00  0.00    -0.000 C 
BRANCH  26  27
ATOM     27  C   UNL     1      61.989  28.812   8.885  1.00  0.00    -0.000 C 
BRANCH  27  28
ATOM     28  C   UNL     1      63.304  29.056   9.640  1.00  0.00    -0.000 C 
BRANCH  28  29
ATOM     29  C   UNL     1      63.836  30.486   9.456  1.00  0.00    -0.003 C 
ATOM     30  C   UNL     1      65.326  30.526   9.118  1.00  0.00     0.004 C 
ENDBRANCH  28  29
ENDBRANCH  27  28
ENDBRANCH  26  27
ENDBRANCH  25  26
ENDBRANCH  24  25
ENDBRANCH  23  24
ENDBRANCH  22  23
ENDBRANCH  21  22
ENDBRANCH  20  21
ENDBRANCH  19  20
ENDBRANCH  18  19
ENDBRANCH  17  18
ENDBRANCH   1  17
TORSDOF 26
ENDMDL
MODEL 6
REMARK VINA RESULT:    -4.418      4.409      7.927
REMARK INTER + INTRA:         -15.222
REMARK INTER:                 -12.666
REMARK INTRA:                  -2.556
REMARK UNBOUND:                -4.088
REMARK SMILES CCCCCCCCCCCCCCCCCCCCCCCCCCCC(=O)[O-]
REMARK SMILES IDX 15 1 16 2 17 3 18 4 19 5 20 6 21 7 22 8 23 9 24 10 25 11
REMARK SMILES IDX 26 12 27 13 28 14 29 15 30 16 14 17 13 18 12 19 11 20 10 21
REMARK SMILES IDX 9 22 8 23 7 24 6 25 5 26 4 27 3 28 2 29 1 30
REMARK H PARENT
REMARK Flexibility Score: inf
ROOT
ATOM      1  C   UNL     1      61.631  34.446  17.928  1.00  0.00     0.000 C 
ENDROOT
BRANCH   1   2
ATOM      2  C   UNL     1      62.277  33.528  18.979  1.00  0.00     0.000 C 
BRANCH   2   3
ATOM      3  C   UNL     1      63.788  33.772  19.122  1.00  0.00     0.000 C 
BRANCH   3   4
ATOM      4  C   UNL     1      64.157  34.404  20.474  1.00  0.00     0.000 C 
BRANCH   4   5
ATOM      5  C   UNL     1      63.597  33.614  21.671  1.00  0.00     0.000 C 
BRANCH   5   6
ATOM      6  C   UNL     1      64.661  32.911  22.536  1.00  0.00     0.000 C 
BRANCH   6   7
ATOM      7  C   UNL     1      64.110  31.927  23.588  1.00  0.00     0.000 C 
BRANCH   7   8
ATOM      8  C   UNL     1      65.072  30.796  23.996  1.00  0.00     0.000 C 
BRANCH   8   9
ATOM      9  C   UNL     1      64.338  29.523  24.453  1.00  0.00     0.000 C 
BRANCH   9  10
ATOM     10  C   UNL     1      62.856  29.776  24.785  1.00  0.00     0.000 C 
BRANCH  10  11
ATOM     11  C   UNL     1      61.921  28.564  24.600  1.00  0.00     0.000 C 
BRANCH  11  12
ATOM     12  C   UNL     1      60.857  28.391  25.699  1.00  0.00     0.006 C 
BRANCH  12  13
ATOM     13  C   UNL     1      61.389  27.636  26.925  1.00  0.00     0.053 C 
BRANCH  13  14
ATOM     14  C   UNL     1      61.628  28.580  28.062  1.00  0.00     0.041 C 
ATOM     15  O   UNL     1      60.677  28.923  28.811  1.00  0.00    -0.550 OA
ATOM     16  O   UNL     1      62.905  29.072  28.302  1.00  0.00    -0.550 OA
ENDBRANCH  13  14
ENDBRANCH  12  13
ENDBRANCH  11  12
ENDBRANCH  10  11
ENDBRANCH   9  10
ENDBRANCH   8   9
ENDBRANCH   7   8
ENDBRANCH   6   7
ENDBRANCH   5   6
ENDBRANCH   4   5
ENDBRANCH   3   4
ENDBRANCH   2   3
ENDBRANCH   1   2
BRANCH   1  17
ATOM     17  C   UNL     1      61.708  33.872  16.503  1.00  0.00     0.000 C 
BRANCH  17  18
ATOM     18  C   UNL     1      61.602  32.337  16.408  1.00  0.00     0.000 C 
BRANCH  18  19
ATOM     19  C   UNL     1      61.230  31.820  15.002  1.00  0.00     0.000 C 
BRANCH  19  20
ATOM     20  C   UNL     1      61.799  32.705  13.880  1.00  0.00     0.000 C 
BRANCH  20  21
ATOM     21  C   UNL     1      62.707  31.918  12.917  1.00  0.00     0.000 C 
BRANCH  21  22
ATOM     22  C   UNL     1      63.439  30.737  13.579  1.00  0.00    -0.000 C 
BRANCH  22  23
ATOM     23  C   UNL     1      63.697  29.583  12.597  1.00  0.00    -0.000 C 
BRANCH  23  24
ATOM     24  C   UNL     1      63.631  30.072  11.143  1.00  0.00    -0.000 C 
BRANCH  24  25
ATOM     25  C   UNL     1      62.957  29.056  10.206  1.00  0.00    -0.000 C 
BRANCH  25  26
ATOM     26  C   UNL     1      61.650  29.583   9.598  1.00  0.00    -0.000 C 
BRANCH  26  27
ATOM     27  C   UNL     1      60.433  28.979  10.311  1.00  0.00    -0.000 C 
BRANCH  27  28
ATOM     28  C   UNL     1      59.963  29.879  11.463  1.00  0.00    -0.000 C 
BRANCH  28  29
ATOM     29  C   UNL     1      59.519  29.077  12.697  1.00  0.00    -0.003 C 
ATOM     30  C   UNL     1      60.614  28.153  13.229  1.00  0.00     0.004 C 
ENDBRANCH  28  29
ENDBRANCH  27  28
ENDBRANCH  26  27
ENDBRANCH  25  26
ENDBRANCH  24  25
ENDBRANCH  23  24
ENDBRANCH  22  23
ENDBRANCH  21  22
ENDBRANCH  20  21
ENDBRANCH  19  20
ENDBRANCH  18  19
ENDBRANCH  17  18
ENDBRANCH   1  17
TORSDOF 26
ENDMDL
MODEL 7
REMARK VINA RESULT:    -4.375      2.431      5.669
REMARK INTER + INTRA:         -15.112
REMARK INTER:                 -10.487
REMARK INTRA:                  -4.625
REMARK UNBOUND:                -4.088
REMARK SMILES CCCCCCCCCCCCCCCCCCCCCCCCCCCC(=O)[O-]
REMARK SMILES IDX 15 1 16 2 17 3 18 4 19 5 20 6 21 7 22 8 23 9 24 10 25 11
REMARK SMILES IDX 26 12 27 13 28 14 29 15 30 16 14 17 13 18 12 19 11 20 10 21
REMARK SMILES IDX 9 22 8 23 7 24 6 25 5 26 4 27 3 28 2 29 1 30
REMARK H PARENT
REMARK Flexibility Score: inf
ROOT
ATOM      1  C   UNL     1      60.704  28.781  13.624  1.00  0.00     0.000 C 
ENDROOT
BRANCH   1   2
ATOM      2  C   UNL     1      59.856  28.667  12.346  1.00  0.00     0.000 C 
BRANCH   2   3
ATOM      3  C   UNL     1      60.212  29.743  11.308  1.00  0.00     0.000 C 
BRANCH   3   4
ATOM      4  C   UNL     1      59.825  29.332   9.877  1.00  0.00     0.000 C 
BRANCH   4   5
ATOM      5  C   UNL     1      61.021  29.365   8.907  1.00  0.00     0.000 C 
BRANCH   5   6
ATOM      6  C   UNL     1      62.390  29.090   9.559  1.00  0.00     0.000 C 
BRANCH   6   7
ATOM      7  C   UNL     1      63.392  30.261   9.506  1.00  0.00     0.000 C 
BRANCH   7   8
ATOM      8  C   UNL     1      64.193  30.499  10.799  1.00  0.00     0.000 C 
BRANCH   8   9
ATOM      9  C   UNL     1      64.730  31.936  10.914  1.00  0.00     0.000 C 
BRANCH   9  10
ATOM     10  C   UNL     1      64.192  32.675  12.154  1.00  0.00     0.000 C 
BRANCH  10  11
ATOM     11  C   UNL     1      62.722  32.376  12.514  1.00  0.00     0.000 C 
BRANCH  11  12
ATOM     12  C   UNL     1      62.324  32.727  13.959  1.00  0.00     0.006 C 
BRANCH  12  13
ATOM     13  C   UNL     1      60.850  33.140  14.083  1.00  0.00     0.053 C 
BRANCH  13  14
ATOM     14  C   UNL     1      60.080  32.117  14.859  1.00  0.00     0.041 C 
ATOM     15  O   UNL     1      60.606  31.544  15.848  1.00  0.00    -0.550 OA
ATOM     16  O   UNL     1      58.776  31.804  14.496  1.00  0.00    -0.550 OA
ENDBRANCH  13  14
ENDBRANCH  12  13
ENDBRANCH  11  12
ENDBRANCH  10  11
ENDBRANCH   9  10
ENDBRANCH   8   9
ENDBRANCH   7   8
ENDBRANCH   6   7
ENDBRANCH   5   6
ENDBRANCH   4   5
ENDBRANCH   3   4
ENDBRANCH   2   3
ENDBRANCH   1   2
BRANCH   1  17
ATOM     17  C   UNL     1      62.216  28.742  13.345  1.00  0.00     0.000 C 
BRANCH  17  18
ATOM     18  C   UNL     1      63.092  29.494  14.367  1.00  0.00     0.000 C 
BRANCH  18  19
ATOM     19  C   UNL     1      64.602  29.447  14.054  1.00  0.00     0.000 C 
BRANCH  19  20
ATOM     20  C   UNL     1      65.457  30.035  15.189  1.00  0.00     0.000 C 
BRANCH  20  21
ATOM     21  C   UNL     1      65.481  31.575  15.167  1.00  0.00     0.000 C 
BRANCH  21  22
ATOM     22  C   UNL     1      66.259  32.202  16.338  1.00  0.00    -0.000 C 
BRANCH  22  23
ATOM     23  C   UNL     1      66.808  33.595  15.997  1.00  0.00    -0.000 C 
BRANCH  23  24
ATOM     24  C   UNL     1      65.850  34.354  15.067  1.00  0.00    -0.000 C 
BRANCH  24  25
ATOM     25  C   UNL     1      64.607  34.884  15.800  1.00  0.00    -0.000 C 
BRANCH  25  26
ATOM     26  C   UNL     1      64.912  35.342  17.233  1.00  0.00    -0.000 C 
BRANCH  26  27
ATOM     27  C   UNL     1      63.972  34.662  18.237  1.00  0.00    -0.000 C 
BRANCH  27  28
ATOM     28  C   UNL     1      62.972  33.741  17.523  1.00  0.00    -0.000 C 
BRANCH  28  29
ATOM     29  C   UNL     1      61.510  34.105  17.829  1.00  0.00    -0.003 C 
ATOM     30  C   UNL     1      61.190  34.067  19.323  1.00  0.00     0.004 C 
ENDBRANCH  28  29
ENDBRANCH  27  28
ENDBRANCH  26  27
ENDBRANCH  25  26
ENDBRANCH  24  25
ENDBRANCH  23  24
ENDBRANCH  22  23
ENDBRANCH  21  22
ENDBRANCH  20  21
ENDBRANCH  19  20
ENDBRANCH  18  19
ENDBRANCH  17  18
ENDBRANCH   1  17
TORSDOF 26
ENDMDL
MODEL 8
REMARK VINA RESULT:    -4.372      6.543     11.513
REMARK INTER + INTRA:         -15.105
REMARK INTER:                 -12.061
REMARK INTRA:                  -3.043
REMARK UNBOUND:                -4.088
REMARK SMILES CCCCCCCCCCCCCCCCCCCCCCCCCCCC(=O)[O-]
REMARK SMILES IDX 15 1 16 2 17 3 18 4 19 5 20 6 21 7 22 8 23 9 24 10 25 11
REMARK SMILES IDX 26 12 27 13 28 14 29 15 30 16 14 17 13 18 12 19 11 20 10 21
REMARK SMILES IDX 9 22 8 23 7 24 6 25 5 26 4 27 3 28 2 29 1 30
REMARK H PARENT
REMARK Flexibility Score: inf
ROOT
ATOM      1  C   UNL     1      64.691  30.294  26.706  1.00  0.00     0.000 C 
ENDROOT
BRANCH   1   2
ATOM      2  C   UNL     1      64.244  29.783  28.086  1.00  0.00     0.000 C 
BRANCH   2   3
ATOM      3  C   UNL     1      62.866  30.328  28.496  1.00  0.00     0.000 C 
BRANCH   3   4
ATOM      4  C   UNL     1      61.772  29.247  28.464  1.00  0.00     0.000 C 
BRANCH   4   5
ATOM      5  C   UNL     1      62.346  27.826  28.320  1.00  0.00     0.000 C 
BRANCH   5   6
ATOM      6  C   UNL     1      61.998  27.119  26.996  1.00  0.00     0.000 C 
BRANCH   6   7
ATOM      7  C   UNL     1      60.722  27.628  26.294  1.00  0.00     0.000 C 
BRANCH   7   8
ATOM      8  C   UNL     1      60.936  28.213  24.886  1.00  0.00     0.000 C 
BRANCH   8   9
ATOM      9  C   UNL     1      62.402  28.593  24.613  1.00  0.00     0.000 C 
BRANCH   9  10
ATOM     10  C   UNL     1      62.926  28.023  23.282  1.00  0.00     0.000 C 
BRANCH  10  11
ATOM     11  C   UNL     1      63.550  26.615  23.366  1.00  0.00     0.000 C 
BRANCH  11  12
ATOM     12  C   UNL     1      65.041  26.588  23.746  1.00  0.00     0.006 C 
BRANCH  12  13
ATOM     13  C   UNL     1      65.898  25.825  22.726  1.00  0.00     0.053 C 
BRANCH  13  14
ATOM     14  C   UNL     1      66.300  26.724  21.599  1.00  0.00     0.041 C 
ATOM     15  O   UNL     1      66.518  27.945  21.809  1.00  0.00    -0.550 OA
ATOM     16  O   UNL     1      66.445  26.209  20.316  1.00  0.00    -0.550 OA
ENDBRANCH  13  14
ENDBRANCH  12  13
ENDBRANCH  11  12
ENDBRANCH  10  11
ENDBRANCH   9  10
ENDBRANCH   8   9
ENDBRANCH   7   8
ENDBRANCH   6   7
ENDBRANCH   5   6
ENDBRANCH   4   5
ENDBRANCH   3   4
ENDBRANCH   2   3
ENDBRANCH   1   2
BRANCH   1  17
ATOM     17  C   UNL     1      65.838  29.465  26.104  1.00  0.00     0.000 C 
BRANCH  17  18
ATOM     18  C   UNL     1      66.425  30.015  24.788  1.00  0.00     0.000 C 
BRANCH  18  19
ATOM     19  C   UNL     1      65.399  30.753  23.904  1.00  0.00     0.000 C 
BRANCH  19  20
ATOM     20  C   UNL     1      66.062  31.766  22.954  1.00  0.00     0.000 C 
BRANCH  20  21
ATOM     21  C   UNL     1      65.063  32.811  22.423  1.00  0.00     0.000 C 
BRANCH  21  22
ATOM     22  C   UNL     1      65.541  33.538  21.153  1.00  0.00    -0.000 C 
BRANCH  22  23
ATOM     23  C   UNL     1      64.373  34.076  20.312  1.00  0.00    -0.000 C 
BRANCH  23  24
ATOM     24  C   UNL     1      64.813  34.346  18.865  1.00  0.00    -0.000 C 
BRANCH  24  25
ATOM     25  C   UNL     1      63.650  34.800  17.966  1.00  0.00    -0.000 C 
BRANCH  25  26
ATOM     26  C   UNL     1      62.335  34.073  18.282  1.00  0.00    -0.000 C 
BRANCH  26  27
ATOM     27  C   UNL     1      61.603  33.683  16.992  1.00  0.00    -0.000 C 
BRANCH  27  28
ATOM     28  C   UNL     1      62.573  33.610  15.804  1.00  0.00    -0.000 C 
BRANCH  28  29
ATOM     29  C   UNL     1      61.979  32.862  14.600  1.00  0.00    -0.003 C 
ATOM     30  C   UNL     1      60.538  33.271  14.300  1.00  0.00     0.004 C 
ENDBRANCH  28  29
ENDBRANCH  27  28
ENDBRANCH  26  27
ENDBRANCH  25  26
ENDBRANCH  24  25
ENDBRANCH  23  24
ENDBRANCH  22  23
ENDBRANCH  21  22
ENDBRANCH  20  21
ENDBRANCH  19  20
ENDBRANCH  18  19
ENDBRANCH  17  18
ENDBRANCH   1  17
TORSDOF 26
ENDMDL
MODEL 9
REMARK VINA RESULT:    -4.343      6.248     12.146
REMARK INTER + INTRA:         -15.032
REMARK INTER:                 -12.613
REMARK INTRA:                  -2.418
REMARK UNBOUND:                -4.088
REMARK SMILES CCCCCCCCCCCCCCCCCCCCCCCCCCCC(=O)[O-]
REMARK SMILES IDX 15 1 16 2 17 3 18 4 19 5 20 6 21 7 22 8 23 9 24 10 25 11
REMARK SMILES IDX 26 12 27 13 28 14 29 15 30 16 14 17 13 18 12 19 11 20 10 21
REMARK SMILES IDX 9 22 8 23 7 24 6 25 5 26 4 27 3 28 2 29 1 30
REMARK H PARENT
REMARK Flexibility Score: inf
ROOT
ATOM      1  C   UNL     1      64.658  32.772  22.234  1.00  0.00     0.000 C 
ENDROOT
BRANCH   1   2
ATOM      2  C   UNL     1      63.804  33.858  21.558  1.00  0.00     0.000 C 
BRANCH   2   3
ATOM      3  C   UNL     1      64.395  34.317  20.215  1.00  0.00     0.000 C 
BRANCH   3   4
ATOM      4  C   UNL     1      63.661  33.707  19.009  1.00  0.00     0.000 C 
BRANCH   4   5
ATOM      5  C   UNL     1      62.132  33.866  19.102  1.00  0.00     0.000 C 
BRANCH   5   6
ATOM      6  C   UNL     1      61.451  34.333  17.801  1.00  0.00     0.000 C 
BRANCH   6   7
ATOM      7  C   UNL     1      61.983  33.681  16.508  1.00  0.00     0.000 C 
BRANCH   7   8
ATOM      8  C   UNL     1      60.916  33.005  15.627  1.00  0.00     0.000 C 
BRANCH   8   9
ATOM      9  C   UNL     1      61.225  33.116  14.124  1.00  0.00     0.000 C 
BRANCH   9  10
ATOM     10  C   UNL     1      61.245  31.748  13.418  1.00  0.00     0.000 C 
BRANCH  10  11
ATOM     11  C   UNL     1      61.181  30.522  14.352  1.00  0.00     0.000 C 
BRANCH  11  12
ATOM     12  C   UNL     1      61.690  29.207  13.733  1.00  0.00     0.006 C 
BRANCH  12  13
ATOM     13  C   UNL     1      60.594  28.448  12.972  1.00  0.00     0.053 C 
BRANCH  13  14
ATOM     14  C   UNL     1      60.734  28.658  11.497  1.00  0.00     0.041 C 
ATOM     15  O   UNL     1      61.854  28.516  10.941  1.00  0.00    -0.550 OA
ATOM     16  O   UNL     1      59.624  28.997  10.733  1.00  0.00    -0.550 OA
ENDBRANCH  13  14
ENDBRANCH  12  13
ENDBRANCH  11  12
ENDBRANCH  10  11
ENDBRANCH   9  10
ENDBRANCH   8   9
ENDBRANCH   7   8
ENDBRANCH   6   7
ENDBRANCH   5   6
ENDBRANCH   4   5
ENDBRANCH   3   4
ENDBRANCH   2   3
ENDBRANCH   1   2
BRANCH   1  17
ATOM     17  C   UNL     1      64.088  32.318  23.588  1.00  0.00     0.000 C 
BRANCH  17  18
ATOM     18  C   UNL     1      64.128  30.798  23.842  1.00  0.00     0.000 C 
BRANCH  18  19
ATOM     19  C   UNL     1      65.490  30.283  24.351  1.00  0.00     0.000 C 
BRANCH  19  20
ATOM     20  C   UNL     1      65.417  29.752  25.794  1.00  0.00     0.000 C 
BRANCH  20  21
ATOM     21  C   UNL     1      64.239  30.357  26.581  1.00  0.00     0.000 C 
BRANCH  21  22
ATOM     22  C   UNL     1      64.221  29.967  28.070  1.00  0.00    -0.000 C 
BRANCH  22  23
ATOM     23  C   UNL     1      62.968  29.162  28.449  1.00  0.00    -0.000 C 
BRANCH  23  24
ATOM     24  C   UNL     1      61.918  29.218  27.330  1.00  0.00    -0.000 C 
BRANCH  24  25
ATOM     25  C   UNL     1      61.151  27.894  27.170  1.00  0.00    -0.000 C 
BRANCH  25  26
ATOM     26  C   UNL     1      60.846  27.557  25.703  1.00  0.00    -0.000 C 
BRANCH  26  27
ATOM     27  C   UNL     1      61.879  28.199  24.768  1.00  0.00    -0.000 C 
BRANCH  27  28
ATOM     28  C   UNL     1      62.747  27.132  24.085  1.00  0.00    -0.000 C 
BRANCH  28  29
ATOM     29  C   UNL     1      63.632  26.364  25.079  1.00  0.00    -0.003 C 
ATOM     30  C   UNL     1      65.109  26.368  24.684  1.00  0.00     0.004 C 
ENDBRANCH  28  29
ENDBRANCH  27  28
ENDBRANCH  26  27
ENDBRANCH  25  26
ENDBRANCH  24  25
ENDBRANCH  23  24
ENDBRANCH  22  23
ENDBRANCH  21  22
ENDBRANCH  20  21
ENDBRANCH  19  20
ENDBRANCH  18  19
ENDBRANCH  17  18
ENDBRANCH   1  17
TORSDOF 26
ENDMDL
