MODEL 1
REMARK VINA RESULT:    -4.399      0.000      0.000
REMARK INTER + INTRA:          -7.436
REMARK INTER:                  -6.970
REMARK INTRA:                  -0.466
REMARK UNBOUND:                -0.466
REMARK SMILES CCCCCCCCCCCC(=O)[O-]
REMARK SMILES IDX 7 1 8 2 9 3 10 4 11 5 12 6 13 7 14 8 6 9 5 10 4 11 3 12 2 13
REMARK SMILES IDX 1 14
REMARK H PARENT
REMARK Flexibility Score: inf
ROOT
ATOM      1  C   UNL     1      45.243  65.506  50.644  1.00  0.00     0.000 C 
ENDROOT
BRANCH   1   2
ATOM      2  C   UNL     1      44.488  66.658  49.952  1.00  0.00     0.000 C 
BRANCH   2   3
ATOM      3  C   UNL     1      44.300  66.503  48.432  1.00  0.00     0.000 C 
BRANCH   3   4
ATOM      4  C   UNL     1      42.833  66.642  47.990  1.00  0.00     0.006 C 
BRANCH   4   5
ATOM      5  C   UNL     1      42.476  65.671  46.854  1.00  0.00     0.053 C 
BRANCH   5   6
ATOM      6  C   UNL     1      41.072  65.163  46.976  1.00  0.00     0.041 C 
ATOM      7  O   UNL     1      40.777  64.011  46.564  1.00  0.00    -0.550 OA
ATOM      8  O   UNL     1      40.096  65.953  47.571  1.00  0.00    -0.550 OA
ENDBRANCH   5   6
ENDBRANCH   4   5
ENDBRANCH   3   4
ENDBRANCH   2   3
ENDBRANCH   1   2
BRANCH   1   9
ATOM      9  C   UNL     1      44.981  65.439  52.157  1.00  0.00     0.000 C 
BRANCH   9  10
ATOM     10  C   UNL     1      43.755  66.264  52.593  1.00  0.00    -0.000 C 
BRANCH  10  11
ATOM     11  C   UNL     1      43.030  65.755  53.852  1.00  0.00    -0.000 C 
BRANCH  11  12
ATOM     12  C   UNL     1      43.538  64.382  54.325  1.00  0.00    -0.000 C 
BRANCH  12  13
ATOM     13  C   UNL     1      43.505  64.238  55.854  1.00  0.00    -0.003 C 
ATOM     14  C   UNL     1      44.281  63.017  56.351  1.00  0.00     0.004 C 
ENDBRANCH  12  13
ENDBRANCH  11  12
ENDBRANCH  10  11
ENDBRANCH   9  10
ENDBRANCH   1   9
TORSDOF 10
ENDMDL
MODEL 2
REMARK VINA RESULT:    -4.308      1.025      1.497
REMARK INTER + INTRA:          -7.293
REMARK INTER:                  -6.882
REMARK INTRA:                  -0.410
REMARK UNBOUND:                -0.466
REMARK SMILES CCCCCCCCCCCC(=O)[O-]
REMARK SMILES IDX 7 1 8 2 9 3 10 4 11 5 12 6 13 7 14 8 6 9 5 10 4 11 3 12 2 13
REMARK SMILES IDX 1 14
REMARK H PARENT
REMARK Flexibility Score: inf
ROOT
ATOM      1  C   UNL     1      45.047  65.392  51.674  1.00  0.00     0.000 C 
ENDROOT
BRANCH   1   2
ATOM      2  C   UNL     1      45.448  65.803  50.244  1.00  0.00     0.000 C 
BRANCH   2   3
ATOM      3  C   UNL     1      44.388  66.604  49.467  1.00  0.00     0.000 C 
BRANCH   3   4
ATOM      4  C   UNL     1      44.341  66.245  47.971  1.00  0.00     0.006 C 
BRANCH   4   5
ATOM      5  C   UNL     1      42.904  66.209  47.429  1.00  0.00     0.053 C 
BRANCH   5   6
ATOM      6  C   UNL     1      42.689  65.053  46.500  1.00  0.00     0.041 C 
ATOM      7  O   UNL     1      43.630  64.643  45.771  1.00  0.00    -0.550 OA
ATOM      8  O   UNL     1      41.456  64.413  46.459  1.00  0.00    -0.550 OA
ENDBRANCH   5   6
ENDBRANCH   4   5
ENDBRANCH   3   4
ENDBRANCH   2   3
ENDBRANCH   1   2
BRANCH   1   9
ATOM      9  C   UNL     1      44.296  66.501  52.429  1.00  0.00     0.000 C 
BRANCH   9  10
ATOM     10  C   UNL     1      43.078  65.977  53.212  1.00  0.00    -0.000 C 
BRANCH  10  11
ATOM     11  C   UNL     1      43.345  64.755  54.110  1.00  0.00    -0.000 C 
BRANCH  11  12
ATOM     12  C   UNL     1      42.784  64.919  55.532  1.00  0.00    -0.000 C 
BRANCH  12  13
ATOM     13  C   UNL     1      43.693  64.291  56.600  1.00  0.00    -0.003 C 
ATOM     14  C   UNL     1      44.303  62.962  56.152  1.00  0.00     0.004 C 
ENDBRANCH  12  13
ENDBRANCH  11  12
ENDBRANCH  10  11
ENDBRANCH   9  10
ENDBRANCH   1   9
TORSDOF 10
ENDMDL
MODEL 3
REMARK VINA RESULT:    -4.157      4.019      7.441
REMARK INTER + INTRA:          -7.054
REMARK INTER:                  -6.629
REMARK INTRA:                  -0.424
REMARK UNBOUND:                -0.466
REMARK SMILES CCCCCCCCCCCC(=O)[O-]
REMARK SMILES IDX 7 1 8 2 9 3 10 4 11 5 12 6 13 7 14 8 6 9 5 10 4 11 3 12 2 13
REMARK SMILES IDX 1 14
REMARK H PARENT
REMARK Flexibility Score: inf
ROOT
ATOM      1  C   UNL     1      45.055  65.540  51.720  1.00  0.00     0.000 C 
ENDROOT
BRANCH   1   2
ATOM      2  C   UNL     1      44.118  66.593  52.343  1.00  0.00     0.000 C 
BRANCH   2   3
ATOM      3  C   UNL     1      43.026  66.035  53.274  1.00  0.00     0.000 C 
BRANCH   3   4
ATOM      4  C   UNL     1      43.475  64.782  54.045  1.00  0.00     0.006 C 
BRANCH   4   5
ATOM      5  C   UNL     1      42.980  64.787  55.498  1.00  0.00     0.053 C 
BRANCH   5   6
ATOM      6  C   UNL     1      43.841  63.937  56.383  1.00  0.00     0.041 C 
ATOM      7  O   UNL     1      44.363  62.882  55.935  1.00  0.00    -0.550 OA
ATOM      8  O   UNL     1      44.088  64.325  57.694  1.00  0.00    -0.550 OA
ENDBRANCH   5   6
ENDBRANCH   4   5
ENDBRANCH   3   4
ENDBRANCH   2   3
ENDBRANCH   1   2
BRANCH   1   9
ATOM      9  C   UNL     1      45.468  65.882  50.280  1.00  0.00     0.000 C 
BRANCH   9  10
ATOM     10  C   UNL     1      44.365  66.617  49.495  1.00  0.00    -0.000 C 
BRANCH  10  11
ATOM     11  C   UNL     1      44.277  66.271  47.997  1.00  0.00    -0.000 C 
BRANCH  11  12
ATOM     12  C   UNL     1      42.848  66.373  47.439  1.00  0.00    -0.000 C 
BRANCH  12  13
ATOM     13  C   UNL     1      42.459  65.155  46.587  1.00  0.00    -0.003 C 
ATOM     14  C   UNL     1      43.612  64.643  45.724  1.00  0.00     0.004 C 
ENDBRANCH  12  13
ENDBRANCH  11  12
ENDBRANCH  10  11
ENDBRANCH   9  10
ENDBRANCH   1   9
TORSDOF 10
ENDMDL
MODEL 4
REMARK VINA RESULT:    -4.153      9.094     11.144
REMARK INTER + INTRA:          -7.046
REMARK INTER:                  -6.647
REMARK INTRA:                  -0.399
REMARK UNBOUND:                -0.466
REMARK SMILES CCCCCCCCCCCC(=O)[O-]
REMARK SMILES IDX 7 1 8 2 9 3 10 4 11 5 12 6 13 7 14 8 6 9 5 10 4 11 3 12 2 13
REMARK SMILES IDX 1 14
REMARK H PARENT
REMARK Flexibility Score: inf
ROOT
ATOM      1  C   UNL     1      36.169  63.313  55.553  1.00  0.00     0.000 C 
ENDROOT
BRANCH   1   2
ATOM      2  C   UNL     1      37.620  63.239  56.065  1.00  0.00     0.000 C 
BRANCH   2   3
ATOM      3  C   UNL     1      38.235  61.828  56.102  1.00  0.00     0.000 C 
BRANCH   3   4
ATOM      4  C   UNL     1      37.204  60.731  56.420  1.00  0.00     0.006 C 
BRANCH   4   5
ATOM      5  C   UNL     1      37.142  59.659  55.323  1.00  0.00     0.053 C 
BRANCH   5   6
ATOM      6  C   UNL     1      37.344  58.281  55.879  1.00  0.00     0.041 C 
ATOM      7  O   UNL     1      37.838  58.128  57.027  1.00  0.00    -0.550 OA
ATOM      8  O   UNL     1      36.960  57.170  55.139  1.00  0.00    -0.550 OA
ENDBRANCH   5   6
ENDBRANCH   4   5
ENDBRANCH   3   4
ENDBRANCH   2   3
ENDBRANCH   1   2
BRANCH   1   9
ATOM      9  C   UNL     1      35.877  64.596  54.758  1.00  0.00     0.000 C 
BRANCH   9  10
ATOM     10  C   UNL     1      35.118  65.654  55.580  1.00  0.00    -0.000 C 
BRANCH  10  11
ATOM     11  C   UNL     1      34.108  66.507  54.789  1.00  0.00    -0.000 C 
BRANCH  11  12
ATOM     12  C   UNL     1      32.648  66.239  55.192  1.00  0.00    -0.000 C 
BRANCH  12  13
ATOM     13  C   UNL     1      31.644  66.786  54.165  1.00  0.00    -0.003 C 
ATOM     14  C   UNL     1      32.324  67.426  52.955  1.00  0.00     0.004 C 
ENDBRANCH  12  13
ENDBRANCH  11  12
ENDBRANCH  10  11
ENDBRANCH   9  10
ENDBRANCH   1   9
TORSDOF 10
ENDMDL
MODEL 5
REMARK VINA RESULT:    -4.120      9.497     11.492
REMARK INTER + INTRA:          -6.994
REMARK INTER:                  -6.345
REMARK INTRA:                  -0.650
REMARK UNBOUND:                -0.466
REMARK SMILES CCCCCCCCCCCC(=O)[O-]
REMARK SMILES IDX 7 1 8 2 9 3 10 4 11 5 12 6 13 7 14 8 6 9 5 10 4 11 3 12 2 13
REMARK SMILES IDX 1 14
REMARK H PARENT
REMARK Flexibility Score: inf
ROOT
ATOM      1  C   UNL     1      35.132  65.654  54.801  1.00  0.00     0.000 C 
ENDROOT
BRANCH   1   2
ATOM      2  C   UNL     1      36.101  64.474  55.005  1.00  0.00     0.000 C 
BRANCH   2   3
ATOM      3  C   UNL     1      36.442  64.147  56.471  1.00  0.00     0.000 C 
BRANCH   3   4
ATOM      4  C   UNL     1      36.802  62.667  56.689  1.00  0.00     0.006 C 
BRANCH   4   5
ATOM      5  C   UNL     1      36.258  61.768  55.569  1.00  0.00     0.053 C 
BRANCH   5   6
ATOM      6  C   UNL     1      36.314  60.318  55.943  1.00  0.00     0.041 C 
ATOM      7  O   UNL     1      36.959  59.504  55.230  1.00  0.00    -0.550 OA
ATOM      8  O   UNL     1      35.675  59.871  57.093  1.00  0.00    -0.550 OA
ENDBRANCH   5   6
ENDBRANCH   4   5
ENDBRANCH   3   4
ENDBRANCH   2   3
ENDBRANCH   1   2
BRANCH   1   9
ATOM      9  C   UNL     1      34.430  66.086  56.099  1.00  0.00     0.000 C 
BRANCH   9  10
ATOM     10  C   UNL     1      33.131  66.874  55.848  1.00  0.00    -0.000 C 
BRANCH  10  11
ATOM     11  C   UNL     1      32.230  66.323  54.726  1.00  0.00    -0.000 C 
BRANCH  11  12
ATOM     12  C   UNL     1      31.293  67.386  54.131  1.00  0.00    -0.000 C 
BRANCH  12  13
ATOM     13  C   UNL     1      31.561  67.638  52.639  1.00  0.00    -0.003 C 
ATOM     14  C   UNL     1      33.029  67.444  52.259  1.00  0.00     0.004 C 
ENDBRANCH  12  13
ENDBRANCH  11  12
ENDBRANCH  10  11
ENDBRANCH   9  10
ENDBRANCH   1   9
TORSDOF 10
ENDMDL
MODEL 6
REMARK VINA RESULT:    -4.044      1.416      2.487
REMARK INTER + INTRA:          -6.874
REMARK INTER:                  -6.236
REMARK INTRA:                  -0.638
REMARK UNBOUND:                -0.466
REMARK SMILES CCCCCCCCCCCC(=O)[O-]
REMARK SMILES IDX 7 1 8 2 9 3 10 4 11 5 12 6 13 7 14 8 6 9 5 10 4 11 3 12 2 13
REMARK SMILES IDX 1 14
REMARK H PARENT
REMARK Flexibility Score: inf
ROOT
ATOM      1  C   UNL     1      43.953  66.728  48.843  1.00  0.00     0.000 C 
ENDROOT
BRANCH   1   2
ATOM      2  C   UNL     1      43.157  67.971  48.400  1.00  0.00     0.000 C 
BRANCH   2   3
ATOM      3  C   UNL     1      41.646  67.924  48.693  1.00  0.00     0.000 C 
BRANCH   3   4
ATOM      4  C   UNL     1      40.809  67.511  47.471  1.00  0.00     0.006 C 
BRANCH   4   5
ATOM      5  C   UNL     1      40.237  66.093  47.613  1.00  0.00     0.053 C 
BRANCH   5   6
ATOM      6  C   UNL     1      41.010  65.096  46.804  1.00  0.00     0.041 C 
ATOM      7  O   UNL     1      40.662  63.886  46.790  1.00  0.00    -0.550 OA
ATOM      8  O   UNL     1      42.097  65.510  46.044  1.00  0.00    -0.550 OA
ENDBRANCH   5   6
ENDBRANCH   4   5
ENDBRANCH   3   4
ENDBRANCH   2   3
ENDBRANCH   1   2
BRANCH   1   9
ATOM      9  C   UNL     1      44.656  66.917  50.197  1.00  0.00     0.000 C 
BRANCH   9  10
ATOM     10  C   UNL     1      45.455  65.677  50.639  1.00  0.00    -0.000 C 
BRANCH  10  11
ATOM     11  C   UNL     1      45.092  65.117  52.028  1.00  0.00    -0.000 C 
BRANCH  11  12
ATOM     12  C   UNL     1      43.896  65.837  52.673  1.00  0.00    -0.000 C 
BRANCH  12  13
ATOM     13  C   UNL     1      43.300  65.050  53.849  1.00  0.00    -0.003 C 
ATOM     14  C   UNL     1      41.801  65.291  54.026  1.00  0.00     0.004 C 
ENDBRANCH  12  13
ENDBRANCH  11  12
ENDBRANCH  10  11
ENDBRANCH   9  10
ENDBRANCH   1   9
TORSDOF 10
ENDMDL
MODEL 7
REMARK VINA RESULT:    -4.038      3.204      6.629
REMARK INTER + INTRA:          -6.865
REMARK INTER:                  -6.049
REMARK INTRA:                  -0.816
REMARK UNBOUND:                -0.466
REMARK SMILES CCCCCCCCCCCC(=O)[O-]
REMARK SMILES IDX 7 1 8 2 9 3 10 4 11 5 12 6 13 7 14 8 6 9 5 10 4 11 3 12 2 13
REMARK SMILES IDX 1 14
REMARK H PARENT
REMARK Flexibility Score: inf
ROOT
ATOM      1  C   UNL     1      43.859  67.644  48.862  1.00  0.00     0.000 C 
ENDROOT
BRANCH   1   2
ATOM      2  C   UNL     1      44.146  67.385  50.354  1.00  0.00     0.000 C 
BRANCH   2   3
ATOM      3  C   UNL     1      45.140  66.246  50.646  1.00  0.00     0.000 C 
BRANCH   3   4
ATOM      4  C   UNL     1      44.769  65.430  51.896  1.00  0.00     0.006 C 
BRANCH   4   5
ATOM      5  C   UNL     1      43.739  66.153  52.776  1.00  0.00     0.053 C 
BRANCH   5   6
ATOM      6  C   UNL     1      43.220  65.268  53.868  1.00  0.00     0.041 C 
ATOM      7  O   UNL     1      43.817  64.196  54.152  1.00  0.00    -0.550 OA
ATOM      8  O   UNL     1      42.094  65.642  54.591  1.00  0.00    -0.550 OA
ENDBRANCH   5   6
ENDBRANCH   4   5
ENDBRANCH   3   4
ENDBRANCH   2   3
ENDBRANCH   1   2
BRANCH   1   9
ATOM      9  C   UNL     1      44.302  66.483  47.956  1.00  0.00     0.000 C 
BRANCH   9  10
ATOM     10  C   UNL     1      43.491  66.396  46.650  1.00  0.00    -0.000 C 
BRANCH  10  11
ATOM     11  C   UNL     1      42.768  65.057  46.409  1.00  0.00    -0.000 C 
BRANCH  11  12
ATOM     12  C   UNL     1      41.273  65.109  46.765  1.00  0.00    -0.000 C 
BRANCH  12  13
ATOM     13  C   UNL     1      40.722  66.543  46.788  1.00  0.00    -0.003 C 
ATOM     14  C   UNL     1      40.058  66.902  48.117  1.00  0.00     0.004 C 
ENDBRANCH  12  13
ENDBRANCH  11  12
ENDBRANCH  10  11
ENDBRANCH   9  10
ENDBRANCH   1   9
TORSDOF 10
ENDMDL
MODEL 8
REMARK VINA RESULT:    -3.991      3.229      6.692
REMARK INTER + INTRA:          -6.790
REMARK INTER:                  -6.023
REMARK INTRA:                  -0.767
REMARK UNBOUND:                -0.466
REMARK SMILES CCCCCCCCCCCC(=O)[O-]
REMARK SMILES IDX 7 1 8 2 9 3 10 4 11 5 12 6 13 7 14 8 6 9 5 10 4 11 3 12 2 13
REMARK SMILES IDX 1 14
REMARK H PARENT
REMARK Flexibility Score: inf
ROOT
ATOM      1  C   UNL     1      43.492  66.909  48.947  1.00  0.00     0.000 C 
ENDROOT
BRANCH   1   2
ATOM      2  C   UNL     1      44.435  67.092  50.152  1.00  0.00     0.000 C 
BRANCH   2   3
ATOM      3  C   UNL     1      45.228  65.838  50.565  1.00  0.00     0.000 C 
BRANCH   3   4
ATOM      4  C   UNL     1      44.924  65.380  52.001  1.00  0.00     0.006 C 
BRANCH   4   5
ATOM      5  C   UNL     1      43.773  66.177  52.632  1.00  0.00     0.053 C 
BRANCH   5   6
ATOM      6  C   UNL     1      43.195  65.474  53.822  1.00  0.00     0.041 C 
ATOM      7  O   UNL     1      42.212  65.969  54.435  1.00  0.00    -0.550 OA
ATOM      8  O   UNL     1      43.724  64.258  54.237  1.00  0.00    -0.550 OA
ENDBRANCH   5   6
ENDBRANCH   4   5
ENDBRANCH   3   4
ENDBRANCH   2   3
ENDBRANCH   1   2
BRANCH   1   9
ATOM      9  C   UNL     1      42.475  68.052  48.801  1.00  0.00     0.000 C 
BRANCH   9  10
ATOM     10  C   UNL     1      41.043  67.638  49.190  1.00  0.00    -0.000 C 
BRANCH  10  11
ATOM     11  C   UNL     1      40.289  66.800  48.141  1.00  0.00    -0.000 C 
BRANCH  11  12
ATOM     12  C   UNL     1      40.619  67.209  46.695  1.00  0.00    -0.000 C 
BRANCH  12  13
ATOM     13  C   UNL     1      41.196  66.047  45.872  1.00  0.00    -0.003 C 
ATOM     14  C   UNL     1      41.227  64.729  46.647  1.00  0.00     0.004 C 
ENDBRANCH  12  13
ENDBRANCH  11  12
ENDBRANCH  10  11
ENDBRANCH   9  10
ENDBRANCH   1   9
TORSDOF 10
ENDMDL
MODEL 9
REMARK VINA RESULT:    -3.924      2.937      4.836
REMARK INTER + INTRA:          -6.685
REMARK INTER:                  -5.898
REMARK INTRA:                  -0.787
REMARK UNBOUND:                -0.466
REMARK SMILES CCCCCCCCCCCC(=O)[O-]
REMARK SMILES IDX 7 1 8 2 9 3 10 4 11 5 12 6 13 7 14 8 6 9 5 10 4 11 3 12 2 13
REMARK SMILES IDX 1 14
REMARK H PARENT
REMARK Flexibility Score: inf
ROOT
ATOM      1  C   UNL     1      40.501  66.635  47.657  1.00  0.00     0.000 C 
ENDROOT
BRANCH   1   2
ATOM      2  C   UNL     1      40.961  66.937  46.218  1.00  0.00     0.000 C 
BRANCH   2   3
ATOM      3  C   UNL     1      41.407  65.713  45.398  1.00  0.00     0.000 C 
BRANCH   3   4
ATOM      4  C   UNL     1      42.299  64.747  46.196  1.00  0.00     0.006 C 
BRANCH   4   5
ATOM      5  C   UNL     1      43.606  64.421  45.457  1.00  0.00     0.053 C 
BRANCH   5   6
ATOM      6  C   UNL     1      44.127  65.605  44.700  1.00  0.00     0.041 C 
ATOM      7  O   UNL     1      44.505  66.635  45.317  1.00  0.00    -0.550 OA
ATOM      8  O   UNL     1      44.221  65.558  43.315  1.00  0.00    -0.550 OA
ENDBRANCH   5   6
ENDBRANCH   4   5
ENDBRANCH   3   4
ENDBRANCH   2   3
ENDBRANCH   1   2
BRANCH   1   9
ATOM      9  C   UNL     1      41.207  67.507  48.709  1.00  0.00     0.000 C 
BRANCH   9  10
ATOM     10  C   UNL     1      42.677  67.803  48.357  1.00  0.00    -0.000 C 
BRANCH  10  11
ATOM     11  C   UNL     1      43.689  66.724  48.785  1.00  0.00    -0.000 C 
BRANCH  11  12
ATOM     12  C   UNL     1      44.390  67.051  50.114  1.00  0.00    -0.000 C 
BRANCH  12  13
ATOM     13  C   UNL     1      45.411  65.976  50.521  1.00  0.00    -0.003 C 
ATOM     14  C   UNL     1      44.988  65.199  51.768  1.00  0.00     0.004 C 
ENDBRANCH  12  13
ENDBRANCH  11  12
ENDBRANCH  10  11
ENDBRANCH   9  10
ENDBRANCH   1   9
TORSDOF 10
ENDMDL
