MODEL 1
REMARK VINA RESULT:    -3.894      0.000      0.000
REMARK INTER + INTRA:         -12.367
REMARK INTER:                  -8.902
REMARK INTRA:                  -3.465
REMARK UNBOUND:                -3.465
REMARK SMILES CCCCCCCCCCCCCCCCCCCCCCCC(=O)[O-]
REMARK SMILES IDX 13 1 14 2 15 3 16 4 17 5 18 6 19 7 20 8 21 9 22 10 23 11
REMARK SMILES IDX 24 12 25 13 26 14 12 15 11 16 10 17 9 18 8 19 7 20 6 21 5 22
REMARK SMILES IDX 4 23 3 24 2 25 1 26
REMARK H PARENT
REMARK Flexibility Score: inf
ROOT
ATOM      1  C   UNL     1      70.906  82.496  76.286  1.00  0.00     0.000 C 
ENDROOT
BRANCH   1   2
ATOM      2  C   UNL     1      71.415  82.445  74.837  1.00  0.00     0.000 C 
BRANCH   2   3
ATOM      3  C   UNL     1      70.421  81.765  73.878  1.00  0.00     0.000 C 
BRANCH   3   4
ATOM      4  C   UNL     1      70.882  80.405  73.313  1.00  0.00     0.000 C 
BRANCH   4   5
ATOM      5  C   UNL     1      72.211  79.877  73.883  1.00  0.00     0.000 C 
BRANCH   5   6
ATOM      6  C   UNL     1      73.400  79.912  72.904  1.00  0.00     0.000 C 
BRANCH   6   7
ATOM      7  C   UNL     1      74.705  80.456  73.526  1.00  0.00     0.000 C 
BRANCH   7   8
ATOM      8  C   UNL     1      75.353  79.461  74.505  1.00  0.00     0.000 C 
BRANCH   8   9
ATOM      9  C   UNL     1      76.693  79.965  75.069  1.00  0.00     0.000 C 
BRANCH   9  10
ATOM     10  C   UNL     1      77.098  81.357  74.539  1.00  0.00     0.006 C 
BRANCH  10  11
ATOM     11  C   UNL     1      76.781  82.472  75.545  1.00  0.00     0.053 C 
BRANCH  11  12
ATOM     12  C   UNL     1      77.143  83.812  74.989  1.00  0.00     0.041 C 
ATOM     13  O   UNL     1      76.268  84.713  74.886  1.00  0.00    -0.550 OA
ATOM     14  O   UNL     1      78.445  84.069  74.574  1.00  0.00    -0.550 OA
ENDBRANCH  11  12
ENDBRANCH  10  11
ENDBRANCH   9  10
ENDBRANCH   8   9
ENDBRANCH   7   8
ENDBRANCH   6   7
ENDBRANCH   5   6
ENDBRANCH   4   5
ENDBRANCH   3   4
ENDBRANCH   2   3
ENDBRANCH   1   2
BRANCH   1  15
ATOM     15  C   UNL     1      72.074  82.651  77.273  1.00  0.00     0.000 C 
BRANCH  15  16
ATOM     16  C   UNL     1      73.405  82.134  76.704  1.00  0.00     0.000 C 
BRANCH  16  17
ATOM     17  C   UNL     1      74.007  80.991  77.540  1.00  0.00     0.000 C 
BRANCH  17  18
ATOM     18  C   UNL     1      75.088  81.477  78.521  1.00  0.00    -0.000 C 
BRANCH  18  19
ATOM     19  C   UNL     1      75.603  80.412  79.508  1.00  0.00    -0.000 C 
BRANCH  19  20
ATOM     20  C   UNL     1      76.093  79.117  78.827  1.00  0.00    -0.000 C 
BRANCH  20  21
ATOM     21  C   UNL     1      77.205  78.416  79.629  1.00  0.00    -0.000 C 
BRANCH  21  22
ATOM     22  C   UNL     1      78.618  78.821  79.167  1.00  0.00    -0.000 C 
BRANCH  22  23
ATOM     23  C   UNL     1      78.649  79.739  77.928  1.00  0.00    -0.000 C 
BRANCH  23  24
ATOM     24  C   UNL     1      79.177  81.150  78.255  1.00  0.00    -0.000 C 
BRANCH  24  25
ATOM     25  C   UNL     1      80.581  81.402  77.683  1.00  0.00    -0.003 C 
ATOM     26  C   UNL     1      80.563  81.716  76.188  1.00  0.00     0.004 C 
ENDBRANCH  24  25
ENDBRANCH  23  24
ENDBRANCH  22  23
ENDBRANCH  21  22
ENDBRANCH  20  21
ENDBRANCH  19  20
ENDBRANCH  18  19
ENDBRANCH  17  18
ENDBRANCH  16  17
ENDBRANCH  15  16
ENDBRANCH   1  15
TORSDOF 22
ENDMDL
MODEL 2
REMARK VINA RESULT:    -3.856      1.407      3.474
REMARK INTER + INTRA:         -12.281
REMARK INTER:                  -8.501
REMARK INTRA:                  -3.780
REMARK UNBOUND:                -3.465
REMARK SMILES CCCCCCCCCCCCCCCCCCCCCCCC(=O)[O-]
REMARK SMILES IDX 13 1 14 2 15 3 16 4 17 5 18 6 19 7 20 8 21 9 22 10 23 11
REMARK SMILES IDX 24 12 25 13 26 14 12 15 11 16 10 17 9 18 8 19 7 20 6 21 5 22
REMARK SMILES IDX 4 23 3 24 2 25 1 26
REMARK H PARENT
REMARK Flexibility Score: inf
ROOT
ATOM      1  C   UNL     1      76.800  78.211  76.057  1.00  0.00     0.000 C 
ENDROOT
BRANCH   1   2
ATOM      2  C   UNL     1      76.081  79.338  75.301  1.00  0.00     0.000 C 
BRANCH   2   3
ATOM      3  C   UNL     1      75.254  78.827  74.108  1.00  0.00     0.000 C 
BRANCH   3   4
ATOM      4  C   UNL     1      75.009  79.860  72.989  1.00  0.00     0.000 C 
BRANCH   4   5
ATOM      5  C   UNL     1      73.530  80.086  72.621  1.00  0.00     0.000 C 
BRANCH   5   6
ATOM      6  C   UNL     1      72.575  80.228  73.822  1.00  0.00     0.000 C 
BRANCH   6   7
ATOM      7  C   UNL     1      72.445  81.675  74.347  1.00  0.00     0.000 C 
BRANCH   7   8
ATOM      8  C   UNL     1      72.828  81.803  75.832  1.00  0.00     0.000 C 
BRANCH   8   9
ATOM      9  C   UNL     1      73.955  82.821  76.073  1.00  0.00     0.000 C 
BRANCH   9  10
ATOM     10  C   UNL     1      74.729  83.196  74.790  1.00  0.00     0.006 C 
BRANCH  10  11
ATOM     11  C   UNL     1      76.221  82.850  74.894  1.00  0.00     0.053 C 
BRANCH  11  12
ATOM     12  C   UNL     1      77.061  84.084  74.812  1.00  0.00     0.041 C 
ATOM     13  O   UNL     1      76.520  85.222  74.840  1.00  0.00    -0.550 OA
ATOM     14  O   UNL     1      78.443  83.984  74.696  1.00  0.00    -0.550 OA
ENDBRANCH  11  12
ENDBRANCH  10  11
ENDBRANCH   9  10
ENDBRANCH   8   9
ENDBRANCH   7   8
ENDBRANCH   6   7
ENDBRANCH   5   6
ENDBRANCH   4   5
ENDBRANCH   3   4
ENDBRANCH   2   3
ENDBRANCH   1   2
BRANCH   1  15
ATOM     15  C   UNL     1      76.016  77.806  77.315  1.00  0.00     0.000 C 
BRANCH  15  16
ATOM     16  C   UNL     1      74.975  78.857  77.730  1.00  0.00     0.000 C 
BRANCH  16  17
ATOM     17  C   UNL     1      74.914  79.066  79.254  1.00  0.00     0.000 C 
BRANCH  17  18
ATOM     18  C   UNL     1      75.620  80.357  79.706  1.00  0.00    -0.000 C 
BRANCH  18  19
ATOM     19  C   UNL     1      75.840  81.405  78.598  1.00  0.00    -0.000 C 
BRANCH  19  20
ATOM     20  C   UNL     1      77.255  82.020  78.595  1.00  0.00    -0.000 C 
BRANCH  20  21
ATOM     21  C   UNL     1      78.192  81.331  77.585  1.00  0.00    -0.000 C 
BRANCH  21  22
ATOM     22  C   UNL     1      79.042  80.217  78.227  1.00  0.00    -0.000 C 
BRANCH  22  23
ATOM     23  C   UNL     1      80.352  80.706  78.878  1.00  0.00    -0.000 C 
BRANCH  23  24
ATOM     24  C   UNL     1      81.370  81.215  77.838  1.00  0.00    -0.000 C 
BRANCH  24  25
ATOM     25  C   UNL     1      82.822  80.899  78.230  1.00  0.00    -0.003 C 
ATOM     26  C   UNL     1      83.112  81.177  79.704  1.00  0.00     0.004 C 
ENDBRANCH  24  25
ENDBRANCH  23  24
ENDBRANCH  22  23
ENDBRANCH  21  22
ENDBRANCH  20  21
ENDBRANCH  19  20
ENDBRANCH  18  19
ENDBRANCH  17  18
ENDBRANCH  16  17
ENDBRANCH  15  16
ENDBRANCH   1  15
TORSDOF 22
ENDMDL
MODEL 3
REMARK VINA RESULT:    -3.825      2.566      5.552
REMARK INTER + INTRA:         -12.209
REMARK INTER:                  -7.871
REMARK INTRA:                  -4.337
REMARK UNBOUND:                -3.465
REMARK SMILES CCCCCCCCCCCCCCCCCCCCCCCC(=O)[O-]
REMARK SMILES IDX 13 1 14 2 15 3 16 4 17 5 18 6 19 7 20 8 21 9 22 10 23 11
REMARK SMILES IDX 24 12 25 13 26 14 12 15 11 16 10 17 9 18 8 19 7 20 6 21 5 22
REMARK SMILES IDX 4 23 3 24 2 25 1 26
REMARK H PARENT
REMARK Flexibility Score: inf
ROOT
ATOM      1  C   UNL     1      76.356  82.119  78.056  1.00  0.00     0.000 C 
ENDROOT
BRANCH   1   2
ATOM      2  C   UNL     1      75.179  81.522  78.843  1.00  0.00     0.000 C 
BRANCH   2   3
ATOM      3  C   UNL     1      75.597  80.346  79.744  1.00  0.00     0.000 C 
BRANCH   3   4
ATOM      4  C   UNL     1      74.985  78.981  79.367  1.00  0.00     0.000 C 
BRANCH   4   5
ATOM      5  C   UNL     1      74.769  78.757  77.859  1.00  0.00     0.000 C 
BRANCH   5   6
ATOM      6  C   UNL     1      76.031  78.352  77.073  1.00  0.00     0.000 C 
BRANCH   6   7
ATOM      7  C   UNL     1      76.207  79.113  75.740  1.00  0.00     0.000 C 
BRANCH   7   8
ATOM      8  C   UNL     1      74.873  79.639  75.180  1.00  0.00     0.000 C 
BRANCH   8   9
ATOM      9  C   UNL     1      74.931  81.129  74.802  1.00  0.00     0.000 C 
BRANCH   9  10
ATOM     10  C   UNL     1      73.539  81.790  74.699  1.00  0.00     0.006 C 
BRANCH  10  11
ATOM     11  C   UNL     1      73.259  82.733  75.878  1.00  0.00     0.053 C 
BRANCH  11  12
ATOM     12  C   UNL     1      72.198  82.171  76.769  1.00  0.00     0.041 C 
ATOM     13  O   UNL     1      72.157  80.933  77.002  1.00  0.00    -0.550 OA
ATOM     14  O   UNL     1      71.246  83.009  77.339  1.00  0.00    -0.550 OA
ENDBRANCH  11  12
ENDBRANCH  10  11
ENDBRANCH   9  10
ENDBRANCH   8   9
ENDBRANCH   7   8
ENDBRANCH   6   7
ENDBRANCH   5   6
ENDBRANCH   4   5
ENDBRANCH   3   4
ENDBRANCH   2   3
ENDBRANCH   1   2
BRANCH   1  15
ATOM     15  C   UNL     1      77.698  81.593  78.591  1.00  0.00     0.000 C 
BRANCH  15  16
ATOM     16  C   UNL     1      78.658  81.166  77.470  1.00  0.00     0.000 C 
BRANCH  16  17
ATOM     17  C   UNL     1      79.845  80.335  77.987  1.00  0.00     0.000 C 
BRANCH  17  18
ATOM     18  C   UNL     1      80.638  79.661  76.853  1.00  0.00    -0.000 C 
BRANCH  18  19
ATOM     19  C   UNL     1      82.077  80.180  76.663  1.00  0.00    -0.000 C 
BRANCH  19  20
ATOM     20  C   UNL     1      82.189  81.719  76.667  1.00  0.00    -0.000 C 
BRANCH  20  21
ATOM     21  C   UNL     1      81.623  82.352  75.382  1.00  0.00    -0.000 C 
BRANCH  21  22
ATOM     22  C   UNL     1      80.559  83.430  75.668  1.00  0.00    -0.000 C 
BRANCH  22  23
ATOM     23  C   UNL     1      79.256  83.276  74.857  1.00  0.00    -0.000 C 
BRANCH  23  24
ATOM     24  C   UNL     1      79.422  82.327  73.654  1.00  0.00    -0.000 C 
BRANCH  24  25
ATOM     25  C   UNL     1      78.452  81.136  73.702  1.00  0.00    -0.003 C 
ATOM     26  C   UNL     1      79.158  79.790  73.549  1.00  0.00     0.004 C 
ENDBRANCH  24  25
ENDBRANCH  23  24
ENDBRANCH  22  23
ENDBRANCH  21  22
ENDBRANCH  20  21
ENDBRANCH  19  20
ENDBRANCH  18  19
ENDBRANCH  17  18
ENDBRANCH  16  17
ENDBRANCH  15  16
ENDBRANCH   1  15
TORSDOF 22
ENDMDL
MODEL 4
REMARK VINA RESULT:    -3.817      3.233      6.196
REMARK INTER + INTRA:         -12.192
REMARK INTER:                  -8.288
REMARK INTRA:                  -3.904
REMARK UNBOUND:                -3.465
REMARK SMILES CCCCCCCCCCCCCCCCCCCCCCCC(=O)[O-]
REMARK SMILES IDX 13 1 14 2 15 3 16 4 17 5 18 6 19 7 20 8 21 9 22 10 23 11
REMARK SMILES IDX 24 12 25 13 26 14 12 15 11 16 10 17 9 18 8 19 7 20 6 21 5 22
REMARK SMILES IDX 4 23 3 24 2 25 1 26
REMARK H PARENT
REMARK Flexibility Score: inf
ROOT
ATOM      1  C   UNL     1      73.511  80.647  76.904  1.00  0.00     0.000 C 
ENDROOT
BRANCH   1   2
ATOM      2  C   UNL     1      74.430  80.220  78.058  1.00  0.00     0.000 C 
BRANCH   2   3
ATOM      3  C   UNL     1      75.332  81.362  78.559  1.00  0.00     0.000 C 
BRANCH   3   4
ATOM      4  C   UNL     1      76.711  80.922  79.094  1.00  0.00     0.000 C 
BRANCH   4   5
ATOM      5  C   UNL     1      77.218  79.570  78.559  1.00  0.00     0.000 C 
BRANCH   5   6
ATOM      6  C   UNL     1      78.662  79.582  78.021  1.00  0.00     0.000 C 
BRANCH   6   7
ATOM      7  C   UNL     1      79.248  81.000  77.840  1.00  0.00     0.000 C 
BRANCH   7   8
ATOM      8  C   UNL     1      80.635  81.155  78.490  1.00  0.00     0.000 C 
BRANCH   8   9
ATOM      9  C   UNL     1      80.998  79.975  79.409  1.00  0.00     0.000 C 
BRANCH   9  10
ATOM     10  C   UNL     1      82.518  79.813  79.628  1.00  0.00     0.006 C 
BRANCH  10  11
ATOM     11  C   UNL     1      83.137  81.041  80.312  1.00  0.00     0.053 C 
BRANCH  11  12
ATOM     12  C   UNL     1      84.625  81.042  80.159  1.00  0.00     0.041 C 
ATOM     13  O   UNL     1      85.336  80.298  80.886  1.00  0.00    -0.550 OA
ATOM     14  O   UNL     1      85.232  81.870  79.222  1.00  0.00    -0.550 OA
ENDBRANCH  11  12
ENDBRANCH  10  11
ENDBRANCH   9  10
ENDBRANCH   8   9
ENDBRANCH   7   8
ENDBRANCH   6   7
ENDBRANCH   5   6
ENDBRANCH   4   5
ENDBRANCH   3   4
ENDBRANCH   2   3
ENDBRANCH   1   2
BRANCH   1  15
ATOM     15  C   UNL     1      72.986  82.075  77.120  1.00  0.00     0.000 C 
BRANCH  15  16
ATOM     16  C   UNL     1      73.175  82.970  75.885  1.00  0.00     0.000 C 
BRANCH  16  17
ATOM     17  C   UNL     1      74.300  82.477  74.958  1.00  0.00     0.000 C 
BRANCH  17  18
ATOM     18  C   UNL     1      75.585  83.313  75.085  1.00  0.00    -0.000 C 
BRANCH  18  19
ATOM     19  C   UNL     1      76.857  82.512  75.425  1.00  0.00    -0.000 C 
BRANCH  19  20
ATOM     20  C   UNL     1      76.750  81.008  75.098  1.00  0.00    -0.000 C 
BRANCH  20  21
ATOM     21  C   UNL     1      77.963  80.493  74.300  1.00  0.00    -0.000 C 
BRANCH  21  22
ATOM     22  C   UNL     1      78.351  81.428  73.138  1.00  0.00    -0.000 C 
BRANCH  22  23
ATOM     23  C   UNL     1      79.787  81.983  73.214  1.00  0.00    -0.000 C 
BRANCH  23  24
ATOM     24  C   UNL     1      80.568  81.430  74.422  1.00  0.00    -0.000 C 
BRANCH  24  25
ATOM     25  C   UNL     1      81.320  82.527  75.192  1.00  0.00    -0.003 C 
ATOM     26  C   UNL     1      80.405  83.659  75.656  1.00  0.00     0.004 C 
ENDBRANCH  24  25
ENDBRANCH  23  24
ENDBRANCH  22  23
ENDBRANCH  21  22
ENDBRANCH  20  21
ENDBRANCH  19  20
ENDBRANCH  18  19
ENDBRANCH  17  18
ENDBRANCH  16  17
ENDBRANCH  15  16
ENDBRANCH   1  15
TORSDOF 22
ENDMDL
MODEL 5
REMARK VINA RESULT:    -3.813      2.857      5.293
REMARK INTER + INTRA:         -12.183
REMARK INTER:                  -7.910
REMARK INTRA:                  -4.273
REMARK UNBOUND:                -3.465
REMARK SMILES CCCCCCCCCCCCCCCCCCCCCCCC(=O)[O-]
REMARK SMILES IDX 13 1 14 2 15 3 16 4 17 5 18 6 19 7 20 8 21 9 22 10 23 11
REMARK SMILES IDX 24 12 25 13 26 14 12 15 11 16 10 17 9 18 8 19 7 20 6 21 5 22
REMARK SMILES IDX 4 23 3 24 2 25 1 26
REMARK H PARENT
REMARK Flexibility Score: inf
ROOT
ATOM      1  C   UNL     1      74.268  79.936  74.150  1.00  0.00     0.000 C 
ENDROOT
BRANCH   1   2
ATOM      2  C   UNL     1      73.204  81.040  74.050  1.00  0.00     0.000 C 
BRANCH   2   3
ATOM      3  C   UNL     1      72.665  81.478  75.423  1.00  0.00     0.000 C 
BRANCH   3   4
ATOM      4  C   UNL     1      73.161  82.854  75.913  1.00  0.00     0.000 C 
BRANCH   4   5
ATOM      5  C   UNL     1      74.422  83.384  75.206  1.00  0.00     0.000 C 
BRANCH   5   6
ATOM      6  C   UNL     1      75.663  83.530  76.109  1.00  0.00     0.000 C 
BRANCH   6   7
ATOM      7  C   UNL     1      76.141  82.199  76.730  1.00  0.00     0.000 C 
BRANCH   7   8
ATOM      8  C   UNL     1      76.138  82.229  78.269  1.00  0.00     0.000 C 
BRANCH   8   9
ATOM      9  C   UNL     1      75.427  81.014  78.889  1.00  0.00     0.000 C 
BRANCH   9  10
ATOM     10  C   UNL     1      76.376  80.084  79.676  1.00  0.00     0.006 C 
BRANCH  10  11
ATOM     11  C   UNL     1      75.945  78.613  79.589  1.00  0.00     0.053 C 
BRANCH  11  12
ATOM     12  C   UNL     1      74.551  78.434  80.103  1.00  0.00     0.041 C 
ATOM     13  O   UNL     1      74.297  78.622  81.323  1.00  0.00    -0.550 OA
ATOM     14  O   UNL     1      73.531  78.053  79.240  1.00  0.00    -0.550 OA
ENDBRANCH  11  12
ENDBRANCH  10  11
ENDBRANCH   9  10
ENDBRANCH   8   9
ENDBRANCH   7   8
ENDBRANCH   6   7
ENDBRANCH   5   6
ENDBRANCH   4   5
ENDBRANCH   3   4
ENDBRANCH   2   3
ENDBRANCH   1   2
BRANCH   1  15
ATOM     15  C   UNL     1      74.154  79.183  75.485  1.00  0.00     0.000 C 
BRANCH  15  16
ATOM     16  C   UNL     1      75.516  78.717  76.023  1.00  0.00     0.000 C 
BRANCH  16  17
ATOM     17  C   UNL     1      76.538  78.448  74.903  1.00  0.00     0.000 C 
BRANCH  17  18
ATOM     18  C   UNL     1      77.751  79.392  74.965  1.00  0.00    -0.000 C 
BRANCH  18  19
ATOM     19  C   UNL     1      78.118  80.075  73.633  1.00  0.00    -0.000 C 
BRANCH  19  20
ATOM     20  C   UNL     1      77.716  81.564  73.566  1.00  0.00    -0.000 C 
BRANCH  20  21
ATOM     21  C   UNL     1      78.937  82.502  73.574  1.00  0.00    -0.000 C 
BRANCH  21  22
ATOM     22  C   UNL     1      79.042  83.331  74.868  1.00  0.00    -0.000 C 
BRANCH  22  23
ATOM     23  C   UNL     1      80.352  83.128  75.656  1.00  0.00    -0.000 C 
BRANCH  23  24
ATOM     24  C   UNL     1      80.608  81.647  75.998  1.00  0.00    -0.000 C 
BRANCH  24  25
ATOM     25  C   UNL     1      80.954  81.433  77.480  1.00  0.00    -0.003 C 
ATOM     26  C   UNL     1      79.727  81.129  78.337  1.00  0.00     0.004 C 
ENDBRANCH  24  25
ENDBRANCH  23  24
ENDBRANCH  22  23
ENDBRANCH  21  22
ENDBRANCH  20  21
ENDBRANCH  19  20
ENDBRANCH  18  19
ENDBRANCH  17  18
ENDBRANCH  16  17
ENDBRANCH  15  16
ENDBRANCH   1  15
TORSDOF 22
ENDMDL
MODEL 6
REMARK VINA RESULT:    -3.806      2.205      5.683
REMARK INTER + INTRA:         -12.167
REMARK INTER:                  -8.112
REMARK INTRA:                  -4.054
REMARK UNBOUND:                -3.465
REMARK SMILES CCCCCCCCCCCCCCCCCCCCCCCC(=O)[O-]
REMARK SMILES IDX 13 1 14 2 15 3 16 4 17 5 18 6 19 7 20 8 21 9 22 10 23 11
REMARK SMILES IDX 24 12 25 13 26 14 12 15 11 16 10 17 9 18 8 19 7 20 6 21 5 22
REMARK SMILES IDX 4 23 3 24 2 25 1 26
REMARK H PARENT
REMARK Flexibility Score: inf
ROOT
ATOM      1  C   UNL     1      76.592  80.978  73.717  1.00  0.00     0.000 C 
ENDROOT
BRANCH   1   2
ATOM      2  C   UNL     1      77.291  79.637  73.986  1.00  0.00     0.000 C 
BRANCH   2   3
ATOM      3  C   UNL     1      77.210  79.205  75.461  1.00  0.00     0.000 C 
BRANCH   3   4
ATOM      4  C   UNL     1      78.441  79.565  76.318  1.00  0.00     0.000 C 
BRANCH   4   5
ATOM      5  C   UNL     1      78.125  80.027  77.753  1.00  0.00     0.000 C 
BRANCH   5   6
ATOM      6  C   UNL     1      78.016  81.554  77.936  1.00  0.00     0.000 C 
BRANCH   6   7
ATOM      7  C   UNL     1      76.651  82.137  77.508  1.00  0.00     0.000 C 
BRANCH   7   8
ATOM      8  C   UNL     1      75.517  81.763  78.480  1.00  0.00     0.000 C 
BRANCH   8   9
ATOM      9  C   UNL     1      74.511  80.772  77.871  1.00  0.00     0.000 C 
BRANCH   9  10
ATOM     10  C   UNL     1      74.090  81.132  76.429  1.00  0.00     0.006 C 
BRANCH  10  11
ATOM     11  C   UNL     1      73.195  82.378  76.383  1.00  0.00     0.053 C 
BRANCH  11  12
ATOM     12  C   UNL     1      73.278  83.045  75.047  1.00  0.00     0.041 C 
ATOM     13  O   UNL     1      72.283  83.037  74.273  1.00  0.00    -0.550 OA
ATOM     14  O   UNL     1      74.454  83.669  74.647  1.00  0.00    -0.550 OA
ENDBRANCH  11  12
ENDBRANCH  10  11
ENDBRANCH   9  10
ENDBRANCH   8   9
ENDBRANCH   7   8
ENDBRANCH   6   7
ENDBRANCH   5   6
ENDBRANCH   4   5
ENDBRANCH   3   4
ENDBRANCH   2   3
ENDBRANCH   1   2
BRANCH   1  15
ATOM     15  C   UNL     1      77.544  82.156  73.979  1.00  0.00     0.000 C 
BRANCH  15  16
ATOM     16  C   UNL     1      78.797  82.117  73.090  1.00  0.00     0.000 C 
BRANCH  16  17
ATOM     17  C   UNL     1      80.097  81.972  73.900  1.00  0.00     0.000 C 
BRANCH  17  18
ATOM     18  C   UNL     1      80.105  82.837  75.173  1.00  0.00    -0.000 C 
BRANCH  18  19
ATOM     19  C   UNL     1      81.329  82.641  76.090  1.00  0.00    -0.000 C 
BRANCH  19  20
ATOM     20  C   UNL     1      82.023  81.274  75.917  1.00  0.00    -0.000 C 
BRANCH  20  21
ATOM     21  C   UNL     1      81.964  80.419  77.196  1.00  0.00    -0.000 C 
BRANCH  21  22
ATOM     22  C   UNL     1      81.531  81.229  78.434  1.00  0.00    -0.000 C 
BRANCH  22  23
ATOM     23  C   UNL     1      81.942  80.607  79.783  1.00  0.00    -0.000 C 
BRANCH  23  24
ATOM     24  C   UNL     1      83.467  80.418  79.902  1.00  0.00    -0.000 C 
BRANCH  24  25
ATOM     25  C   UNL     1      84.236  81.746  79.816  1.00  0.00    -0.003 C 
ATOM     26  C   UNL     1      85.220  81.787  78.648  1.00  0.00     0.004 C 
ENDBRANCH  24  25
ENDBRANCH  23  24
ENDBRANCH  22  23
ENDBRANCH  21  22
ENDBRANCH  20  21
ENDBRANCH  19  20
ENDBRANCH  18  19
ENDBRANCH  17  18
ENDBRANCH  16  17
ENDBRANCH  15  16
ENDBRANCH   1  15
TORSDOF 22
ENDMDL
MODEL 7
REMARK VINA RESULT:    -3.780      2.777      6.559
REMARK INTER + INTRA:         -12.107
REMARK INTER:                  -8.030
REMARK INTRA:                  -4.077
REMARK UNBOUND:                -3.465
REMARK SMILES CCCCCCCCCCCCCCCCCCCCCCCC(=O)[O-]
REMARK SMILES IDX 13 1 14 2 15 3 16 4 17 5 18 6 19 7 20 8 21 9 22 10 23 11
REMARK SMILES IDX 24 12 25 13 26 14 12 15 11 16 10 17 9 18 8 19 7 20 6 21 5 22
REMARK SMILES IDX 4 23 3 24 2 25 1 26
REMARK H PARENT
REMARK Flexibility Score: inf
ROOT
ATOM      1  C   UNL     1      78.442  79.676  76.141  1.00  0.00     0.000 C 
ENDROOT
BRANCH   1   2
ATOM      2  C   UNL     1      77.433  79.636  74.983  1.00  0.00     0.000 C 
BRANCH   2   3
ATOM      3  C   UNL     1      77.638  80.776  73.971  1.00  0.00     0.000 C 
BRANCH   3   4
ATOM      4  C   UNL     1      77.029  82.133  74.380  1.00  0.00     0.000 C 
BRANCH   4   5
ATOM      5  C   UNL     1      78.036  83.165  74.922  1.00  0.00     0.000 C 
BRANCH   5   6
ATOM      6  C   UNL     1      79.516  82.839  74.643  1.00  0.00     0.000 C 
BRANCH   6   7
ATOM      7  C   UNL     1      80.445  83.076  75.854  1.00  0.00     0.000 C 
BRANCH   7   8
ATOM      8  C   UNL     1      81.819  82.403  75.686  1.00  0.00     0.000 C 
BRANCH   8   9
ATOM      9  C   UNL     1      82.119  81.373  76.789  1.00  0.00     0.000 C 
BRANCH   9  10
ATOM     10  C   UNL     1      81.104  81.406  77.952  1.00  0.00     0.006 C 
BRANCH  10  11
ATOM     11  C   UNL     1      81.466  80.410  79.063  1.00  0.00     0.053 C 
BRANCH  11  12
ATOM     12  C   UNL     1      82.550  80.957  79.936  1.00  0.00     0.041 C 
ATOM     13  O   UNL     1      82.264  81.722  80.896  1.00  0.00    -0.550 OA
ATOM     14  O   UNL     1      83.879  80.632  79.690  1.00  0.00    -0.550 OA
ENDBRANCH  11  12
ENDBRANCH  10  11
ENDBRANCH   9  10
ENDBRANCH   8   9
ENDBRANCH   7   8
ENDBRANCH   6   7
ENDBRANCH   5   6
ENDBRANCH   4   5
ENDBRANCH   3   4
ENDBRANCH   2   3
ENDBRANCH   1   2
BRANCH   1  15
ATOM     15  C   UNL     1      77.889  78.948  77.377  1.00  0.00     0.000 C 
BRANCH  15  16
ATOM     16  C   UNL     1      77.676  79.888  78.574  1.00  0.00     0.000 C 
BRANCH  16  17
ATOM     17  C   UNL     1      77.679  81.374  78.172  1.00  0.00     0.000 C 
BRANCH  17  18
ATOM     18  C   UNL     1      76.328  82.063  78.431  1.00  0.00    -0.000 C 
BRANCH  18  19
ATOM     19  C   UNL     1      75.210  81.707  77.432  1.00  0.00    -0.000 C 
BRANCH  19  20
ATOM     20  C   UNL     1      74.279  80.576  77.917  1.00  0.00    -0.000 C 
BRANCH  20  21
ATOM     21  C   UNL     1      73.261  80.152  76.841  1.00  0.00    -0.000 C 
BRANCH  21  22
ATOM     22  C   UNL     1      73.933  79.721  75.524  1.00  0.00    -0.000 C 
BRANCH  22  23
ATOM     23  C   UNL     1      73.332  80.364  74.257  1.00  0.00    -0.000 C 
BRANCH  23  24
ATOM     24  C   UNL     1      72.020  81.119  74.548  1.00  0.00    -0.000 C 
BRANCH  24  25
ATOM     25  C   UNL     1      72.124  82.622  74.245  1.00  0.00    -0.003 C 
ATOM     26  C   UNL     1      73.501  83.199  74.571  1.00  0.00     0.004 C 
ENDBRANCH  24  25
ENDBRANCH  23  24
ENDBRANCH  22  23
ENDBRANCH  21  22
ENDBRANCH  20  21
ENDBRANCH  19  20
ENDBRANCH  18  19
ENDBRANCH  17  18
ENDBRANCH  16  17
ENDBRANCH  15  16
ENDBRANCH   1  15
TORSDOF 22
ENDMDL
MODEL 8
REMARK VINA RESULT:    -3.766      2.567      5.768
REMARK INTER + INTRA:         -12.075
REMARK INTER:                  -7.971
REMARK INTRA:                  -4.104
REMARK UNBOUND:                -3.465
REMARK SMILES CCCCCCCCCCCCCCCCCCCCCCCC(=O)[O-]
REMARK SMILES IDX 13 1 14 2 15 3 16 4 17 5 18 6 19 7 20 8 21 9 22 10 23 11
REMARK SMILES IDX 24 12 25 13 26 14 12 15 11 16 10 17 9 18 8 19 7 20 6 21 5 22
REMARK SMILES IDX 4 23 3 24 2 25 1 26
REMARK H PARENT
REMARK Flexibility Score: inf
ROOT
ATOM      1  C   UNL     1      78.307  80.955  78.566  1.00  0.00     0.000 C 
ENDROOT
BRANCH   1   2
ATOM      2  C   UNL     1      77.145  81.945  78.733  1.00  0.00     0.000 C 
BRANCH   2   3
ATOM      3  C   UNL     1      75.783  81.341  78.348  1.00  0.00     0.000 C 
BRANCH   3   4
ATOM      4  C   UNL     1      74.928  82.203  77.396  1.00  0.00     0.000 C 
BRANCH   4   5
ATOM      5  C   UNL     1      75.726  83.129  76.459  1.00  0.00     0.000 C 
BRANCH   5   6
ATOM      6  C   UNL     1      75.385  82.993  74.962  1.00  0.00     0.000 C 
BRANCH   6   7
ATOM      7  C   UNL     1      74.856  81.596  74.568  1.00  0.00     0.000 C 
BRANCH   7   8
ATOM      8  C   UNL     1      73.444  81.649  73.958  1.00  0.00     0.000 C 
BRANCH   8   9
ATOM      9  C   UNL     1      72.637  82.872  74.426  1.00  0.00     0.000 C 
BRANCH   9  10
ATOM     10  C   UNL     1      71.245  82.510  74.988  1.00  0.00     0.006 C 
BRANCH  10  11
ATOM     11  C   UNL     1      71.305  82.130  76.474  1.00  0.00     0.053 C 
BRANCH  11  12
ATOM     12  C   UNL     1      71.127  80.655  76.655  1.00  0.00     0.041 C 
ATOM     13  O   UNL     1      72.109  79.878  76.516  1.00  0.00    -0.550 OA
ATOM     14  O   UNL     1      69.877  80.134  76.970  1.00  0.00    -0.550 OA
ENDBRANCH  11  12
ENDBRANCH  10  11
ENDBRANCH   9  10
ENDBRANCH   8   9
ENDBRANCH   7   8
ENDBRANCH   6   7
ENDBRANCH   5   6
ENDBRANCH   4   5
ENDBRANCH   3   4
ENDBRANCH   2   3
ENDBRANCH   1   2
BRANCH   1  15
ATOM     15  C   UNL     1      77.801  79.593  78.064  1.00  0.00     0.000 C 
BRANCH  15  16
ATOM     16  C   UNL     1      78.412  79.194  76.712  1.00  0.00     0.000 C 
BRANCH  16  17
ATOM     17  C   UNL     1      77.855  80.021  75.539  1.00  0.00     0.000 C 
BRANCH  17  18
ATOM     18  C   UNL     1      78.904  80.283  74.445  1.00  0.00    -0.000 C 
BRANCH  18  19
ATOM     19  C   UNL     1      79.176  81.769  74.140  1.00  0.00    -0.000 C 
BRANCH  19  20
ATOM     20  C   UNL     1      79.087  82.684  75.378  1.00  0.00    -0.000 C 
BRANCH  20  21
ATOM     21  C   UNL     1      80.441  82.836  76.095  1.00  0.00    -0.000 C 
BRANCH  21  22
ATOM     22  C   UNL     1      81.613  82.248  75.285  1.00  0.00    -0.000 C 
BRANCH  22  23
ATOM     23  C   UNL     1      82.349  81.082  75.975  1.00  0.00    -0.000 C 
BRANCH  23  24
ATOM     24  C   UNL     1      81.717  80.709  77.330  1.00  0.00    -0.000 C 
BRANCH  24  25
ATOM     25  C   UNL     1      82.618  81.066  78.522  1.00  0.00    -0.003 C 
ATOM     26  C   UNL     1      81.918  80.889  79.869  1.00  0.00     0.004 C 
ENDBRANCH  24  25
ENDBRANCH  23  24
ENDBRANCH  22  23
ENDBRANCH  21  22
ENDBRANCH  20  21
ENDBRANCH  19  20
ENDBRANCH  18  19
ENDBRANCH  17  18
ENDBRANCH  16  17
ENDBRANCH  15  16
ENDBRANCH   1  15
TORSDOF 22
ENDMDL
MODEL 9
REMARK VINA RESULT:    -3.726      2.936      5.479
REMARK INTER + INTRA:         -11.982
REMARK INTER:                  -7.746
REMARK INTRA:                  -4.237
REMARK UNBOUND:                -3.465
REMARK SMILES CCCCCCCCCCCCCCCCCCCCCCCC(=O)[O-]
REMARK SMILES IDX 13 1 14 2 15 3 16 4 17 5 18 6 19 7 20 8 21 9 22 10 23 11
REMARK SMILES IDX 24 12 25 13 26 14 12 15 11 16 10 17 9 18 8 19 7 20 6 21 5 22
REMARK SMILES IDX 4 23 3 24 2 25 1 26
REMARK H PARENT
REMARK Flexibility Score: inf
ROOT
ATOM      1  C   UNL     1      76.597  79.729  74.456  1.00  0.00     0.000 C 
ENDROOT
BRANCH   1   2
ATOM      2  C   UNL     1      75.437  80.448  73.752  1.00  0.00     0.000 C 
BRANCH   2   3
ATOM      3  C   UNL     1      74.127  80.403  74.559  1.00  0.00     0.000 C 
BRANCH   3   4
ATOM      4  C   UNL     1      73.682  81.750  75.164  1.00  0.00     0.000 C 
BRANCH   4   5
ATOM      5  C   UNL     1      74.453  82.982  74.653  1.00  0.00     0.000 C 
BRANCH   5   6
ATOM      6  C   UNL     1      75.424  83.612  75.670  1.00  0.00     0.000 C 
BRANCH   6   7
ATOM      7  C   UNL     1      75.577  82.797  76.973  1.00  0.00     0.000 C 
BRANCH   7   8
ATOM      8  C   UNL     1      76.973  82.165  77.114  1.00  0.00     0.000 C 
BRANCH   8   9
ATOM      9  C   UNL     1      76.981  80.934  78.037  1.00  0.00     0.000 C 
BRANCH   9  10
ATOM     10  C   UNL     1      75.607  80.635  78.674  1.00  0.00     0.006 C 
BRANCH  10  11
ATOM     11  C   UNL     1      75.741  80.012  80.071  1.00  0.00     0.053 C 
BRANCH  11  12
ATOM     12  C   UNL     1      74.681  78.982  80.299  1.00  0.00     0.041 C 
ATOM     13  O   UNL     1      74.493  78.512  81.453  1.00  0.00    -0.550 OA
ATOM     14  O   UNL     1      73.903  78.531  79.239  1.00  0.00    -0.550 OA
ENDBRANCH  11  12
ENDBRANCH  10  11
ENDBRANCH   9  10
ENDBRANCH   8   9
ENDBRANCH   7   8
ENDBRANCH   6   7
ENDBRANCH   5   6
ENDBRANCH   4   5
ENDBRANCH   3   4
ENDBRANCH   2   3
ENDBRANCH   1   2
BRANCH   1  15
ATOM     15  C   UNL     1      77.946  80.359  74.075  1.00  0.00     0.000 C 
BRANCH  15  16
ATOM     16  C   UNL     1      77.790  81.712  73.364  1.00  0.00     0.000 C 
BRANCH  16  17
ATOM     17  C   UNL     1      78.728  82.794  73.929  1.00  0.00     0.000 C 
BRANCH  17  18
ATOM     18  C   UNL     1      79.997  82.205  74.570  1.00  0.00    -0.000 C 
BRANCH  18  19
ATOM     19  C   UNL     1      80.525  82.971  75.799  1.00  0.00    -0.000 C 
BRANCH  19  20
ATOM     20  C   UNL     1      81.294  82.085  76.801  1.00  0.00    -0.000 C 
BRANCH  20  21
ATOM     21  C   UNL     1      80.480  80.854  77.241  1.00  0.00    -0.000 C 
BRANCH  21  22
ATOM     22  C   UNL     1      80.472  80.661  78.770  1.00  0.00    -0.000 C 
BRANCH  22  23
ATOM     23  C   UNL     1      81.317  79.472  79.270  1.00  0.00    -0.000 C 
BRANCH  23  24
ATOM     24  C   UNL     1      80.574  78.128  79.144  1.00  0.00    -0.000 C 
BRANCH  24  25
ATOM     25  C   UNL     1      79.074  78.251  79.457  1.00  0.00    -0.003 C 
ATOM     26  C   UNL     1      78.200  77.451  78.492  1.00  0.00     0.004 C 
ENDBRANCH  24  25
ENDBRANCH  23  24
ENDBRANCH  22  23
ENDBRANCH  21  22
ENDBRANCH  20  21
ENDBRANCH  19  20
ENDBRANCH  18  19
ENDBRANCH  17  18
ENDBRANCH  16  17
ENDBRANCH  15  16
ENDBRANCH   1  15
TORSDOF 22
ENDMDL
