MODEL 1
REMARK VINA RESULT:    -6.911      0.000      0.000
REMARK INTER + INTRA:         -11.305
REMARK INTER:                 -10.143
REMARK INTRA:                  -1.162
REMARK UNBOUND:                -1.162
REMARK SMILES O=c1c(OC[C@@H]2O[C@H](O)[C@H](O)[C@H](O)[C@@H]2O)c(-c2ccc(O)c(O)c2)oc2cc(O)cc(O)c12
REMARK SMILES IDX 4 1 3 2 16 3 25 4 2 5 26 6 1 7 33 8 27 9 31 10 28 11 30 12
REMARK SMILES IDX 17 13 18 14 19 15 20 16 24 17 22 18 21 19 23 21 32 23 29 25
REMARK SMILES IDX 5 27 6 28 14 29 7 30 12 31 8 32 10 33 15 34 13 36 9 38 11 40
REMARK H PARENT 21 20 23 22 32 24 29 26 15 35 13 37 9 39 11 41
REMARK Flexibility Score: inf
ROOT
ATOM      1  O   UNL     1      12.573   0.608   1.031  1.00  0.00    -0.483 OA
ENDROOT
BRANCH   1   2
ATOM      2  C   UNL     1      11.889   1.635   0.361  1.00  0.00     0.211 A 
ATOM      3  C   UNL     1      12.496   2.260  -0.744  1.00  0.00     0.180 A 
ATOM      4  O   UNL     1      11.911   3.300  -1.327  1.00  0.00    -0.452 OA
ATOM      5  C   UNL     1      10.654   2.132   0.817  1.00  0.00     0.239 A 
ATOM      6  C   UNL     1      10.732   3.776  -0.953  1.00  0.00     0.146 A 
ATOM      7  O   UNL     1      10.175   1.703   1.898  1.00  0.00    -0.285 OA
ATOM      8  C   UNL     1      10.013   3.177   0.110  1.00  0.00     0.111 A 
ATOM      9  C   UNL     1      10.210   4.888  -1.620  1.00  0.00     0.094 A 
ATOM     10  C   UNL     1       8.729   3.693   0.443  1.00  0.00     0.134 A 
ATOM     11  C   UNL     1       8.982   5.432  -1.235  1.00  0.00     0.123 A 
ATOM     12  C   UNL     1       8.256   4.840  -0.204  1.00  0.00     0.093 A 
BRANCH   3  13
ATOM     13  C   UNL     1      13.794   1.801  -1.277  1.00  0.00     0.025 A 
ATOM     14  C   UNL     1      13.858   0.614  -2.025  1.00  0.00     0.016 A 
ATOM     15  C   UNL     1      15.084   0.155  -2.517  1.00  0.00     0.051 A 
ATOM     16  C   UNL     1      16.264   0.858  -2.236  1.00  0.00     0.157 A 
ATOM     17  C   UNL     1      14.980   2.491  -0.982  1.00  0.00     0.062 A 
ATOM     18  C   UNL     1      16.213   2.025  -1.461  1.00  0.00     0.158 A 
BRANCH  16  19
ATOM     19  O   UNL     1      17.490   0.401  -2.714  1.00  0.00    -0.504 OA
ATOM     20  H   UNL     1      18.333   0.957  -2.624  1.00  0.00     0.293 HD
ENDBRANCH  16  19
BRANCH  18  21
ATOM     21  O   UNL     1      17.391   2.703  -1.152  1.00  0.00    -0.504 OA
ATOM     22  H   UNL     1      17.505   3.193  -0.274  1.00  0.00     0.293 HD
ENDBRANCH  18  21
ENDBRANCH   3  13
BRANCH  10  23
ATOM     23  O   UNL     1       7.875   3.082   1.364  1.00  0.00    -0.507 OA
ATOM     24  H   UNL     1       7.969   2.121   1.655  1.00  0.00     0.293 HD
ENDBRANCH  10  23
BRANCH  11  25
ATOM     25  O   UNL     1       8.470   6.556  -1.878  1.00  0.00    -0.508 OA
ATOM     26  H   UNL     1       7.532   6.564  -2.261  1.00  0.00     0.293 HD
ENDBRANCH  11  25
ENDBRANCH   1   2
BRANCH   1  27
ATOM     27  C   UNL     1      13.271   0.768   2.264  1.00  0.00     0.265 C 
BRANCH  27  28
ATOM     28  C   UNL     1      14.780   0.461   2.128  1.00  0.00     0.190 C 
ATOM     29  C   UNL     1      15.769   1.531   2.683  1.00  0.00     0.178 C 
ATOM     30  O   UNL     1      15.098  -0.878   2.497  1.00  0.00    -0.340 OA
ATOM     31  C   UNL     1      16.094   1.345   4.170  1.00  0.00     0.179 C 
ATOM     32  C   UNL     1      15.356  -1.074   3.878  1.00  0.00     0.279 C 
ATOM     33  C   UNL     1      16.452  -0.136   4.417  1.00  0.00     0.201 C 
BRANCH  29  34
ATOM     34  O   UNL     1      15.295   2.831   2.450  1.00  0.00    -0.387 OA
ATOM     35  H   UNL     1      15.871   3.226   1.745  1.00  0.00     0.211 HD
ENDBRANCH  29  34
BRANCH  31  36
ATOM     36  O   UNL     1      15.036   1.833   4.965  1.00  0.00    -0.387 OA
ATOM     37  H   UNL     1      14.526   1.080   5.363  1.00  0.00     0.211 HD
ENDBRANCH  31  36
BRANCH  32  38
ATOM     38  O   UNL     1      14.167  -0.983   4.625  1.00  0.00    -0.366 OA
ATOM     39  H   UNL     1      13.552  -0.379   4.130  1.00  0.00     0.213 HD
ENDBRANCH  32  38
BRANCH  33  40
ATOM     40  O   UNL     1      16.678  -0.389   5.780  1.00  0.00    -0.385 OA
ATOM     41  H   UNL     1      16.811   0.492   6.217  1.00  0.00     0.211 HD
ENDBRANCH  33  40
ENDBRANCH  27  28
ENDBRANCH   1  27
TORSDOF 12
ENDMDL
MODEL 2
REMARK VINA RESULT:    -6.518      2.279      6.099
REMARK INTER + INTRA:         -10.728
REMARK INTER:                  -9.214
REMARK INTRA:                  -1.515
REMARK UNBOUND:                -1.162
REMARK SMILES O=c1c(OC[C@@H]2O[C@H](O)[C@H](O)[C@H](O)[C@@H]2O)c(-c2ccc(O)c(O)c2)oc2cc(O)cc(O)c12
REMARK SMILES IDX 4 1 3 2 16 3 25 4 2 5 26 6 1 7 33 8 27 9 31 10 28 11 30 12
REMARK SMILES IDX 17 13 18 14 19 15 20 16 24 17 22 18 21 19 23 21 32 23 29 25
REMARK SMILES IDX 5 27 6 28 14 29 7 30 12 31 8 32 10 33 15 34 13 36 9 38 11 40
REMARK H PARENT 21 20 23 22 32 24 29 26 15 35 13 37 9 39 11 41
REMARK Flexibility Score: inf
ROOT
ATOM      1  O   UNL     1      12.877   3.484   0.566  1.00  0.00    -0.483 OA
ENDROOT
BRANCH   1   2
ATOM      2  C   UNL     1      11.866   2.724   1.177  1.00  0.00     0.211 A 
ATOM      3  C   UNL     1      10.538   3.186   1.138  1.00  0.00     0.180 A 
ATOM      4  O   UNL     1       9.585   2.534   1.796  1.00  0.00    -0.452 OA
ATOM      5  C   UNL     1      12.149   1.559   1.914  1.00  0.00     0.239 A 
ATOM      6  C   UNL     1       9.803   1.414   2.471  1.00  0.00     0.146 A 
ATOM      7  O   UNL     1      13.347   1.221   2.103  1.00  0.00    -0.285 OA
ATOM      8  C   UNL     1      11.094   0.836   2.519  1.00  0.00     0.111 A 
ATOM      9  C   UNL     1       8.735   0.816   3.146  1.00  0.00     0.094 A 
ATOM     10  C   UNL     1      11.267  -0.393   3.215  1.00  0.00     0.134 A 
ATOM     11  C   UNL     1       8.933  -0.351   3.890  1.00  0.00     0.123 A 
ATOM     12  C   UNL     1      10.194  -0.941   3.928  1.00  0.00     0.093 A 
BRANCH   3  13
ATOM     13  C   UNL     1      10.162   4.403   0.392  1.00  0.00     0.025 A 
ATOM     14  C   UNL     1       9.722   5.539   1.091  1.00  0.00     0.016 A 
ATOM     15  C   UNL     1       9.340   6.691   0.396  1.00  0.00     0.051 A 
ATOM     16  C   UNL     1       9.360   6.708  -1.006  1.00  0.00     0.157 A 
ATOM     17  C   UNL     1      10.162   4.417  -1.011  1.00  0.00     0.062 A 
ATOM     18  C   UNL     1       9.765   5.567  -1.712  1.00  0.00     0.158 A 
BRANCH  16  19
ATOM     19  O   UNL     1       8.972   7.849  -1.704  1.00  0.00    -0.504 OA
ATOM     20  H   UNL     1       9.559   8.676  -1.732  1.00  0.00     0.293 HD
ENDBRANCH  16  19
BRANCH  18  21
ATOM     21  O   UNL     1       9.750   5.572  -3.105  1.00  0.00    -0.504 OA
ATOM     22  H   UNL     1       8.905   5.771  -3.624  1.00  0.00     0.293 HD
ENDBRANCH  18  21
ENDBRANCH   3  13
BRANCH  10  23
ATOM     23  O   UNL     1      12.458  -1.123   3.193  1.00  0.00    -0.507 OA
ATOM     24  H   UNL     1      13.313  -0.803   3.621  1.00  0.00     0.293 HD
ENDBRANCH  10  23
BRANCH  11  25
ATOM     25  O   UNL     1       7.879  -0.938   4.586  1.00  0.00    -0.508 OA
ATOM     26  H   UNL     1       8.000  -1.806   5.094  1.00  0.00     0.293 HD
ENDBRANCH  11  25
ENDBRANCH   1   2
BRANCH   1  27
ATOM     27  C   UNL     1      13.511   3.149  -0.667  1.00  0.00     0.265 C 
BRANCH  27  28
ATOM     28  C   UNL     1      14.984   3.615  -0.715  1.00  0.00     0.190 C 
ATOM     29  C   UNL     1      15.882   3.233   0.501  1.00  0.00     0.178 C 
ATOM     30  O   UNL     1      15.586   3.385  -1.985  1.00  0.00    -0.340 OA
ATOM     31  C   UNL     1      16.546   1.857   0.356  1.00  0.00     0.179 C 
ATOM     32  C   UNL     1      16.164   2.099  -2.150  1.00  0.00     0.279 C 
ATOM     33  C   UNL     1      17.184   1.761  -1.046  1.00  0.00     0.201 C 
BRANCH  29  34
ATOM     34  O   UNL     1      15.165   3.299   1.705  1.00  0.00    -0.387 OA
ATOM     35  H   UNL     1      14.273   3.677   1.489  1.00  0.00     0.211 HD
ENDBRANCH  29  34
BRANCH  31  36
ATOM     36  O   UNL     1      15.620   0.836   0.651  1.00  0.00    -0.387 OA
ATOM     37  H   UNL     1      15.022   0.677  -0.125  1.00  0.00     0.211 HD
ENDBRANCH  31  36
BRANCH  32  38
ATOM     38  O   UNL     1      15.166   1.115  -2.267  1.00  0.00    -0.366 OA
ATOM     39  H   UNL     1      14.437   1.497  -2.824  1.00  0.00     0.213 HD
ENDBRANCH  32  38
BRANCH  33  40
ATOM     40  O   UNL     1      17.737   0.489  -1.272  1.00  0.00    -0.385 OA
ATOM     41  H   UNL     1      17.425   0.195  -2.166  1.00  0.00     0.211 HD
ENDBRANCH  33  40
ENDBRANCH  27  28
ENDBRANCH   1  27
TORSDOF 12
ENDMDL
MODEL 3
REMARK VINA RESULT:    -6.467      1.467      1.555
REMARK INTER + INTRA:         -10.653
REMARK INTER:                  -9.431
REMARK INTRA:                  -1.222
REMARK UNBOUND:                -1.162
REMARK SMILES O=c1c(OC[C@@H]2O[C@H](O)[C@H](O)[C@H](O)[C@@H]2O)c(-c2ccc(O)c(O)c2)oc2cc(O)cc(O)c12
REMARK SMILES IDX 4 1 3 2 16 3 25 4 2 5 26 6 1 7 33 8 27 9 31 10 28 11 30 12
REMARK SMILES IDX 17 13 18 14 19 15 20 16 24 17 22 18 21 19 23 21 32 23 29 25
REMARK SMILES IDX 5 27 6 28 14 29 7 30 12 31 8 32 10 33 15 34 13 36 9 38 11 40
REMARK H PARENT 21 20 23 22 32 24 29 26 15 35 13 37 9 39 11 41
REMARK Flexibility Score: inf
ROOT
ATOM      1  O   UNL     1      13.301   3.146   1.470  1.00  0.00    -0.483 OA
ENDROOT
BRANCH   1   2
ATOM      2  C   UNL     1      12.391   3.699   0.555  1.00  0.00     0.211 A 
ATOM      3  C   UNL     1      12.523   3.399  -0.813  1.00  0.00     0.180 A 
ATOM      4  O   UNL     1      11.737   3.991  -1.706  1.00  0.00    -0.452 OA
ATOM      5  C   UNL     1      11.406   4.625   0.945  1.00  0.00     0.239 A 
ATOM      6  C   UNL     1      10.773   4.840  -1.377  1.00  0.00     0.146 A 
ATOM      7  O   UNL     1      11.379   5.035   2.134  1.00  0.00    -0.285 OA
ATOM      8  C   UNL     1      10.522   5.160  -0.020  1.00  0.00     0.111 A 
ATOM      9  C   UNL     1      10.013   5.424  -2.394  1.00  0.00     0.094 A 
ATOM     10  C   UNL     1       9.444   6.038   0.286  1.00  0.00     0.134 A 
ATOM     11  C   UNL     1       9.007   6.343  -2.085  1.00  0.00     0.123 A 
ATOM     12  C   UNL     1       8.735   6.652  -0.754  1.00  0.00     0.093 A 
BRANCH   3  13
ATOM     13  C   UNL     1      13.536   2.443  -1.303  1.00  0.00     0.025 A 
ATOM     14  C   UNL     1      13.136   1.169  -1.740  1.00  0.00     0.016 A 
ATOM     15  C   UNL     1      14.087   0.245  -2.184  1.00  0.00     0.051 A 
ATOM     16  C   UNL     1      15.450   0.571  -2.163  1.00  0.00     0.157 A 
ATOM     17  C   UNL     1      14.903   2.758  -1.265  1.00  0.00     0.062 A 
ATOM     18  C   UNL     1      15.860   1.827  -1.696  1.00  0.00     0.158 A 
BRANCH  16  19
ATOM     19  O   UNL     1      16.403  -0.349  -2.595  1.00  0.00    -0.504 OA
ATOM     20  H   UNL     1      17.017  -0.821  -1.940  1.00  0.00     0.293 HD
ENDBRANCH  16  19
BRANCH  18  21
ATOM     21  O   UNL     1      17.218   2.137  -1.641  1.00  0.00    -0.504 OA
ATOM     22  H   UNL     1      17.661   2.704  -2.352  1.00  0.00     0.293 HD
ENDBRANCH  18  21
ENDBRANCH   3  13
BRANCH  10  23
ATOM     23  O   UNL     1       9.015   6.295   1.590  1.00  0.00    -0.507 OA
ATOM     24  H   UNL     1       8.070   6.565   1.819  1.00  0.00     0.293 HD
ENDBRANCH  10  23
BRANCH  11  25
ATOM     25  O   UNL     1       8.263   6.949  -3.095  1.00  0.00    -0.508 OA
ATOM     26  H   UNL     1       8.402   6.710  -4.070  1.00  0.00     0.293 HD
ENDBRANCH  11  25
ENDBRANCH   1   2
BRANCH   1  27
ATOM     27  C   UNL     1      13.196   1.838   2.030  1.00  0.00     0.265 C 
BRANCH  27  28
ATOM     28  C   UNL     1      14.447   0.976   1.745  1.00  0.00     0.190 C 
ATOM     29  C   UNL     1      15.790   1.458   2.372  1.00  0.00     0.178 C 
ATOM     30  O   UNL     1      14.193  -0.417   1.899  1.00  0.00    -0.340 OA
ATOM     31  C   UNL     1      16.023   0.926   3.792  1.00  0.00     0.179 C 
ATOM     32  C   UNL     1      14.359  -0.914   3.218  1.00  0.00     0.279 C 
ATOM     33  C   UNL     1      15.747  -0.593   3.803  1.00  0.00     0.201 C 
BRANCH  29  34
ATOM     34  O   UNL     1      15.886   2.857   2.357  1.00  0.00    -0.387 OA
ATOM     35  H   UNL     1      15.093   3.196   1.867  1.00  0.00     0.211 HD
ENDBRANCH  29  34
BRANCH  31  36
ATOM     36  O   UNL     1      15.264   1.667   4.720  1.00  0.00    -0.387 OA
ATOM     37  H   UNL     1      15.565   1.475   5.646  1.00  0.00     0.211 HD
ENDBRANCH  31  36
BRANCH  32  38
ATOM     38  O   UNL     1      13.318  -0.470   4.053  1.00  0.00    -0.366 OA
ATOM     39  H   UNL     1      12.477  -0.513   3.525  1.00  0.00     0.213 HD
ENDBRANCH  32  38
BRANCH  33  40
ATOM     40  O   UNL     1      15.862  -1.125   5.098  1.00  0.00    -0.385 OA
ATOM     41  H   UNL     1      16.607  -0.643   5.541  1.00  0.00     0.211 HD
ENDBRANCH  33  40
ENDBRANCH  27  28
ENDBRANCH   1  27
TORSDOF 12
ENDMDL
MODEL 4
REMARK VINA RESULT:    -6.341      3.092      7.196
REMARK INTER + INTRA:         -10.469
REMARK INTER:                  -8.837
REMARK INTRA:                  -1.632
REMARK UNBOUND:                -1.162
REMARK SMILES O=c1c(OC[C@@H]2O[C@H](O)[C@H](O)[C@H](O)[C@@H]2O)c(-c2ccc(O)c(O)c2)oc2cc(O)cc(O)c12
REMARK SMILES IDX 4 1 3 2 16 3 25 4 2 5 26 6 1 7 33 8 27 9 31 10 28 11 30 12
REMARK SMILES IDX 17 13 18 14 19 15 20 16 24 17 22 18 21 19 23 21 32 23 29 25
REMARK SMILES IDX 5 27 6 28 14 29 7 30 12 31 8 32 10 33 15 34 13 36 9 38 11 40
REMARK H PARENT 21 20 23 22 32 24 29 26 15 35 13 37 9 39 11 41
REMARK Flexibility Score: inf
ROOT
ATOM      1  O   UNL     1      11.484   1.281  -0.449  1.00  0.00    -0.483 OA
ENDROOT
BRANCH   1   2
ATOM      2  C   UNL     1      12.875   1.446  -0.552  1.00  0.00     0.211 A 
ATOM      3  C   UNL     1      13.502   2.475   0.173  1.00  0.00     0.180 A 
ATOM      4  O   UNL     1      14.799   2.712   0.011  1.00  0.00    -0.452 OA
ATOM      5  C   UNL     1      13.656   0.675  -1.434  1.00  0.00     0.239 A 
ATOM      6  C   UNL     1      15.578   1.987  -0.781  1.00  0.00     0.146 A 
ATOM      7  O   UNL     1      13.092  -0.135  -2.213  1.00  0.00    -0.285 OA
ATOM      8  C   UNL     1      15.052   0.890  -1.506  1.00  0.00     0.111 A 
ATOM      9  C   UNL     1      16.928   2.330  -0.897  1.00  0.00     0.094 A 
ATOM     10  C   UNL     1      15.938   0.113  -2.304  1.00  0.00     0.134 A 
ATOM     11  C   UNL     1      17.771   1.605  -1.743  1.00  0.00     0.123 A 
ATOM     12  C   UNL     1      17.272   0.511  -2.446  1.00  0.00     0.093 A 
BRANCH   3  13
ATOM     13  C   UNL     1      12.751   3.331   1.113  1.00  0.00     0.025 A 
ATOM     14  C   UNL     1      12.888   3.131   2.497  1.00  0.00     0.016 A 
ATOM     15  C   UNL     1      12.164   3.918   3.398  1.00  0.00     0.051 A 
ATOM     16  C   UNL     1      11.269   4.888   2.926  1.00  0.00     0.157 A 
ATOM     17  C   UNL     1      11.839   4.289   0.645  1.00  0.00     0.062 A 
ATOM     18  C   UNL     1      11.101   5.070   1.547  1.00  0.00     0.158 A 
BRANCH  16  19
ATOM     19  O   UNL     1      10.538   5.668   3.819  1.00  0.00    -0.504 OA
ATOM     20  H   UNL     1      10.988   6.147   4.593  1.00  0.00     0.293 HD
ENDBRANCH  16  19
BRANCH  18  21
ATOM     21  O   UNL     1      10.183   6.009   1.079  1.00  0.00    -0.504 OA
ATOM     22  H   UNL     1      10.411   6.639   0.321  1.00  0.00     0.293 HD
ENDBRANCH  18  21
ENDBRANCH   3  13
BRANCH  10  23
ATOM     23  O   UNL     1      15.556  -1.076  -2.933  1.00  0.00    -0.507 OA
ATOM     24  H   UNL     1      16.193  -1.837  -3.111  1.00  0.00     0.293 HD
ENDBRANCH  10  23
BRANCH  11  25
ATOM     25  O   UNL     1      19.112   1.957  -1.883  1.00  0.00    -0.508 OA
ATOM     26  H   UNL     1      19.471   2.827  -1.509  1.00  0.00     0.293 HD
ENDBRANCH  11  25
ENDBRANCH   1   2
BRANCH   1  27
ATOM     27  C   UNL     1      10.525   1.967  -1.250  1.00  0.00     0.265 C 
BRANCH  27  28
ATOM     28  C   UNL     1       9.145   1.270  -1.240  1.00  0.00     0.190 C 
ATOM     29  C   UNL     1       9.142  -0.283  -1.374  1.00  0.00     0.178 C 
ATOM     30  O   UNL     1       8.289   1.773  -0.219  1.00  0.00    -0.340 OA
ATOM     31  C   UNL     1       9.268  -1.009  -0.028  1.00  0.00     0.179 C 
ATOM     32  C   UNL     1       8.428   1.142   1.044  1.00  0.00     0.279 C 
ATOM     33  C   UNL     1       8.264  -0.388   0.966  1.00  0.00     0.201 C 
BRANCH  29  34
ATOM     34  O   UNL     1      10.141  -0.721  -2.255  1.00  0.00    -0.387 OA
ATOM     35  H   UNL     1      10.593  -1.490  -1.820  1.00  0.00     0.211 HD
ENDBRANCH  29  34
BRANCH  31  36
ATOM     36  O   UNL     1      10.609  -0.997   0.408  1.00  0.00    -0.387 OA
ATOM     37  H   UNL     1      10.900  -1.912   0.659  1.00  0.00     0.211 HD
ENDBRANCH  31  36
BRANCH  32  38
ATOM     38  O   UNL     1       9.640   1.513   1.656  1.00  0.00    -0.366 OA
ATOM     39  H   UNL     1       9.450   2.299   2.235  1.00  0.00     0.213 HD
ENDBRANCH  32  38
BRANCH  33  40
ATOM     40  O   UNL     1       8.391  -0.955   2.245  1.00  0.00    -0.385 OA
ATOM     41  H   UNL     1       7.904  -1.819   2.225  1.00  0.00     0.211 HD
ENDBRANCH  33  40
ENDBRANCH  27  28
ENDBRANCH   1  27
TORSDOF 12
ENDMDL
MODEL 5
REMARK VINA RESULT:    -6.293      2.782      7.732
REMARK INTER + INTRA:         -10.398
REMARK INTER:                  -9.596
REMARK INTRA:                  -0.802
REMARK UNBOUND:                -1.162
REMARK SMILES O=c1c(OC[C@@H]2O[C@H](O)[C@H](O)[C@H](O)[C@@H]2O)c(-c2ccc(O)c(O)c2)oc2cc(O)cc(O)c12
REMARK SMILES IDX 4 1 3 2 16 3 25 4 2 5 26 6 1 7 33 8 27 9 31 10 28 11 30 12
REMARK SMILES IDX 17 13 18 14 19 15 20 16 24 17 22 18 21 19 23 21 32 23 29 25
REMARK SMILES IDX 5 27 6 28 14 29 7 30 12 31 8 32 10 33 15 34 13 36 9 38 11 40
REMARK H PARENT 21 20 23 22 32 24 29 26 15 35 13 37 9 39 11 41
REMARK Flexibility Score: inf
ROOT
ATOM      1  O   UNL     1      12.004   3.844   1.758  1.00  0.00    -0.483 OA
ENDROOT
BRANCH   1   2
ATOM      2  C   UNL     1      12.985   3.136   1.046  1.00  0.00     0.211 A 
ATOM      3  C   UNL     1      12.782   1.772   0.764  1.00  0.00     0.180 A 
ATOM      4  O   UNL     1      13.740   1.061   0.181  1.00  0.00    -0.452 OA
ATOM      5  C   UNL     1      14.215   3.718   0.685  1.00  0.00     0.239 A 
ATOM      6  C   UNL     1      14.897   1.579  -0.208  1.00  0.00     0.146 A 
ATOM      7  O   UNL     1      14.485   4.884   1.074  1.00  0.00    -0.285 OA
ATOM      8  C   UNL     1      15.172   2.956  -0.023  1.00  0.00     0.111 A 
ATOM      9  C   UNL     1      15.848   0.740  -0.796  1.00  0.00     0.094 A 
ATOM     10  C   UNL     1      16.408   3.475  -0.502  1.00  0.00     0.134 A 
ATOM     11  C   UNL     1      17.089   1.247  -1.193  1.00  0.00     0.123 A 
ATOM     12  C   UNL     1      17.365   2.604  -1.036  1.00  0.00     0.093 A 
BRANCH   3  13
ATOM     13  C   UNL     1      11.523   1.087   1.116  1.00  0.00     0.025 A 
ATOM     14  C   UNL     1      10.931   0.204   0.197  1.00  0.00     0.016 A 
ATOM     15  C   UNL     1       9.726  -0.433   0.508  1.00  0.00     0.051 A 
ATOM     16  C   UNL     1       9.081  -0.168   1.724  1.00  0.00     0.157 A 
ATOM     17  C   UNL     1      10.864   1.365   2.324  1.00  0.00     0.062 A 
ATOM     18  C   UNL     1       9.647   0.738   2.632  1.00  0.00     0.158 A 
BRANCH  16  19
ATOM     19  O   UNL     1       7.875  -0.793   2.035  1.00  0.00    -0.504 OA
ATOM     20  H   UNL     1       7.291  -0.465   2.797  1.00  0.00     0.293 HD
ENDBRANCH  16  19
BRANCH  18  21
ATOM     21  O   UNL     1       8.987   1.028   3.824  1.00  0.00    -0.504 OA
ATOM     22  H   UNL     1       8.664   1.963   4.036  1.00  0.00     0.293 HD
ENDBRANCH  18  21
ENDBRANCH   3  13
BRANCH  10  23
ATOM     23  O   UNL     1      16.712   4.839  -0.511  1.00  0.00    -0.507 OA
ATOM     24  H   UNL     1      16.207   5.516  -1.061  1.00  0.00     0.293 HD
ENDBRANCH  10  23
BRANCH  11  25
ATOM     25  O   UNL     1      18.051   0.412  -1.755  1.00  0.00    -0.508 OA
ATOM     26  H   UNL     1      18.246   0.425  -2.749  1.00  0.00     0.293 HD
ENDBRANCH  11  25
ENDBRANCH   1   2
BRANCH   1  27
ATOM     27  C   UNL     1      11.291   4.971   1.254  1.00  0.00     0.265 C 
BRANCH  27  28
ATOM     28  C   UNL     1       9.860   4.604   0.797  1.00  0.00     0.190 C 
ATOM     29  C   UNL     1       8.837   5.774   0.682  1.00  0.00     0.178 C 
ATOM     30  O   UNL     1       9.857   3.710  -0.311  1.00  0.00    -0.340 OA
ATOM     31  C   UNL     1       8.855   6.464  -0.688  1.00  0.00     0.179 C 
ATOM     32  C   UNL     1       9.921   4.332  -1.584  1.00  0.00     0.279 C 
ATOM     33  C   UNL     1       8.813   5.382  -1.788  1.00  0.00     0.201 C 
BRANCH  29  34
ATOM     34  O   UNL     1       9.025   6.718   1.702  1.00  0.00    -0.387 OA
ATOM     35  H   UNL     1       9.422   7.524   1.279  1.00  0.00     0.211 HD
ENDBRANCH  29  34
BRANCH  31  36
ATOM     36  O   UNL     1       9.953   7.346  -0.774  1.00  0.00    -0.387 OA
ATOM     37  H   UNL     1      10.765   6.925  -0.388  1.00  0.00     0.211 HD
ENDBRANCH  31  36
BRANCH  32  38
ATOM     38  O   UNL     1      11.203   4.865  -1.815  1.00  0.00    -0.366 OA
ATOM     39  H   UNL     1      11.438   5.422  -1.026  1.00  0.00     0.213 HD
ENDBRANCH  32  38
BRANCH  33  40
ATOM     40  O   UNL     1       8.913   5.949  -3.070  1.00  0.00    -0.385 OA
ATOM     41  H   UNL     1       8.365   5.387  -3.676  1.00  0.00     0.211 HD
ENDBRANCH  33  40
ENDBRANCH  27  28
ENDBRANCH   1  27
TORSDOF 12
ENDMDL
MODEL 6
REMARK VINA RESULT:    -6.150      2.537      7.084
REMARK INTER + INTRA:         -10.188
REMARK INTER:                  -8.326
REMARK INTRA:                  -1.862
REMARK UNBOUND:                -1.162
REMARK SMILES O=c1c(OC[C@@H]2O[C@H](O)[C@H](O)[C@H](O)[C@@H]2O)c(-c2ccc(O)c(O)c2)oc2cc(O)cc(O)c12
REMARK SMILES IDX 4 1 3 2 16 3 25 4 2 5 26 6 1 7 33 8 27 9 31 10 28 11 30 12
REMARK SMILES IDX 17 13 18 14 19 15 20 16 24 17 22 18 21 19 23 21 32 23 29 25
REMARK SMILES IDX 5 27 6 28 14 29 7 30 12 31 8 32 10 33 15 34 13 36 9 38 11 40
REMARK H PARENT 21 20 23 22 32 24 29 26 15 35 13 37 9 39 11 41
REMARK Flexibility Score: inf
ROOT
ATOM      1  O   UNL     1      11.079   1.488   0.765  1.00  0.00    -0.483 OA
ENDROOT
BRANCH   1   2
ATOM      2  C   UNL     1      12.403   1.753   0.379  1.00  0.00     0.211 A 
ATOM      3  C   UNL     1      12.730   3.021  -0.135  1.00  0.00     0.180 A 
ATOM      4  O   UNL     1      13.951   3.258  -0.600  1.00  0.00    -0.452 OA
ATOM      5  C   UNL     1      13.400   0.760   0.397  1.00  0.00     0.239 A 
ATOM      6  C   UNL     1      14.929   2.363  -0.568  1.00  0.00     0.146 A 
ATOM      7  O   UNL     1      13.091  -0.424   0.693  1.00  0.00    -0.285 OA
ATOM      8  C   UNL     1      14.716   1.077  -0.014  1.00  0.00     0.111 A 
ATOM      9  C   UNL     1      16.175   2.706  -1.101  1.00  0.00     0.094 A 
ATOM     10  C   UNL     1      15.809   0.168   0.043  1.00  0.00     0.134 A 
ATOM     11  C   UNL     1      17.220   1.778  -1.109  1.00  0.00     0.123 A 
ATOM     12  C   UNL     1      17.030   0.517  -0.548  1.00  0.00     0.093 A 
BRANCH   3  13
ATOM     13  C   UNL     1      11.738   4.113  -0.193  1.00  0.00     0.025 A 
ATOM     14  C   UNL     1      11.475   4.875   0.957  1.00  0.00     0.016 A 
ATOM     15  C   UNL     1      10.521   5.897   0.923  1.00  0.00     0.051 A 
ATOM     16  C   UNL     1       9.795   6.145  -0.250  1.00  0.00     0.157 A 
ATOM     17  C   UNL     1      10.995   4.351  -1.360  1.00  0.00     0.062 A 
ATOM     18  C   UNL     1      10.027   5.366  -1.392  1.00  0.00     0.158 A 
BRANCH  16  19
ATOM     19  O   UNL     1       8.836   7.155  -0.287  1.00  0.00    -0.504 OA
ATOM     20  H   UNL     1       9.079   8.120  -0.089  1.00  0.00     0.293 HD
ENDBRANCH  16  19
BRANCH  18  21
ATOM     21  O   UNL     1       9.278   5.589  -2.546  1.00  0.00    -0.504 OA
ATOM     22  H   UNL     1       8.391   6.074  -2.517  1.00  0.00     0.293 HD
ENDBRANCH  18  21
ENDBRANCH   3  13
BRANCH  10  23
ATOM     23  O   UNL     1      15.749  -1.060   0.706  1.00  0.00    -0.507 OA
ATOM     24  H   UNL     1      14.897  -1.446   1.081  1.00  0.00     0.293 HD
ENDBRANCH  10  23
BRANCH  11  25
ATOM     25  O   UNL     1      18.456   2.104  -1.662  1.00  0.00    -0.508 OA
ATOM     26  H   UNL     1      19.171   1.402  -1.807  1.00  0.00     0.293 HD
ENDBRANCH  11  25
ENDBRANCH   1   2
BRANCH   1  27
ATOM     27  C   UNL     1      10.635   1.378   2.116  1.00  0.00     0.265 C 
BRANCH  27  28
ATOM     28  C   UNL     1       9.197   0.821   2.218  1.00  0.00     0.190 C 
ATOM     29  C   UNL     1       8.102   1.542   1.374  1.00  0.00     0.178 C 
ATOM     30  O   UNL     1       9.158  -0.600   2.138  1.00  0.00    -0.340 OA
ATOM     31  C   UNL     1       7.974   0.992  -0.053  1.00  0.00     0.179 C 
ATOM     32  C   UNL     1       9.087  -1.125   0.821  1.00  0.00     0.279 C 
ATOM     33  C   UNL     1       7.908  -0.549   0.015  1.00  0.00     0.201 C 
BRANCH  29  34
ATOM     34  O   UNL     1       8.315   2.928   1.341  1.00  0.00    -0.387 OA
ATOM     35  H   UNL     1       7.533   3.351   1.781  1.00  0.00     0.211 HD
ENDBRANCH  29  34
BRANCH  31  36
ATOM     36  O   UNL     1       9.010   1.500  -0.864  1.00  0.00    -0.387 OA
ATOM     37  H   UNL     1       9.803   0.903  -0.827  1.00  0.00     0.211 HD
ENDBRANCH  31  36
BRANCH  32  38
ATOM     38  O   UNL     1      10.314  -0.963   0.153  1.00  0.00    -0.366 OA
ATOM     39  H   UNL     1      11.022  -1.342   0.739  1.00  0.00     0.213 HD
ENDBRANCH  32  38
BRANCH  33  40
ATOM     40  O   UNL     1       7.875  -1.117  -1.269  1.00  0.00    -0.385 OA
ATOM     41  H   UNL     1       6.957  -1.469  -1.404  1.00  0.00     0.211 HD
ENDBRANCH  33  40
ENDBRANCH  27  28
ENDBRANCH   1  27
TORSDOF 12
ENDMDL
MODEL 7
REMARK VINA RESULT:    -5.973      1.915      4.658
REMARK INTER + INTRA:          -9.928
REMARK INTER:                  -7.949
REMARK INTRA:                  -1.979
REMARK UNBOUND:                -1.162
REMARK SMILES O=c1c(OC[C@@H]2O[C@H](O)[C@H](O)[C@H](O)[C@@H]2O)c(-c2ccc(O)c(O)c2)oc2cc(O)cc(O)c12
REMARK SMILES IDX 4 1 3 2 16 3 25 4 2 5 26 6 1 7 33 8 27 9 31 10 28 11 30 12
REMARK SMILES IDX 17 13 18 14 19 15 20 16 24 17 22 18 21 19 23 21 32 23 29 25
REMARK SMILES IDX 5 27 6 28 14 29 7 30 12 31 8 32 10 33 15 34 13 36 9 38 11 40
REMARK H PARENT 21 20 23 22 32 24 29 26 15 35 13 37 9 39 11 41
REMARK Flexibility Score: inf
ROOT
ATOM      1  O   UNL     1      13.420   1.862  -0.551  1.00  0.00    -0.483 OA
ENDROOT
BRANCH   1   2
ATOM      2  C   UNL     1      12.604   2.917  -0.111  1.00  0.00     0.211 A 
ATOM      3  C   UNL     1      12.734   3.383   1.210  1.00  0.00     0.180 A 
ATOM      4  O   UNL     1      11.905   4.310   1.676  1.00  0.00    -0.452 OA
ATOM      5  C   UNL     1      11.588   3.464  -0.917  1.00  0.00     0.239 A 
ATOM      6  C   UNL     1      10.959   4.876   0.940  1.00  0.00     0.146 A 
ATOM      7  O   UNL     1      11.343   2.949  -2.039  1.00  0.00    -0.285 OA
ATOM      8  C   UNL     1      10.788   4.518  -0.420  1.00  0.00     0.111 A 
ATOM      9  C   UNL     1      10.124   5.829   1.531  1.00  0.00     0.094 A 
ATOM     10  C   UNL     1       9.791   5.190  -1.182  1.00  0.00     0.134 A 
ATOM     11  C   UNL     1       9.099   6.427   0.792  1.00  0.00     0.123 A 
ATOM     12  C   UNL     1       8.933   6.099  -0.552  1.00  0.00     0.093 A 
BRANCH   3  13
ATOM     13  C   UNL     1      13.771   2.856   2.120  1.00  0.00     0.025 A 
ATOM     14  C   UNL     1      15.028   3.481   2.179  1.00  0.00     0.016 A 
ATOM     15  C   UNL     1      16.027   2.978   3.018  1.00  0.00     0.051 A 
ATOM     16  C   UNL     1      15.793   1.825   3.780  1.00  0.00     0.157 A 
ATOM     17  C   UNL     1      13.548   1.691   2.869  1.00  0.00     0.062 A 
ATOM     18  C   UNL     1      14.554   1.175   3.701  1.00  0.00     0.158 A 
BRANCH  16  19
ATOM     19  O   UNL     1      16.788   1.314   4.611  1.00  0.00    -0.504 OA
ATOM     20  H   UNL     1      16.811   1.530   5.601  1.00  0.00     0.293 HD
ENDBRANCH  16  19
BRANCH  18  21
ATOM     21  O   UNL     1      14.335   0.009   4.431  1.00  0.00    -0.504 OA
ATOM     22  H   UNL     1      13.900  -0.803   4.014  1.00  0.00     0.293 HD
ENDBRANCH  18  21
ENDBRANCH   3  13
BRANCH  10  23
ATOM     23  O   UNL     1       9.644   5.026  -2.562  1.00  0.00    -0.507 OA
ATOM     24  H   UNL     1      10.424   4.977  -3.200  1.00  0.00     0.293 HD
ENDBRANCH  10  23
BRANCH  11  25
ATOM     25  O   UNL     1       8.247   7.357   1.382  1.00  0.00    -0.508 OA
ATOM     26  H   UNL     1       7.879   7.219   2.315  1.00  0.00     0.293 HD
ENDBRANCH  11  25
ENDBRANCH   1   2
BRANCH   1  27
ATOM     27  C   UNL     1      13.031   0.490  -0.570  1.00  0.00     0.265 C 
BRANCH  27  28
ATOM     28  C   UNL     1      13.916  -0.357  -1.513  1.00  0.00     0.190 C 
ATOM     29  C   UNL     1      14.466   0.352  -2.788  1.00  0.00     0.178 C 
ATOM     30  O   UNL     1      14.885  -1.125  -0.804  1.00  0.00    -0.340 OA
ATOM     31  C   UNL     1      15.798   1.076  -2.554  1.00  0.00     0.179 C 
ATOM     32  C   UNL     1      16.105  -0.452  -0.539  1.00  0.00     0.279 C 
ATOM     33  C   UNL     1      16.757   0.120  -1.813  1.00  0.00     0.201 C 
BRANCH  29  34
ATOM     34  O   UNL     1      13.521   1.239  -3.324  1.00  0.00    -0.387 OA
ATOM     35  H   UNL     1      13.108   1.718  -2.560  1.00  0.00     0.211 HD
ENDBRANCH  29  34
BRANCH  31  36
ATOM     36  O   UNL     1      15.575   2.305  -1.901  1.00  0.00    -0.387 OA
ATOM     37  H   UNL     1      15.716   3.061  -2.529  1.00  0.00     0.211 HD
ENDBRANCH  31  36
BRANCH  32  38
ATOM     38  O   UNL     1      15.928   0.532   0.451  1.00  0.00    -0.366 OA
ATOM     39  H   UNL     1      16.782   1.036   0.524  1.00  0.00     0.213 HD
ENDBRANCH  32  38
BRANCH  33  40
ATOM     40  O   UNL     1      17.969   0.755  -1.494  1.00  0.00    -0.385 OA
ATOM     41  H   UNL     1      17.791   1.731  -1.499  1.00  0.00     0.211 HD
ENDBRANCH  33  40
ENDBRANCH  27  28
ENDBRANCH   1  27
TORSDOF 12
ENDMDL
MODEL 8
REMARK VINA RESULT:    -5.958      2.697      3.817
REMARK INTER + INTRA:          -9.906
REMARK INTER:                  -8.658
REMARK INTRA:                  -1.248
REMARK UNBOUND:                -1.162
REMARK SMILES O=c1c(OC[C@@H]2O[C@H](O)[C@H](O)[C@H](O)[C@@H]2O)c(-c2ccc(O)c(O)c2)oc2cc(O)cc(O)c12
REMARK SMILES IDX 4 1 3 2 16 3 25 4 2 5 26 6 1 7 33 8 27 9 31 10 28 11 30 12
REMARK SMILES IDX 17 13 18 14 19 15 20 16 24 17 22 18 21 19 23 21 32 23 29 25
REMARK SMILES IDX 5 27 6 28 14 29 7 30 12 31 8 32 10 33 15 34 13 36 9 38 11 40
REMARK H PARENT 21 20 23 22 32 24 29 26 15 35 13 37 9 39 11 41
REMARK Flexibility Score: inf
ROOT
ATOM      1  O   UNL     1      12.259   3.234   1.405  1.00  0.00    -0.483 OA
ENDROOT
BRANCH   1   2
ATOM      2  C   UNL     1      11.529   3.901   0.409  1.00  0.00     0.211 A 
ATOM      3  C   UNL     1      11.888   3.727  -0.941  1.00  0.00     0.180 A 
ATOM      4  O   UNL     1      11.276   4.427  -1.890  1.00  0.00    -0.452 OA
ATOM      5  C   UNL     1      10.507   4.819   0.717  1.00  0.00     0.239 A 
ATOM      6  C   UNL     1      10.285   5.273  -1.646  1.00  0.00     0.146 A 
ATOM      7  O   UNL     1      10.284   5.116   1.919  1.00  0.00    -0.285 OA
ATOM      8  C   UNL     1       9.811   5.472  -0.326  1.00  0.00     0.111 A 
ATOM      9  C   UNL     1       9.720   5.976  -2.714  1.00  0.00     0.094 A 
ATOM     10  C   UNL     1       8.712   6.353  -0.121  1.00  0.00     0.134 A 
ATOM     11  C   UNL     1       8.692   6.896  -2.490  1.00  0.00     0.123 A 
ATOM     12  C   UNL     1       8.202   7.085  -1.200  1.00  0.00     0.093 A 
BRANCH   3  13
ATOM     13  C   UNL     1      12.953   2.788  -1.345  1.00  0.00     0.025 A 
ATOM     14  C   UNL     1      12.625   1.460  -1.665  1.00  0.00     0.016 A 
ATOM     15  C   UNL     1      13.626   0.554  -2.026  1.00  0.00     0.051 A 
ATOM     16  C   UNL     1      14.970   0.955  -2.037  1.00  0.00     0.157 A 
ATOM     17  C   UNL     1      14.301   3.180  -1.338  1.00  0.00     0.062 A 
ATOM     18  C   UNL     1      15.309   2.269  -1.686  1.00  0.00     0.158 A 
BRANCH  16  19
ATOM     19  O   UNL     1      15.973   0.054  -2.387  1.00  0.00    -0.504 OA
ATOM     20  H   UNL     1      16.944   0.224  -2.146  1.00  0.00     0.293 HD
ENDBRANCH  16  19
BRANCH  18  21
ATOM     21  O   UNL     1      16.647   2.656  -1.662  1.00  0.00    -0.504 OA
ATOM     22  H   UNL     1      17.162   2.836  -2.513  1.00  0.00     0.293 HD
ENDBRANCH  18  21
ENDBRANCH   3  13
BRANCH  10  23
ATOM     23  O   UNL     1       8.070   6.500   1.111  1.00  0.00    -0.507 OA
ATOM     24  H   UNL     1       7.161   6.926   1.215  1.00  0.00     0.293 HD
ENDBRANCH  10  23
BRANCH  11  25
ATOM     25  O   UNL     1       8.142   7.619  -3.546  1.00  0.00    -0.508 OA
ATOM     26  H   UNL     1       8.320   7.363  -4.510  1.00  0.00     0.293 HD
ENDBRANCH  11  25
ENDBRANCH   1   2
BRANCH   1  27
ATOM     27  C   UNL     1      11.768   2.137   2.173  1.00  0.00     0.265 C 
BRANCH  27  28
ATOM     28  C   UNL     1      10.737   1.289   1.393  1.00  0.00     0.190 C 
ATOM     29  C   UNL     1      10.983  -0.249   1.347  1.00  0.00     0.178 C 
ATOM     30  O   UNL     1       9.395   1.660   1.688  1.00  0.00    -0.340 OA
ATOM     31  C   UNL     1      10.366  -0.999   2.534  1.00  0.00     0.179 C 
ATOM     32  C   UNL     1       8.826   1.009   2.813  1.00  0.00     0.279 C 
ATOM     33  C   UNL     1       8.908  -0.526   2.715  1.00  0.00     0.201 C 
BRANCH  29  34
ATOM     34  O   UNL     1      12.351  -0.544   1.247  1.00  0.00    -0.387 OA
ATOM     35  H   UNL     1      12.477  -1.041   0.397  1.00  0.00     0.211 HD
ENDBRANCH  29  34
BRANCH  31  36
ATOM     36  O   UNL     1      11.177  -0.851   3.678  1.00  0.00    -0.387 OA
ATOM     37  H   UNL     1      10.615  -0.739   4.489  1.00  0.00     0.211 HD
ENDBRANCH  31  36
BRANCH  32  38
ATOM     38  O   UNL     1       9.390   1.493   4.008  1.00  0.00    -0.366 OA
ATOM     39  H   UNL     1       9.274   0.786   4.697  1.00  0.00     0.213 HD
ENDBRANCH  32  38
BRANCH  33  40
ATOM     40  O   UNL     1       8.313  -1.116   3.843  1.00  0.00    -0.385 OA
ATOM     41  H   UNL     1       8.210  -0.399   4.521  1.00  0.00     0.211 HD
ENDBRANCH  33  40
ENDBRANCH  27  28
ENDBRANCH   1  27
TORSDOF 12
ENDMDL
MODEL 9
REMARK VINA RESULT:    -5.734      2.239      7.536
REMARK INTER + INTRA:          -9.578
REMARK INTER:                  -8.584
REMARK INTRA:                  -0.995
REMARK UNBOUND:                -1.162
REMARK SMILES O=c1c(OC[C@@H]2O[C@H](O)[C@H](O)[C@H](O)[C@@H]2O)c(-c2ccc(O)c(O)c2)oc2cc(O)cc(O)c12
REMARK SMILES IDX 4 1 3 2 16 3 25 4 2 5 26 6 1 7 33 8 27 9 31 10 28 11 30 12
REMARK SMILES IDX 17 13 18 14 19 15 20 16 24 17 22 18 21 19 23 21 32 23 29 25
REMARK SMILES IDX 5 27 6 28 14 29 7 30 12 31 8 32 10 33 15 34 13 36 9 38 11 40
REMARK H PARENT 21 20 23 22 32 24 29 26 15 35 13 37 9 39 11 41
REMARK Flexibility Score: inf
ROOT
ATOM      1  O   UNL     1      13.335   2.729   0.018  1.00  0.00    -0.483 OA
ENDROOT
BRANCH   1   2
ATOM      2  C   UNL     1      13.708   1.899   1.087  1.00  0.00     0.211 A 
ATOM      3  C   UNL     1      13.055   0.665   1.260  1.00  0.00     0.180 A 
ATOM      4  O   UNL     1      13.321  -0.088   2.322  1.00  0.00    -0.452 OA
ATOM      5  C   UNL     1      14.648   2.301   2.054  1.00  0.00     0.239 A 
ATOM      6  C   UNL     1      14.225   0.236   3.236  1.00  0.00     0.146 A 
ATOM      7  O   UNL     1      15.119   3.467   2.012  1.00  0.00    -0.285 OA
ATOM      8  C   UNL     1      14.979   1.429   3.117  1.00  0.00     0.111 A 
ATOM      9  C   UNL     1      14.417  -0.617   4.326  1.00  0.00     0.094 A 
ATOM     10  C   UNL     1      15.972   1.709   4.097  1.00  0.00     0.134 A 
ATOM     11  C   UNL     1      15.343  -0.293   5.322  1.00  0.00     0.123 A 
ATOM     12  C   UNL     1      16.105   0.867   5.208  1.00  0.00     0.093 A 
BRANCH   3  13
ATOM     13  C   UNL     1      12.052   0.176   0.294  1.00  0.00     0.025 A 
ATOM     14  C   UNL     1      12.402   0.033  -1.059  1.00  0.00     0.016 A 
ATOM     15  C   UNL     1      11.456  -0.406  -1.990  1.00  0.00     0.051 A 
ATOM     16  C   UNL     1      10.140  -0.673  -1.586  1.00  0.00     0.157 A 
ATOM     17  C   UNL     1      10.729  -0.073   0.690  1.00  0.00     0.062 A 
ATOM     18  C   UNL     1       9.773  -0.500  -0.244  1.00  0.00     0.158 A 
BRANCH  16  19
ATOM     19  O   UNL     1       9.190  -1.102  -2.511  1.00  0.00    -0.504 OA
ATOM     20  H   UNL     1       9.388  -1.855  -3.161  1.00  0.00     0.293 HD
ENDBRANCH  16  19
BRANCH  18  21
ATOM     21  O   UNL     1       8.456  -0.730   0.149  1.00  0.00    -0.504 OA
ATOM     22  H   UNL     1       7.692  -0.174  -0.210  1.00  0.00     0.293 HD
ENDBRANCH  18  21
ENDBRANCH   3  13
BRANCH  10  23
ATOM     23  O   UNL     1      16.873   2.772   3.991  1.00  0.00    -0.507 OA
ATOM     24  H   UNL     1      17.549   2.853   3.248  1.00  0.00     0.293 HD
ENDBRANCH  10  23
BRANCH  11  25
ATOM     25  O   UNL     1      15.520  -1.125   6.426  1.00  0.00    -0.508 OA
ATOM     26  H   UNL     1      16.424  -1.525   6.645  1.00  0.00     0.293 HD
ENDBRANCH  11  25
ENDBRANCH   1   2
BRANCH   1  27
ATOM     27  C   UNL     1      12.503   3.882   0.137  1.00  0.00     0.265 C 
BRANCH  27  28
ATOM     28  C   UNL     1      11.017   3.513   0.349  1.00  0.00     0.190 C 
ATOM     29  C   UNL     1      10.173   4.476   1.239  1.00  0.00     0.178 C 
ATOM     30  O   UNL     1      10.376   3.120  -0.860  1.00  0.00    -0.340 OA
ATOM     31  C   UNL     1       9.541   5.632   0.454  1.00  0.00     0.179 C 
ATOM     32  C   UNL     1       9.828   4.184  -1.621  1.00  0.00     0.279 C 
ATOM     33  C   UNL     1       8.857   5.059  -0.806  1.00  0.00     0.201 C 
BRANCH  29  34
ATOM     34  O   UNL     1      10.930   4.975   2.310  1.00  0.00    -0.387 OA
ATOM     35  H   UNL     1      11.492   5.709   1.948  1.00  0.00     0.211 HD
ENDBRANCH  29  34
BRANCH  31  36
ATOM     36  O   UNL     1      10.505   6.629   0.196  1.00  0.00    -0.387 OA
ATOM     37  H   UNL     1      10.088   7.529   0.226  1.00  0.00     0.211 HD
ENDBRANCH  31  36
BRANCH  32  38
ATOM     38  O   UNL     1      10.848   4.945  -2.222  1.00  0.00    -0.366 OA
ATOM     39  H   UNL     1      11.712   4.632  -1.844  1.00  0.00     0.213 HD
ENDBRANCH  32  38
BRANCH  33  40
ATOM     40  O   UNL     1       8.331   6.081  -1.613  1.00  0.00    -0.385 OA
ATOM     41  H   UNL     1       7.525   5.709  -2.057  1.00  0.00     0.211 HD
ENDBRANCH  33  40
ENDBRANCH  27  28
ENDBRANCH   1  27
TORSDOF 12
ENDMDL
