MODEL 1
REMARK VINA RESULT:    -5.088      0.000      0.000
REMARK INTER + INTRA:         -10.782
REMARK INTER:                  -8.656
REMARK INTRA:                  -2.125
REMARK UNBOUND:                -2.125
REMARK SMILES CCCCCCCCCCCCCC(=O)[O-]
REMARK SMILES IDX 8 1 9 2 10 3 11 4 12 5 13 6 14 7 15 8 16 9 7 10 6 11 5 12
REMARK SMILES IDX 4 13 3 14 2 15 1 16
REMARK H PARENT
REMARK Flexibility Score: inf
ROOT
ATOM      1  C   UNL     1      16.879  -5.361  36.798  1.00  0.00     0.000 C 
ENDROOT
BRANCH   1   2
ATOM      2  C   UNL     1      15.673  -4.850  35.994  1.00  0.00     0.000 C 
BRANCH   2   3
ATOM      3  C   UNL     1      15.291  -5.792  34.838  1.00  0.00     0.000 C 
BRANCH   3   4
ATOM      4  C   UNL     1      15.701  -5.248  33.460  1.00  0.00     0.000 C 
BRANCH   4   5
ATOM      5  C   UNL     1      15.764  -6.292  32.328  1.00  0.00     0.006 C 
BRANCH   5   6
ATOM      6  C   UNL     1      15.741  -7.752  32.818  1.00  0.00     0.053 C 
BRANCH   6   7
ATOM      7  C   UNL     1      16.131  -8.727  31.746  1.00  0.00     0.041 C 
ATOM      8  O   UNL     1      17.279  -9.243  31.744  1.00  0.00    -0.550 OA
ATOM      9  O   UNL     1      15.211  -9.097  30.774  1.00  0.00    -0.550 OA
ENDBRANCH   6   7
ENDBRANCH   5   6
ENDBRANCH   4   5
ENDBRANCH   3   4
ENDBRANCH   2   3
ENDBRANCH   1   2
BRANCH   1  10
ATOM     10  C   UNL     1      17.453  -6.672  36.233  1.00  0.00     0.000 C 
BRANCH  10  11
ATOM     11  C   UNL     1      18.889  -6.510  35.706  1.00  0.00    -0.000 C 
BRANCH  11  12
ATOM     12  C   UNL     1      18.979  -6.658  34.177  1.00  0.00    -0.000 C 
BRANCH  12  13
ATOM     13  C   UNL     1      19.202  -5.313  33.465  1.00  0.00    -0.000 C 
BRANCH  13  14
ATOM     14  C   UNL     1      19.456  -4.158  34.450  1.00  0.00    -0.000 C 
BRANCH  14  15
ATOM     15  C   UNL     1      18.487  -2.984  34.241  1.00  0.00    -0.003 C 
ATOM     16  C   UNL     1      18.218  -2.199  35.525  1.00  0.00     0.004 C 
ENDBRANCH  14  15
ENDBRANCH  13  14
ENDBRANCH  12  13
ENDBRANCH  11  12
ENDBRANCH  10  11
ENDBRANCH   1  10
TORSDOF 12
ENDMDL
MODEL 2
REMARK VINA RESULT:    -5.060     18.683     20.477
REMARK INTER + INTRA:         -10.734
REMARK INTER:                  -8.625
REMARK INTRA:                  -2.109
REMARK UNBOUND:                -2.125
REMARK SMILES CCCCCCCCCCCCCC(=O)[O-]
REMARK SMILES IDX 8 1 9 2 10 3 11 4 12 5 13 6 14 7 15 8 16 9 7 10 6 11 5 12
REMARK SMILES IDX 4 13 3 14 2 15 1 16
REMARK H PARENT
REMARK Flexibility Score: inf
ROOT
ATOM      1  C   UNL     1       7.913   5.584  19.109  1.00  0.00     0.000 C 
ENDROOT
BRANCH   1   2
ATOM      2  C   UNL     1       8.693   6.258  17.969  1.00  0.00     0.000 C 
BRANCH   2   3
ATOM      3  C   UNL     1       9.639   7.363  18.473  1.00  0.00     0.000 C 
BRANCH   3   4
ATOM      4  C   UNL     1      11.090   7.172  18.000  1.00  0.00     0.000 C 
BRANCH   4   5
ATOM      5  C   UNL     1      12.097   6.776  19.097  1.00  0.00     0.006 C 
BRANCH   5   6
ATOM      6  C   UNL     1      11.896   7.517  20.433  1.00  0.00     0.053 C 
BRANCH   6   7
ATOM      7  C   UNL     1      13.101   8.312  20.838  1.00  0.00     0.041 C 
ATOM      8  O   UNL     1      13.807   8.885  19.966  1.00  0.00    -0.550 OA
ATOM      9  O   UNL     1      13.421   8.457  22.181  1.00  0.00    -0.550 OA
ENDBRANCH   6   7
ENDBRANCH   5   6
ENDBRANCH   4   5
ENDBRANCH   3   4
ENDBRANCH   2   3
ENDBRANCH   1   2
BRANCH   1  10
ATOM     10  C   UNL     1       8.420   6.003  20.500  1.00  0.00     0.000 C 
BRANCH  10  11
ATOM     11  C   UNL     1       8.822   4.800  21.370  1.00  0.00    -0.000 C 
BRANCH  11  12
ATOM     12  C   UNL     1      10.250   4.307  21.075  1.00  0.00    -0.000 C 
BRANCH  12  13
ATOM     13  C   UNL     1      10.268   3.008  20.251  1.00  0.00    -0.000 C 
BRANCH  13  14
ATOM     14  C   UNL     1      10.788   3.223  18.819  1.00  0.00    -0.000 C 
BRANCH  14  15
ATOM     15  C   UNL     1       9.833   2.659  17.756  1.00  0.00    -0.003 C 
ATOM     16  C   UNL     1       8.797   1.698  18.338  1.00  0.00     0.004 C 
ENDBRANCH  14  15
ENDBRANCH  13  14
ENDBRANCH  12  13
ENDBRANCH  11  12
ENDBRANCH  10  11
ENDBRANCH   1  10
TORSDOF 12
ENDMDL
MODEL 3
REMARK VINA RESULT:    -5.032     18.297     19.826
REMARK INTER + INTRA:         -10.687
REMARK INTER:                  -8.737
REMARK INTRA:                  -1.951
REMARK UNBOUND:                -2.125
REMARK SMILES CCCCCCCCCCCCCC(=O)[O-]
REMARK SMILES IDX 8 1 9 2 10 3 11 4 12 5 13 6 14 7 15 8 16 9 7 10 6 11 5 12
REMARK SMILES IDX 4 13 3 14 2 15 1 16
REMARK H PARENT
REMARK Flexibility Score: inf
ROOT
ATOM      1  C   UNL     1       9.551   6.497  21.322  1.00  0.00     0.000 C 
ENDROOT
BRANCH   1   2
ATOM      2  C   UNL     1       9.102   5.073  20.954  1.00  0.00     0.000 C 
BRANCH   2   3
ATOM      3  C   UNL     1      10.243   4.046  21.065  1.00  0.00     0.000 C 
BRANCH   3   4
ATOM      4  C   UNL     1      10.360   3.145  19.825  1.00  0.00     0.000 C 
BRANCH   4   5
ATOM      5  C   UNL     1       9.027   2.787  19.139  1.00  0.00     0.006 C 
BRANCH   5   6
ATOM      6  C   UNL     1       9.182   1.908  17.883  1.00  0.00     0.053 C 
BRANCH   6   7
ATOM      7  C   UNL     1       8.444   0.607  17.995  1.00  0.00     0.041 C 
ATOM      8  O   UNL     1       8.445  -0.032  19.080  1.00  0.00    -0.550 OA
ATOM      9  O   UNL     1       7.720   0.122  16.914  1.00  0.00    -0.550 OA
ENDBRANCH   6   7
ENDBRANCH   5   6
ENDBRANCH   4   5
ENDBRANCH   3   4
ENDBRANCH   2   3
ENDBRANCH   1   2
BRANCH   1  10
ATOM     10  C   UNL     1      11.084   6.640  21.362  1.00  0.00     0.000 C 
BRANCH  10  11
ATOM     11  C   UNL     1      11.601   7.723  20.401  1.00  0.00    -0.000 C 
BRANCH  11  12
ATOM     12  C   UNL     1      12.480   7.147  19.276  1.00  0.00    -0.000 C 
BRANCH  12  13
ATOM     13  C   UNL     1      11.697   6.220  18.332  1.00  0.00    -0.000 C 
BRANCH  13  14
ATOM     14  C   UNL     1      10.546   6.944  17.611  1.00  0.00    -0.000 C 
BRANCH  14  15
ATOM     15  C   UNL     1       9.492   5.970  17.061  1.00  0.00    -0.003 C 
ATOM     16  C   UNL     1       8.098   6.215  17.639  1.00  0.00     0.004 C 
ENDBRANCH  14  15
ENDBRANCH  13  14
ENDBRANCH  12  13
ENDBRANCH  11  12
ENDBRANCH  10  11
ENDBRANCH   1  10
TORSDOF 12
ENDMDL
MODEL 4
REMARK VINA RESULT:    -5.006      0.984      2.081
REMARK INTER + INTRA:         -10.644
REMARK INTER:                  -8.596
REMARK INTRA:                  -2.047
REMARK UNBOUND:                -2.125
REMARK SMILES CCCCCCCCCCCCCC(=O)[O-]
REMARK SMILES IDX 8 1 9 2 10 3 11 4 12 5 13 6 14 7 15 8 16 9 7 10 6 11 5 12
REMARK SMILES IDX 4 13 3 14 2 15 1 16
REMARK H PARENT
REMARK Flexibility Score: inf
ROOT
ATOM      1  C   UNL     1      18.487  -5.672  36.248  1.00  0.00     0.000 C 
ENDROOT
BRANCH   1   2
ATOM      2  C   UNL     1      17.044  -5.986  36.674  1.00  0.00     0.000 C 
BRANCH   2   3
ATOM      3  C   UNL     1      16.074  -4.830  36.369  1.00  0.00     0.000 C 
BRANCH   3   4
ATOM      4  C   UNL     1      15.277  -5.043  35.072  1.00  0.00     0.000 C 
BRANCH   4   5
ATOM      5  C   UNL     1      15.199  -6.500  34.575  1.00  0.00     0.006 C 
BRANCH   5   6
ATOM      6  C   UNL     1      15.486  -6.668  33.071  1.00  0.00     0.053 C 
BRANCH   6   7
ATOM      7  C   UNL     1      15.857  -8.075  32.708  1.00  0.00     0.041 C 
ATOM      8  O   UNL     1      14.976  -8.974  32.664  1.00  0.00    -0.550 OA
ATOM      9  O   UNL     1      17.169  -8.387  32.377  1.00  0.00    -0.550 OA
ENDBRANCH   6   7
ENDBRANCH   5   6
ENDBRANCH   4   5
ENDBRANCH   3   4
ENDBRANCH   2   3
ENDBRANCH   1   2
BRANCH   1  10
ATOM     10  C   UNL     1      18.924  -6.475  35.009  1.00  0.00     0.000 C 
BRANCH  10  11
ATOM     11  C   UNL     1      18.980  -5.613  33.736  1.00  0.00    -0.000 C 
BRANCH  11  12
ATOM     12  C   UNL     1      19.161  -4.116  34.042  1.00  0.00    -0.000 C 
BRANCH  12  13
ATOM     13  C   UNL     1      17.962  -3.270  33.582  1.00  0.00    -0.000 C 
BRANCH  13  14
ATOM     14  C   UNL     1      17.735  -2.033  34.470  1.00  0.00    -0.000 C 
BRANCH  14  15
ATOM     15  C   UNL     1      18.547  -2.088  35.772  1.00  0.00    -0.003 C 
ATOM     16  C   UNL     1      19.122  -0.729  36.172  1.00  0.00     0.004 C 
ENDBRANCH  14  15
ENDBRANCH  13  14
ENDBRANCH  12  13
ENDBRANCH  11  12
ENDBRANCH  10  11
ENDBRANCH   1  10
TORSDOF 12
ENDMDL
MODEL 5
REMARK VINA RESULT:    -5.002     18.839     20.350
REMARK INTER + INTRA:         -10.635
REMARK INTER:                  -8.770
REMARK INTRA:                  -1.865
REMARK UNBOUND:                -2.125
REMARK SMILES CCCCCCCCCCCCCC(=O)[O-]
REMARK SMILES IDX 8 1 9 2 10 3 11 4 12 5 13 6 14 7 15 8 16 9 7 10 6 11 5 12
REMARK SMILES IDX 4 13 3 14 2 15 1 16
REMARK H PARENT
REMARK Flexibility Score: inf
ROOT
ATOM      1  C   UNL     1      10.409   6.906  17.295  1.00  0.00     0.000 C 
ENDROOT
BRANCH   1   2
ATOM      2  C   UNL     1      11.541   6.617  18.295  1.00  0.00     0.000 C 
BRANCH   2   3
ATOM      3  C   UNL     1      12.214   5.256  18.048  1.00  0.00     0.000 C 
BRANCH   3   4
ATOM      4  C   UNL     1      11.603   4.123  18.890  1.00  0.00     0.000 C 
BRANCH   4   5
ATOM      5  C   UNL     1      10.515   3.289  18.185  1.00  0.00     0.006 C 
BRANCH   5   6
ATOM      6  C   UNL     1       9.767   2.316  19.115  1.00  0.00     0.053 C 
BRANCH   6   7
ATOM      7  C   UNL     1       8.667   1.576  18.413  1.00  0.00     0.041 C 
ATOM      8  O   UNL     1       7.465   1.770  18.735  1.00  0.00    -0.550 OA
ATOM      9  O   UNL     1       8.966   0.704  17.374  1.00  0.00    -0.550 OA
ENDBRANCH   6   7
ENDBRANCH   5   6
ENDBRANCH   4   5
ENDBRANCH   3   4
ENDBRANCH   2   3
ENDBRANCH   1   2
BRANCH   1  10
ATOM     10  C   UNL     1       9.097   7.313  17.990  1.00  0.00     0.000 C 
BRANCH  10  11
ATOM     11  C   UNL     1       7.987   6.261  17.820  1.00  0.00    -0.000 C 
BRANCH  11  12
ATOM     12  C   UNL     1       7.935   5.261  18.988  1.00  0.00    -0.000 C 
BRANCH  12  13
ATOM     13  C   UNL     1       7.985   5.953  20.361  1.00  0.00    -0.000 C 
BRANCH  13  14
ATOM     14  C   UNL     1       9.095   5.390  21.267  1.00  0.00    -0.000 C 
BRANCH  14  15
ATOM     15  C   UNL     1      10.279   6.358  21.416  1.00  0.00    -0.003 C 
ATOM     16  C   UNL     1       9.840   7.813  21.576  1.00  0.00     0.004 C 
ENDBRANCH  14  15
ENDBRANCH  13  14
ENDBRANCH  12  13
ENDBRANCH  11  12
ENDBRANCH  10  11
ENDBRANCH   1  10
TORSDOF 12
ENDMDL
MODEL 6
REMARK VINA RESULT:    -4.972     18.020     19.653
REMARK INTER + INTRA:         -10.586
REMARK INTER:                  -8.711
REMARK INTRA:                  -1.875
REMARK UNBOUND:                -2.125
REMARK SMILES CCCCCCCCCCCCCC(=O)[O-]
REMARK SMILES IDX 8 1 9 2 10 3 11 4 12 5 13 6 14 7 15 8 16 9 7 10 6 11 5 12
REMARK SMILES IDX 4 13 3 14 2 15 1 16
REMARK H PARENT
REMARK Flexibility Score: inf
ROOT
ATOM      1  C   UNL     1      11.632   5.964  21.571  1.00  0.00     0.000 C 
ENDROOT
BRANCH   1   2
ATOM      2  C   UNL     1      11.655   4.610  20.842  1.00  0.00     0.000 C 
BRANCH   2   3
ATOM      3  C   UNL     1      10.656   3.602  21.437  1.00  0.00     0.000 C 
BRANCH   3   4
ATOM      4  C   UNL     1      10.095   2.625  20.390  1.00  0.00     0.000 C 
BRANCH   4   5
ATOM      5  C   UNL     1      10.415   2.974  18.923  1.00  0.00     0.006 C 
BRANCH   5   6
ATOM      6  C   UNL     1       9.520   2.255  17.896  1.00  0.00     0.053 C 
BRANCH   6   7
ATOM      7  C   UNL     1       8.428   1.455  18.542  1.00  0.00     0.041 C 
ATOM      8  O   UNL     1       7.276   1.943  18.674  1.00  0.00    -0.550 OA
ATOM      9  O   UNL     1       8.673   0.153  18.959  1.00  0.00    -0.550 OA
ENDBRANCH   6   7
ENDBRANCH   5   6
ENDBRANCH   4   5
ENDBRANCH   3   4
ENDBRANCH   2   3
ENDBRANCH   1   2
BRANCH   1  10
ATOM     10  C   UNL     1      11.456   7.150  20.606  1.00  0.00     0.000 C 
BRANCH  10  11
ATOM     11  C   UNL     1      11.825   6.792  19.157  1.00  0.00    -0.000 C 
BRANCH  11  12
ATOM     12  C   UNL     1      10.779   7.282  18.140  1.00  0.00    -0.000 C 
BRANCH  12  13
ATOM     13  C   UNL     1       9.341   7.175  18.676  1.00  0.00    -0.000 C 
BRANCH  13  14
ATOM     14  C   UNL     1       8.606   5.927  18.155  1.00  0.00    -0.000 C 
BRANCH  14  15
ATOM     15  C   UNL     1       7.710   5.284  19.224  1.00  0.00    -0.003 C 
ATOM     16  C   UNL     1       8.028   5.771  20.638  1.00  0.00     0.004 C 
ENDBRANCH  14  15
ENDBRANCH  13  14
ENDBRANCH  12  13
ENDBRANCH  11  12
ENDBRANCH  10  11
ENDBRANCH   1  10
TORSDOF 12
ENDMDL
MODEL 7
REMARK VINA RESULT:    -4.954     18.798     20.563
REMARK INTER + INTRA:         -10.555
REMARK INTER:                  -8.493
REMARK INTRA:                  -2.062
REMARK UNBOUND:                -2.125
REMARK SMILES CCCCCCCCCCCCCC(=O)[O-]
REMARK SMILES IDX 8 1 9 2 10 3 11 4 12 5 13 6 14 7 15 8 16 9 7 10 6 11 5 12
REMARK SMILES IDX 4 13 3 14 2 15 1 16
REMARK H PARENT
REMARK Flexibility Score: inf
ROOT
ATOM      1  C   UNL     1      12.076   4.677  19.045  1.00  0.00     0.000 C 
ENDROOT
BRANCH   1   2
ATOM      2  C   UNL     1      11.048   3.960  19.935  1.00  0.00     0.000 C 
BRANCH   2   3
ATOM      3  C   UNL     1      11.026   4.508  21.373  1.00  0.00     0.000 C 
BRANCH   3   4
ATOM      4  C   UNL     1      11.765   5.850  21.513  1.00  0.00     0.000 C 
BRANCH   4   5
ATOM      5  C   UNL     1      10.867   7.073  21.789  1.00  0.00     0.006 C 
BRANCH   5   6
ATOM      6  C   UNL     1      11.421   8.398  21.233  1.00  0.00     0.053 C 
BRANCH   6   7
ATOM      7  C   UNL     1      12.917   8.477  21.314  1.00  0.00     0.041 C 
ATOM      8  O   UNL     1      13.606   8.560  20.264  1.00  0.00    -0.550 OA
ATOM      9  O   UNL     1      13.547   8.502  22.552  1.00  0.00    -0.550 OA
ENDBRANCH   6   7
ENDBRANCH   5   6
ENDBRANCH   4   5
ENDBRANCH   3   4
ENDBRANCH   2   3
ENDBRANCH   1   2
BRANCH   1  10
ATOM     10  C   UNL     1      11.426   5.368  17.832  1.00  0.00     0.000 C 
BRANCH  10  11
ATOM     11  C   UNL     1      11.381   6.898  17.979  1.00  0.00    -0.000 C 
BRANCH  11  12
ATOM     12  C   UNL     1       9.994   7.483  17.658  1.00  0.00    -0.000 C 
BRANCH  12  13
ATOM     13  C   UNL     1       8.921   7.048  18.670  1.00  0.00    -0.000 C 
BRANCH  13  14
ATOM     14  C   UNL     1       8.019   5.924  18.130  1.00  0.00    -0.000 C 
BRANCH  14  15
ATOM     15  C   UNL     1       7.659   4.890  19.208  1.00  0.00    -0.003 C 
ATOM     16  C   UNL     1       7.664   5.477  20.619  1.00  0.00     0.004 C 
ENDBRANCH  14  15
ENDBRANCH  13  14
ENDBRANCH  12  13
ENDBRANCH  11  12
ENDBRANCH  10  11
ENDBRANCH   1  10
TORSDOF 12
ENDMDL
MODEL 8
REMARK VINA RESULT:    -4.939     18.613     20.405
REMARK INTER + INTRA:         -10.529
REMARK INTER:                  -8.528
REMARK INTRA:                  -2.000
REMARK UNBOUND:                -2.125
REMARK SMILES CCCCCCCCCCCCCC(=O)[O-]
REMARK SMILES IDX 8 1 9 2 10 3 11 4 12 5 13 6 14 7 15 8 16 9 7 10 6 11 5 12
REMARK SMILES IDX 4 13 3 14 2 15 1 16
REMARK H PARENT
REMARK Flexibility Score: inf
ROOT
ATOM      1  C   UNL     1       7.871   5.398  19.574  1.00  0.00     0.000 C 
ENDROOT
BRANCH   1   2
ATOM      2  C   UNL     1       8.391   5.697  20.989  1.00  0.00     0.000 C 
BRANCH   2   3
ATOM      3  C   UNL     1       9.671   4.913  21.327  1.00  0.00     0.000 C 
BRANCH   3   4
ATOM      4  C   UNL     1      10.846   5.825  21.719  1.00  0.00     0.000 C 
BRANCH   4   5
ATOM      5  C   UNL     1      10.744   7.282  21.229  1.00  0.00     0.006 C 
BRANCH   5   6
ATOM      6  C   UNL     1      12.085   7.887  20.771  1.00  0.00     0.053 C 
BRANCH   6   7
ATOM      7  C   UNL     1      12.725   8.737  21.829  1.00  0.00     0.041 C 
ATOM      8  O   UNL     1      13.866   8.444  22.274  1.00  0.00    -0.550 OA
ATOM      9  O   UNL     1      12.080   9.876  22.292  1.00  0.00    -0.550 OA
ENDBRANCH   6   7
ENDBRANCH   5   6
ENDBRANCH   4   5
ENDBRANCH   3   4
ENDBRANCH   2   3
ENDBRANCH   1   2
BRANCH   1  10
ATOM     10  C   UNL     1       8.391   6.403  18.530  1.00  0.00     0.000 C 
BRANCH  10  11
ATOM     11  C   UNL     1       9.271   5.739  17.458  1.00  0.00    -0.000 C 
BRANCH  11  12
ATOM     12  C   UNL     1      10.770   5.803  17.799  1.00  0.00    -0.000 C 
BRANCH  12  13
ATOM     13  C   UNL     1      11.327   4.448  18.268  1.00  0.00    -0.000 C 
BRANCH  13  14
ATOM     14  C   UNL     1      10.460   3.262  17.809  1.00  0.00    -0.000 C 
BRANCH  14  15
ATOM     15  C   UNL     1       9.958   2.411  18.986  1.00  0.00    -0.003 C 
ATOM     16  C   UNL     1       8.532   1.899  18.784  1.00  0.00     0.004 C 
ENDBRANCH  14  15
ENDBRANCH  13  14
ENDBRANCH  12  13
ENDBRANCH  11  12
ENDBRANCH  10  11
ENDBRANCH   1  10
TORSDOF 12
ENDMDL
MODEL 9
REMARK VINA RESULT:    -4.842      1.222      2.601
REMARK INTER + INTRA:         -10.364
REMARK INTER:                  -8.636
REMARK INTRA:                  -1.728
REMARK UNBOUND:                -2.125
REMARK SMILES CCCCCCCCCCCCCC(=O)[O-]
REMARK SMILES IDX 8 1 9 2 10 3 11 4 12 5 13 6 14 7 15 8 16 9 7 10 6 11 5 12
REMARK SMILES IDX 4 13 3 14 2 15 1 16
REMARK H PARENT
REMARK Flexibility Score: inf
ROOT
ATOM      1  C   UNL     1      16.164  -4.508  36.373  1.00  0.00     0.000 C 
ENDROOT
BRANCH   1   2
ATOM      2  C   UNL     1      17.229  -5.351  37.092  1.00  0.00     0.000 C 
BRANCH   2   3
ATOM      3  C   UNL     1      17.399  -6.747  36.467  1.00  0.00     0.000 C 
BRANCH   3   4
ATOM      4  C   UNL     1      18.678  -6.875  35.623  1.00  0.00     0.000 C 
BRANCH   4   5
ATOM      5  C   UNL     1      18.614  -7.904  34.477  1.00  0.00     0.006 C 
BRANCH   5   6
ATOM      6  C   UNL     1      18.008  -7.356  33.171  1.00  0.00     0.053 C 
BRANCH   6   7
ATOM      7  C   UNL     1      16.957  -8.260  32.599  1.00  0.00     0.041 C 
ATOM      8  O   UNL     1      17.280  -9.200  31.826  1.00  0.00    -0.550 OA
ATOM      9  O   UNL     1      15.625  -8.091  32.953  1.00  0.00    -0.550 OA
ENDBRANCH   6   7
ENDBRANCH   5   6
ENDBRANCH   4   5
ENDBRANCH   3   4
ENDBRANCH   2   3
ENDBRANCH   1   2
BRANCH   1  10
ATOM     10  C   UNL     1      15.549  -5.238  35.165  1.00  0.00     0.000 C 
BRANCH  10  11
ATOM     11  C   UNL     1      15.976  -4.621  33.822  1.00  0.00    -0.000 C 
BRANCH  11  12
ATOM     12  C   UNL     1      16.836  -3.356  33.998  1.00  0.00    -0.000 C 
BRANCH  12  13
ATOM     13  C   UNL     1      18.340  -3.639  33.845  1.00  0.00    -0.000 C 
BRANCH  13  14
ATOM     14  C   UNL     1      19.182  -2.975  34.949  1.00  0.00    -0.000 C 
BRANCH  14  15
ATOM     15  C   UNL     1      18.404  -1.888  35.706  1.00  0.00    -0.003 C 
ATOM     16  C   UNL     1      19.287  -0.715  36.134  1.00  0.00     0.004 C 
ENDBRANCH  14  15
ENDBRANCH  13  14
ENDBRANCH  12  13
ENDBRANCH  11  12
ENDBRANCH  10  11
ENDBRANCH   1  10
TORSDOF 12
ENDMDL
