MODEL 1
REMARK VINA RESULT:    -4.826      0.000      0.000
REMARK INTER + INTRA:          -5.681
REMARK INTER:                  -5.532
REMARK INTRA:                  -0.150
REMARK UNBOUND:                -0.150
REMARK SMILES O=C([O-])C=Cc1ccc(O)cc1
REMARK SMILES IDX 6 1 7 2 12 3 8 4 11 5 9 6 5 7 4 8 2 9 1 10 3 11 10 12
REMARK H PARENT 10 13
REMARK Flexibility Score: inf
ROOT
ATOM      1  C   UNL     1      20.538  18.459  28.113  1.00  0.00    -0.025 A 
ATOM      2  C   UNL     1      21.390  18.458  29.230  1.00  0.00     0.012 A 
ATOM      3  C   UNL     1      19.280  19.087  28.217  1.00  0.00     0.012 A 
ATOM      4  C   UNL     1      21.007  19.090  30.417  1.00  0.00     0.047 A 
ATOM      5  C   UNL     1      18.901  19.717  29.406  1.00  0.00     0.047 A 
ATOM      6  C   UNL     1      19.765  19.723  30.509  1.00  0.00     0.115 A 
ENDROOT
BRANCH   1   7
ATOM      7  C   UNL     1      20.986  17.765  26.879  1.00  0.00     0.010 C 
ATOM      8  C   UNL     1      22.268  17.665  26.505  1.00  0.00     0.025 C 
BRANCH   8   9
ATOM      9  C   UNL     1      22.668  16.957  25.278  1.00  0.00     0.064 C 
ATOM     10  O   UNL     1      22.022  15.943  24.908  1.00  0.00    -0.545 OA
ATOM     11  O   UNL     1      23.750  17.390  24.521  1.00  0.00    -0.545 OA
ENDBRANCH   8   9
ENDBRANCH   1   7
BRANCH   6  12
ATOM     12  O   UNL     1      19.397  20.348  31.697  1.00  0.00    -0.508 OA
ATOM     13  H   UNL     1      18.852  21.204  31.699  1.00  0.00     0.293 HD
ENDBRANCH   6  12
TORSDOF 3
ENDMDL
MODEL 2
REMARK VINA RESULT:    -4.795      0.163      1.684
REMARK INTER + INTRA:          -5.646
REMARK INTER:                  -5.506
REMARK INTRA:                  -0.140
REMARK UNBOUND:                -0.150
REMARK SMILES O=C([O-])C=Cc1ccc(O)cc1
REMARK SMILES IDX 6 1 7 2 12 3 8 4 11 5 9 6 5 7 4 8 2 9 1 10 3 11 10 12
REMARK H PARENT 10 13
REMARK Flexibility Score: inf
ROOT
ATOM      1  C   UNL     1      20.565  18.330  28.213  1.00  0.00    -0.025 A 
ATOM      2  C   UNL     1      19.273  18.883  28.238  1.00  0.00     0.012 A 
ATOM      3  C   UNL     1      21.393  18.484  29.343  1.00  0.00     0.012 A 
ATOM      4  C   UNL     1      18.808  19.553  29.374  1.00  0.00     0.047 A 
ATOM      5  C   UNL     1      20.924  19.156  30.477  1.00  0.00     0.047 A 
ATOM      6  C   UNL     1      19.630  19.689  30.497  1.00  0.00     0.115 A 
ENDROOT
BRANCH   1   7
ATOM      7  C   UNL     1      21.016  17.638  26.979  1.00  0.00     0.010 C 
ATOM      8  C   UNL     1      22.251  17.748  26.473  1.00  0.00     0.025 C 
BRANCH   8   9
ATOM      9  C   UNL     1      22.659  17.033  25.253  1.00  0.00     0.064 C 
ATOM     10  O   UNL     1      23.706  17.383  24.649  1.00  0.00    -0.545 OA
ATOM     11  O   UNL     1      21.903  15.978  24.754  1.00  0.00    -0.545 OA
ENDBRANCH   8   9
ENDBRANCH   1   7
BRANCH   6  12
ATOM     12  O   UNL     1      19.153  20.359  31.621  1.00  0.00    -0.508 OA
ATOM     13  H   UNL     1      18.437  19.954  32.214  1.00  0.00     0.293 HD
ENDBRANCH   6  12
TORSDOF 3
ENDMDL
MODEL 3
REMARK VINA RESULT:    -4.741     13.050     13.706
REMARK INTER + INTRA:          -5.584
REMARK INTER:                  -5.430
REMARK INTRA:                  -0.154
REMARK UNBOUND:                -0.150
REMARK SMILES O=C([O-])C=Cc1ccc(O)cc1
REMARK SMILES IDX 6 1 7 2 12 3 8 4 11 5 9 6 5 7 4 8 2 9 1 10 3 11 10 12
REMARK H PARENT 10 13
REMARK Flexibility Score: inf
ROOT
ATOM      1  C   UNL     1      21.534  32.329  27.145  1.00  0.00    -0.025 A 
ATOM      2  C   UNL     1      21.369  31.179  27.937  1.00  0.00     0.012 A 
ATOM      3  C   UNL     1      21.620  33.585  27.779  1.00  0.00     0.012 A 
ATOM      4  C   UNL     1      21.317  31.278  29.331  1.00  0.00     0.047 A 
ATOM      5  C   UNL     1      21.566  33.679  29.173  1.00  0.00     0.047 A 
ATOM      6  C   UNL     1      21.418  32.525  29.953  1.00  0.00     0.115 A 
ENDROOT
BRANCH   1   7
ATOM      7  C   UNL     1      21.573  32.174  25.669  1.00  0.00     0.010 C 
ATOM      8  C   UNL     1      21.524  30.990  25.044  1.00  0.00     0.025 C 
BRANCH   8   9
ATOM      9  C   UNL     1      21.554  30.884  23.576  1.00  0.00     0.064 C 
ATOM     10  O   UNL     1      22.188  31.739  22.905  1.00  0.00    -0.545 OA
ATOM     11  O   UNL     1      20.892  29.855  22.917  1.00  0.00    -0.545 OA
ENDBRANCH   8   9
ENDBRANCH   1   7
BRANCH   6  12
ATOM     12  O   UNL     1      21.365  32.607  31.342  1.00  0.00    -0.508 OA
ATOM     13  H   UNL     1      20.685  33.195  31.812  1.00  0.00     0.293 HD
ENDBRANCH   6  12
TORSDOF 3
ENDMDL
MODEL 4
REMARK VINA RESULT:    -4.533      1.707      6.097
REMARK INTER + INTRA:          -5.345
REMARK INTER:                  -5.204
REMARK INTRA:                  -0.140
REMARK UNBOUND:                -0.150
REMARK SMILES O=C([O-])C=Cc1ccc(O)cc1
REMARK SMILES IDX 6 1 7 2 12 3 8 4 11 5 9 6 5 7 4 8 2 9 1 10 3 11 10 12
REMARK H PARENT 10 13
REMARK Flexibility Score: inf
ROOT
ATOM      1  C   UNL     1      19.916  18.391  29.555  1.00  0.00    -0.025 A 
ATOM      2  C   UNL     1      21.310  18.541  29.454  1.00  0.00     0.012 A 
ATOM      3  C   UNL     1      19.169  18.168  28.380  1.00  0.00     0.012 A 
ATOM      4  C   UNL     1      21.947  18.445  28.213  1.00  0.00     0.047 A 
ATOM      5  C   UNL     1      19.810  18.075  27.141  1.00  0.00     0.047 A 
ATOM      6  C   UNL     1      21.201  18.210  27.054  1.00  0.00     0.115 A 
ENDROOT
BRANCH   1   7
ATOM      7  C   UNL     1      19.285  18.511  30.893  1.00  0.00     0.010 C 
ATOM      8  C   UNL     1      19.295  19.634  31.623  1.00  0.00     0.025 C 
BRANCH   8   9
ATOM      9  C   UNL     1      18.647  19.711  32.942  1.00  0.00     0.064 C 
ATOM     10  O   UNL     1      18.741  20.767  33.619  1.00  0.00    -0.545 OA
ATOM     11  O   UNL     1      17.933  18.633  33.454  1.00  0.00    -0.545 OA
ENDBRANCH   8   9
ENDBRANCH   1   7
BRANCH   6  12
ATOM     12  O   UNL     1      21.850  18.117  25.825  1.00  0.00    -0.508 OA
ATOM     13  H   UNL     1      21.647  18.762  25.069  1.00  0.00     0.293 HD
ENDBRANCH   6  12
TORSDOF 3
ENDMDL
MODEL 5
REMARK VINA RESULT:    -4.498      1.994      2.891
REMARK INTER + INTRA:          -5.305
REMARK INTER:                  -5.154
REMARK INTRA:                  -0.151
REMARK UNBOUND:                -0.150
REMARK SMILES O=C([O-])C=Cc1ccc(O)cc1
REMARK SMILES IDX 6 1 7 2 12 3 8 4 11 5 9 6 5 7 4 8 2 9 1 10 3 11 10 12
REMARK H PARENT 10 13
REMARK Flexibility Score: inf
ROOT
ATOM      1  C   UNL     1      19.118  19.578  30.114  1.00  0.00    -0.025 A 
ATOM      2  C   UNL     1      19.926  19.618  31.264  1.00  0.00     0.012 A 
ATOM      3  C   UNL     1      17.761  19.943  30.223  1.00  0.00     0.012 A 
ATOM      4  C   UNL     1      19.398  20.037  32.489  1.00  0.00     0.047 A 
ATOM      5  C   UNL     1      17.237  20.361  31.450  1.00  0.00     0.047 A 
ATOM      6  C   UNL     1      18.055  20.412  32.586  1.00  0.00     0.115 A 
ENDROOT
BRANCH   1   7
ATOM      7  C   UNL     1      19.722  19.116  28.839  1.00  0.00     0.010 C 
ATOM      8  C   UNL     1      20.924  18.531  28.754  1.00  0.00     0.025 C 
BRANCH   8   9
ATOM      9  C   UNL     1      21.480  18.079  27.468  1.00  0.00     0.064 C 
ATOM     10  O   UNL     1      22.637  18.441  27.130  1.00  0.00    -0.545 OA
ATOM     11  O   UNL     1      20.747  17.259  26.619  1.00  0.00    -0.545 OA
ENDBRANCH   8   9
ENDBRANCH   1   7
BRANCH   6  12
ATOM     12  O   UNL     1      17.543  20.827  33.813  1.00  0.00    -0.508 OA
ATOM     13  H   UNL     1      17.274  20.160  34.528  1.00  0.00     0.293 HD
ENDBRANCH   6  12
TORSDOF 3
ENDMDL
MODEL 6
REMARK VINA RESULT:    -4.485     16.288     17.138
REMARK INTER + INTRA:          -5.290
REMARK INTER:                  -5.137
REMARK INTRA:                  -0.153
REMARK UNBOUND:                -0.150
REMARK SMILES O=C([O-])C=Cc1ccc(O)cc1
REMARK SMILES IDX 6 1 7 2 12 3 8 4 11 5 9 6 5 7 4 8 2 9 1 10 3 11 10 12
REMARK H PARENT 10 13
REMARK Flexibility Score: inf
ROOT
ATOM      1  C   UNL     1      34.659  27.536  22.486  1.00  0.00    -0.025 A 
ATOM      2  C   UNL     1      34.225  26.634  23.474  1.00  0.00     0.012 A 
ATOM      3  C   UNL     1      35.190  28.778  22.886  1.00  0.00     0.012 A 
ATOM      4  C   UNL     1      34.341  26.955  24.830  1.00  0.00     0.047 A 
ATOM      5  C   UNL     1      35.304  29.095  24.244  1.00  0.00     0.047 A 
ATOM      6  C   UNL     1      34.883  28.183  25.219  1.00  0.00     0.115 A 
ENDROOT
BRANCH   1   7
ATOM      7  C   UNL     1      34.505  27.153  21.060  1.00  0.00     0.010 C 
ATOM      8  C   UNL     1      33.954  26.002  20.654  1.00  0.00     0.025 C 
BRANCH   8   9
ATOM      9  C   UNL     1      33.811  25.669  19.227  1.00  0.00     0.064 C 
ATOM     10  O   UNL     1      32.939  24.835  18.869  1.00  0.00    -0.545 OA
ATOM     11  O   UNL     1      34.626  26.259  18.268  1.00  0.00    -0.545 OA
ENDBRANCH   8   9
ENDBRANCH   1   7
BRANCH   6  12
ATOM     12  O   UNL     1      34.993  28.489  26.573  1.00  0.00    -0.508 OA
ATOM     13  H   UNL     1      34.453  29.237  26.993  1.00  0.00     0.293 HD
ENDBRANCH   6  12
TORSDOF 3
ENDMDL
MODEL 7
REMARK VINA RESULT:    -4.267     16.446     17.265
REMARK INTER + INTRA:          -5.040
REMARK INTER:                  -4.894
REMARK INTRA:                  -0.146
REMARK UNBOUND:                -0.150
REMARK SMILES O=C([O-])C=Cc1ccc(O)cc1
REMARK SMILES IDX 6 1 7 2 12 3 8 4 11 5 9 6 5 7 4 8 2 9 1 10 3 11 10 12
REMARK H PARENT 10 13
REMARK Flexibility Score: inf
ROOT
ATOM      1  C   UNL     1      34.267  26.628  21.204  1.00  0.00    -0.025 A 
ATOM      2  C   UNL     1      34.664  27.921  20.821  1.00  0.00     0.012 A 
ATOM      3  C   UNL     1      34.241  26.302  22.575  1.00  0.00     0.012 A 
ATOM      4  C   UNL     1      35.004  28.875  21.785  1.00  0.00     0.047 A 
ATOM      5  C   UNL     1      34.583  27.259  23.536  1.00  0.00     0.047 A 
ATOM      6  C   UNL     1      34.962  28.549  23.144  1.00  0.00     0.115 A 
ENDROOT
BRANCH   1   7
ATOM      7  C   UNL     1      33.926  25.648  20.142  1.00  0.00     0.010 C 
ATOM      8  C   UNL     1      33.241  25.959  19.034  1.00  0.00     0.025 C 
BRANCH   8   9
ATOM      9  C   UNL     1      32.934  24.956  18.002  1.00  0.00     0.064 C 
ATOM     10  O   UNL     1      32.524  23.817  18.346  1.00  0.00    -0.545 OA
ATOM     11  O   UNL     1      33.092  25.245  16.651  1.00  0.00    -0.545 OA
ENDBRANCH   8   9
ENDBRANCH   1   7
BRANCH   6  12
ATOM     12  O   UNL     1      35.303  29.510  24.092  1.00  0.00    -0.508 OA
ATOM     13  H   UNL     1      34.786  29.605  24.959  1.00  0.00     0.293 HD
ENDBRANCH   6  12
TORSDOF 3
ENDMDL
MODEL 8
REMARK VINA RESULT:    -4.230     13.615     14.330
REMARK INTER + INTRA:          -4.998
REMARK INTER:                  -4.845
REMARK INTRA:                  -0.153
REMARK UNBOUND:                -0.150
REMARK SMILES O=C([O-])C=Cc1ccc(O)cc1
REMARK SMILES IDX 6 1 7 2 12 3 8 4 11 5 9 6 5 7 4 8 2 9 1 10 3 11 10 12
REMARK H PARENT 10 13
REMARK Flexibility Score: inf
ROOT
ATOM      1  C   UNL     1      21.475  32.144  27.275  1.00  0.00    -0.025 A 
ATOM      2  C   UNL     1      21.526  33.441  27.816  1.00  0.00     0.012 A 
ATOM      3  C   UNL     1      21.457  31.041  28.153  1.00  0.00     0.012 A 
ATOM      4  C   UNL     1      21.535  33.633  29.201  1.00  0.00     0.047 A 
ATOM      5  C   UNL     1      21.467  31.239  29.537  1.00  0.00     0.047 A 
ATOM      6  C   UNL     1      21.503  32.535  30.066  1.00  0.00     0.115 A 
ENDROOT
BRANCH   1   7
ATOM      7  C   UNL     1      21.478  31.992  25.798  1.00  0.00     0.010 C 
ATOM      8  C   UNL     1      21.815  32.972  24.950  1.00  0.00     0.025 C 
BRANCH   8   9
ATOM      9  C   UNL     1      21.814  32.772  23.492  1.00  0.00     0.064 C 
ATOM     10  O   UNL     1      22.105  31.642  23.020  1.00  0.00    -0.545 OA
ATOM     11  O   UNL     1      21.500  33.813  22.625  1.00  0.00    -0.545 OA
ENDBRANCH   8   9
ENDBRANCH   1   7
BRANCH   6  12
ATOM     12  O   UNL     1      21.512  32.742  31.442  1.00  0.00    -0.508 OA
ATOM     13  H   UNL     1      20.791  32.354  32.041  1.00  0.00     0.293 HD
ENDBRANCH   6  12
TORSDOF 3
ENDMDL
MODEL 9
REMARK VINA RESULT:    -4.216     13.772     15.319
REMARK INTER + INTRA:          -4.982
REMARK INTER:                  -4.830
REMARK INTRA:                  -0.152
REMARK UNBOUND:                -0.150
REMARK SMILES O=C([O-])C=Cc1ccc(O)cc1
REMARK SMILES IDX 6 1 7 2 12 3 8 4 11 5 9 6 5 7 4 8 2 9 1 10 3 11 10 12
REMARK H PARENT 10 13
REMARK Flexibility Score: inf
ROOT
ATOM      1  C   UNL     1      21.835  32.761  25.443  1.00  0.00    -0.025 A 
ATOM      2  C   UNL     1      21.506  31.435  25.111  1.00  0.00     0.012 A 
ATOM      3  C   UNL     1      22.157  33.662  24.408  1.00  0.00     0.012 A 
ATOM      4  C   UNL     1      21.475  31.024  23.775  1.00  0.00     0.047 A 
ATOM      5  C   UNL     1      22.126  33.246  23.074  1.00  0.00     0.047 A 
ATOM      6  C   UNL     1      21.782  31.927  22.753  1.00  0.00     0.115 A 
ENDROOT
BRANCH   1   7
ATOM      7  C   UNL     1      21.863  33.146  26.877  1.00  0.00     0.010 C 
ATOM      8  C   UNL     1      21.522  32.321  27.876  1.00  0.00     0.025 C 
BRANCH   8   9
ATOM      9  C   UNL     1      21.576  32.742  29.285  1.00  0.00     0.064 C 
ATOM     10  O   UNL     1      21.860  31.898  30.174  1.00  0.00    -0.545 OA
ATOM     11  O   UNL     1      21.317  34.058  29.651  1.00  0.00    -0.545 OA
ENDBRANCH   8   9
ENDBRANCH   1   7
BRANCH   6  12
ATOM     12  O   UNL     1      21.747  31.503  21.427  1.00  0.00    -0.508 OA
ATOM     13  H   UNL     1      21.834  32.159  20.658  1.00  0.00     0.293 HD
ENDBRANCH   6  12
TORSDOF 3
ENDMDL
