MODEL 1
REMARK VINA RESULT:    -3.723      0.000      0.000
REMARK INTER + INTRA:         -11.707
REMARK INTER:                  -8.076
REMARK INTRA:                  -3.631
REMARK UNBOUND:                -3.631
REMARK SMILES CCCCCCCCCCCCCCCCCCCCCC(=O)[O-]
REMARK SMILES IDX 12 1 11 2 10 3 9 4 8 5 7 6 6 7 5 8 4 9 3 10 2 11 1 12 13 13
REMARK SMILES IDX 14 14 15 15 16 16 17 17 18 18 19 19 20 20 21 21 22 22 23 23
REMARK SMILES IDX 24 24
REMARK H PARENT
REMARK Flexibility Score: inf
ROOT
ATOM      1  C   UNL     1      14.838 130.064  63.372  1.00  0.00     0.000 C 
ENDROOT
BRANCH   1   2
ATOM      2  C   UNL     1      15.885 131.143  63.026  1.00  0.00     0.000 C 
BRANCH   2   3
ATOM      3  C   UNL     1      16.992 131.333  64.076  1.00  0.00     0.000 C 
BRANCH   3   4
ATOM      4  C   UNL     1      16.606 130.780  65.460  1.00  0.00    -0.000 C 
BRANCH   4   5
ATOM      5  C   UNL     1      17.482 129.581  65.875  1.00  0.00    -0.000 C 
BRANCH   5   6
ATOM      6  C   UNL     1      18.467 129.112  64.785  1.00  0.00    -0.000 C 
BRANCH   6   7
ATOM      7  C   UNL     1      18.172 127.705  64.228  1.00  0.00    -0.000 C 
BRANCH   7   8
ATOM      8  C   UNL     1      18.354 127.629  62.702  1.00  0.00    -0.000 C 
BRANCH   8   9
ATOM      9  C   UNL     1      18.900 128.935  62.104  1.00  0.00    -0.000 C 
BRANCH   9  10
ATOM     10  C   UNL     1      18.160 129.346  60.820  1.00  0.00    -0.000 C 
BRANCH  10  11
ATOM     11  C   UNL     1      18.878 130.473  60.060  1.00  0.00    -0.003 C 
ATOM     12  C   UNL     1      18.133 131.805  60.132  1.00  0.00     0.004 C 
ENDBRANCH  10  11
ENDBRANCH   9  10
ENDBRANCH   8   9
ENDBRANCH   7   8
ENDBRANCH   6   7
ENDBRANCH   5   6
ENDBRANCH   4   5
ENDBRANCH   3   4
ENDBRANCH   2   3
ENDBRANCH   1   2
BRANCH   1  13
ATOM     13  C   UNL     1      14.899 128.790  62.511  1.00  0.00     0.000 C 
BRANCH  13  14
ATOM     14  C   UNL     1      13.918 128.821  61.326  1.00  0.00     0.000 C 
BRANCH  14  15
ATOM     15  C   UNL     1      14.638 128.841  59.968  1.00  0.00     0.000 C 
BRANCH  15  16
ATOM     16  C   UNL     1      14.740 130.256  59.371  1.00  0.00     0.000 C 
BRANCH  16  17
ATOM     17  C   UNL     1      15.468 130.269  58.018  1.00  0.00     0.000 C 
BRANCH  17  18
ATOM     18  C   UNL     1      15.972 128.875  57.604  1.00  0.00     0.000 C 
BRANCH  18  19
ATOM     19  C   UNL     1      17.363 128.935  56.942  1.00  0.00     0.000 C 
BRANCH  19  20
ATOM     20  C   UNL     1      17.442 128.181  55.603  1.00  0.00     0.006 C 
BRANCH  20  21
ATOM     21  C   UNL     1      16.103 127.557  55.191  1.00  0.00     0.053 C 
BRANCH  21  22
ATOM     22  C   UNL     1      15.641 128.128  53.888  1.00  0.00     0.041 C 
ATOM     23  O   UNL     1      16.305 127.929  52.837  1.00  0.00    -0.550 OA
ATOM     24  O   UNL     1      14.455 128.849  53.826  1.00  0.00    -0.550 OA
ENDBRANCH  21  22
ENDBRANCH  20  21
ENDBRANCH  19  20
ENDBRANCH  18  19
ENDBRANCH  17  18
ENDBRANCH  16  17
ENDBRANCH  15  16
ENDBRANCH  14  15
ENDBRANCH  13  14
ENDBRANCH   1  13
TORSDOF 20
ENDMDL
MODEL 2
REMARK VINA RESULT:    -3.644      4.568      6.937
REMARK INTER + INTRA:         -11.535
REMARK INTER:                  -7.673
REMARK INTRA:                  -3.862
REMARK UNBOUND:                -3.631
REMARK SMILES CCCCCCCCCCCCCCCCCCCCCC(=O)[O-]
REMARK SMILES IDX 12 1 11 2 10 3 9 4 8 5 7 6 6 7 5 8 4 9 3 10 2 11 1 12 13 13
REMARK SMILES IDX 14 14 15 15 16 16 17 17 18 18 19 19 20 20 21 21 22 22 23 23
REMARK SMILES IDX 24 24
REMARK H PARENT
REMARK Flexibility Score: inf
ROOT
ATOM      1  C   UNL     1      17.060 130.131  57.970  1.00  0.00     0.000 C 
ENDROOT
BRANCH   1   2
ATOM      2  C   UNL     1      18.581 130.065  57.725  1.00  0.00     0.000 C 
BRANCH   2   3
ATOM      3  C   UNL     1      18.998 129.361  56.423  1.00  0.00     0.000 C 
BRANCH   3   4
ATOM      4  C   UNL     1      19.767 130.286  55.462  1.00  0.00    -0.000 C 
BRANCH   4   5
ATOM      5  C   UNL     1      18.864 130.850  54.347  1.00  0.00    -0.000 C 
BRANCH   5   6
ATOM      6  C   UNL     1      19.253 132.267  53.878  1.00  0.00    -0.000 C 
BRANCH   6   7
ATOM      7  C   UNL     1      18.120 133.306  53.999  1.00  0.00    -0.000 C 
BRANCH   7   8
ATOM      8  C   UNL     1      18.000 133.878  55.423  1.00  0.00    -0.000 C 
BRANCH   8   9
ATOM      9  C   UNL     1      19.355 134.312  56.004  1.00  0.00    -0.000 C 
BRANCH   9  10
ATOM     10  C   UNL     1      19.684 133.593  57.324  1.00  0.00    -0.000 C 
BRANCH  10  11
ATOM     11  C   UNL     1      18.529 133.659  58.335  1.00  0.00    -0.003 C 
ATOM     12  C   UNL     1      18.957 134.227  59.687  1.00  0.00     0.004 C 
ENDBRANCH  10  11
ENDBRANCH   9  10
ENDBRANCH   8   9
ENDBRANCH   7   8
ENDBRANCH   6   7
ENDBRANCH   5   6
ENDBRANCH   4   5
ENDBRANCH   3   4
ENDBRANCH   2   3
ENDBRANCH   1   2
BRANCH   1  13
ATOM     13  C   UNL     1      16.266 130.967  56.950  1.00  0.00     0.000 C 
BRANCH  13  14
ATOM     14  C   UNL     1      15.178 130.153  56.228  1.00  0.00     0.000 C 
BRANCH  14  15
ATOM     15  C   UNL     1      15.159 128.679  56.662  1.00  0.00     0.000 C 
BRANCH  15  16
ATOM     16  C   UNL     1      15.714 127.735  55.580  1.00  0.00     0.000 C 
BRANCH  16  17
ATOM     17  C   UNL     1      15.733 128.388  54.190  1.00  0.00     0.000 C 
BRANCH  17  18
ATOM     18  C   UNL     1      16.790 127.767  53.258  1.00  0.00     0.000 C 
BRANCH  18  19
ATOM     19  C   UNL     1      17.075 128.657  52.031  1.00  0.00     0.000 C 
BRANCH  19  20
ATOM     20  C   UNL     1      16.189 129.914  51.963  1.00  0.00     0.006 C 
BRANCH  20  21
ATOM     21  C   UNL     1      16.714 130.960  50.972  1.00  0.00     0.053 C 
BRANCH  21  22
ATOM     22  C   UNL     1      16.282 130.624  49.580  1.00  0.00     0.041 C 
ATOM     23  O   UNL     1      15.069 130.711  49.255  1.00  0.00    -0.550 OA
ATOM     24  O   UNL     1      17.225 130.253  48.630  1.00  0.00    -0.550 OA
ENDBRANCH  21  22
ENDBRANCH  20  21
ENDBRANCH  19  20
ENDBRANCH  18  19
ENDBRANCH  17  18
ENDBRANCH  16  17
ENDBRANCH  15  16
ENDBRANCH  14  15
ENDBRANCH  13  14
ENDBRANCH   1  13
TORSDOF 20
ENDMDL
MODEL 3
REMARK VINA RESULT:    -3.627      3.972      8.444
REMARK INTER + INTRA:         -11.499
REMARK INTER:                  -7.493
REMARK INTRA:                  -4.006
REMARK UNBOUND:                -3.631
REMARK SMILES CCCCCCCCCCCCCCCCCCCCCC(=O)[O-]
REMARK SMILES IDX 12 1 11 2 10 3 9 4 8 5 7 6 6 7 5 8 4 9 3 10 2 11 1 12 13 13
REMARK SMILES IDX 14 14 15 15 16 16 17 17 18 18 19 19 20 20 21 21 22 22 23 23
REMARK SMILES IDX 24 24
REMARK H PARENT
REMARK Flexibility Score: inf
ROOT
ATOM      1  C   UNL     1      18.320 129.450  53.645  1.00  0.00     0.000 C 
ENDROOT
BRANCH   1   2
ATOM      2  C   UNL     1      18.873 128.626  54.826  1.00  0.00     0.000 C 
BRANCH   2   3
ATOM      3  C   UNL     1      19.527 129.454  55.945  1.00  0.00     0.000 C 
BRANCH   3   4
ATOM      4  C   UNL     1      20.045 130.819  55.456  1.00  0.00    -0.000 C 
BRANCH   4   5
ATOM      5  C   UNL     1      19.287 131.996  56.101  1.00  0.00    -0.000 C 
BRANCH   5   6
ATOM      6  C   UNL     1      19.240 133.268  55.230  1.00  0.00    -0.000 C 
BRANCH   6   7
ATOM      7  C   UNL     1      18.196 133.219  54.096  1.00  0.00    -0.000 C 
BRANCH   7   8
ATOM      8  C   UNL     1      16.844 132.656  54.568  1.00  0.00    -0.000 C 
BRANCH   8   9
ATOM      9  C   UNL     1      15.825 132.524  53.425  1.00  0.00    -0.000 C 
BRANCH   9  10
ATOM     10  C   UNL     1      16.502 132.371  52.052  1.00  0.00    -0.000 C 
BRANCH  10  11
ATOM     11  C   UNL     1      15.486 132.259  50.904  1.00  0.00    -0.003 C 
ATOM     12  C   UNL     1      14.949 130.840  50.725  1.00  0.00     0.004 C 
ENDBRANCH  10  11
ENDBRANCH   9  10
ENDBRANCH   8   9
ENDBRANCH   7   8
ENDBRANCH   6   7
ENDBRANCH   5   6
ENDBRANCH   4   5
ENDBRANCH   3   4
ENDBRANCH   2   3
ENDBRANCH   1   2
BRANCH   1  13
ATOM     13  C   UNL     1      17.236 128.751  52.807  1.00  0.00     0.000 C 
BRANCH  13  14
ATOM     14  C   UNL     1      16.236 127.956  53.664  1.00  0.00     0.000 C 
BRANCH  14  15
ATOM     15  C   UNL     1      14.861 128.636  53.747  1.00  0.00     0.000 C 
BRANCH  15  16
ATOM     16  C   UNL     1      14.679 129.449  55.042  1.00  0.00     0.000 C 
BRANCH  16  17
ATOM     17  C   UNL     1      15.549 128.919  56.192  1.00  0.00     0.000 C 
BRANCH  17  18
ATOM     18  C   UNL     1      16.046 130.038  57.124  1.00  0.00     0.000 C 
BRANCH  18  19
ATOM     19  C   UNL     1      16.810 129.479  58.342  1.00  0.00     0.000 C 
BRANCH  19  20
ATOM     20  C   UNL     1      17.635 130.540  59.091  1.00  0.00     0.006 C 
BRANCH  20  21
ATOM     21  C   UNL     1      18.974 129.999  59.608  1.00  0.00     0.053 C 
BRANCH  21  22
ATOM     22  C   UNL     1      18.826 129.491  61.008  1.00  0.00     0.041 C 
ATOM     23  O   UNL     1      19.681 128.702  61.489  1.00  0.00    -0.550 OA
ATOM     24  O   UNL     1      17.764 129.919  61.794  1.00  0.00    -0.550 OA
ENDBRANCH  21  22
ENDBRANCH  20  21
ENDBRANCH  19  20
ENDBRANCH  18  19
ENDBRANCH  17  18
ENDBRANCH  16  17
ENDBRANCH  15  16
ENDBRANCH  14  15
ENDBRANCH  13  14
ENDBRANCH   1  13
TORSDOF 20
ENDMDL
MODEL 4
REMARK VINA RESULT:    -3.616      3.458      7.310
REMARK INTER + INTRA:         -11.476
REMARK INTER:                  -8.162
REMARK INTRA:                  -3.314
REMARK UNBOUND:                -3.631
REMARK SMILES CCCCCCCCCCCCCCCCCCCCCC(=O)[O-]
REMARK SMILES IDX 12 1 11 2 10 3 9 4 8 5 7 6 6 7 5 8 4 9 3 10 2 11 1 12 13 13
REMARK SMILES IDX 14 14 15 15 16 16 17 17 18 18 19 19 20 20 21 21 22 22 23 23
REMARK SMILES IDX 24 24
REMARK H PARENT
REMARK Flexibility Score: inf
ROOT
ATOM      1  C   UNL     1      14.885 128.401  58.871  1.00  0.00     0.000 C 
ENDROOT
BRANCH   1   2
ATOM      2  C   UNL     1      15.862 128.583  57.692  1.00  0.00     0.000 C 
BRANCH   2   3
ATOM      3  C   UNL     1      15.286 128.224  56.312  1.00  0.00     0.000 C 
BRANCH   3   4
ATOM      4  C   UNL     1      16.299 127.494  55.411  1.00  0.00    -0.000 C 
BRANCH   4   5
ATOM      5  C   UNL     1      17.137 128.471  54.564  1.00  0.00    -0.000 C 
BRANCH   5   6
ATOM      6  C   UNL     1      18.647 128.443  54.878  1.00  0.00    -0.000 C 
BRANCH   6   7
ATOM      7  C   UNL     1      19.197 129.762  55.458  1.00  0.00    -0.000 C 
BRANCH   7   8
ATOM      8  C   UNL     1      19.144 129.791  56.997  1.00  0.00    -0.000 C 
BRANCH   8   9
ATOM      9  C   UNL     1      18.570 131.107  57.545  1.00  0.00    -0.000 C 
BRANCH   9  10
ATOM     10  C   UNL     1      17.874 131.942  56.456  1.00  0.00    -0.000 C 
BRANCH  10  11
ATOM     11  C   UNL     1      16.347 131.972  56.622  1.00  0.00    -0.003 C 
ATOM     12  C   UNL     1      15.913 132.274  58.056  1.00  0.00     0.004 C 
ENDBRANCH  10  11
ENDBRANCH   9  10
ENDBRANCH   8   9
ENDBRANCH   7   8
ENDBRANCH   6   7
ENDBRANCH   5   6
ENDBRANCH   4   5
ENDBRANCH   3   4
ENDBRANCH   2   3
ENDBRANCH   1   2
BRANCH   1  13
ATOM     13  C   UNL     1      15.545 128.262  60.255  1.00  0.00     0.000 C 
BRANCH  13  14
ATOM     14  C   UNL     1      15.344 129.503  61.142  1.00  0.00     0.000 C 
BRANCH  14  15
ATOM     15  C   UNL     1      16.612 130.366  61.241  1.00  0.00     0.000 C 
BRANCH  15  16
ATOM     16  C   UNL     1      17.866 129.639  60.722  1.00  0.00     0.000 C 
BRANCH  16  17
ATOM     17  C   UNL     1      18.798 129.197  61.861  1.00  0.00     0.000 C 
BRANCH  17  18
ATOM     18  C   UNL     1      18.416 129.820  63.215  1.00  0.00     0.000 C 
BRANCH  18  19
ATOM     19  C   UNL     1      18.175 128.749  64.298  1.00  0.00     0.000 C 
BRANCH  19  20
ATOM     20  C   UNL     1      18.027 127.325  63.734  1.00  0.00     0.006 C 
BRANCH  20  21
ATOM     21  C   UNL     1      16.565 126.873  63.632  1.00  0.00     0.053 C 
BRANCH  21  22
ATOM     22  C   UNL     1      16.491 125.410  63.327  1.00  0.00     0.041 C 
ATOM     23  O   UNL     1      17.326 124.882  62.546  1.00  0.00    -0.550 OA
ATOM     24  O   UNL     1      15.524 124.621  63.937  1.00  0.00    -0.550 OA
ENDBRANCH  21  22
ENDBRANCH  20  21
ENDBRANCH  19  20
ENDBRANCH  18  19
ENDBRANCH  17  18
ENDBRANCH  16  17
ENDBRANCH  15  16
ENDBRANCH  14  15
ENDBRANCH  13  14
ENDBRANCH   1  13
TORSDOF 20
ENDMDL
MODEL 5
REMARK VINA RESULT:    -3.596      3.856      8.487
REMARK INTER + INTRA:         -11.431
REMARK INTER:                  -7.418
REMARK INTRA:                  -4.013
REMARK UNBOUND:                -3.631
REMARK SMILES CCCCCCCCCCCCCCCCCCCCCC(=O)[O-]
REMARK SMILES IDX 12 1 11 2 10 3 9 4 8 5 7 6 6 7 5 8 4 9 3 10 2 11 1 12 13 13
REMARK SMILES IDX 14 14 15 15 16 16 17 17 18 18 19 19 20 20 21 21 22 22 23 23
REMARK SMILES IDX 24 24
REMARK H PARENT
REMARK Flexibility Score: inf
ROOT
ATOM      1  C   UNL     1      19.644 129.526  55.400  1.00  0.00     0.000 C 
ENDROOT
BRANCH   1   2
ATOM      2  C   UNL     1      18.158 129.492  54.990  1.00  0.00     0.000 C 
BRANCH   2   3
ATOM      3  C   UNL     1      17.627 128.105  54.592  1.00  0.00     0.000 C 
BRANCH   3   4
ATOM      4  C   UNL     1      16.663 127.510  55.634  1.00  0.00    -0.000 C 
BRANCH   4   5
ATOM      5  C   UNL     1      15.740 128.579  56.252  1.00  0.00    -0.000 C 
BRANCH   5   6
ATOM      6  C   UNL     1      14.584 129.022  55.333  1.00  0.00    -0.000 C 
BRANCH   6   7
ATOM      7  C   UNL     1      14.623 130.513  54.941  1.00  0.00    -0.000 C 
BRANCH   7   8
ATOM      8  C   UNL     1      14.844 130.716  53.431  1.00  0.00    -0.000 C 
BRANCH   8   9
ATOM      9  C   UNL     1      15.945 131.743  53.126  1.00  0.00    -0.000 C 
BRANCH   9  10
ATOM     10  C   UNL     1      16.960 131.226  52.092  1.00  0.00    -0.000 C 
BRANCH  10  11
ATOM     11  C   UNL     1      16.345 130.200  51.126  1.00  0.00    -0.003 C 
ATOM     12  C   UNL     1      17.130 128.889  51.077  1.00  0.00     0.004 C 
ENDBRANCH  10  11
ENDBRANCH   9  10
ENDBRANCH   8   9
ENDBRANCH   7   8
ENDBRANCH   6   7
ENDBRANCH   5   6
ENDBRANCH   4   5
ENDBRANCH   3   4
ENDBRANCH   2   3
ENDBRANCH   1   2
BRANCH   1  13
ATOM     13  C   UNL     1      20.302 130.917  55.369  1.00  0.00     0.000 C 
BRANCH  13  14
ATOM     14  C   UNL     1      19.680 131.851  54.317  1.00  0.00     0.000 C 
BRANCH  14  15
ATOM     15  C   UNL     1      19.203 133.182  54.919  1.00  0.00     0.000 C 
BRANCH  15  16
ATOM     16  C   UNL     1      18.773 133.046  56.391  1.00  0.00     0.000 C 
BRANCH  16  17
ATOM     17  C   UNL     1      17.258 132.845  56.541  1.00  0.00     0.000 C 
BRANCH  17  18
ATOM     18  C   UNL     1      16.904 131.766  57.581  1.00  0.00     0.000 C 
BRANCH  18  19
ATOM     19  C   UNL     1      18.150 131.254  58.332  1.00  0.00     0.000 C 
BRANCH  19  20
ATOM     20  C   UNL     1      17.975 129.847  58.928  1.00  0.00     0.006 C 
BRANCH  20  21
ATOM     21  C   UNL     1      17.805 129.863  60.453  1.00  0.00     0.053 C 
BRANCH  21  22
ATOM     22  C   UNL     1      19.044 129.357  61.122  1.00  0.00     0.041 C 
ATOM     23  O   UNL     1      20.137 129.336  60.497  1.00  0.00    -0.550 OA
ATOM     24  O   UNL     1      19.000 128.947  62.448  1.00  0.00    -0.550 OA
ENDBRANCH  21  22
ENDBRANCH  20  21
ENDBRANCH  19  20
ENDBRANCH  18  19
ENDBRANCH  17  18
ENDBRANCH  16  17
ENDBRANCH  15  16
ENDBRANCH  14  15
ENDBRANCH  13  14
ENDBRANCH   1  13
TORSDOF 20
ENDMDL
MODEL 6
REMARK VINA RESULT:    -3.574      5.478      9.493
REMARK INTER + INTRA:         -11.384
REMARK INTER:                  -7.616
REMARK INTRA:                  -3.768
REMARK UNBOUND:                -3.631
REMARK SMILES CCCCCCCCCCCCCCCCCCCCCC(=O)[O-]
REMARK SMILES IDX 12 1 11 2 10 3 9 4 8 5 7 6 6 7 5 8 4 9 3 10 2 11 1 12 13 13
REMARK SMILES IDX 14 14 15 15 16 16 17 17 18 18 19 19 20 20 21 21 22 22 23 23
REMARK SMILES IDX 24 24
REMARK H PARENT
REMARK Flexibility Score: inf
ROOT
ATOM      1  C   UNL     1      14.870 130.757  54.953  1.00  0.00     0.000 C 
ENDROOT
BRANCH   1   2
ATOM      2  C   UNL     1      14.695 129.228  55.044  1.00  0.00     0.000 C 
BRANCH   2   3
ATOM      3  C   UNL     1      14.786 128.483  53.701  1.00  0.00     0.000 C 
BRANCH   3   4
ATOM      4  C   UNL     1      16.146 127.795  53.489  1.00  0.00    -0.000 C 
BRANCH   4   5
ATOM      5  C   UNL     1      16.894 128.346  52.259  1.00  0.00    -0.000 C 
BRANCH   5   6
ATOM      6  C   UNL     1      17.509 129.744  52.470  1.00  0.00    -0.000 C 
BRANCH   6   7
ATOM      7  C   UNL     1      16.774 130.877  51.725  1.00  0.00    -0.000 C 
BRANCH   7   8
ATOM      8  C   UNL     1      15.902 130.350  50.572  1.00  0.00    -0.000 C 
BRANCH   8   9
ATOM      9  C   UNL     1      16.669 130.258  49.243  1.00  0.00    -0.000 C 
BRANCH   9  10
ATOM     10  C   UNL     1      16.450 128.911  48.532  1.00  0.00    -0.000 C 
BRANCH  10  11
ATOM     11  C   UNL     1      17.769 128.186  48.224  1.00  0.00    -0.003 C 
ATOM     12  C   UNL     1      18.956 129.141  48.104  1.00  0.00     0.004 C 
ENDBRANCH  10  11
ENDBRANCH   9  10
ENDBRANCH   8   9
ENDBRANCH   7   8
ENDBRANCH   6   7
ENDBRANCH   5   6
ENDBRANCH   4   5
ENDBRANCH   3   4
ENDBRANCH   2   3
ENDBRANCH   1   2
BRANCH   1  13
ATOM     13  C   UNL     1      16.072 131.328  55.726  1.00  0.00     0.000 C 
BRANCH  13  14
ATOM     14  C   UNL     1      16.457 130.476  56.948  1.00  0.00     0.000 C 
BRANCH  14  15
ATOM     15  C   UNL     1      17.973 130.249  57.053  1.00  0.00     0.000 C 
BRANCH  15  16
ATOM     16  C   UNL     1      18.493 129.235  56.018  1.00  0.00     0.000 C 
BRANCH  16  17
ATOM     17  C   UNL     1      19.777 129.716  55.323  1.00  0.00     0.000 C 
BRANCH  17  18
ATOM     18  C   UNL     1      20.025 131.223  55.515  1.00  0.00     0.000 C 
BRANCH  18  19
ATOM     19  C   UNL     1      19.857 132.009  54.199  1.00  0.00     0.000 C 
BRANCH  19  20
ATOM     20  C   UNL     1      18.901 133.209  54.316  1.00  0.00     0.006 C 
BRANCH  20  21
ATOM     21  C   UNL     1      19.307 134.189  55.424  1.00  0.00     0.053 C 
BRANCH  21  22
ATOM     22  C   UNL     1      18.211 134.317  56.435  1.00  0.00     0.041 C 
ATOM     23  O   UNL     1      17.155 134.940  56.149  1.00  0.00    -0.550 OA
ATOM     24  O   UNL     1      18.340 133.714  57.679  1.00  0.00    -0.550 OA
ENDBRANCH  21  22
ENDBRANCH  20  21
ENDBRANCH  19  20
ENDBRANCH  18  19
ENDBRANCH  17  18
ENDBRANCH  16  17
ENDBRANCH  15  16
ENDBRANCH  14  15
ENDBRANCH  13  14
ENDBRANCH   1  13
TORSDOF 20
ENDMDL
MODEL 7
REMARK VINA RESULT:    -3.573      1.460      3.430
REMARK INTER + INTRA:         -11.381
REMARK INTER:                  -8.344
REMARK INTRA:                  -3.038
REMARK UNBOUND:                -3.631
REMARK SMILES CCCCCCCCCCCCCCCCCCCCCC(=O)[O-]
REMARK SMILES IDX 12 1 11 2 10 3 9 4 8 5 7 6 6 7 5 8 4 9 3 10 2 11 1 12 13 13
REMARK SMILES IDX 14 14 15 15 16 16 17 17 18 18 19 19 20 20 21 21 22 22 23 23
REMARK SMILES IDX 24 24
REMARK H PARENT
REMARK Flexibility Score: inf
ROOT
ATOM      1  C   UNL     1      17.219 130.213  61.145  1.00  0.00     0.000 C 
ENDROOT
BRANCH   1   2
ATOM      2  C   UNL     1      16.105 129.149  61.065  1.00  0.00     0.000 C 
BRANCH   2   3
ATOM      3  C   UNL     1      14.891 129.412  61.973  1.00  0.00     0.000 C 
BRANCH   3   4
ATOM      4  C   UNL     1      15.203 130.388  63.123  1.00  0.00    -0.000 C 
BRANCH   4   5
ATOM      5  C   UNL     1      14.946 129.760  64.507  1.00  0.00    -0.000 C 
BRANCH   5   6
ATOM      6  C   UNL     1      16.180 129.744  65.431  1.00  0.00    -0.000 C 
BRANCH   6   7
ATOM      7  C   UNL     1      17.445 130.369  64.808  1.00  0.00    -0.000 C 
BRANCH   7   8
ATOM      8  C   UNL     1      18.549 129.327  64.554  1.00  0.00    -0.000 C 
BRANCH   8   9
ATOM      9  C   UNL     1      18.039 127.882  64.680  1.00  0.00    -0.000 C 
BRANCH   9  10
ATOM     10  C   UNL     1      18.288 127.060  63.403  1.00  0.00    -0.000 C 
BRANCH  10  11
ATOM     11  C   UNL     1      17.025 126.335  62.913  1.00  0.00    -0.003 C 
ATOM     12  C   UNL     1      15.932 126.264  63.979  1.00  0.00     0.004 C 
ENDBRANCH  10  11
ENDBRANCH   9  10
ENDBRANCH   8   9
ENDBRANCH   7   8
ENDBRANCH   6   7
ENDBRANCH   5   6
ENDBRANCH   4   5
ENDBRANCH   3   4
ENDBRANCH   2   3
ENDBRANCH   1   2
BRANCH   1  13
ATOM     13  C   UNL     1      18.608 129.744  60.677  1.00  0.00     0.000 C 
BRANCH  13  14
ATOM     14  C   UNL     1      18.887 130.077  59.202  1.00  0.00     0.000 C 
BRANCH  14  15
ATOM     15  C   UNL     1      17.770 130.922  58.568  1.00  0.00     0.000 C 
BRANCH  15  16
ATOM     16  C   UNL     1      17.204 130.290  57.284  1.00  0.00     0.000 C 
BRANCH  16  17
ATOM     17  C   UNL     1      16.718 128.850  57.507  1.00  0.00     0.000 C 
BRANCH  17  18
ATOM     18  C   UNL     1      15.371 128.565  56.819  1.00  0.00     0.000 C 
BRANCH  18  19
ATOM     19  C   UNL     1      15.477 128.651  55.283  1.00  0.00     0.000 C 
BRANCH  19  20
ATOM     20  C   UNL     1      16.394 127.580  54.668  1.00  0.00     0.006 C 
BRANCH  20  21
ATOM     21  C   UNL     1      16.317 127.536  53.136  1.00  0.00     0.053 C 
BRANCH  21  22
ATOM     22  C   UNL     1      17.150 128.626  52.540  1.00  0.00     0.041 C 
ATOM     23  O   UNL     1      16.907 129.045  51.378  1.00  0.00    -0.550 OA
ATOM     24  O   UNL     1      18.170 129.207  53.282  1.00  0.00    -0.550 OA
ENDBRANCH  21  22
ENDBRANCH  20  21
ENDBRANCH  19  20
ENDBRANCH  18  19
ENDBRANCH  17  18
ENDBRANCH  16  17
ENDBRANCH  15  16
ENDBRANCH  14  15
ENDBRANCH  13  14
ENDBRANCH   1  13
TORSDOF 20
ENDMDL
MODEL 8
REMARK VINA RESULT:    -3.550      3.713      7.307
REMARK INTER + INTRA:         -11.332
REMARK INTER:                  -7.295
REMARK INTRA:                  -4.037
REMARK UNBOUND:                -3.631
REMARK SMILES CCCCCCCCCCCCCCCCCCCCCC(=O)[O-]
REMARK SMILES IDX 12 1 11 2 10 3 9 4 8 5 7 6 6 7 5 8 4 9 3 10 2 11 1 12 13 13
REMARK SMILES IDX 14 14 15 15 16 16 17 17 18 18 19 19 20 20 21 21 22 22 23 23
REMARK SMILES IDX 24 24
REMARK H PARENT
REMARK Flexibility Score: inf
ROOT
ATOM      1  C   UNL     1      18.547 130.409  59.940  1.00  0.00     0.000 C 
ENDROOT
BRANCH   1   2
ATOM      2  C   UNL     1      17.880 129.858  58.663  1.00  0.00     0.000 C 
BRANCH   2   3
ATOM      3  C   UNL     1      16.352 129.708  58.743  1.00  0.00     0.000 C 
BRANCH   3   4
ATOM      4  C   UNL     1      15.901 128.745  59.856  1.00  0.00    -0.000 C 
BRANCH   4   5
ATOM      5  C   UNL     1      14.366 128.646  59.957  1.00  0.00    -0.000 C 
BRANCH   5   6
ATOM      6  C   UNL     1      13.811 128.895  61.374  1.00  0.00    -0.000 C 
BRANCH   6   7
ATOM      7  C   UNL     1      14.895 129.101  62.451  1.00  0.00    -0.000 C 
BRANCH   7   8
ATOM      8  C   UNL     1      14.431 130.044  63.576  1.00  0.00    -0.000 C 
BRANCH   8   9
ATOM      9  C   UNL     1      15.214 131.367  63.600  1.00  0.00    -0.000 C 
BRANCH   9  10
ATOM     10  C   UNL     1      15.948 131.638  62.275  1.00  0.00    -0.000 C 
BRANCH  10  11
ATOM     11  C   UNL     1      17.088 132.656  62.431  1.00  0.00    -0.003 C 
ATOM     12  C   UNL     1      17.793 132.554  63.783  1.00  0.00     0.004 C 
ENDBRANCH  10  11
ENDBRANCH   9  10
ENDBRANCH   8   9
ENDBRANCH   7   8
ENDBRANCH   6   7
ENDBRANCH   5   6
ENDBRANCH   4   5
ENDBRANCH   3   4
ENDBRANCH   2   3
ENDBRANCH   1   2
BRANCH   1  13
ATOM     13  C   UNL     1      19.296 129.368  60.792  1.00  0.00     0.000 C 
BRANCH  13  14
ATOM     14  C   UNL     1      18.753 129.267  62.227  1.00  0.00     0.000 C 
BRANCH  14  15
ATOM     15  C   UNL     1      18.415 127.822  62.628  1.00  0.00     0.000 C 
BRANCH  15  16
ATOM     16  C   UNL     1      17.944 127.706  64.089  1.00  0.00     0.000 C 
BRANCH  16  17
ATOM     17  C   UNL     1      18.444 128.871  64.957  1.00  0.00     0.000 C 
BRANCH  17  18
ATOM     18  C   UNL     1      17.329 129.487  65.822  1.00  0.00     0.000 C 
BRANCH  18  19
ATOM     19  C   UNL     1      16.795 128.492  66.873  1.00  0.00     0.000 C 
BRANCH  19  20
ATOM     20  C   UNL     1      15.298 128.175  66.716  1.00  0.00     0.006 C 
BRANCH  20  21
ATOM     21  C   UNL     1      15.029 126.688  66.450  1.00  0.00     0.053 C 
BRANCH  21  22
ATOM     22  C   UNL     1      14.400 126.504  65.105  1.00  0.00     0.041 C 
ATOM     23  O   UNL     1      14.968 125.799  64.231  1.00  0.00    -0.550 OA
ATOM     24  O   UNL     1      13.166 127.080  64.830  1.00  0.00    -0.550 OA
ENDBRANCH  21  22
ENDBRANCH  20  21
ENDBRANCH  19  20
ENDBRANCH  18  19
ENDBRANCH  17  18
ENDBRANCH  16  17
ENDBRANCH  15  16
ENDBRANCH  14  15
ENDBRANCH  13  14
ENDBRANCH   1  13
TORSDOF 20
ENDMDL
MODEL 9
REMARK VINA RESULT:    -3.550      2.031      3.255
REMARK INTER + INTRA:         -11.332
REMARK INTER:                  -7.599
REMARK INTRA:                  -3.733
REMARK UNBOUND:                -3.631
REMARK SMILES CCCCCCCCCCCCCCCCCCCCCC(=O)[O-]
REMARK SMILES IDX 12 1 11 2 10 3 9 4 8 5 7 6 6 7 5 8 4 9 3 10 2 11 1 12 13 13
REMARK SMILES IDX 14 14 15 15 16 16 17 17 18 18 19 19 20 20 21 21 22 22 23 23
REMARK SMILES IDX 24 24
REMARK H PARENT
REMARK Flexibility Score: inf
ROOT
ATOM      1  C   UNL     1      13.638 127.914  63.408  1.00  0.00     0.000 C 
ENDROOT
BRANCH   1   2
ATOM      2  C   UNL     1      14.236 127.511  64.771  1.00  0.00     0.000 C 
BRANCH   2   3
ATOM      3  C   UNL     1      15.137 128.574  65.424  1.00  0.00     0.000 C 
BRANCH   3   4
ATOM      4  C   UNL     1      16.401 127.975  66.065  1.00  0.00    -0.000 C 
BRANCH   4   5
ATOM      5  C   UNL     1      17.604 128.937  65.992  1.00  0.00    -0.000 C 
BRANCH   5   6
ATOM      6  C   UNL     1      17.248 130.356  65.506  1.00  0.00    -0.000 C 
BRANCH   6   7
ATOM      7  C   UNL     1      18.053 130.824  64.276  1.00  0.00    -0.000 C 
BRANCH   7   8
ATOM      8  C   UNL     1      17.353 130.473  62.951  1.00  0.00    -0.000 C 
BRANCH   8   9
ATOM      9  C   UNL     1      18.017 129.293  62.224  1.00  0.00    -0.000 C 
BRANCH   9  10
ATOM     10  C   UNL     1      17.179 128.005  62.308  1.00  0.00    -0.000 C 
BRANCH  10  11
ATOM     11  C   UNL     1      17.954 126.838  62.939  1.00  0.00    -0.003 C 
ATOM     12  C   UNL     1      17.165 125.529  62.929  1.00  0.00     0.004 C 
ENDBRANCH  10  11
ENDBRANCH   9  10
ENDBRANCH   8   9
ENDBRANCH   7   8
ENDBRANCH   6   7
ENDBRANCH   5   6
ENDBRANCH   4   5
ENDBRANCH   3   4
ENDBRANCH   2   3
ENDBRANCH   1   2
BRANCH   1  13
ATOM     13  C   UNL     1      13.761 129.406  63.052  1.00  0.00     0.000 C 
BRANCH  13  14
ATOM     14  C   UNL     1      13.303 129.718  61.616  1.00  0.00     0.000 C 
BRANCH  14  15
ATOM     15  C   UNL     1      14.476 129.773  60.624  1.00  0.00     0.000 C 
BRANCH  15  16
ATOM     16  C   UNL     1      14.539 128.534  59.712  1.00  0.00     0.000 C 
BRANCH  16  17
ATOM     17  C   UNL     1      15.679 128.621  58.687  1.00  0.00     0.000 C 
BRANCH  17  18
ATOM     18  C   UNL     1      16.430 129.964  58.747  1.00  0.00     0.000 C 
BRANCH  18  19
ATOM     19  C   UNL     1      17.944 129.792  58.514  1.00  0.00     0.000 C 
BRANCH  19  20
ATOM     20  C   UNL     1      18.569 130.916  57.669  1.00  0.00     0.006 C 
BRANCH  20  21
ATOM     21  C   UNL     1      18.404 130.690  56.161  1.00  0.00     0.053 C 
BRANCH  21  22
ATOM     22  C   UNL     1      19.108 129.438  55.741  1.00  0.00     0.041 C 
ATOM     23  O   UNL     1      20.335 129.290  55.981  1.00  0.00    -0.550 OA
ATOM     24  O   UNL     1      18.400 128.418  55.119  1.00  0.00    -0.550 OA
ENDBRANCH  21  22
ENDBRANCH  20  21
ENDBRANCH  19  20
ENDBRANCH  18  19
ENDBRANCH  17  18
ENDBRANCH  16  17
ENDBRANCH  15  16
ENDBRANCH  14  15
ENDBRANCH  13  14
ENDBRANCH   1  13
TORSDOF 20
ENDMDL
