MODEL 1
REMARK VINA RESULT:    -4.722      0.000      0.000
REMARK INTER + INTRA:         -15.166
REMARK INTER:                 -11.900
REMARK INTRA:                  -3.266
REMARK UNBOUND:                -3.266
REMARK SMILES CCCCCCCCCCCCCCCCCCCCCCCCCCCC(=O)[O-]
REMARK SMILES IDX 15 1 16 2 17 3 18 4 19 5 20 6 21 7 22 8 23 9 24 10 25 11
REMARK SMILES IDX 26 12 27 13 28 14 29 15 30 16 14 17 13 18 12 19 11 20 10 21
REMARK SMILES IDX 9 22 8 23 7 24 6 25 5 26 4 27 3 28 2 29 1 30
REMARK H PARENT
REMARK Flexibility Score: inf
ROOT
ATOM      1  C   UNL     1     -10.321   7.292  29.960  1.00  0.00     0.000 C 
ENDROOT
BRANCH   1   2
ATOM      2  C   UNL     1     -10.314   5.888  29.342  1.00  0.00     0.000 C 
BRANCH   2   3
ATOM      3  C   UNL     1     -11.614   5.138  29.659  1.00  0.00     0.000 C 
BRANCH   3   4
ATOM      4  C   UNL     1     -11.626   4.652  31.115  1.00  0.00     0.000 C 
BRANCH   4   5
ATOM      5  C   UNL     1     -11.699   3.121  31.230  1.00  0.00     0.000 C 
BRANCH   5   6
ATOM      6  C   UNL     1     -10.363   2.435  30.906  1.00  0.00     0.000 C 
BRANCH   6   7
ATOM      7  C   UNL     1      -9.313   2.749  31.980  1.00  0.00     0.000 C 
BRANCH   7   8
ATOM      8  C   UNL     1      -7.994   3.216  31.345  1.00  0.00     0.000 C 
BRANCH   8   9
ATOM      9  C   UNL     1      -7.525   4.583  31.878  1.00  0.00     0.000 C 
BRANCH   9  10
ATOM     10  C   UNL     1      -6.715   5.422  30.874  1.00  0.00     0.000 C 
BRANCH  10  11
ATOM     11  C   UNL     1      -5.423   5.989  31.480  1.00  0.00     0.000 C 
BRANCH  11  12
ATOM     12  C   UNL     1      -5.118   5.332  32.832  1.00  0.00     0.006 C 
BRANCH  12  13
ATOM     13  C   UNL     1      -4.708   6.378  33.874  1.00  0.00     0.053 C 
BRANCH  13  14
ATOM     14  C   UNL     1      -3.221   6.386  34.059  1.00  0.00     0.041 C 
ATOM     15  O   UNL     1      -2.651   7.390  34.565  1.00  0.00    -0.550 OA
ATOM     16  O   UNL     1      -2.468   5.276  33.696  1.00  0.00    -0.550 OA
ENDBRANCH  13  14
ENDBRANCH  12  13
ENDBRANCH  11  12
ENDBRANCH  10  11
ENDBRANCH   9  10
ENDBRANCH   8   9
ENDBRANCH   7   8
ENDBRANCH   6   7
ENDBRANCH   5   6
ENDBRANCH   4   5
ENDBRANCH   3   4
ENDBRANCH   2   3
ENDBRANCH   1   2
BRANCH   1  17
ATOM     17  C   UNL     1     -10.417   8.372  28.871  1.00  0.00     0.000 C 
BRANCH  17  18
ATOM     18  C   UNL     1     -11.765   9.111  28.885  1.00  0.00     0.000 C 
BRANCH  18  19
ATOM     19  C   UNL     1     -12.823   8.436  28.001  1.00  0.00     0.000 C 
BRANCH  19  20
ATOM     20  C   UNL     1     -14.209   8.499  28.662  1.00  0.00     0.000 C 
BRANCH  20  21
ATOM     21  C   UNL     1     -14.552   7.227  29.453  1.00  0.00     0.000 C 
BRANCH  21  22
ATOM     22  C   UNL     1     -15.879   7.346  30.220  1.00  0.00    -0.000 C 
BRANCH  22  23
ATOM     23  C   UNL     1     -16.306   6.015  30.863  1.00  0.00    -0.000 C 
BRANCH  23  24
ATOM     24  C   UNL     1     -15.125   5.049  31.060  1.00  0.00    -0.000 C 
BRANCH  24  25
ATOM     25  C   UNL     1     -15.387   3.665  30.427  1.00  0.00    -0.000 C 
BRANCH  25  26
ATOM     26  C   UNL     1     -15.759   2.575  31.451  1.00  0.00    -0.000 C 
BRANCH  26  27
ATOM     27  C   UNL     1     -15.282   2.849  32.889  1.00  0.00    -0.000 C 
BRANCH  27  28
ATOM     28  C   UNL     1     -16.413   3.035  33.921  1.00  0.00    -0.000 C 
BRANCH  28  29
ATOM     29  C   UNL     1     -16.964   1.705  34.481  1.00  0.00    -0.003 C 
ATOM     30  C   UNL     1     -15.955   0.983  35.375  1.00  0.00     0.004 C 
ENDBRANCH  28  29
ENDBRANCH  27  28
ENDBRANCH  26  27
ENDBRANCH  25  26
ENDBRANCH  24  25
ENDBRANCH  23  24
ENDBRANCH  22  23
ENDBRANCH  21  22
ENDBRANCH  20  21
ENDBRANCH  19  20
ENDBRANCH  18  19
ENDBRANCH  17  18
ENDBRANCH   1  17
TORSDOF 26
ENDMDL
MODEL 2
REMARK VINA RESULT:    -4.702      3.899      8.283
REMARK INTER + INTRA:         -15.114
REMARK INTER:                 -10.187
REMARK INTRA:                  -4.926
REMARK UNBOUND:                -3.266
REMARK SMILES CCCCCCCCCCCCCCCCCCCCCCCCCCCC(=O)[O-]
REMARK SMILES IDX 15 1 16 2 17 3 18 4 19 5 20 6 21 7 22 8 23 9 24 10 25 11
REMARK SMILES IDX 26 12 27 13 28 14 29 15 30 16 14 17 13 18 12 19 11 20 10 21
REMARK SMILES IDX 9 22 8 23 7 24 6 25 5 26 4 27 3 28 2 29 1 30
REMARK H PARENT
REMARK Flexibility Score: inf
ROOT
ATOM      1  C   UNL     1     -10.756   7.977  28.368  1.00  0.00     0.000 C 
ENDROOT
BRANCH   1   2
ATOM      2  C   UNL     1     -11.839   9.047  28.559  1.00  0.00     0.000 C 
BRANCH   2   3
ATOM      3  C   UNL     1     -13.163   8.614  27.917  1.00  0.00     0.000 C 
BRANCH   3   4
ATOM      4  C   UNL     1     -14.289   8.567  28.960  1.00  0.00     0.000 C 
BRANCH   4   5
ATOM      5  C   UNL     1     -14.612   7.137  29.419  1.00  0.00     0.000 C 
BRANCH   5   6
ATOM      6  C   UNL     1     -15.877   7.062  30.287  1.00  0.00     0.000 C 
BRANCH   6   7
ATOM      7  C   UNL     1     -16.054   5.657  30.878  1.00  0.00     0.000 C 
BRANCH   7   8
ATOM      8  C   UNL     1     -16.425   4.640  29.788  1.00  0.00     0.000 C 
BRANCH   8   9
ATOM      9  C   UNL     1     -15.682   3.299  29.944  1.00  0.00     0.000 C 
BRANCH   9  10
ATOM     10  C   UNL     1     -15.274   2.631  28.618  1.00  0.00     0.000 C 
BRANCH  10  11
ATOM     11  C   UNL     1     -14.781   3.641  27.571  1.00  0.00     0.000 C 
BRANCH  11  12
ATOM     12  C   UNL     1     -13.256   3.575  27.423  1.00  0.00     0.006 C 
BRANCH  12  13
ATOM     13  C   UNL     1     -12.662   4.970  27.202  1.00  0.00     0.053 C 
BRANCH  13  14
ATOM     14  C   UNL     1     -12.590   5.289  25.739  1.00  0.00     0.041 C 
ATOM     15  O   UNL     1     -11.888   4.580  24.969  1.00  0.00    -0.550 OA
ATOM     16  O   UNL     1     -13.318   6.354  25.223  1.00  0.00    -0.550 OA
ENDBRANCH  13  14
ENDBRANCH  12  13
ENDBRANCH  11  12
ENDBRANCH  10  11
ENDBRANCH   9  10
ENDBRANCH   8   9
ENDBRANCH   7   8
ENDBRANCH   6   7
ENDBRANCH   5   6
ENDBRANCH   4   5
ENDBRANCH   3   4
ENDBRANCH   2   3
ENDBRANCH   1   2
BRANCH   1  17
ATOM     17  C   UNL     1     -10.273   7.435  29.723  1.00  0.00     0.000 C 
BRANCH  17  18
ATOM     18  C   UNL     1     -10.396   5.907  29.828  1.00  0.00     0.000 C 
BRANCH  18  19
ATOM     19  C   UNL     1     -11.026   5.450  31.152  1.00  0.00     0.000 C 
BRANCH  19  20
ATOM     20  C   UNL     1     -12.327   4.671  30.898  1.00  0.00     0.000 C 
BRANCH  20  21
ATOM     21  C   UNL     1     -12.291   3.245  31.469  1.00  0.00     0.000 C 
BRANCH  21  22
ATOM     22  C   UNL     1     -11.797   2.209  30.445  1.00  0.00    -0.000 C 
BRANCH  22  23
ATOM     23  C   UNL     1     -10.499   1.515  30.893  1.00  0.00    -0.000 C 
BRANCH  23  24
ATOM     24  C   UNL     1      -9.259   2.046  30.152  1.00  0.00    -0.000 C 
BRANCH  24  25
ATOM     25  C   UNL     1      -8.083   2.334  31.109  1.00  0.00    -0.000 C 
BRANCH  25  26
ATOM     26  C   UNL     1      -8.511   2.978  32.442  1.00  0.00    -0.000 C 
BRANCH  26  27
ATOM     27  C   UNL     1      -7.767   4.277  32.800  1.00  0.00    -0.000 C 
BRANCH  27  28
ATOM     28  C   UNL     1      -6.942   4.890  31.648  1.00  0.00    -0.000 C 
BRANCH  28  29
ATOM     29  C   UNL     1      -5.529   5.344  32.074  1.00  0.00    -0.003 C 
ATOM     30  C   UNL     1      -5.431   5.627  33.573  1.00  0.00     0.004 C 
ENDBRANCH  28  29
ENDBRANCH  27  28
ENDBRANCH  26  27
ENDBRANCH  25  26
ENDBRANCH  24  25
ENDBRANCH  23  24
ENDBRANCH  22  23
ENDBRANCH  21  22
ENDBRANCH  20  21
ENDBRANCH  19  20
ENDBRANCH  18  19
ENDBRANCH  17  18
ENDBRANCH   1  17
TORSDOF 26
ENDMDL
MODEL 3
REMARK VINA RESULT:    -4.459      3.268      5.630
REMARK INTER + INTRA:         -14.502
REMARK INTER:                  -9.817
REMARK INTRA:                  -4.685
REMARK UNBOUND:                -3.266
REMARK SMILES CCCCCCCCCCCCCCCCCCCCCCCCCCCC(=O)[O-]
REMARK SMILES IDX 15 1 16 2 17 3 18 4 19 5 20 6 21 7 22 8 23 9 24 10 25 11
REMARK SMILES IDX 26 12 27 13 28 14 29 15 30 16 14 17 13 18 12 19 11 20 10 21
REMARK SMILES IDX 9 22 8 23 7 24 6 25 5 26 4 27 3 28 2 29 1 30
REMARK H PARENT
REMARK Flexibility Score: inf
ROOT
ATOM      1  C   UNL     1     -13.702   7.830  28.219  1.00  0.00     0.000 C 
ENDROOT
BRANCH   1   2
ATOM      2  C   UNL     1     -12.508   8.721  28.580  1.00  0.00     0.000 C 
BRANCH   2   3
ATOM      3  C   UNL     1     -11.183   7.966  28.414  1.00  0.00     0.000 C 
BRANCH   3   4
ATOM      4  C   UNL     1     -10.355   8.019  29.705  1.00  0.00     0.000 C 
BRANCH   4   5
ATOM      5  C   UNL     1      -8.863   8.274  29.443  1.00  0.00     0.000 C 
BRANCH   5   6
ATOM      6  C   UNL     1      -8.204   7.158  28.619  1.00  0.00     0.000 C 
BRANCH   6   7
ATOM      7  C   UNL     1      -8.190   5.837  29.399  1.00  0.00     0.000 C 
BRANCH   7   8
ATOM      8  C   UNL     1      -6.824   5.597  30.060  1.00  0.00     0.000 C 
BRANCH   8   9
ATOM      9  C   UNL     1      -6.891   4.590  31.224  1.00  0.00     0.000 C 
BRANCH   9  10
ATOM     10  C   UNL     1      -8.219   4.592  32.002  1.00  0.00     0.000 C 
BRANCH  10  11
ATOM     11  C   UNL     1      -8.755   3.178  32.266  1.00  0.00     0.000 C 
BRANCH  11  12
ATOM     12  C   UNL     1      -8.019   2.144  31.403  1.00  0.00     0.006 C 
BRANCH  12  13
ATOM     13  C   UNL     1      -8.484   0.721  31.731  1.00  0.00     0.053 C 
BRANCH  13  14
ATOM     14  C   UNL     1      -9.714   0.372  30.951  1.00  0.00     0.041 C 
ATOM     15  O   UNL     1     -10.539  -0.464  31.407  1.00  0.00    -0.550 OA
ATOM     16  O   UNL     1      -9.962   0.989  29.731  1.00  0.00    -0.550 OA
ENDBRANCH  13  14
ENDBRANCH  12  13
ENDBRANCH  11  12
ENDBRANCH  10  11
ENDBRANCH   9  10
ENDBRANCH   8   9
ENDBRANCH   7   8
ENDBRANCH   6   7
ENDBRANCH   5   6
ENDBRANCH   4   5
ENDBRANCH   3   4
ENDBRANCH   2   3
ENDBRANCH   1   2
BRANCH   1  17
ATOM     17  C   UNL     1     -14.814   7.944  29.274  1.00  0.00     0.000 C 
BRANCH  17  18
ATOM     18  C   UNL     1     -15.147   6.596  29.932  1.00  0.00     0.000 C 
BRANCH  18  19
ATOM     19  C   UNL     1     -16.453   6.634  30.739  1.00  0.00     0.000 C 
BRANCH  19  20
ATOM     20  C   UNL     1     -16.603   5.367  31.596  1.00  0.00     0.000 C 
BRANCH  20  21
ATOM     21  C   UNL     1     -15.717   4.210  31.112  1.00  0.00     0.000 C 
BRANCH  21  22
ATOM     22  C   UNL     1     -14.855   3.611  32.237  1.00  0.00    -0.000 C 
BRANCH  22  23
ATOM     23  C   UNL     1     -14.159   2.306  31.811  1.00  0.00    -0.000 C 
BRANCH  23  24
ATOM     24  C   UNL     1     -12.787   2.555  31.161  1.00  0.00    -0.000 C 
BRANCH  24  25
ATOM     25  C   UNL     1     -12.250   3.974  31.449  1.00  0.00    -0.000 C 
BRANCH  25  26
ATOM     26  C   UNL     1     -12.037   4.825  30.183  1.00  0.00    -0.000 C 
BRANCH  26  27
ATOM     27  C   UNL     1     -11.315   4.103  29.032  1.00  0.00    -0.000 C 
BRANCH  27  28
ATOM     28  C   UNL     1     -12.126   3.999  27.723  1.00  0.00    -0.000 C 
BRANCH  28  29
ATOM     29  C   UNL     1     -13.653   4.077  27.934  1.00  0.00    -0.003 C 
ATOM     30  C   UNL     1     -14.334   2.714  27.801  1.00  0.00     0.004 C 
ENDBRANCH  28  29
ENDBRANCH  27  28
ENDBRANCH  26  27
ENDBRANCH  25  26
ENDBRANCH  24  25
ENDBRANCH  23  24
ENDBRANCH  22  23
ENDBRANCH  21  22
ENDBRANCH  20  21
ENDBRANCH  19  20
ENDBRANCH  18  19
ENDBRANCH  17  18
ENDBRANCH   1  17
TORSDOF 26
ENDMDL
MODEL 4
REMARK VINA RESULT:    -4.411      4.090      8.281
REMARK INTER + INTRA:         -14.383
REMARK INTER:                 -10.824
REMARK INTRA:                  -3.559
REMARK UNBOUND:                -3.266
REMARK SMILES CCCCCCCCCCCCCCCCCCCCCCCCCCCC(=O)[O-]
REMARK SMILES IDX 15 1 16 2 17 3 18 4 19 5 20 6 21 7 22 8 23 9 24 10 25 11
REMARK SMILES IDX 26 12 27 13 28 14 29 15 30 16 14 17 13 18 12 19 11 20 10 21
REMARK SMILES IDX 9 22 8 23 7 24 6 25 5 26 4 27 3 28 2 29 1 30
REMARK H PARENT
REMARK Flexibility Score: inf
ROOT
ATOM      1  C   UNL     1     -13.266   8.535  27.869  1.00  0.00     0.000 C 
ENDROOT
BRANCH   1   2
ATOM      2  C   UNL     1     -14.529   8.106  28.627  1.00  0.00     0.000 C 
BRANCH   2   3
ATOM      3  C   UNL     1     -14.273   6.842  29.457  1.00  0.00     0.000 C 
BRANCH   3   4
ATOM      4  C   UNL     1     -15.570   6.045  29.657  1.00  0.00     0.000 C 
BRANCH   4   5
ATOM      5  C   UNL     1     -16.276   6.384  30.979  1.00  0.00     0.000 C 
BRANCH   5   6
ATOM      6  C   UNL     1     -17.007   5.179  31.589  1.00  0.00     0.000 C 
BRANCH   6   7
ATOM      7  C   UNL     1     -16.162   3.905  31.462  1.00  0.00     0.000 C 
BRANCH   7   8
ATOM      8  C   UNL     1     -15.066   3.856  32.538  1.00  0.00     0.000 C 
BRANCH   8   9
ATOM      9  C   UNL     1     -15.577   3.319  33.888  1.00  0.00     0.000 C 
BRANCH   9  10
ATOM     10  C   UNL     1     -16.858   2.470  33.801  1.00  0.00     0.000 C 
BRANCH  10  11
ATOM     11  C   UNL     1     -16.581   0.963  33.899  1.00  0.00     0.000 C 
BRANCH  11  12
ATOM     12  C   UNL     1     -16.914   0.258  32.577  1.00  0.00     0.006 C 
BRANCH  12  13
ATOM     13  C   UNL     1     -15.683   0.182  31.668  1.00  0.00     0.053 C 
BRANCH  13  14
ATOM     14  C   UNL     1     -15.120  -1.207  31.653  1.00  0.00     0.041 C 
ATOM     15  O   UNL     1     -15.892  -2.203  31.612  1.00  0.00    -0.550 OA
ATOM     16  O   UNL     1     -13.745  -1.401  31.659  1.00  0.00    -0.550 OA
ENDBRANCH  13  14
ENDBRANCH  12  13
ENDBRANCH  11  12
ENDBRANCH  10  11
ENDBRANCH   9  10
ENDBRANCH   8   9
ENDBRANCH   7   8
ENDBRANCH   6   7
ENDBRANCH   5   6
ENDBRANCH   4   5
ENDBRANCH   3   4
ENDBRANCH   2   3
ENDBRANCH   1   2
BRANCH   1  17
ATOM     17  C   UNL     1     -12.054   8.604  28.813  1.00  0.00     0.000 C 
BRANCH  17  18
ATOM     18  C   UNL     1     -10.851   7.803  28.291  1.00  0.00     0.000 C 
BRANCH  18  19
ATOM     19  C   UNL     1     -10.167   6.974  29.387  1.00  0.00     0.000 C 
BRANCH  19  20
ATOM     20  C   UNL     1     -11.203   6.181  30.199  1.00  0.00     0.000 C 
BRANCH  20  21
ATOM     21  C   UNL     1     -10.566   5.312  31.294  1.00  0.00     0.000 C 
BRANCH  21  22
ATOM     22  C   UNL     1      -9.050   5.136  31.105  1.00  0.00    -0.000 C 
BRANCH  22  23
ATOM     23  C   UNL     1      -8.453   4.106  32.080  1.00  0.00    -0.000 C 
BRANCH  23  24
ATOM     24  C   UNL     1      -7.653   3.007  31.360  1.00  0.00    -0.000 C 
BRANCH  24  25
ATOM     25  C   UNL     1      -8.406   1.660  31.327  1.00  0.00    -0.000 C 
BRANCH  25  26
ATOM     26  C   UNL     1      -9.651   1.667  30.417  1.00  0.00    -0.000 C 
BRANCH  26  27
ATOM     27  C   UNL     1     -10.931   1.116  31.070  1.00  0.00    -0.000 C 
BRANCH  27  28
ATOM     28  C   UNL     1     -12.105   2.116  31.135  1.00  0.00    -0.000 C 
BRANCH  28  29
ATOM     29  C   UNL     1     -13.043   2.048  29.910  1.00  0.00    -0.003 C 
ATOM     30  C   UNL     1     -12.784   3.176  28.911  1.00  0.00     0.004 C 
ENDBRANCH  28  29
ENDBRANCH  27  28
ENDBRANCH  26  27
ENDBRANCH  25  26
ENDBRANCH  24  25
ENDBRANCH  23  24
ENDBRANCH  22  23
ENDBRANCH  21  22
ENDBRANCH  20  21
ENDBRANCH  19  20
ENDBRANCH  18  19
ENDBRANCH  17  18
ENDBRANCH   1  17
TORSDOF 26
ENDMDL
MODEL 5
REMARK VINA RESULT:    -4.376      1.601      3.748
REMARK INTER + INTRA:         -14.292
REMARK INTER:                  -9.829
REMARK INTRA:                  -4.463
REMARK UNBOUND:                -3.266
REMARK SMILES CCCCCCCCCCCCCCCCCCCCCCCCCCCC(=O)[O-]
REMARK SMILES IDX 15 1 16 2 17 3 18 4 19 5 20 6 21 7 22 8 23 9 24 10 25 11
REMARK SMILES IDX 26 12 27 13 28 14 29 15 30 16 14 17 13 18 12 19 11 20 10 21
REMARK SMILES IDX 9 22 8 23 7 24 6 25 5 26 4 27 3 28 2 29 1 30
REMARK H PARENT
REMARK Flexibility Score: inf
ROOT
ATOM      1  C   UNL     1     -12.296   8.062  27.892  1.00  0.00     0.000 C 
ENDROOT
BRANCH   1   2
ATOM      2  C   UNL     1     -11.176   8.889  28.536  1.00  0.00     0.000 C 
BRANCH   2   3
ATOM      3  C   UNL     1     -10.555   8.148  29.726  1.00  0.00     0.000 C 
BRANCH   3   4
ATOM      4  C   UNL     1     -10.583   6.629  29.501  1.00  0.00     0.000 C 
BRANCH   4   5
ATOM      5  C   UNL     1     -11.017   5.852  30.754  1.00  0.00     0.000 C 
BRANCH   5   6
ATOM      6  C   UNL     1      -9.849   5.127  31.439  1.00  0.00     0.000 C 
BRANCH   6   7
ATOM      7  C   UNL     1     -10.077   3.609  31.449  1.00  0.00     0.000 C 
BRANCH   7   8
ATOM      8  C   UNL     1      -8.946   2.874  30.714  1.00  0.00     0.000 C 
BRANCH   8   9
ATOM      9  C   UNL     1      -8.542   3.562  29.396  1.00  0.00     0.000 C 
BRANCH   9  10
ATOM     10  C   UNL     1      -7.122   4.155  29.389  1.00  0.00     0.000 C 
BRANCH  10  11
ATOM     11  C   UNL     1      -6.389   3.960  30.724  1.00  0.00     0.000 C 
BRANCH  11  12
ATOM     12  C   UNL     1      -5.839   5.294  31.246  1.00  0.00     0.006 C 
BRANCH  12  13
ATOM     13  C   UNL     1      -5.620   5.244  32.762  1.00  0.00     0.053 C 
BRANCH  13  14
ATOM     14  C   UNL     1      -4.279   5.807  33.122  1.00  0.00     0.041 C 
ATOM     15  O   UNL     1      -3.611   5.302  34.064  1.00  0.00    -0.550 OA
ATOM     16  O   UNL     1      -3.756   6.874  32.402  1.00  0.00    -0.550 OA
ENDBRANCH  13  14
ENDBRANCH  12  13
ENDBRANCH  11  12
ENDBRANCH  10  11
ENDBRANCH   9  10
ENDBRANCH   8   9
ENDBRANCH   7   8
ENDBRANCH   6   7
ENDBRANCH   5   6
ENDBRANCH   4   5
ENDBRANCH   3   4
ENDBRANCH   2   3
ENDBRANCH   1   2
BRANCH   1  17
ATOM     17  C   UNL     1     -13.637   8.812  27.949  1.00  0.00     0.000 C 
BRANCH  17  18
ATOM     18  C   UNL     1     -14.592   8.239  29.009  1.00  0.00     0.000 C 
BRANCH  18  19
ATOM     19  C   UNL     1     -14.285   6.776  29.358  1.00  0.00     0.000 C 
BRANCH  19  20
ATOM     20  C   UNL     1     -15.582   5.991  29.609  1.00  0.00     0.000 C 
BRANCH  20  21
ATOM     21  C   UNL     1     -16.351   6.485  30.843  1.00  0.00     0.000 C 
BRANCH  21  22
ATOM     22  C   UNL     1     -16.771   5.339  31.779  1.00  0.00    -0.000 C 
BRANCH  22  23
ATOM     23  C   UNL     1     -16.107   4.002  31.403  1.00  0.00    -0.000 C 
BRANCH  23  24
ATOM     24  C   UNL     1     -14.943   3.637  32.341  1.00  0.00    -0.000 C 
BRANCH  24  25
ATOM     25  C   UNL     1     -13.633   3.368  31.570  1.00  0.00    -0.000 C 
BRANCH  25  26
ATOM     26  C   UNL     1     -13.851   2.806  30.152  1.00  0.00    -0.000 C 
BRANCH  26  27
ATOM     27  C   UNL     1     -12.572   2.663  29.309  1.00  0.00    -0.000 C 
BRANCH  27  28
ATOM     28  C   UNL     1     -12.770   2.869  27.792  1.00  0.00    -0.000 C 
BRANCH  28  29
ATOM     29  C   UNL     1     -12.487   4.312  27.322  1.00  0.00    -0.003 C 
ATOM     30  C   UNL     1     -11.120   4.453  26.652  1.00  0.00     0.004 C 
ENDBRANCH  28  29
ENDBRANCH  27  28
ENDBRANCH  26  27
ENDBRANCH  25  26
ENDBRANCH  24  25
ENDBRANCH  23  24
ENDBRANCH  22  23
ENDBRANCH  21  22
ENDBRANCH  20  21
ENDBRANCH  19  20
ENDBRANCH  18  19
ENDBRANCH  17  18
ENDBRANCH   1  17
TORSDOF 26
ENDMDL
MODEL 6
REMARK VINA RESULT:    -4.372      2.854      6.124
REMARK INTER + INTRA:         -14.283
REMARK INTER:                  -9.754
REMARK INTRA:                  -4.529
REMARK UNBOUND:                -3.266
REMARK SMILES CCCCCCCCCCCCCCCCCCCCCCCCCCCC(=O)[O-]
REMARK SMILES IDX 15 1 16 2 17 3 18 4 19 5 20 6 21 7 22 8 23 9 24 10 25 11
REMARK SMILES IDX 26 12 27 13 28 14 29 15 30 16 14 17 13 18 12 19 11 20 10 21
REMARK SMILES IDX 9 22 8 23 7 24 6 25 5 26 4 27 3 28 2 29 1 30
REMARK H PARENT
REMARK Flexibility Score: inf
ROOT
ATOM      1  C   UNL     1     -14.960   3.798  32.531  1.00  0.00     0.000 C 
ENDROOT
BRANCH   1   2
ATOM      2  C   UNL     1     -16.331   3.287  32.989  1.00  0.00     0.000 C 
BRANCH   2   3
ATOM      3  C   UNL     1     -16.226   2.540  34.324  1.00  0.00     0.000 C 
BRANCH   3   4
ATOM      4  C   UNL     1     -16.240   1.021  34.106  1.00  0.00     0.000 C 
BRANCH   4   5
ATOM      5  C   UNL     1     -16.821   0.623  32.740  1.00  0.00     0.000 C 
BRANCH   5   6
ATOM      6  C   UNL     1     -15.873  -0.272  31.928  1.00  0.00     0.000 C 
BRANCH   6   7
ATOM      7  C   UNL     1     -14.965   0.571  31.023  1.00  0.00     0.000 C 
BRANCH   7   8
ATOM      8  C   UNL     1     -13.549  -0.021  30.952  1.00  0.00     0.000 C 
BRANCH   8   9
ATOM      9  C   UNL     1     -12.664   0.670  29.898  1.00  0.00     0.000 C 
BRANCH   9  10
ATOM     10  C   UNL     1     -12.499   2.188  30.090  1.00  0.00     0.000 C 
BRANCH  10  11
ATOM     11  C   UNL     1     -11.249   2.552  30.904  1.00  0.00     0.000 C 
BRANCH  11  12
ATOM     12  C   UNL     1     -11.347   3.983  31.447  1.00  0.00     0.006 C 
BRANCH  12  13
ATOM     13  C   UNL     1     -10.133   4.818  31.026  1.00  0.00     0.053 C 
BRANCH  13  14
ATOM     14  C   UNL     1      -8.858   4.120  31.389  1.00  0.00     0.041 C 
ATOM     15  O   UNL     1      -8.048   3.770  30.490  1.00  0.00    -0.550 OA
ATOM     16  O   UNL     1      -8.552   3.878  32.723  1.00  0.00    -0.550 OA
ENDBRANCH  13  14
ENDBRANCH  12  13
ENDBRANCH  11  12
ENDBRANCH  10  11
ENDBRANCH   9  10
ENDBRANCH   8   9
ENDBRANCH   7   8
ENDBRANCH   6   7
ENDBRANCH   5   6
ENDBRANCH   4   5
ENDBRANCH   3   4
ENDBRANCH   2   3
ENDBRANCH   1   2
BRANCH   1  17
ATOM     17  C   UNL     1     -15.093   4.703  31.296  1.00  0.00     0.000 C 
BRANCH  17  18
ATOM     18  C   UNL     1     -16.349   5.588  31.341  1.00  0.00     0.000 C 
BRANCH  18  19
ATOM     19  C   UNL     1     -16.186   6.894  30.552  1.00  0.00     0.000 C 
BRANCH  19  20
ATOM     20  C   UNL     1     -15.030   6.785  29.546  1.00  0.00     0.000 C 
BRANCH  20  21
ATOM     21  C   UNL     1     -14.696   8.124  28.872  1.00  0.00     0.000 C 
BRANCH  21  22
ATOM     22  C   UNL     1     -13.195   8.279  28.572  1.00  0.00    -0.000 C 
BRANCH  22  23
ATOM     23  C   UNL     1     -12.377   7.060  29.033  1.00  0.00    -0.000 C 
BRANCH  23  24
ATOM     24  C   UNL     1     -11.594   6.405  27.881  1.00  0.00    -0.000 C 
BRANCH  24  25
ATOM     25  C   UNL     1     -12.134   5.003  27.529  1.00  0.00    -0.000 C 
BRANCH  25  26
ATOM     26  C   UNL     1     -13.400   5.029  26.651  1.00  0.00    -0.000 C 
BRANCH  26  27
ATOM     27  C   UNL     1     -14.237   3.738  26.686  1.00  0.00    -0.000 C 
BRANCH  27  28
ATOM     28  C   UNL     1     -15.019   3.508  27.996  1.00  0.00    -0.000 C 
BRANCH  28  29
ATOM     29  C   UNL     1     -16.160   2.476  27.863  1.00  0.00    -0.003 C 
ATOM     30  C   UNL     1     -16.920   2.609  26.542  1.00  0.00     0.004 C 
ENDBRANCH  28  29
ENDBRANCH  27  28
ENDBRANCH  26  27
ENDBRANCH  25  26
ENDBRANCH  24  25
ENDBRANCH  23  24
ENDBRANCH  22  23
ENDBRANCH  21  22
ENDBRANCH  20  21
ENDBRANCH  19  20
ENDBRANCH  18  19
ENDBRANCH  17  18
ENDBRANCH   1  17
TORSDOF 26
ENDMDL
MODEL 7
REMARK VINA RESULT:    -4.267      3.220      5.483
REMARK INTER + INTRA:         -14.019
REMARK INTER:                  -9.270
REMARK INTRA:                  -4.749
REMARK UNBOUND:                -3.266
REMARK SMILES CCCCCCCCCCCCCCCCCCCCCCCCCCCC(=O)[O-]
REMARK SMILES IDX 15 1 16 2 17 3 18 4 19 5 20 6 21 7 22 8 23 9 24 10 25 11
REMARK SMILES IDX 26 12 27 13 28 14 29 15 30 16 14 17 13 18 12 19 11 20 10 21
REMARK SMILES IDX 9 22 8 23 7 24 6 25 5 26 4 27 3 28 2 29 1 30
REMARK H PARENT
REMARK Flexibility Score: inf
ROOT
ATOM      1  C   UNL     1     -12.591   8.146  27.935  1.00  0.00     0.000 C 
ENDROOT
BRANCH   1   2
ATOM      2  C   UNL     1     -11.731   9.063  28.814  1.00  0.00     0.000 C 
BRANCH   2   3
ATOM      3  C   UNL     1     -10.792   8.247  29.712  1.00  0.00     0.000 C 
BRANCH   3   4
ATOM      4  C   UNL     1     -10.056   7.171  28.901  1.00  0.00     0.000 C 
BRANCH   4   5
ATOM      5  C   UNL     1      -8.528   7.314  28.976  1.00  0.00     0.000 C 
BRANCH   5   6
ATOM      6  C   UNL     1      -7.865   6.199  29.800  1.00  0.00     0.000 C 
BRANCH   6   7
ATOM      7  C   UNL     1      -8.890   5.128  30.194  1.00  0.00     0.000 C 
BRANCH   7   8
ATOM      8  C   UNL     1      -8.656   4.641  31.633  1.00  0.00     0.000 C 
BRANCH   8   9
ATOM      9  C   UNL     1      -9.286   3.262  31.907  1.00  0.00     0.000 C 
BRANCH   9  10
ATOM     10  C   UNL     1      -8.826   2.143  30.956  1.00  0.00     0.000 C 
BRANCH  10  11
ATOM     11  C   UNL     1      -9.952   1.638  30.043  1.00  0.00     0.000 C 
BRANCH  11  12
ATOM     12  C   UNL     1      -9.583   0.289  29.413  1.00  0.00     0.006 C 
BRANCH  12  13
ATOM     13  C   UNL     1      -9.504  -0.812  30.476  1.00  0.00     0.053 C 
BRANCH  13  14
ATOM     14  C   UNL     1      -8.153  -1.460  30.470  1.00  0.00     0.041 C 
ATOM     15  O   UNL     1      -7.761  -2.100  29.457  1.00  0.00    -0.550 OA
ATOM     16  O   UNL     1      -7.317  -1.335  31.572  1.00  0.00    -0.550 OA
ENDBRANCH  13  14
ENDBRANCH  12  13
ENDBRANCH  11  12
ENDBRANCH  10  11
ENDBRANCH   9  10
ENDBRANCH   8   9
ENDBRANCH   7   8
ENDBRANCH   6   7
ENDBRANCH   5   6
ENDBRANCH   4   5
ENDBRANCH   3   4
ENDBRANCH   2   3
ENDBRANCH   1   2
BRANCH   1  17
ATOM     17  C   UNL     1     -14.086   8.340  28.233  1.00  0.00     0.000 C 
BRANCH  17  18
ATOM     18  C   UNL     1     -14.704   7.143  28.971  1.00  0.00     0.000 C 
BRANCH  18  19
ATOM     19  C   UNL     1     -15.643   7.565  30.110  1.00  0.00     0.000 C 
BRANCH  19  20
ATOM     20  C   UNL     1     -16.281   6.337  30.777  1.00  0.00     0.000 C 
BRANCH  20  21
ATOM     21  C   UNL     1     -16.346   5.117  29.845  1.00  0.00     0.000 C 
BRANCH  21  22
ATOM     22  C   UNL     1     -16.723   3.823  30.586  1.00  0.00    -0.000 C 
BRANCH  22  23
ATOM     23  C   UNL     1     -16.562   3.953  32.111  1.00  0.00    -0.000 C 
BRANCH  23  24
ATOM     24  C   UNL     1     -15.385   3.123  32.653  1.00  0.00    -0.000 C 
BRANCH  24  25
ATOM     25  C   UNL     1     -14.735   2.247  31.560  1.00  0.00    -0.000 C 
BRANCH  25  26
ATOM     26  C   UNL     1     -13.238   2.539  31.340  1.00  0.00    -0.000 C 
BRANCH  26  27
ATOM     27  C   UNL     1     -12.828   4.007  31.554  1.00  0.00    -0.000 C 
BRANCH  27  28
ATOM     28  C   UNL     1     -12.535   4.793  30.259  1.00  0.00    -0.000 C 
BRANCH  28  29
ATOM     29  C   UNL     1     -12.870   4.009  28.971  1.00  0.00    -0.003 C 
ATOM     30  C   UNL     1     -11.736   4.052  27.947  1.00  0.00     0.004 C 
ENDBRANCH  28  29
ENDBRANCH  27  28
ENDBRANCH  26  27
ENDBRANCH  25  26
ENDBRANCH  24  25
ENDBRANCH  23  24
ENDBRANCH  22  23
ENDBRANCH  21  22
ENDBRANCH  20  21
ENDBRANCH  19  20
ENDBRANCH  18  19
ENDBRANCH  17  18
ENDBRANCH   1  17
TORSDOF 26
ENDMDL
MODEL 8
REMARK VINA RESULT:    -4.258     17.152     20.617
REMARK INTER + INTRA:         -13.995
REMARK INTER:                  -8.597
REMARK INTRA:                  -5.398
REMARK UNBOUND:                -3.266
REMARK SMILES CCCCCCCCCCCCCCCCCCCCCCCCCCCC(=O)[O-]
REMARK SMILES IDX 15 1 16 2 17 3 18 4 19 5 20 6 21 7 22 8 23 9 24 10 25 11
REMARK SMILES IDX 26 12 27 13 28 14 29 15 30 16 14 17 13 18 12 19 11 20 10 21
REMARK SMILES IDX 9 22 8 23 7 24 6 25 5 26 4 27 3 28 2 29 1 30
REMARK H PARENT
REMARK Flexibility Score: inf
ROOT
ATOM      1  C   UNL     1       1.636  -6.755  21.271  1.00  0.00     0.000 C 
ENDROOT
BRANCH   1   2
ATOM      2  C   UNL     1       2.690  -7.867  21.331  1.00  0.00     0.000 C 
BRANCH   2   3
ATOM      3  C   UNL     1       2.104  -9.210  20.876  1.00  0.00     0.000 C 
BRANCH   3   4
ATOM      4  C   UNL     1       2.821  -9.724  19.619  1.00  0.00     0.000 C 
BRANCH   4   5
ATOM      5  C   UNL     1       1.856 -10.343  18.597  1.00  0.00     0.000 C 
BRANCH   5   6
ATOM      6  C   UNL     1       0.662  -9.430  18.277  1.00  0.00     0.000 C 
BRANCH   6   7
ATOM      7  C   UNL     1       0.812  -8.800  16.886  1.00  0.00     0.000 C 
BRANCH   7   8
ATOM      8  C   UNL     1      -0.287  -7.757  16.628  1.00  0.00     0.000 C 
BRANCH   8   9
ATOM      9  C   UNL     1      -1.566  -8.023  17.444  1.00  0.00     0.000 C 
BRANCH   9  10
ATOM     10  C   UNL     1      -2.603  -6.885  17.405  1.00  0.00     0.000 C 
BRANCH  10  11
ATOM     11  C   UNL     1      -4.038  -7.381  17.632  1.00  0.00     0.000 C 
BRANCH  11  12
ATOM     12  C   UNL     1      -4.740  -6.549  18.713  1.00  0.00     0.006 C 
BRANCH  12  13
ATOM     13  C   UNL     1      -4.801  -5.070  18.316  1.00  0.00     0.053 C 
BRANCH  13  14
ATOM     14  C   UNL     1      -5.744  -4.866  17.171  1.00  0.00     0.041 C 
ATOM     15  O   UNL     1      -5.368  -4.243  16.142  1.00  0.00    -0.550 OA
ATOM     16  O   UNL     1      -7.031  -5.387  17.228  1.00  0.00    -0.550 OA
ENDBRANCH  13  14
ENDBRANCH  12  13
ENDBRANCH  11  12
ENDBRANCH  10  11
ENDBRANCH   9  10
ENDBRANCH   8   9
ENDBRANCH   7   8
ENDBRANCH   6   7
ENDBRANCH   5   6
ENDBRANCH   4   5
ENDBRANCH   3   4
ENDBRANCH   2   3
ENDBRANCH   1   2
BRANCH   1  17
ATOM     17  C   UNL     1       1.605  -6.099  19.882  1.00  0.00     0.000 C 
BRANCH  17  18
ATOM     18  C   UNL     1       0.238  -5.482  19.547  1.00  0.00     0.000 C 
BRANCH  18  19
ATOM     19  C   UNL     1      -0.880  -5.969  20.480  1.00  0.00     0.000 C 
BRANCH  19  20
ATOM     20  C   UNL     1      -1.937  -4.873  20.685  1.00  0.00     0.000 C 
BRANCH  20  21
ATOM     21  C   UNL     1      -1.743  -3.673  19.747  1.00  0.00     0.000 C 
BRANCH  21  22
ATOM     22  C   UNL     1      -2.186  -2.345  20.383  1.00  0.00    -0.000 C 
BRANCH  22  23
ATOM     23  C   UNL     1      -1.115  -1.247  20.256  1.00  0.00    -0.000 C 
BRANCH  23  24
ATOM     24  C   UNL     1      -0.301  -1.364  18.956  1.00  0.00    -0.000 C 
BRANCH  24  25
ATOM     25  C   UNL     1       1.218  -1.252  19.204  1.00  0.00    -0.000 C 
BRANCH  25  26
ATOM     26  C   UNL     1       1.613  -1.343  20.691  1.00  0.00    -0.000 C 
BRANCH  26  27
ATOM     27  C   UNL     1       2.198  -2.699  21.123  1.00  0.00    -0.000 C 
BRANCH  27  28
ATOM     28  C   UNL     1       2.018  -3.035  22.618  1.00  0.00    -0.000 C 
BRANCH  28  29
ATOM     29  C   UNL     1       0.638  -3.640  22.954  1.00  0.00    -0.003 C 
ATOM     30  C   UNL     1      -0.302  -2.629  23.612  1.00  0.00     0.004 C 
ENDBRANCH  28  29
ENDBRANCH  27  28
ENDBRANCH  26  27
ENDBRANCH  25  26
ENDBRANCH  24  25
ENDBRANCH  23  24
ENDBRANCH  22  23
ENDBRANCH  21  22
ENDBRANCH  20  21
ENDBRANCH  19  20
ENDBRANCH  18  19
ENDBRANCH  17  18
ENDBRANCH   1  17
TORSDOF 26
ENDMDL
MODEL 9
REMARK VINA RESULT:    -4.257      3.495      5.149
REMARK INTER + INTRA:         -13.992
REMARK INTER:                  -9.188
REMARK INTRA:                  -4.804
REMARK UNBOUND:                -3.266
REMARK SMILES CCCCCCCCCCCCCCCCCCCCCCCCCCCC(=O)[O-]
REMARK SMILES IDX 15 1 16 2 17 3 18 4 19 5 20 6 21 7 22 8 23 9 24 10 25 11
REMARK SMILES IDX 26 12 27 13 28 14 29 15 30 16 14 17 13 18 12 19 11 20 10 21
REMARK SMILES IDX 9 22 8 23 7 24 6 25 5 26 4 27 3 28 2 29 1 30
REMARK H PARENT
REMARK Flexibility Score: inf
ROOT
ATOM      1  C   UNL     1     -12.810   9.047  28.623  1.00  0.00     0.000 C 
ENDROOT
BRANCH   1   2
ATOM      2  C   UNL     1     -11.333   9.125  28.219  1.00  0.00     0.000 C 
BRANCH   2   3
ATOM      3  C   UNL     1     -10.416   8.845  29.416  1.00  0.00     0.000 C 
BRANCH   3   4
ATOM      4  C   UNL     1     -10.378   7.345  29.739  1.00  0.00     0.000 C 
BRANCH   4   5
ATOM      5  C   UNL     1      -9.533   6.544  28.736  1.00  0.00     0.000 C 
BRANCH   5   6
ATOM      6  C   UNL     1      -8.460   5.681  29.416  1.00  0.00     0.000 C 
BRANCH   6   7
ATOM      7  C   UNL     1      -8.779   5.484  30.904  1.00  0.00     0.000 C 
BRANCH   7   8
ATOM      8  C   UNL     1      -7.630   4.762  31.626  1.00  0.00     0.000 C 
BRANCH   8   9
ATOM      9  C   UNL     1      -8.125   3.674  32.599  1.00  0.00     0.000 C 
BRANCH   9  10
ATOM     10  C   UNL     1      -9.130   2.678  31.994  1.00  0.00     0.000 C 
BRANCH  10  11
ATOM     11  C   UNL     1      -8.558   1.913  30.792  1.00  0.00     0.000 C 
BRANCH  11  12
ATOM     12  C   UNL     1      -9.195   0.522  30.676  1.00  0.00     0.006 C 
BRANCH  12  13
ATOM     13  C   UNL     1      -8.271  -0.557  31.252  1.00  0.00     0.053 C 
BRANCH  13  14
ATOM     14  C   UNL     1      -7.586  -1.311  30.153  1.00  0.00     0.041 C 
ATOM     15  O   UNL     1      -6.574  -2.019  30.405  1.00  0.00    -0.550 OA
ATOM     16  O   UNL     1      -8.081  -1.252  28.856  1.00  0.00    -0.550 OA
ENDBRANCH  13  14
ENDBRANCH  12  13
ENDBRANCH  11  12
ENDBRANCH  10  11
ENDBRANCH   9  10
ENDBRANCH   8   9
ENDBRANCH   7   8
ENDBRANCH   6   7
ENDBRANCH   5   6
ENDBRANCH   4   5
ENDBRANCH   3   4
ENDBRANCH   2   3
ENDBRANCH   1   2
BRANCH   1  17
ATOM     17  C   UNL     1     -13.494   7.831  27.978  1.00  0.00     0.000 C 
BRANCH  17  18
ATOM     18  C   UNL     1     -14.267   6.976  28.995  1.00  0.00     0.000 C 
BRANCH  18  19
ATOM     19  C   UNL     1     -15.341   7.773  29.749  1.00  0.00     0.000 C 
BRANCH  19  20
ATOM     20  C   UNL     1     -16.295   6.830  30.499  1.00  0.00     0.000 C 
BRANCH  20  21
ATOM     21  C   UNL     1     -15.753   5.398  30.613  1.00  0.00     0.000 C 
BRANCH  21  22
ATOM     22  C   UNL     1     -16.533   4.397  29.743  1.00  0.00    -0.000 C 
BRANCH  22  23
ATOM     23  C   UNL     1     -15.650   3.239  29.245  1.00  0.00    -0.000 C 
BRANCH  23  24
ATOM     24  C   UNL     1     -15.094   3.487  27.832  1.00  0.00    -0.000 C 
BRANCH  24  25
ATOM     25  C   UNL     1     -13.635   3.004  27.683  1.00  0.00    -0.000 C 
BRANCH  25  26
ATOM     26  C   UNL     1     -12.588   4.056  28.100  1.00  0.00    -0.000 C 
BRANCH  26  27
ATOM     27  C   UNL     1     -11.751   3.680  29.336  1.00  0.00    -0.000 C 
BRANCH  27  28
ATOM     28  C   UNL     1     -12.257   4.276  30.666  1.00  0.00    -0.000 C 
BRANCH  28  29
ATOM     29  C   UNL     1     -12.860   3.225  31.624  1.00  0.00    -0.003 C 
ATOM     30  C   UNL     1     -12.713   1.798  31.096  1.00  0.00     0.004 C 
ENDBRANCH  28  29
ENDBRANCH  27  28
ENDBRANCH  26  27
ENDBRANCH  25  26
ENDBRANCH  24  25
ENDBRANCH  23  24
ENDBRANCH  22  23
ENDBRANCH  21  22
ENDBRANCH  20  21
ENDBRANCH  19  20
ENDBRANCH  18  19
ENDBRANCH  17  18
ENDBRANCH   1  17
TORSDOF 26
ENDMDL
