MODEL 1
REMARK VINA RESULT:    -3.643      0.000      0.000
REMARK INTER + INTRA:          -3.858
REMARK INTER:                  -4.388
REMARK INTRA:                   0.530
REMARK UNBOUND:                 0.530
REMARK SMILES O=c1c(O)c(-c2ccc(O)c(O)c2)oc2cc(O)cc(O)c12
REMARK SMILES IDX 5 1 3 2 2 3 1 4 22 5 20 6 19 7 17 8 16 9 15 10 14 11 6 12
REMARK SMILES IDX 7 13 8 14 9 15 13 16 11 17 10 18 12 20 4 22 21 24 18 26
REMARK H PARENT 10 19 12 21 4 23 21 25 18 27
REMARK Flexibility Score: inf
ROOT
ATOM      1  C   UNL     1       0.962  14.907  16.043  1.00  0.00     0.180 A 
ATOM      2  C   UNL     1       0.439  16.121  15.556  1.00  0.00     0.208 A 
ATOM      3  C   UNL     1       0.991  16.677  14.391  1.00  0.00     0.238 A 
ATOM      4  O   UNL     1       0.538  17.770  13.950  1.00  0.00    -0.285 OA
ATOM      5  C   UNL     1       2.035  16.005  13.723  1.00  0.00     0.111 A 
ATOM      6  C   UNL     1       2.642  16.496  12.542  1.00  0.00     0.134 A 
ATOM      7  C   UNL     1       3.672  15.763  11.933  1.00  0.00     0.093 A 
ATOM      8  C   UNL     1       4.104  14.550  12.482  1.00  0.00     0.123 A 
ATOM      9  C   UNL     1       3.508  14.063  13.646  1.00  0.00     0.094 A 
ATOM     10  C   UNL     1       2.483  14.779  14.269  1.00  0.00     0.146 A 
ATOM     11  O   UNL     1       1.938  14.294  15.379  1.00  0.00    -0.452 OA
ENDROOT
BRANCH   1  12
ATOM     12  C   UNL     1       0.448  14.268  17.275  1.00  0.00     0.025 A 
ATOM     13  C   UNL     1      -0.510  14.938  18.053  1.00  0.00     0.016 A 
ATOM     14  C   UNL     1      -1.024  14.345  19.208  1.00  0.00     0.051 A 
ATOM     15  C   UNL     1      -0.601  13.066  19.596  1.00  0.00     0.157 A 
ATOM     16  C   UNL     1       0.855  12.976  17.655  1.00  0.00     0.062 A 
ATOM     17  C   UNL     1       0.340  12.378  18.812  1.00  0.00     0.158 A 
BRANCH  15  18
ATOM     18  O   UNL     1      -1.114  12.478  20.751  1.00  0.00    -0.504 OA
ATOM     19  H   UNL     1      -2.088  12.576  21.009  1.00  0.00     0.293 HD
ENDBRANCH  15  18
BRANCH  17  20
ATOM     20  O   UNL     1       0.771  11.099  19.161  1.00  0.00    -0.504 OA
ATOM     21  H   UNL     1       1.397  10.562  18.573  1.00  0.00     0.293 HD
ENDBRANCH  17  20
ENDBRANCH   1  12
BRANCH   2  22
ATOM     22  O   UNL     1      -0.630  16.741  16.207  1.00  0.00    -0.502 OA
ATOM     23  H   UNL     1      -0.494  17.409  16.955  1.00  0.00     0.293 HD
ENDBRANCH   2  22
BRANCH   6  24
ATOM     24  O   UNL     1       2.232  17.702  11.972  1.00  0.00    -0.507 OA
ATOM     25  H   UNL     1       2.803  18.537  12.024  1.00  0.00     0.293 HD
ENDBRANCH   6  24
BRANCH   8  26
ATOM     26  O   UNL     1       5.125  13.822  11.876  1.00  0.00    -0.508 OA
ATOM     27  H   UNL     1       5.025  13.447  10.940  1.00  0.00     0.293 HD
ENDBRANCH   8  26
TORSDOF 6
ENDMDL
MODEL 2
REMARK VINA RESULT:    -3.256      3.304      4.616
REMARK INTER + INTRA:          -3.392
REMARK INTER:                  -3.103
REMARK INTRA:                  -0.289
REMARK UNBOUND:                 0.530
REMARK SMILES O=c1c(O)c(-c2ccc(O)c(O)c2)oc2cc(O)cc(O)c12
REMARK SMILES IDX 5 1 3 2 2 3 1 4 22 5 20 6 19 7 17 8 16 9 15 10 14 11 6 12
REMARK SMILES IDX 7 13 8 14 9 15 13 16 11 17 10 18 12 20 4 22 21 24 18 26
REMARK H PARENT 10 19 12 21 4 23 21 25 18 27
REMARK Flexibility Score: inf
ROOT
ATOM      1  C   UNL     1       1.352  14.878  14.522  1.00  0.00     0.180 A 
ATOM      2  C   UNL     1       0.084  14.345  14.220  1.00  0.00     0.208 A 
ATOM      3  C   UNL     1       0.006  13.170  13.457  1.00  0.00     0.238 A 
ATOM      4  O   UNL     1      -1.125  12.689  13.172  1.00  0.00    -0.285 OA
ATOM      5  C   UNL     1       1.191  12.536  13.029  1.00  0.00     0.111 A 
ATOM      6  C   UNL     1       1.199  11.346  12.261  1.00  0.00     0.134 A 
ATOM      7  C   UNL     1       2.421  10.773  11.879  1.00  0.00     0.093 A 
ATOM      8  C   UNL     1       3.633  11.366  12.252  1.00  0.00     0.123 A 
ATOM      9  C   UNL     1       3.629  12.539  13.009  1.00  0.00     0.094 A 
ATOM     10  C   UNL     1       2.422  13.127  13.397  1.00  0.00     0.146 A 
ATOM     11  O   UNL     1       2.449  14.246  14.112  1.00  0.00    -0.452 OA
ENDROOT
BRANCH   1  12
ATOM     12  C   UNL     1       1.517  16.124  15.303  1.00  0.00     0.025 A 
ATOM     13  C   UNL     1       1.310  17.364  14.677  1.00  0.00     0.016 A 
ATOM     14  C   UNL     1       1.440  18.552  15.400  1.00  0.00     0.051 A 
ATOM     15  C   UNL     1       1.763  18.519  16.764  1.00  0.00     0.157 A 
ATOM     16  C   UNL     1       1.820  16.093  16.676  1.00  0.00     0.062 A 
ATOM     17  C   UNL     1       1.949  17.282  17.405  1.00  0.00     0.158 A 
BRANCH  15  18
ATOM     18  O   UNL     1       1.894  19.706  17.482  1.00  0.00    -0.504 OA
ATOM     19  H   UNL     1       2.542  20.430  17.197  1.00  0.00     0.293 HD
ENDBRANCH  15  18
BRANCH  17  20
ATOM     20  O   UNL     1       2.257  17.214  18.763  1.00  0.00    -0.504 OA
ATOM     21  H   UNL     1       1.613  16.825  19.442  1.00  0.00     0.293 HD
ENDBRANCH  17  20
ENDBRANCH   1  12
BRANCH   2  22
ATOM     22  O   UNL     1      -1.073  14.964  14.700  1.00  0.00    -0.502 OA
ATOM     23  H   UNL     1      -1.370  14.884  15.664  1.00  0.00     0.293 HD
ENDBRANCH   2  22
BRANCH   6  24
ATOM     24  O   UNL     1       0.007  10.733  11.875  1.00  0.00    -0.507 OA
ATOM     25  H   UNL     1      -0.146  10.417  10.925  1.00  0.00     0.293 HD
ENDBRANCH   6  24
BRANCH   8  26
ATOM     26  O   UNL     1       4.847  10.796  11.875  1.00  0.00    -0.508 OA
ATOM     27  H   UNL     1       5.493  11.280  11.264  1.00  0.00     0.293 HD
ENDBRANCH   8  26
TORSDOF 6
ENDMDL
MODEL 3
REMARK VINA RESULT:    -3.146      3.528      5.495
REMARK INTER + INTRA:          -3.260
REMARK INTER:                  -2.930
REMARK INTRA:                  -0.330
REMARK UNBOUND:                 0.530
REMARK SMILES O=c1c(O)c(-c2ccc(O)c(O)c2)oc2cc(O)cc(O)c12
REMARK SMILES IDX 5 1 3 2 2 3 1 4 22 5 20 6 19 7 17 8 16 9 15 10 14 11 6 12
REMARK SMILES IDX 7 13 8 14 9 15 13 16 11 17 10 18 12 20 4 22 21 24 18 26
REMARK H PARENT 10 19 12 21 4 23 21 25 18 27
REMARK Flexibility Score: inf
ROOT
ATOM      1  C   UNL     1       1.377  14.472  13.712  1.00  0.00     0.180 A 
ATOM      2  C   UNL     1       0.319  15.126  13.051  1.00  0.00     0.208 A 
ATOM      3  C   UNL     1      -0.167  16.332  13.578  1.00  0.00     0.238 A 
ATOM      4  O   UNL     1      -1.121  16.922  13.001  1.00  0.00    -0.285 OA
ATOM      5  C   UNL     1       0.424  16.875  14.738  1.00  0.00     0.111 A 
ATOM      6  C   UNL     1      -0.004  18.088  15.330  1.00  0.00     0.134 A 
ATOM      7  C   UNL     1       0.641  18.566  16.481  1.00  0.00     0.093 A 
ATOM      8  C   UNL     1       1.704  17.854  17.049  1.00  0.00     0.123 A 
ATOM      9  C   UNL     1       2.128  16.658  16.469  1.00  0.00     0.094 A 
ATOM     10  C   UNL     1       1.497  16.164  15.324  1.00  0.00     0.146 A 
ATOM     11  O   UNL     1       1.918  15.020  14.796  1.00  0.00    -0.452 OA
ENDROOT
BRANCH   1  12
ATOM     12  C   UNL     1       1.931  13.186  13.230  1.00  0.00     0.025 A 
ATOM     13  C   UNL     1       3.006  13.193  12.327  1.00  0.00     0.016 A 
ATOM     14  C   UNL     1       3.558  11.992  11.875  1.00  0.00     0.051 A 
ATOM     15  C   UNL     1       3.054  10.766  12.330  1.00  0.00     0.157 A 
ATOM     16  C   UNL     1       1.441  11.955  13.700  1.00  0.00     0.062 A 
ATOM     17  C   UNL     1       1.993  10.749  13.251  1.00  0.00     0.158 A 
BRANCH  15  18
ATOM     18  O   UNL     1       3.605   9.570  11.875  1.00  0.00    -0.504 OA
ATOM     19  H   UNL     1       4.415   9.155  12.320  1.00  0.00     0.293 HD
ENDBRANCH  15  18
BRANCH  17  20
ATOM     20  O   UNL     1       1.478   9.547  13.734  1.00  0.00    -0.504 OA
ATOM     21  H   UNL     1       1.987   8.674  13.659  1.00  0.00     0.293 HD
ENDBRANCH  17  20
ENDBRANCH   1  12
BRANCH   2  22
ATOM     22  O   UNL     1      -0.215  14.594  11.875  1.00  0.00    -0.502 OA
ATOM     23  H   UNL     1       0.252  14.680  10.980  1.00  0.00     0.293 HD
ENDBRANCH   2  22
BRANCH   6  24
ATOM     24  O   UNL     1      -1.060  18.819  14.786  1.00  0.00    -0.507 OA
ATOM     25  H   UNL     1      -1.626  18.454  14.028  1.00  0.00     0.293 HD
ENDBRANCH   6  24
BRANCH   8  26
ATOM     26  O   UNL     1       2.345  18.329  18.191  1.00  0.00    -0.508 OA
ATOM     27  H   UNL     1       2.097  19.219  18.607  1.00  0.00     0.293 HD
ENDBRANCH   8  26
TORSDOF 6
ENDMDL
MODEL 4
REMARK VINA RESULT:    -2.529      1.340      2.939
REMARK INTER + INTRA:          -2.516
REMARK INTER:                  -2.795
REMARK INTRA:                   0.279
REMARK UNBOUND:                 0.530
REMARK SMILES O=c1c(O)c(-c2ccc(O)c(O)c2)oc2cc(O)cc(O)c12
REMARK SMILES IDX 5 1 3 2 2 3 1 4 22 5 20 6 19 7 17 8 16 9 15 10 14 11 6 12
REMARK SMILES IDX 7 13 8 14 9 15 13 16 11 17 10 18 12 20 4 22 21 24 18 26
REMARK H PARENT 10 19 12 21 4 23 21 25 18 27
REMARK Flexibility Score: inf
ROOT
ATOM      1  C   UNL     1       0.879  14.509  16.114  1.00  0.00     0.180 A 
ATOM      2  C   UNL     1       2.164  14.231  15.610  1.00  0.00     0.208 A 
ATOM      3  C   UNL     1       2.557  14.814  14.395  1.00  0.00     0.238 A 
ATOM      4  O   UNL     1       3.703  14.564  13.929  1.00  0.00    -0.285 OA
ATOM      5  C   UNL     1       1.673  15.678  13.718  1.00  0.00     0.111 A 
ATOM      6  C   UNL     1       1.994  16.309  12.491  1.00  0.00     0.134 A 
ATOM      7  C   UNL     1       1.061  17.162  11.883  1.00  0.00     0.093 A 
ATOM      8  C   UNL     1      -0.185  17.396  12.478  1.00  0.00     0.123 A 
ATOM      9  C   UNL     1      -0.505  16.775  13.687  1.00  0.00     0.094 A 
ATOM     10  C   UNL     1       0.410  15.920  14.307  1.00  0.00     0.146 A 
ATOM     11  O   UNL     1       0.077  15.339  15.454  1.00  0.00    -0.452 OA
ENDROOT
BRANCH   1  12
ATOM     12  C   UNL     1       0.384  13.917  17.377  1.00  0.00     0.025 A 
ATOM     13  C   UNL     1      -0.628  14.573  18.097  1.00  0.00     0.016 A 
ATOM     14  C   UNL     1      -1.125  14.022  19.281  1.00  0.00     0.051 A 
ATOM     15  C   UNL     1      -0.629  12.800  19.755  1.00  0.00     0.157 A 
ATOM     16  C   UNL     1       0.864  12.680  17.845  1.00  0.00     0.062 A 
ATOM     17  C   UNL     1       0.367  12.125  19.030  1.00  0.00     0.158 A 
BRANCH  15  18
ATOM     18  O   UNL     1      -1.125  12.255  20.938  1.00  0.00    -0.504 OA
ATOM     19  H   UNL     1      -1.014  12.726  21.828  1.00  0.00     0.293 HD
ENDBRANCH  15  18
BRANCH  17  20
ATOM     20  O   UNL     1       0.871  10.900  19.466  1.00  0.00    -0.504 OA
ATOM     21  H   UNL     1       0.522  10.440  20.299  1.00  0.00     0.293 HD
ENDBRANCH  17  20
ENDBRANCH   1  12
BRANCH   2  22
ATOM     22  O   UNL     1       3.041  13.412  16.326  1.00  0.00    -0.502 OA
ATOM     23  H   UNL     1       4.001  13.264  16.040  1.00  0.00     0.293 HD
ENDBRANCH   2  22
BRANCH   6  24
ATOM     24  O   UNL     1       3.227  16.095  11.876  1.00  0.00    -0.507 OA
ATOM     25  H   UNL     1       3.580  15.162  11.701  1.00  0.00     0.293 HD
ENDBRANCH   6  24
BRANCH   8  26
ATOM     26  O   UNL     1      -1.111  18.244  11.875  1.00  0.00    -0.508 OA
ATOM     27  H   UNL     1      -1.148  19.232  12.098  1.00  0.00     0.293 HD
ENDBRANCH   8  26
TORSDOF 6
ENDMDL
MODEL 5
REMARK VINA RESULT:    -2.460      3.176      5.237
REMARK INTER + INTRA:          -2.433
REMARK INTER:                  -2.152
REMARK INTRA:                  -0.281
REMARK UNBOUND:                 0.530
REMARK SMILES O=c1c(O)c(-c2ccc(O)c(O)c2)oc2cc(O)cc(O)c12
REMARK SMILES IDX 5 1 3 2 2 3 1 4 22 5 20 6 19 7 17 8 16 9 15 10 14 11 6 12
REMARK SMILES IDX 7 13 8 14 9 15 13 16 11 17 10 18 12 20 4 22 21 24 18 26
REMARK H PARENT 10 19 12 21 4 23 21 25 18 27
REMARK Flexibility Score: inf
ROOT
ATOM      1  C   UNL     1       0.888  14.024  15.019  1.00  0.00     0.180 A 
ATOM      2  C   UNL     1       1.064  13.958  16.414  1.00  0.00     0.208 A 
ATOM      3  C   UNL     1       1.405  15.128  17.111  1.00  0.00     0.238 A 
ATOM      4  O   UNL     1       1.575  15.079  18.361  1.00  0.00    -0.285 OA
ATOM      5  C   UNL     1       1.542  16.343  16.409  1.00  0.00     0.111 A 
ATOM      6  C   UNL     1       1.879  17.567  17.037  1.00  0.00     0.134 A 
ATOM      7  C   UNL     1       1.989  18.735  16.269  1.00  0.00     0.093 A 
ATOM      8  C   UNL     1       1.769  18.703  14.887  1.00  0.00     0.123 A 
ATOM      9  C   UNL     1       1.437  17.499  14.264  1.00  0.00     0.094 A 
ATOM     10  C   UNL     1       1.325  16.323  15.012  1.00  0.00     0.146 A 
ATOM     11  O   UNL     1       1.013  15.191  14.392  1.00  0.00    -0.452 OA
ENDROOT
BRANCH   1  12
ATOM     12  C   UNL     1       0.548  12.831  14.211  1.00  0.00     0.025 A 
ATOM     13  C   UNL     1      -0.777  12.368  14.188  1.00  0.00     0.016 A 
ATOM     14  C   UNL     1      -1.125  11.257  13.416  1.00  0.00     0.051 A 
ATOM     15  C   UNL     1      -0.157  10.600  12.644  1.00  0.00     0.157 A 
ATOM     16  C   UNL     1       1.513  12.183  13.419  1.00  0.00     0.062 A 
ATOM     17  C   UNL     1       1.168  11.070  12.643  1.00  0.00     0.158 A 
BRANCH  15  18
ATOM     18  O   UNL     1      -0.506   9.490  11.878  1.00  0.00    -0.504 OA
ATOM     19  H   UNL     1      -0.120   9.340  10.953  1.00  0.00     0.293 HD
ENDBRANCH  15  18
BRANCH  17  20
ATOM     20  O   UNL     1       2.152  10.449  11.875  1.00  0.00    -0.504 OA
ATOM     21  H   UNL     1       2.659   9.636  12.205  1.00  0.00     0.293 HD
ENDBRANCH  17  20
ENDBRANCH   1  12
BRANCH   2  22
ATOM     22  O   UNL     1       0.872  12.753  17.093  1.00  0.00    -0.502 OA
ATOM     23  H   UNL     1       0.978  11.853  16.641  1.00  0.00     0.293 HD
ENDBRANCH   2  22
BRANCH   6  24
ATOM     24  O   UNL     1       2.104  17.629  18.413  1.00  0.00    -0.507 OA
ATOM     25  H   UNL     1       1.430  18.047  19.044  1.00  0.00     0.293 HD
ENDBRANCH   6  24
BRANCH   8  26
ATOM     26  O   UNL     1       1.877  19.864  14.124  1.00  0.00    -0.508 OA
ATOM     27  H   UNL     1       2.381  19.876  13.246  1.00  0.00     0.293 HD
ENDBRANCH   8  26
TORSDOF 6
ENDMDL
MODEL 6
REMARK VINA RESULT:    -2.238      3.594      5.652
REMARK INTER + INTRA:          -2.165
REMARK INTER:                  -1.943
REMARK INTRA:                  -0.222
REMARK UNBOUND:                 0.530
REMARK SMILES O=c1c(O)c(-c2ccc(O)c(O)c2)oc2cc(O)cc(O)c12
REMARK SMILES IDX 5 1 3 2 2 3 1 4 22 5 20 6 19 7 17 8 16 9 15 10 14 11 6 12
REMARK SMILES IDX 7 13 8 14 9 15 13 16 11 17 10 18 12 20 4 22 21 24 18 26
REMARK H PARENT 10 19 12 21 4 23 21 25 18 27
REMARK Flexibility Score: inf
ROOT
ATOM      1  C   UNL     1       1.029  14.973  13.558  1.00  0.00     0.180 A 
ATOM      2  C   UNL     1       2.335  14.836  13.049  1.00  0.00     0.208 A 
ATOM      3  C   UNL     1       2.780  13.565  12.654  1.00  0.00     0.238 A 
ATOM      4  O   UNL     1       3.951  13.428  12.206  1.00  0.00    -0.285 OA
ATOM      5  C   UNL     1       1.909  12.460  12.752  1.00  0.00     0.111 A 
ATOM      6  C   UNL     1       2.278  11.147  12.371  1.00  0.00     0.134 A 
ATOM      7  C   UNL     1       1.351  10.101  12.492  1.00  0.00     0.093 A 
ATOM      8  C   UNL     1       0.064  10.344  12.986  1.00  0.00     0.123 A 
ATOM      9  C   UNL     1      -0.303  11.637  13.363  1.00  0.00     0.094 A 
ATOM     10  C   UNL     1       0.607  12.691  13.252  1.00  0.00     0.146 A 
ATOM     11  O   UNL     1       0.232  13.910  13.624  1.00  0.00    -0.452 OA
ENDROOT
BRANCH   1  12
ATOM     12  C   UNL     1       0.495  16.276  14.015  1.00  0.00     0.025 A 
ATOM     13  C   UNL     1      -0.582  16.858  13.328  1.00  0.00     0.016 A 
ATOM     14  C   UNL     1      -1.116  18.077  13.753  1.00  0.00     0.051 A 
ATOM     15  C   UNL     1      -0.592  18.724  14.880  1.00  0.00     0.157 A 
ATOM     16  C   UNL     1       1.005  16.917  15.157  1.00  0.00     0.062 A 
ATOM     17  C   UNL     1       0.471  18.138  15.588  1.00  0.00     0.158 A 
BRANCH  15  18
ATOM     18  O   UNL     1      -1.125  19.942  15.301  1.00  0.00    -0.504 OA
ATOM     19  H   UNL     1      -0.634  20.815  15.154  1.00  0.00     0.293 HD
ENDBRANCH  15  18
BRANCH  17  20
ATOM     20  O   UNL     1       1.006  18.748  16.721  1.00  0.00    -0.504 OA
ATOM     21  H   UNL     1       0.694  19.658  17.041  1.00  0.00     0.293 HD
ENDBRANCH  17  20
ENDBRANCH   1  12
BRANCH   2  22
ATOM     22  O   UNL     1       3.161  15.955  12.914  1.00  0.00    -0.502 OA
ATOM     23  H   UNL     1       3.901  16.165  13.572  1.00  0.00     0.293 HD
ENDBRANCH   2  22
BRANCH   6  24
ATOM     24  O   UNL     1       3.553  10.875  11.875  1.00  0.00    -0.507 OA
ATOM     25  H   UNL     1       3.692  10.319  11.039  1.00  0.00     0.293 HD
ENDBRANCH   6  24
BRANCH   8  26
ATOM     26  O   UNL     1      -0.858   9.306  13.105  1.00  0.00    -0.508 OA
ATOM     27  H   UNL     1      -1.680   9.392  13.690  1.00  0.00     0.293 HD
ENDBRANCH   8  26
TORSDOF 6
ENDMDL
MODEL 7
REMARK VINA RESULT:    -1.819      3.133      5.557
REMARK INTER + INTRA:          -1.661
REMARK INTER:                  -1.368
REMARK INTRA:                  -0.293
REMARK UNBOUND:                 0.530
REMARK SMILES O=c1c(O)c(-c2ccc(O)c(O)c2)oc2cc(O)cc(O)c12
REMARK SMILES IDX 5 1 3 2 2 3 1 4 22 5 20 6 19 7 17 8 16 9 15 10 14 11 6 12
REMARK SMILES IDX 7 13 8 14 9 15 13 16 11 17 10 18 12 20 4 22 21 24 18 26
REMARK H PARENT 10 19 12 21 4 23 21 25 18 27
REMARK Flexibility Score: inf
ROOT
ATOM      1  C   UNL     1       1.865  14.301  14.272  1.00  0.00     0.180 A 
ATOM      2  C   UNL     1       2.227  14.619  15.595  1.00  0.00     0.208 A 
ATOM      3  C   UNL     1       1.855  15.867  16.119  1.00  0.00     0.238 A 
ATOM      4  O   UNL     1       2.182  16.167  17.300  1.00  0.00    -0.285 OA
ATOM      5  C   UNL     1       1.112  16.764  15.324  1.00  0.00     0.111 A 
ATOM      6  C   UNL     1       0.694  18.038  15.779  1.00  0.00     0.134 A 
ATOM      7  C   UNL     1      -0.050  18.870  14.928  1.00  0.00     0.093 A 
ATOM      8  C   UNL     1      -0.384  18.451  13.635  1.00  0.00     0.123 A 
ATOM      9  C   UNL     1       0.027  17.196  13.183  1.00  0.00     0.094 A 
ATOM     10  C   UNL     1       0.771  16.354  14.014  1.00  0.00     0.146 A 
ATOM     11  O   UNL     1       1.152  15.167  13.557  1.00  0.00    -0.452 OA
ENDROOT
BRANCH   1  12
ATOM     12  C   UNL     1       2.238  13.015  13.642  1.00  0.00     0.025 A 
ATOM     13  C   UNL     1       3.369  12.955  12.812  1.00  0.00     0.016 A 
ATOM     14  C   UNL     1       3.751  11.747  12.223  1.00  0.00     0.051 A 
ATOM     15  C   UNL     1       3.018  10.578  12.467  1.00  0.00     0.157 A 
ATOM     16  C   UNL     1       1.516  11.836  13.901  1.00  0.00     0.062 A 
ATOM     17  C   UNL     1       1.897  10.623  13.314  1.00  0.00     0.158 A 
BRANCH  15  18
ATOM     18  O   UNL     1       3.400   9.375  11.876  1.00  0.00    -0.504 OA
ATOM     19  H   UNL     1       3.886   9.351  10.987  1.00  0.00     0.293 HD
ENDBRANCH  15  18
BRANCH  17  20
ATOM     20  O   UNL     1       1.155   9.475  13.589  1.00  0.00    -0.504 OA
ATOM     21  H   UNL     1       1.593   8.607  13.874  1.00  0.00     0.293 HD
ENDBRANCH  17  20
ENDBRANCH   1  12
BRANCH   2  22
ATOM     22  O   UNL     1       2.919  13.693  16.379  1.00  0.00    -0.502 OA
ATOM     23  H   UNL     1       3.914  13.766  16.554  1.00  0.00     0.293 HD
ENDBRANCH   2  22
BRANCH   6  24
ATOM     24  O   UNL     1       1.011  18.482  17.063  1.00  0.00    -0.507 OA
ATOM     25  H   UNL     1       0.595  19.319  17.455  1.00  0.00     0.293 HD
ENDBRANCH   6  24
BRANCH   8  26
ATOM     26  O   UNL     1      -1.124  19.277  12.791  1.00  0.00    -0.508 OA
ATOM     27  H   UNL     1      -2.007  19.677  13.083  1.00  0.00     0.293 HD
ENDBRANCH   8  26
TORSDOF 6
ENDMDL
MODEL 8
REMARK VINA RESULT:    -1.801      4.672      7.147
REMARK INTER + INTRA:          -1.639
REMARK INTER:                  -2.085
REMARK INTRA:                   0.446
REMARK UNBOUND:                 0.530
REMARK SMILES O=c1c(O)c(-c2ccc(O)c(O)c2)oc2cc(O)cc(O)c12
REMARK SMILES IDX 5 1 3 2 2 3 1 4 22 5 20 6 19 7 17 8 16 9 15 10 14 11 6 12
REMARK SMILES IDX 7 13 8 14 9 15 13 16 11 17 10 18 12 20 4 22 21 24 18 26
REMARK H PARENT 10 19 12 21 4 23 21 25 18 27
REMARK Flexibility Score: inf
ROOT
ATOM      1  C   UNL     1       3.608  10.893  12.138  1.00  0.00     0.180 A 
ATOM      2  C   UNL     1       2.204  10.908  12.244  1.00  0.00     0.208 A 
ATOM      3  C   UNL     1       1.540  12.144  12.281  1.00  0.00     0.238 A 
ATOM      4  O   UNL     1       0.283  12.170  12.385  1.00  0.00    -0.285 OA
ATOM      5  C   UNL     1       2.283  13.338  12.189  1.00  0.00     0.111 A 
ATOM      6  C   UNL     1       1.690  14.624  12.214  1.00  0.00     0.134 A 
ATOM      7  C   UNL     1       2.499  15.765  12.111  1.00  0.00     0.093 A 
ATOM      8  C   UNL     1       3.887  15.645  11.982  1.00  0.00     0.123 A 
ATOM      9  C   UNL     1       4.476  14.380  11.958  1.00  0.00     0.094 A 
ATOM     10  C   UNL     1       3.688  13.230  12.062  1.00  0.00     0.146 A 
ATOM     11  O   UNL     1       4.275  12.039  12.041  1.00  0.00    -0.452 OA
ENDROOT
BRANCH   1  12
ATOM     12  C   UNL     1       4.382   9.631  12.114  1.00  0.00     0.025 A 
ATOM     13  C   UNL     1       5.766   9.675  11.882  1.00  0.00     0.016 A 
ATOM     14  C   UNL     1       6.520   8.499  11.875  1.00  0.00     0.051 A 
ATOM     15  C   UNL     1       5.905   7.263  12.115  1.00  0.00     0.157 A 
ATOM     16  C   UNL     1       3.772   8.392  12.375  1.00  0.00     0.062 A 
ATOM     17  C   UNL     1       4.524   7.211  12.370  1.00  0.00     0.158 A 
BRANCH  15  18
ATOM     18  O   UNL     1       6.659   6.091  12.104  1.00  0.00    -0.504 OA
ATOM     19  H   UNL     1       7.623   6.083  11.794  1.00  0.00     0.293 HD
ENDBRANCH  15  18
BRANCH  17  20
ATOM     20  O   UNL     1       3.884   5.999  12.627  1.00  0.00    -0.504 OA
ATOM     21  H   UNL     1       3.444   5.457  11.894  1.00  0.00     0.293 HD
ENDBRANCH  17  20
ENDBRANCH   1  12
BRANCH   2  22
ATOM     22  O   UNL     1       1.487   9.710  12.281  1.00  0.00    -0.502 OA
ATOM     23  H   UNL     1       1.497   9.047  11.515  1.00  0.00     0.293 HD
ENDBRANCH   2  22
BRANCH   6  24
ATOM     24  O   UNL     1       0.309  14.774  12.341  1.00  0.00    -0.507 OA
ATOM     25  H   UNL     1      -0.127  14.955  13.238  1.00  0.00     0.293 HD
ENDBRANCH   6  24
BRANCH   8  26
ATOM     26  O   UNL     1       4.691  16.778  11.878  1.00  0.00    -0.508 OA
ATOM     27  H   UNL     1       5.702  16.713  11.877  1.00  0.00     0.293 HD
ENDBRANCH   8  26
TORSDOF 6
ENDMDL
MODEL 9
REMARK VINA RESULT:    -1.723      4.716      7.051
REMARK INTER + INTRA:          -1.546
REMARK INTER:                  -1.974
REMARK INTRA:                   0.428
REMARK UNBOUND:                 0.530
REMARK SMILES O=c1c(O)c(-c2ccc(O)c(O)c2)oc2cc(O)cc(O)c12
REMARK SMILES IDX 5 1 3 2 2 3 1 4 22 5 20 6 19 7 17 8 16 9 15 10 14 11 6 12
REMARK SMILES IDX 7 13 8 14 9 15 13 16 11 17 10 18 12 20 4 22 21 24 18 26
REMARK H PARENT 10 19 12 21 4 23 21 25 18 27
REMARK Flexibility Score: inf
ROOT
ATOM      1  C   UNL     1       3.745  11.179  12.223  1.00  0.00     0.180 A 
ATOM      2  C   UNL     1       2.338  11.225  12.279  1.00  0.00     0.208 A 
ATOM      3  C   UNL     1       1.700  12.475  12.267  1.00  0.00     0.238 A 
ATOM      4  O   UNL     1       0.441  12.529  12.327  1.00  0.00    -0.285 OA
ATOM      5  C   UNL     1       2.472  13.652  12.178  1.00  0.00     0.111 A 
ATOM      6  C   UNL     1       1.905  14.950  12.156  1.00  0.00     0.134 A 
ATOM      7  C   UNL     1       2.742  16.071  12.058  1.00  0.00     0.093 A 
ATOM      8  C   UNL     1       4.131  15.920  11.980  1.00  0.00     0.123 A 
ATOM      9  C   UNL     1       4.693  14.642  12.002  1.00  0.00     0.094 A 
ATOM     10  C   UNL     1       3.877  13.512  12.102  1.00  0.00     0.146 A 
ATOM     11  O   UNL     1       4.439  12.309  12.125  1.00  0.00    -0.452 OA
ENDROOT
BRANCH   1  12
ATOM     12  C   UNL     1       4.492   9.901  12.251  1.00  0.00     0.025 A 
ATOM     13  C   UNL     1       3.843   8.714  11.876  1.00  0.00     0.016 A 
ATOM     14  C   UNL     1       4.534   7.500  11.875  1.00  0.00     0.051 A 
ATOM     15  C   UNL     1       5.888   7.456  12.234  1.00  0.00     0.157 A 
ATOM     16  C   UNL     1       5.856   9.857  12.590  1.00  0.00     0.062 A 
ATOM     17  C   UNL     1       6.552   8.643  12.589  1.00  0.00     0.158 A 
BRANCH  15  18
ATOM     18  O   UNL     1       6.574   6.243  12.235  1.00  0.00    -0.504 OA
ATOM     19  H   UNL     1       7.571   6.197  12.061  1.00  0.00     0.293 HD
ENDBRANCH  15  18
BRANCH  17  20
ATOM     20  O   UNL     1       7.903   8.636  12.936  1.00  0.00    -0.504 OA
ATOM     21  H   UNL     1       8.210   8.645  13.901  1.00  0.00     0.293 HD
ENDBRANCH  17  20
ENDBRANCH   1  12
BRANCH   2  22
ATOM     22  O   UNL     1       1.594  10.043  12.315  1.00  0.00    -0.502 OA
ATOM     23  H   UNL     1       0.739   9.957  12.851  1.00  0.00     0.293 HD
ENDBRANCH   2  22
BRANCH   6  24
ATOM     24  O   UNL     1       0.524  15.131  12.231  1.00  0.00    -0.507 OA
ATOM     25  H   UNL     1       0.098  15.665  12.979  1.00  0.00     0.293 HD
ENDBRANCH   6  24
BRANCH   8  26
ATOM     26  O   UNL     1       4.962  17.034  11.880  1.00  0.00    -0.508 OA
ATOM     27  H   UNL     1       5.712  17.076  11.201  1.00  0.00     0.293 HD
ENDBRANCH   8  26
TORSDOF 6
ENDMDL
