MODEL 1
REMARK VINA RESULT:    -5.526      0.000      0.000
REMARK INTER + INTRA:         -17.816
REMARK INTER:                 -13.925
REMARK INTRA:                  -3.891
REMARK UNBOUND:                -3.891
REMARK SMILES CCCCCCCCCCCCCCCCCCCCCCCCCCCC(=O)[O-]
REMARK SMILES IDX 15 1 16 2 17 3 18 4 19 5 20 6 21 7 22 8 23 9 24 10 25 11
REMARK SMILES IDX 26 12 27 13 28 14 29 15 30 16 14 17 13 18 12 19 11 20 10 21
REMARK SMILES IDX 9 22 8 23 7 24 6 25 5 26 4 27 3 28 2 29 1 30
REMARK H PARENT
REMARK Flexibility Score: inf
ROOT
ATOM      1  C   UNL     1      89.228 326.834 198.825  1.00  0.00     0.000 C 
ENDROOT
BRANCH   1   2
ATOM      2  C   UNL     1      89.567 326.533 200.299  1.00  0.00     0.000 C 
BRANCH   2   3
ATOM      3  C   UNL     1      90.367 325.227 200.464  1.00  0.00     0.000 C 
BRANCH   3   4
ATOM      4  C   UNL     1      90.000 324.461 201.753  1.00  0.00     0.000 C 
BRANCH   4   5
ATOM      5  C   UNL     1      88.544 324.709 202.203  1.00  0.00     0.000 C 
BRANCH   5   6
ATOM      6  C   UNL     1      87.564 323.622 201.703  1.00  0.00     0.000 C 
BRANCH   6   7
ATOM      7  C   UNL     1      86.383 323.395 202.666  1.00  0.00     0.000 C 
BRANCH   7   8
ATOM      8  C   UNL     1      86.801 322.871 204.051  1.00  0.00     0.000 C 
BRANCH   8   9
ATOM      9  C   UNL     1      86.572 323.858 205.218  1.00  0.00     0.000 C 
BRANCH   9  10
ATOM     10  C   UNL     1      87.869 324.371 205.879  1.00  0.00     0.000 C 
BRANCH  10  11
ATOM     11  C   UNL     1      87.737 325.808 206.422  1.00  0.00     0.000 C 
BRANCH  11  12
ATOM     12  C   UNL     1      89.050 326.601 206.298  1.00  0.00     0.006 C 
BRANCH  12  13
ATOM     13  C   UNL     1      89.258 327.162 204.879  1.00  0.00     0.053 C 
BRANCH  13  14
ATOM     14  C   UNL     1      90.700 327.477 204.610  1.00  0.00     0.041 C 
ATOM     15  O   UNL     1      91.479 327.785 205.550  1.00  0.00    -0.550 OA
ATOM     16  O   UNL     1      91.173 327.475 203.302  1.00  0.00    -0.550 OA
ENDBRANCH  13  14
ENDBRANCH  12  13
ENDBRANCH  11  12
ENDBRANCH  10  11
ENDBRANCH   9  10
ENDBRANCH   8   9
ENDBRANCH   7   8
ENDBRANCH   6   7
ENDBRANCH   5   6
ENDBRANCH   4   5
ENDBRANCH   3   4
ENDBRANCH   2   3
ENDBRANCH   1   2
BRANCH   1  17
ATOM     17  C   UNL     1      88.760 325.573 198.075  1.00  0.00     0.000 C 
BRANCH  17  18
ATOM     18  C   UNL     1      87.965 325.942 196.809  1.00  0.00     0.000 C 
BRANCH  18  19
ATOM     19  C   UNL     1      88.848 326.536 195.694  1.00  0.00     0.000 C 
BRANCH  19  20
ATOM     20  C   UNL     1      88.135 326.702 194.338  1.00  0.00     0.000 C 
BRANCH  20  21
ATOM     21  C   UNL     1      86.674 326.196 194.350  1.00  0.00     0.000 C 
BRANCH  21  22
ATOM     22  C   UNL     1      86.493 324.951 193.463  1.00  0.00    -0.000 C 
BRANCH  22  23
ATOM     23  C   UNL     1      87.700 324.692 192.544  1.00  0.00    -0.000 C 
BRANCH  23  24
ATOM     24  C   UNL     1      88.274 323.263 192.673  1.00  0.00    -0.000 C 
BRANCH  24  25
ATOM     25  C   UNL     1      87.930 322.618 194.025  1.00  0.00    -0.000 C 
BRANCH  25  26
ATOM     26  C   UNL     1      89.020 322.854 195.087  1.00  0.00    -0.000 C 
BRANCH  26  27
ATOM     27  C   UNL     1      89.009 321.775 196.187  1.00  0.00    -0.000 C 
BRANCH  27  28
ATOM     28  C   UNL     1      87.943 322.031 197.263  1.00  0.00    -0.000 C 
BRANCH  28  29
ATOM     29  C   UNL     1      88.489 321.874 198.690  1.00  0.00    -0.003 C 
ATOM     30  C   UNL     1      90.010 321.988 198.710  1.00  0.00     0.004 C 
ENDBRANCH  28  29
ENDBRANCH  27  28
ENDBRANCH  26  27
ENDBRANCH  25  26
ENDBRANCH  24  25
ENDBRANCH  23  24
ENDBRANCH  22  23
ENDBRANCH  21  22
ENDBRANCH  20  21
ENDBRANCH  19  20
ENDBRANCH  18  19
ENDBRANCH  17  18
ENDBRANCH   1  17
TORSDOF 26
ENDMDL
MODEL 2
REMARK VINA RESULT:    -5.487      3.875      6.372
REMARK INTER + INTRA:         -17.717
REMARK INTER:                 -15.822
REMARK INTRA:                  -1.895
REMARK UNBOUND:                -3.891
REMARK SMILES CCCCCCCCCCCCCCCCCCCCCCCCCCCC(=O)[O-]
REMARK SMILES IDX 15 1 16 2 17 3 18 4 19 5 20 6 21 7 22 8 23 9 24 10 25 11
REMARK SMILES IDX 26 12 27 13 28 14 29 15 30 16 14 17 13 18 12 19 11 20 10 21
REMARK SMILES IDX 9 22 8 23 7 24 6 25 5 26 4 27 3 28 2 29 1 30
REMARK H PARENT
REMARK Flexibility Score: inf
ROOT
ATOM      1  C   UNL     1      88.159 324.295 193.941  1.00  0.00     0.000 C 
ENDROOT
BRANCH   1   2
ATOM      2  C   UNL     1      87.815 325.697 193.399  1.00  0.00     0.000 C 
BRANCH   2   3
ATOM      3  C   UNL     1      87.802 326.769 194.506  1.00  0.00     0.000 C 
BRANCH   3   4
ATOM      4  C   UNL     1      88.819 326.478 195.630  1.00  0.00     0.000 C 
BRANCH   4   5
ATOM      5  C   UNL     1      88.144 326.171 196.984  1.00  0.00     0.000 C 
BRANCH   5   6
ATOM      6  C   UNL     1      88.613 324.834 197.603  1.00  0.00     0.000 C 
BRANCH   6   7
ATOM      7  C   UNL     1      89.251 325.011 198.994  1.00  0.00     0.000 C 
BRANCH   7   8
ATOM      8  C   UNL     1      89.201 326.457 199.521  1.00  0.00     0.000 C 
BRANCH   8   9
ATOM      9  C   UNL     1      90.155 326.755 200.700  1.00  0.00     0.000 C 
BRANCH   9  10
ATOM     10  C   UNL     1      91.050 325.565 201.108  1.00  0.00     0.000 C 
BRANCH  10  11
ATOM     11  C   UNL     1      91.999 325.902 202.276  1.00  0.00     0.000 C 
BRANCH  11  12
ATOM     12  C   UNL     1      91.560 327.167 203.035  1.00  0.00     0.006 C 
BRANCH  12  13
ATOM     13  C   UNL     1      91.211 326.870 204.506  1.00  0.00     0.053 C 
BRANCH  13  14
ATOM     14  C   UNL     1      89.775 327.180 204.811  1.00  0.00     0.041 C 
ATOM     15  O   UNL     1      89.012 327.643 203.922  1.00  0.00    -0.550 OA
ATOM     16  O   UNL     1      89.291 327.000 206.102  1.00  0.00    -0.550 OA
ENDBRANCH  13  14
ENDBRANCH  12  13
ENDBRANCH  11  12
ENDBRANCH  10  11
ENDBRANCH   9  10
ENDBRANCH   8   9
ENDBRANCH   7   8
ENDBRANCH   6   7
ENDBRANCH   5   6
ENDBRANCH   4   5
ENDBRANCH   3   4
ENDBRANCH   2   3
ENDBRANCH   1   2
BRANCH   1  17
ATOM     17  C   UNL     1      88.164 323.234 192.825  1.00  0.00     0.000 C 
BRANCH  17  18
ATOM     18  C   UNL     1      87.757 323.848 191.472  1.00  0.00     0.000 C 
BRANCH  18  19
ATOM     19  C   UNL     1      87.259 322.798 190.460  1.00  0.00     0.000 C 
BRANCH  19  20
ATOM     20  C   UNL     1      88.163 322.628 189.223  1.00  0.00     0.000 C 
BRANCH  20  21
ATOM     21  C   UNL     1      89.244 323.727 189.100  1.00  0.00     0.000 C 
BRANCH  21  22
ATOM     22  C   UNL     1      90.515 323.205 188.408  1.00  0.00    -0.000 C 
BRANCH  22  23
ATOM     23  C   UNL     1      91.123 321.983 189.119  1.00  0.00    -0.000 C 
BRANCH  23  24
ATOM     24  C   UNL     1      92.668 322.011 189.174  1.00  0.00    -0.000 C 
BRANCH  24  25
ATOM     25  C   UNL     1      93.259 323.143 188.317  1.00  0.00    -0.000 C 
BRANCH  25  26
ATOM     26  C   UNL     1      94.067 324.155 189.151  1.00  0.00    -0.000 C 
BRANCH  26  27
ATOM     27  C   UNL     1      94.813 323.486 190.321  1.00  0.00    -0.000 C 
BRANCH  27  28
ATOM     28  C   UNL     1      95.824 324.425 190.997  1.00  0.00    -0.000 C 
BRANCH  28  29
ATOM     29  C   UNL     1      95.152 325.477 191.892  1.00  0.00    -0.003 C 
ATOM     30  C   UNL     1      95.749 325.465 193.295  1.00  0.00     0.004 C 
ENDBRANCH  28  29
ENDBRANCH  27  28
ENDBRANCH  26  27
ENDBRANCH  25  26
ENDBRANCH  24  25
ENDBRANCH  23  24
ENDBRANCH  22  23
ENDBRANCH  21  22
ENDBRANCH  20  21
ENDBRANCH  19  20
ENDBRANCH  18  19
ENDBRANCH  17  18
ENDBRANCH   1  17
TORSDOF 26
ENDMDL
MODEL 3
REMARK VINA RESULT:    -5.458      2.624      4.706
REMARK INTER + INTRA:         -17.643
REMARK INTER:                 -14.536
REMARK INTRA:                  -3.107
REMARK UNBOUND:                -3.891
REMARK SMILES CCCCCCCCCCCCCCCCCCCCCCCCCCCC(=O)[O-]
REMARK SMILES IDX 15 1 16 2 17 3 18 4 19 5 20 6 21 7 22 8 23 9 24 10 25 11
REMARK SMILES IDX 26 12 27 13 28 14 29 15 30 16 14 17 13 18 12 19 11 20 10 21
REMARK SMILES IDX 9 22 8 23 7 24 6 25 5 26 4 27 3 28 2 29 1 30
REMARK H PARENT
REMARK Flexibility Score: inf
ROOT
ATOM      1  C   UNL     1      89.556 326.532 200.895  1.00  0.00     0.000 C 
ENDROOT
BRANCH   1   2
ATOM      2  C   UNL     1      90.816 325.772 201.360  1.00  0.00     0.000 C 
BRANCH   2   3
ATOM      3  C   UNL     1      90.975 325.779 202.892  1.00  0.00     0.000 C 
BRANCH   3   4
ATOM      4  C   UNL     1      91.394 327.158 203.443  1.00  0.00     0.000 C 
BRANCH   4   5
ATOM      5  C   UNL     1      90.784 327.462 204.828  1.00  0.00     0.000 C 
BRANCH   5   6
ATOM      6  C   UNL     1      89.271 327.150 204.903  1.00  0.00     0.000 C 
BRANCH   6   7
ATOM      7  C   UNL     1      88.832 326.654 206.294  1.00  0.00     0.000 C 
BRANCH   7   8
ATOM      8  C   UNL     1      88.473 325.157 206.336  1.00  0.00     0.000 C 
BRANCH   8   9
ATOM      9  C   UNL     1      86.989 324.834 206.051  1.00  0.00     0.000 C 
BRANCH   9  10
ATOM     10  C   UNL     1      86.770 323.761 204.964  1.00  0.00     0.000 C 
BRANCH  10  11
ATOM     11  C   UNL     1      87.948 323.662 203.974  1.00  0.00     0.000 C 
BRANCH  11  12
ATOM     12  C   UNL     1      87.513 323.931 202.523  1.00  0.00     0.006 C 
BRANCH  12  13
ATOM     13  C   UNL     1      86.077 323.446 202.247  1.00  0.00     0.053 C 
BRANCH  13  14
ATOM     14  C   UNL     1      86.054 322.040 201.725  1.00  0.00     0.041 C 
ATOM     15  O   UNL     1      86.181 321.059 202.505  1.00  0.00    -0.550 OA
ATOM     16  O   UNL     1      85.937 321.815 200.357  1.00  0.00    -0.550 OA
ENDBRANCH  13  14
ENDBRANCH  12  13
ENDBRANCH  11  12
ENDBRANCH  10  11
ENDBRANCH   9  10
ENDBRANCH   8   9
ENDBRANCH   7   8
ENDBRANCH   6   7
ENDBRANCH   5   6
ENDBRANCH   4   5
ENDBRANCH   3   4
ENDBRANCH   2   3
ENDBRANCH   1   2
BRANCH   1  17
ATOM     17  C   UNL     1      89.394 326.490 199.364  1.00  0.00     0.000 C 
BRANCH  17  18
ATOM     18  C   UNL     1      88.970 325.089 198.888  1.00  0.00     0.000 C 
BRANCH  18  19
ATOM     19  C   UNL     1      88.858 324.982 197.354  1.00  0.00     0.000 C 
BRANCH  19  20
ATOM     20  C   UNL     1      88.050 326.117 196.695  1.00  0.00     0.000 C 
BRANCH  20  21
ATOM     21  C   UNL     1      88.547 326.478 195.276  1.00  0.00     0.000 C 
BRANCH  21  22
ATOM     22  C   UNL     1      87.416 327.053 194.403  1.00  0.00    -0.000 C 
BRANCH  22  23
ATOM     23  C   UNL     1      86.114 326.240 194.502  1.00  0.00    -0.000 C 
BRANCH  23  24
ATOM     24  C   UNL     1      86.087 325.007 193.570  1.00  0.00    -0.000 C 
BRANCH  24  25
ATOM     25  C   UNL     1      86.338 323.696 194.333  1.00  0.00    -0.000 C 
BRANCH  25  26
ATOM     26  C   UNL     1      87.729 323.101 194.045  1.00  0.00    -0.000 C 
BRANCH  26  27
ATOM     27  C   UNL     1      88.387 323.725 192.799  1.00  0.00    -0.000 C 
BRANCH  27  28
ATOM     28  C   UNL     1      88.263 322.837 191.552  1.00  0.00    -0.000 C 
BRANCH  28  29
ATOM     29  C   UNL     1      88.224 323.647 190.247  1.00  0.00    -0.003 C 
ATOM     30  C   UNL     1      89.184 323.069 189.214  1.00  0.00     0.004 C 
ENDBRANCH  28  29
ENDBRANCH  27  28
ENDBRANCH  26  27
ENDBRANCH  25  26
ENDBRANCH  24  25
ENDBRANCH  23  24
ENDBRANCH  22  23
ENDBRANCH  21  22
ENDBRANCH  20  21
ENDBRANCH  19  20
ENDBRANCH  18  19
ENDBRANCH  17  18
ENDBRANCH   1  17
TORSDOF 26
ENDMDL
MODEL 4
REMARK VINA RESULT:    -5.432      2.149      3.761
REMARK INTER + INTRA:         -17.579
REMARK INTER:                 -13.763
REMARK INTRA:                  -3.816
REMARK UNBOUND:                -3.891
REMARK SMILES CCCCCCCCCCCCCCCCCCCCCCCCCCCC(=O)[O-]
REMARK SMILES IDX 15 1 16 2 17 3 18 4 19 5 20 6 21 7 22 8 23 9 24 10 25 11
REMARK SMILES IDX 26 12 27 13 28 14 29 15 30 16 14 17 13 18 12 19 11 20 10 21
REMARK SMILES IDX 9 22 8 23 7 24 6 25 5 26 4 27 3 28 2 29 1 30
REMARK H PARENT
REMARK Flexibility Score: inf
ROOT
ATOM      1  C   UNL     1      89.700 326.113 200.433  1.00  0.00     0.000 C 
ENDROOT
BRANCH   1   2
ATOM      2  C   UNL     1      88.887 326.437 201.704  1.00  0.00     0.000 C 
BRANCH   2   3
ATOM      3  C   UNL     1      89.780 326.596 202.949  1.00  0.00     0.000 C 
BRANCH   3   4
ATOM      4  C   UNL     1      89.094 327.396 204.076  1.00  0.00     0.000 C 
BRANCH   4   5
ATOM      5  C   UNL     1      89.786 327.217 205.445  1.00  0.00     0.000 C 
BRANCH   5   6
ATOM      6  C   UNL     1      88.886 326.518 206.490  1.00  0.00     0.000 C 
BRANCH   6   7
ATOM      7  C   UNL     1      88.438 325.112 206.048  1.00  0.00     0.000 C 
BRANCH   7   8
ATOM      8  C   UNL     1      86.910 324.950 205.947  1.00  0.00     0.000 C 
BRANCH   8   9
ATOM      9  C   UNL     1      86.437 323.725 205.132  1.00  0.00     0.000 C 
BRANCH   9  10
ATOM     10  C   UNL     1      87.282 323.435 203.873  1.00  0.00     0.000 C 
BRANCH  10  11
ATOM     11  C   UNL     1      86.487 323.612 202.564  1.00  0.00     0.000 C 
BRANCH  11  12
ATOM     12  C   UNL     1      87.080 322.789 201.407  1.00  0.00     0.006 C 
BRANCH  12  13
ATOM     13  C   UNL     1      88.618 322.726 201.467  1.00  0.00     0.053 C 
BRANCH  13  14
ATOM     14  C   UNL     1      89.115 321.313 201.540  1.00  0.00     0.041 C 
ATOM     15  O   UNL     1      90.213 320.987 201.014  1.00  0.00    -0.550 OA
ATOM     16  O   UNL     1      88.336 320.339 202.156  1.00  0.00    -0.550 OA
ENDBRANCH  13  14
ENDBRANCH  12  13
ENDBRANCH  11  12
ENDBRANCH  10  11
ENDBRANCH   9  10
ENDBRANCH   8   9
ENDBRANCH   7   8
ENDBRANCH   6   7
ENDBRANCH   5   6
ENDBRANCH   4   5
ENDBRANCH   3   4
ENDBRANCH   2   3
ENDBRANCH   1   2
BRANCH   1  17
ATOM     17  C   UNL     1      88.961 326.547 199.154  1.00  0.00     0.000 C 
BRANCH  17  18
ATOM     18  C   UNL     1      88.859 325.384 198.149  1.00  0.00     0.000 C 
BRANCH  18  19
ATOM     19  C   UNL     1      88.084 325.759 196.870  1.00  0.00     0.000 C 
BRANCH  19  20
ATOM     20  C   UNL     1      88.935 326.461 195.794  1.00  0.00     0.000 C 
BRANCH  20  21
ATOM     21  C   UNL     1      88.142 326.795 194.509  1.00  0.00     0.000 C 
BRANCH  21  22
ATOM     22  C   UNL     1      86.688 326.295 194.588  1.00  0.00    -0.000 C 
BRANCH  22  23
ATOM     23  C   UNL     1      86.405 325.131 193.622  1.00  0.00    -0.000 C 
BRANCH  23  24
ATOM     24  C   UNL     1      87.621 324.751 192.746  1.00  0.00    -0.000 C 
BRANCH  24  25
ATOM     25  C   UNL     1      88.294 323.453 193.219  1.00  0.00    -0.000 C 
BRANCH  25  26
ATOM     26  C   UNL     1      87.625 322.863 194.475  1.00  0.00    -0.000 C 
BRANCH  26  27
ATOM     27  C   UNL     1      88.496 321.787 195.151  1.00  0.00    -0.000 C 
BRANCH  27  28
ATOM     28  C   UNL     1      89.576 322.383 196.066  1.00  0.00    -0.000 C 
BRANCH  28  29
ATOM     29  C   UNL     1      89.495 321.850 197.505  1.00  0.00    -0.003 C 
ATOM     30  C   UNL     1      88.047 321.637 197.931  1.00  0.00     0.004 C 
ENDBRANCH  28  29
ENDBRANCH  27  28
ENDBRANCH  26  27
ENDBRANCH  25  26
ENDBRANCH  24  25
ENDBRANCH  23  24
ENDBRANCH  22  23
ENDBRANCH  21  22
ENDBRANCH  20  21
ENDBRANCH  19  20
ENDBRANCH  18  19
ENDBRANCH  17  18
ENDBRANCH   1  17
TORSDOF 26
ENDMDL
MODEL 5
REMARK VINA RESULT:    -5.419      2.311      4.427
REMARK INTER + INTRA:         -17.545
REMARK INTER:                 -14.648
REMARK INTRA:                  -2.897
REMARK UNBOUND:                -3.891
REMARK SMILES CCCCCCCCCCCCCCCCCCCCCCCCCCCC(=O)[O-]
REMARK SMILES IDX 15 1 16 2 17 3 18 4 19 5 20 6 21 7 22 8 23 9 24 10 25 11
REMARK SMILES IDX 26 12 27 13 28 14 29 15 30 16 14 17 13 18 12 19 11 20 10 21
REMARK SMILES IDX 9 22 8 23 7 24 6 25 5 26 4 27 3 28 2 29 1 30
REMARK H PARENT
REMARK Flexibility Score: inf
ROOT
ATOM      1  C   UNL     1      88.719 324.837 197.277  1.00  0.00     0.000 C 
ENDROOT
BRANCH   1   2
ATOM      2  C   UNL     1      89.124 324.929 198.763  1.00  0.00     0.000 C 
BRANCH   2   3
ATOM      3  C   UNL     1      89.302 326.384 199.235  1.00  0.00     0.000 C 
BRANCH   3   4
ATOM      4  C   UNL     1      89.891 326.482 200.659  1.00  0.00     0.000 C 
BRANCH   4   5
ATOM      5  C   UNL     1      88.870 326.111 201.756  1.00  0.00     0.000 C 
BRANCH   5   6
ATOM      6  C   UNL     1      88.909 327.073 202.967  1.00  0.00     0.000 C 
BRANCH   6   7
ATOM      7  C   UNL     1      90.214 326.960 203.778  1.00  0.00     0.000 C 
BRANCH   7   8
ATOM      8  C   UNL     1      90.077 327.414 205.243  1.00  0.00     0.000 C 
BRANCH   8   9
ATOM      9  C   UNL     1      90.252 326.293 206.292  1.00  0.00     0.000 C 
BRANCH   9  10
ATOM     10  C   UNL     1      88.987 325.999 207.125  1.00  0.00     0.000 C 
BRANCH  10  11
ATOM     11  C   UNL     1      87.749 325.708 206.252  1.00  0.00     0.000 C 
BRANCH  11  12
ATOM     12  C   UNL     1      87.576 324.205 205.970  1.00  0.00     0.006 C 
BRANCH  12  13
ATOM     13  C   UNL     1      88.152 323.800 204.600  1.00  0.00     0.053 C 
BRANCH  13  14
ATOM     14  C   UNL     1      87.140 323.076 203.762  1.00  0.00     0.041 C 
ATOM     15  O   UNL     1      86.404 323.702 202.955  1.00  0.00    -0.550 OA
ATOM     16  O   UNL     1      86.980 321.702 203.911  1.00  0.00    -0.550 OA
ENDBRANCH  13  14
ENDBRANCH  12  13
ENDBRANCH  11  12
ENDBRANCH  10  11
ENDBRANCH   9  10
ENDBRANCH   8   9
ENDBRANCH   7   8
ENDBRANCH   6   7
ENDBRANCH   5   6
ENDBRANCH   4   5
ENDBRANCH   3   4
ENDBRANCH   2   3
ENDBRANCH   1   2
BRANCH   1  17
ATOM     17  C   UNL     1      88.498 326.228 196.657  1.00  0.00     0.000 C 
BRANCH  17  18
ATOM     18  C   UNL     1      87.002 326.497 196.412  1.00  0.00     0.000 C 
BRANCH  18  19
ATOM     19  C   UNL     1      86.692 326.897 194.956  1.00  0.00     0.000 C 
BRANCH  19  20
ATOM     20  C   UNL     1      87.903 326.829 194.006  1.00  0.00     0.000 C 
BRANCH  20  21
ATOM     21  C   UNL     1      88.054 325.460 193.303  1.00  0.00     0.000 C 
BRANCH  21  22
ATOM     22  C   UNL     1      86.729 324.678 193.285  1.00  0.00    -0.000 C 
BRANCH  22  23
ATOM     23  C   UNL     1      86.805 323.357 194.071  1.00  0.00    -0.000 C 
BRANCH  23  24
ATOM     24  C   UNL     1      88.230 322.761 194.133  1.00  0.00    -0.000 C 
BRANCH  24  25
ATOM     25  C   UNL     1      88.328 321.413 193.400  1.00  0.00    -0.000 C 
BRANCH  25  26
ATOM     26  C   UNL     1      89.140 321.508 192.095  1.00  0.00    -0.000 C 
BRANCH  26  27
ATOM     27  C   UNL     1      88.259 321.863 190.882  1.00  0.00    -0.000 C 
BRANCH  27  28
ATOM     28  C   UNL     1      88.403 323.330 190.450  1.00  0.00    -0.000 C 
BRANCH  28  29
ATOM     29  C   UNL     1      88.796 323.477 188.972  1.00  0.00    -0.003 C 
ATOM     30  C   UNL     1      90.200 322.936 188.722  1.00  0.00     0.004 C 
ENDBRANCH  28  29
ENDBRANCH  27  28
ENDBRANCH  26  27
ENDBRANCH  25  26
ENDBRANCH  24  25
ENDBRANCH  23  24
ENDBRANCH  22  23
ENDBRANCH  21  22
ENDBRANCH  20  21
ENDBRANCH  19  20
ENDBRANCH  18  19
ENDBRANCH  17  18
ENDBRANCH   1  17
TORSDOF 26
ENDMDL
MODEL 6
REMARK VINA RESULT:    -5.415      1.981      4.808
REMARK INTER + INTRA:         -17.537
REMARK INTER:                 -14.621
REMARK INTRA:                  -2.916
REMARK UNBOUND:                -3.891
REMARK SMILES CCCCCCCCCCCCCCCCCCCCCCCCCCCC(=O)[O-]
REMARK SMILES IDX 15 1 16 2 17 3 18 4 19 5 20 6 21 7 22 8 23 9 24 10 25 11
REMARK SMILES IDX 26 12 27 13 28 14 29 15 30 16 14 17 13 18 12 19 11 20 10 21
REMARK SMILES IDX 9 22 8 23 7 24 6 25 5 26 4 27 3 28 2 29 1 30
REMARK H PARENT
REMARK Flexibility Score: inf
ROOT
ATOM      1  C   UNL     1      89.012 326.485 201.848  1.00  0.00     0.000 C 
ENDROOT
BRANCH   1   2
ATOM      2  C   UNL     1      89.755 326.378 203.195  1.00  0.00     0.000 C 
BRANCH   2   3
ATOM      3  C   UNL     1      89.240 327.393 204.233  1.00  0.00     0.000 C 
BRANCH   3   4
ATOM      4  C   UNL     1      90.200 327.562 205.430  1.00  0.00     0.000 C 
BRANCH   4   5
ATOM      5  C   UNL     1      90.010 326.474 206.509  1.00  0.00     0.000 C 
BRANCH   5   6
ATOM      6  C   UNL     1      88.524 326.139 206.774  1.00  0.00     0.000 C 
BRANCH   6   7
ATOM      7  C   UNL     1      88.154 324.702 206.363  1.00  0.00     0.000 C 
BRANCH   7   8
ATOM      8  C   UNL     1      86.760 324.578 205.719  1.00  0.00     0.000 C 
BRANCH   8   9
ATOM      9  C   UNL     1      86.580 323.363 204.781  1.00  0.00     0.000 C 
BRANCH   9  10
ATOM     10  C   UNL     1      86.599 323.714 203.278  1.00  0.00     0.000 C 
BRANCH  10  11
ATOM     11  C   UNL     1      86.989 322.516 202.389  1.00  0.00     0.000 C 
BRANCH  11  12
ATOM     12  C   UNL     1      87.706 322.956 201.100  1.00  0.00     0.006 C 
BRANCH  12  13
ATOM     13  C   UNL     1      88.745 321.921 200.630  1.00  0.00     0.053 C 
BRANCH  13  14
ATOM     14  C   UNL     1      90.144 322.341 200.971  1.00  0.00     0.041 C 
ATOM     15  O   UNL     1      91.103 322.078 200.197  1.00  0.00    -0.550 OA
ATOM     16  O   UNL     1      90.395 322.986 202.177  1.00  0.00    -0.550 OA
ENDBRANCH  13  14
ENDBRANCH  12  13
ENDBRANCH  11  12
ENDBRANCH  10  11
ENDBRANCH   9  10
ENDBRANCH   8   9
ENDBRANCH   7   8
ENDBRANCH   6   7
ENDBRANCH   5   6
ENDBRANCH   4   5
ENDBRANCH   3   4
ENDBRANCH   2   3
ENDBRANCH   1   2
BRANCH   1  17
ATOM     17  C   UNL     1      89.931 326.152 200.658  1.00  0.00     0.000 C 
BRANCH  17  18
ATOM     18  C   UNL     1      89.168 326.239 199.323  1.00  0.00     0.000 C 
BRANCH  18  19
ATOM     19  C   UNL     1      89.265 324.948 198.488  1.00  0.00     0.000 C 
BRANCH  19  20
ATOM     20  C   UNL     1      88.500 324.996 197.152  1.00  0.00     0.000 C 
BRANCH  20  21
ATOM     21  C   UNL     1      88.019 326.415 196.773  1.00  0.00     0.000 C 
BRANCH  21  22
ATOM     22  C   UNL     1      86.611 326.396 196.151  1.00  0.00    -0.000 C 
BRANCH  22  23
ATOM     23  C   UNL     1      86.628 326.636 194.630  1.00  0.00    -0.000 C 
BRANCH  23  24
ATOM     24  C   UNL     1      88.040 326.538 194.009  1.00  0.00    -0.000 C 
BRANCH  24  25
ATOM     25  C   UNL     1      88.117 325.471 192.906  1.00  0.00    -0.000 C 
BRANCH  25  26
ATOM     26  C   UNL     1      88.210 324.041 193.471  1.00  0.00    -0.000 C 
BRANCH  26  27
ATOM     27  C   UNL     1      88.138 322.969 192.367  1.00  0.00    -0.000 C 
BRANCH  27  28
ATOM     28  C   UNL     1      87.332 323.428 191.142  1.00  0.00    -0.000 C 
BRANCH  28  29
ATOM     29  C   UNL     1      88.028 323.094 189.814  1.00  0.00    -0.003 C 
ATOM     30  C   UNL     1      89.317 322.314 190.051  1.00  0.00     0.004 C 
ENDBRANCH  28  29
ENDBRANCH  27  28
ENDBRANCH  26  27
ENDBRANCH  25  26
ENDBRANCH  24  25
ENDBRANCH  23  24
ENDBRANCH  22  23
ENDBRANCH  21  22
ENDBRANCH  20  21
ENDBRANCH  19  20
ENDBRANCH  18  19
ENDBRANCH  17  18
ENDBRANCH   1  17
TORSDOF 26
ENDMDL
MODEL 7
REMARK VINA RESULT:    -5.398      2.805      4.840
REMARK INTER + INTRA:         -17.493
REMARK INTER:                 -15.150
REMARK INTRA:                  -2.343
REMARK UNBOUND:                -3.891
REMARK SMILES CCCCCCCCCCCCCCCCCCCCCCCCCCCC(=O)[O-]
REMARK SMILES IDX 15 1 16 2 17 3 18 4 19 5 20 6 21 7 22 8 23 9 24 10 25 11
REMARK SMILES IDX 26 12 27 13 28 14 29 15 30 16 14 17 13 18 12 19 11 20 10 21
REMARK SMILES IDX 9 22 8 23 7 24 6 25 5 26 4 27 3 28 2 29 1 30
REMARK H PARENT
REMARK Flexibility Score: inf
ROOT
ATOM      1  C   UNL     1      89.247 325.547 199.280  1.00  0.00     0.000 C 
ENDROOT
BRANCH   1   2
ATOM      2  C   UNL     1      89.705 326.127 200.634  1.00  0.00     0.000 C 
BRANCH   2   3
ATOM      3  C   UNL     1      88.543 326.266 201.637  1.00  0.00     0.000 C 
BRANCH   3   4
ATOM      4  C   UNL     1      88.986 326.883 202.981  1.00  0.00     0.000 C 
BRANCH   4   5
ATOM      5  C   UNL     1      90.437 326.516 203.360  1.00  0.00     0.000 C 
BRANCH   5   6
ATOM      6  C   UNL     1      90.770 326.821 204.839  1.00  0.00     0.000 C 
BRANCH   6   7
ATOM      7  C   UNL     1      89.535 327.250 205.653  1.00  0.00     0.000 C 
BRANCH   7   8
ATOM      8  C   UNL     1      89.099 326.220 206.712  1.00  0.00     0.000 C 
BRANCH   8   9
ATOM      9  C   UNL     1      88.510 324.910 206.142  1.00  0.00     0.000 C 
BRANCH   9  10
ATOM     10  C   UNL     1      86.977 324.931 205.957  1.00  0.00     0.000 C 
BRANCH  10  11
ATOM     11  C   UNL     1      86.458 323.740 205.128  1.00  0.00     0.000 C 
BRANCH  11  12
ATOM     12  C   UNL     1      87.249 323.550 203.822  1.00  0.00     0.006 C 
BRANCH  12  13
ATOM     13  C   UNL     1      86.335 323.542 202.584  1.00  0.00     0.053 C 
BRANCH  13  14
ATOM     14  C   UNL     1      86.237 322.176 201.972  1.00  0.00     0.041 C 
ATOM     15  O   UNL     1      86.217 321.144 202.695  1.00  0.00    -0.550 OA
ATOM     16  O   UNL     1      86.213 322.041 200.588  1.00  0.00    -0.550 OA
ENDBRANCH  13  14
ENDBRANCH  12  13
ENDBRANCH  11  12
ENDBRANCH  10  11
ENDBRANCH   9  10
ENDBRANCH   8   9
ENDBRANCH   7   8
ENDBRANCH   6   7
ENDBRANCH   5   6
ENDBRANCH   4   5
ENDBRANCH   3   4
ENDBRANCH   2   3
ENDBRANCH   1   2
BRANCH   1  17
ATOM     17  C   UNL     1      88.880 326.654 198.276  1.00  0.00     0.000 C 
BRANCH  17  18
ATOM     18  C   UNL     1      88.195 326.069 197.027  1.00  0.00     0.000 C 
BRANCH  18  19
ATOM     19  C   UNL     1      88.890 326.475 195.713  1.00  0.00     0.000 C 
BRANCH  19  20
ATOM     20  C   UNL     1      87.923 326.848 194.572  1.00  0.00     0.000 C 
BRANCH  20  21
ATOM     21  C   UNL     1      86.536 326.178 194.702  1.00  0.00     0.000 C 
BRANCH  21  22
ATOM     22  C   UNL     1      86.513 324.781 194.057  1.00  0.00    -0.000 C 
BRANCH  22  23
ATOM     23  C   UNL     1      87.760 324.498 193.201  1.00  0.00    -0.000 C 
BRANCH  23  24
ATOM     24  C   UNL     1      87.428 324.092 191.747  1.00  0.00    -0.000 C 
BRANCH  24  25
ATOM     25  C   UNL     1      86.015 323.499 191.618  1.00  0.00    -0.000 C 
BRANCH  25  26
ATOM     26  C   UNL     1      85.971 322.270 190.692  1.00  0.00    -0.000 C 
BRANCH  26  27
ATOM     27  C   UNL     1      87.246 321.410 190.800  1.00  0.00    -0.000 C 
BRANCH  27  28
ATOM     28  C   UNL     1      87.961 321.233 189.452  1.00  0.00    -0.000 C 
BRANCH  28  29
ATOM     29  C   UNL     1      88.199 322.566 188.726  1.00  0.00    -0.003 C 
ATOM     30  C   UNL     1      89.622 323.067 188.953  1.00  0.00     0.004 C 
ENDBRANCH  28  29
ENDBRANCH  27  28
ENDBRANCH  26  27
ENDBRANCH  25  26
ENDBRANCH  24  25
ENDBRANCH  23  24
ENDBRANCH  22  23
ENDBRANCH  21  22
ENDBRANCH  20  21
ENDBRANCH  19  20
ENDBRANCH  18  19
ENDBRANCH  17  18
ENDBRANCH   1  17
TORSDOF 26
ENDMDL
MODEL 8
REMARK VINA RESULT:    -5.397      4.271     10.477
REMARK INTER + INTRA:         -17.491
REMARK INTER:                 -14.640
REMARK INTRA:                  -2.851
REMARK UNBOUND:                -3.891
REMARK SMILES CCCCCCCCCCCCCCCCCCCCCCCCCCCC(=O)[O-]
REMARK SMILES IDX 15 1 16 2 17 3 18 4 19 5 20 6 21 7 22 8 23 9 24 10 25 11
REMARK SMILES IDX 26 12 27 13 28 14 29 15 30 16 14 17 13 18 12 19 11 20 10 21
REMARK SMILES IDX 9 22 8 23 7 24 6 25 5 26 4 27 3 28 2 29 1 30
REMARK H PARENT
REMARK Flexibility Score: inf
ROOT
ATOM      1  C   UNL     1      89.579 324.254 198.985  1.00  0.00     0.000 C 
ENDROOT
BRANCH   1   2
ATOM      2  C   UNL     1      88.604 324.104 197.800  1.00  0.00     0.000 C 
BRANCH   2   3
ATOM      3  C   UNL     1      89.176 324.679 196.490  1.00  0.00     0.000 C 
BRANCH   3   4
ATOM      4  C   UNL     1      88.741 326.138 196.239  1.00  0.00     0.000 C 
BRANCH   4   5
ATOM      5  C   UNL     1      87.401 326.490 196.922  1.00  0.00     0.000 C 
BRANCH   5   6
ATOM      6  C   UNL     1      86.238 326.660 195.917  1.00  0.00     0.000 C 
BRANCH   6   7
ATOM      7  C   UNL     1      86.691 326.527 194.451  1.00  0.00     0.000 C 
BRANCH   7   8
ATOM      8  C   UNL     1      86.011 325.373 193.692  1.00  0.00     0.000 C 
BRANCH   8   9
ATOM      9  C   UNL     1      86.706 324.000 193.834  1.00  0.00     0.000 C 
BRANCH   9  10
ATOM     10  C   UNL     1      88.053 323.890 193.089  1.00  0.00     0.000 C 
BRANCH  10  11
ATOM     11  C   UNL     1      87.976 324.396 191.634  1.00  0.00     0.000 C 
BRANCH  11  12
ATOM     12  C   UNL     1      87.773 323.249 190.629  1.00  0.00     0.006 C 
BRANCH  12  13
ATOM     13  C   UNL     1      86.309 322.774 190.577  1.00  0.00     0.053 C 
BRANCH  13  14
ATOM     14  C   UNL     1      86.208 321.277 190.558  1.00  0.00     0.041 C 
ATOM     15  O   UNL     1      85.998 320.631 191.619  1.00  0.00    -0.550 OA
ATOM     16  O   UNL     1      86.395 320.589 189.364  1.00  0.00    -0.550 OA
ENDBRANCH  13  14
ENDBRANCH  12  13
ENDBRANCH  11  12
ENDBRANCH  10  11
ENDBRANCH   9  10
ENDBRANCH   8   9
ENDBRANCH   7   8
ENDBRANCH   6   7
ENDBRANCH   5   6
ENDBRANCH   4   5
ENDBRANCH   3   4
ENDBRANCH   2   3
ENDBRANCH   1   2
BRANCH   1  17
ATOM     17  C   UNL     1      88.837 324.505 200.310  1.00  0.00     0.000 C 
BRANCH  17  18
ATOM     18  C   UNL     1      89.002 325.964 200.774  1.00  0.00     0.000 C 
BRANCH  18  19
ATOM     19  C   UNL     1      90.454 326.469 200.669  1.00  0.00     0.000 C 
BRANCH  19  20
ATOM     20  C   UNL     1      91.115 326.791 202.023  1.00  0.00     0.000 C 
BRANCH  20  21
ATOM     21  C   UNL     1      90.099 327.178 203.122  1.00  0.00     0.000 C 
BRANCH  21  22
ATOM     22  C   UNL     1      90.535 326.671 204.509  1.00  0.00    -0.000 C 
BRANCH  22  23
ATOM     23  C   UNL     1      89.658 327.220 205.648  1.00  0.00    -0.000 C 
BRANCH  23  24
ATOM     24  C   UNL     1      88.470 326.298 206.006  1.00  0.00    -0.000 C 
BRANCH  24  25
ATOM     25  C   UNL     1      88.646 324.878 205.442  1.00  0.00    -0.000 C 
BRANCH  25  26
ATOM     26  C   UNL     1      87.620 323.883 206.016  1.00  0.00    -0.000 C 
BRANCH  26  27
ATOM     27  C   UNL     1      86.531 323.509 204.992  1.00  0.00    -0.000 C 
BRANCH  27  28
ATOM     28  C   UNL     1      86.926 323.855 203.548  1.00  0.00    -0.000 C 
BRANCH  28  29
ATOM     29  C   UNL     1      85.887 323.383 202.519  1.00  0.00    -0.003 C 
ATOM     30  C   UNL     1      86.482 322.341 201.579  1.00  0.00     0.004 C 
ENDBRANCH  28  29
ENDBRANCH  27  28
ENDBRANCH  26  27
ENDBRANCH  25  26
ENDBRANCH  24  25
ENDBRANCH  23  24
ENDBRANCH  22  23
ENDBRANCH  21  22
ENDBRANCH  20  21
ENDBRANCH  19  20
ENDBRANCH  18  19
ENDBRANCH  17  18
ENDBRANCH   1  17
TORSDOF 26
ENDMDL
MODEL 9
REMARK VINA RESULT:    -5.357      4.324     11.019
REMARK INTER + INTRA:         -17.391
REMARK INTER:                 -14.478
REMARK INTRA:                  -2.913
REMARK UNBOUND:                -3.891
REMARK SMILES CCCCCCCCCCCCCCCCCCCCCCCCCCCC(=O)[O-]
REMARK SMILES IDX 15 1 16 2 17 3 18 4 19 5 20 6 21 7 22 8 23 9 24 10 25 11
REMARK SMILES IDX 26 12 27 13 28 14 29 15 30 16 14 17 13 18 12 19 11 20 10 21
REMARK SMILES IDX 9 22 8 23 7 24 6 25 5 26 4 27 3 28 2 29 1 30
REMARK H PARENT
REMARK Flexibility Score: inf
ROOT
ATOM      1  C   UNL     1      89.347 324.627 198.712  1.00  0.00     0.000 C 
ENDROOT
BRANCH   1   2
ATOM      2  C   UNL     1      88.500 324.614 197.423  1.00  0.00     0.000 C 
BRANCH   2   3
ATOM      3  C   UNL     1      88.116 326.032 196.957  1.00  0.00     0.000 C 
BRANCH   3   4
ATOM      4  C   UNL     1      88.954 326.511 195.753  1.00  0.00     0.000 C 
BRANCH   4   5
ATOM      5  C   UNL     1      88.088 326.866 194.524  1.00  0.00     0.000 C 
BRANCH   5   6
ATOM      6  C   UNL     1      86.625 326.382 194.655  1.00  0.00     0.000 C 
BRANCH   6   7
ATOM      7  C   UNL     1      86.296 325.215 193.706  1.00  0.00     0.000 C 
BRANCH   7   8
ATOM      8  C   UNL     1      87.486 324.762 192.840  1.00  0.00     0.000 C 
BRANCH   8   9
ATOM      9  C   UNL     1      87.859 323.268 192.975  1.00  0.00     0.000 C 
BRANCH   9  10
ATOM     10  C   UNL     1      86.838 322.300 192.340  1.00  0.00     0.000 C 
BRANCH  10  11
ATOM     11  C   UNL     1      86.274 322.817 191.001  1.00  0.00     0.000 C 
BRANCH  11  12
ATOM     12  C   UNL     1      86.430 321.788 189.868  1.00  0.00     0.006 C 
BRANCH  12  13
ATOM     13  C   UNL     1      87.363 322.290 188.750  1.00  0.00     0.053 C 
BRANCH  13  14
ATOM     14  C   UNL     1      88.736 322.603 189.269  1.00  0.00     0.041 C 
ATOM     15  O   UNL     1      89.414 321.726 189.868  1.00  0.00    -0.550 OA
ATOM     16  O   UNL     1      89.249 323.887 189.130  1.00  0.00    -0.550 OA
ENDBRANCH  13  14
ENDBRANCH  12  13
ENDBRANCH  11  12
ENDBRANCH  10  11
ENDBRANCH   9  10
ENDBRANCH   8   9
ENDBRANCH   7   8
ENDBRANCH   6   7
ENDBRANCH   5   6
ENDBRANCH   4   5
ENDBRANCH   3   4
ENDBRANCH   2   3
ENDBRANCH   1   2
BRANCH   1  17
ATOM     17  C   UNL     1      89.264 325.982 199.439  1.00  0.00     0.000 C 
BRANCH  17  18
ATOM     18  C   UNL     1      88.532 325.845 200.788  1.00  0.00     0.000 C 
BRANCH  18  19
ATOM     19  C   UNL     1      88.396 324.382 201.254  1.00  0.00     0.000 C 
BRANCH  19  20
ATOM     20  C   UNL     1      88.090 324.220 202.756  1.00  0.00     0.000 C 
BRANCH  20  21
ATOM     21  C   UNL     1      86.749 323.502 203.033  1.00  0.00     0.000 C 
BRANCH  21  22
ATOM     22  C   UNL     1      86.635 323.048 204.499  1.00  0.00    -0.000 C 
BRANCH  22  23
ATOM     23  C   UNL     1      87.006 324.159 205.498  1.00  0.00    -0.000 C 
BRANCH  23  24
ATOM     24  C   UNL     1      88.255 323.828 206.347  1.00  0.00    -0.000 C 
BRANCH  24  25
ATOM     25  C   UNL     1      89.022 325.091 206.771  1.00  0.00    -0.000 C 
BRANCH  25  26
ATOM     26  C   UNL     1      88.500 326.361 206.072  1.00  0.00    -0.000 C 
BRANCH  26  27
ATOM     27  C   UNL     1      89.643 327.250 205.545  1.00  0.00    -0.000 C 
BRANCH  27  28
ATOM     28  C   UNL     1      89.738 327.252 204.012  1.00  0.00    -0.000 C 
BRANCH  28  29
ATOM     29  C   UNL     1      90.959 326.478 203.491  1.00  0.00    -0.003 C 
ATOM     30  C   UNL     1      91.620 327.213 202.331  1.00  0.00     0.004 C 
ENDBRANCH  28  29
ENDBRANCH  27  28
ENDBRANCH  26  27
ENDBRANCH  25  26
ENDBRANCH  24  25
ENDBRANCH  23  24
ENDBRANCH  22  23
ENDBRANCH  21  22
ENDBRANCH  20  21
ENDBRANCH  19  20
ENDBRANCH  18  19
ENDBRANCH  17  18
ENDBRANCH   1  17
TORSDOF 26
ENDMDL
