MODEL 1
REMARK VINA RESULT:    -4.416      0.000      0.000
REMARK INTER + INTRA:          -4.416
REMARK INTER:                  -4.416
REMARK INTRA:                   0.000
REMARK UNBOUND:                 0.000
REMARK SMILES CC1(C)O[C@]2(C)CC[C@H]1CC2
REMARK SMILES IDX 1 1 2 2 9 3 8 4 7 5 5 6 4 7 11 8 10 9 6 10 3 11
REMARK H PARENT
REMARK Flexibility Score: inf
ROOT
ATOM      1  C   UNL     1       2.590 -36.838  42.364  1.00  0.00     0.042 C 
ATOM      2  C   UNL     1       3.871 -36.235  42.978  1.00  0.00     0.066 C 
ATOM      3  C   UNL     1       3.545 -35.494  44.333  1.00  0.00     0.021 C 
ATOM      4  C   UNL     1       4.869 -34.956  44.927  1.00  0.00     0.009 C 
ATOM      5  C   UNL     1       5.904 -36.106  44.990  1.00  0.00     0.035 C 
ATOM      6  C   UNL     1       5.242 -37.435  44.523  1.00  0.00     0.066 C 
ATOM      7  O   UNL     1       4.818 -37.298  43.166  1.00  0.00    -0.369 OA
ATOM      8  C   UNL     1       4.003 -37.726  45.418  1.00  0.00     0.035 C 
ATOM      9  C   UNL     1       3.014 -36.537  45.345  1.00  0.00     0.009 C 
ATOM     10  C   UNL     1       6.246 -38.590  44.612  1.00  0.00     0.042 C 
ATOM     11  C   UNL     1       4.455 -35.249  41.943  1.00  0.00     0.042 C 
ENDROOT
TORSDOF 0
ENDMDL
MODEL 2
REMARK VINA RESULT:    -4.390      1.468      2.044
REMARK INTER + INTRA:          -4.390
REMARK INTER:                  -4.390
REMARK INTRA:                   0.000
REMARK UNBOUND:                 0.000
REMARK SMILES CC1(C)O[C@]2(C)CC[C@H]1CC2
REMARK SMILES IDX 1 1 2 2 9 3 8 4 7 5 5 6 4 7 11 8 10 9 6 10 3 11
REMARK H PARENT
REMARK Flexibility Score: inf
ROOT
ATOM      1  C   UNL     1       0.963 -38.155  43.244  1.00  0.00     0.042 C 
ATOM      2  C   UNL     1       2.432 -37.900  42.844  1.00  0.00     0.066 C 
ATOM      3  C   UNL     1       2.845 -36.410  43.159  1.00  0.00     0.021 C 
ATOM      4  C   UNL     1       4.337 -36.227  42.786  1.00  0.00     0.009 C 
ATOM      5  C   UNL     1       5.170 -37.342  43.463  1.00  0.00     0.035 C 
ATOM      6  C   UNL     1       4.249 -38.217  44.362  1.00  0.00     0.066 C 
ATOM      7  O   UNL     1       3.256 -38.842  43.548  1.00  0.00    -0.369 OA
ATOM      8  C   UNL     1       3.551 -37.304  45.410  1.00  0.00     0.035 C 
ATOM      9  C   UNL     1       2.755 -36.190  44.688  1.00  0.00     0.009 C 
ATOM     10  C   UNL     1       5.069 -39.305  45.065  1.00  0.00     0.042 C 
ATOM     11  C   UNL     1       2.552 -38.193  41.333  1.00  0.00     0.042 C 
ENDROOT
TORSDOF 0
ENDMDL
MODEL 3
REMARK VINA RESULT:    -4.376      1.037      3.303
REMARK INTER + INTRA:          -4.376
REMARK INTER:                  -4.376
REMARK INTRA:                   0.000
REMARK UNBOUND:                 0.000
REMARK SMILES CC1(C)O[C@]2(C)CC[C@H]1CC2
REMARK SMILES IDX 1 1 2 2 9 3 8 4 7 5 5 6 4 7 11 8 10 9 6 10 3 11
REMARK H PARENT
REMARK Flexibility Score: inf
ROOT
ATOM      1  C   UNL     1       6.788 -37.580  44.565  1.00  0.00     0.042 C 
ATOM      2  C   UNL     1       5.246 -37.618  44.493  1.00  0.00     0.066 C 
ATOM      3  C   UNL     1       4.619 -36.449  45.347  1.00  0.00     0.021 C 
ATOM      4  C   UNL     1       3.079 -36.505  45.196  1.00  0.00     0.009 C 
ATOM      5  C   UNL     1       2.716 -36.545  43.691  1.00  0.00     0.035 C 
ATOM      6  C   UNL     1       4.010 -36.424  42.834  1.00  0.00     0.066 C 
ATOM      7  O   UNL     1       4.863 -37.535  43.111  1.00  0.00    -0.369 OA
ATOM      8  C   UNL     1       4.746 -35.107  43.214  1.00  0.00     0.035 C 
ATOM      9  C   UNL     1       5.061 -35.101  44.729  1.00  0.00     0.009 C 
ATOM     10  C   UNL     1       3.661 -36.429  41.341  1.00  0.00     0.042 C 
ATOM     11  C   UNL     1       4.796 -38.992  45.034  1.00  0.00     0.042 C 
ENDROOT
TORSDOF 0
ENDMDL
MODEL 4
REMARK VINA RESULT:    -4.357      1.741      3.722
REMARK INTER + INTRA:          -4.357
REMARK INTER:                  -4.357
REMARK INTRA:                   0.000
REMARK UNBOUND:                 0.000
REMARK SMILES CC1(C)O[C@]2(C)CC[C@H]1CC2
REMARK SMILES IDX 1 1 2 2 9 3 8 4 7 5 5 6 4 7 11 8 10 9 6 10 3 11
REMARK H PARENT
REMARK Flexibility Score: inf
ROOT
ATOM      1  C   UNL     1       3.995 -37.769  45.687  1.00  0.00     0.042 C 
ATOM      2  C   UNL     1       3.405 -36.945  44.522  1.00  0.00     0.066 C 
ATOM      3  C   UNL     1       4.253 -37.151  43.208  1.00  0.00     0.021 C 
ATOM      4  C   UNL     1       3.588 -36.347  42.065  1.00  0.00     0.009 C 
ATOM      5  C   UNL     1       2.085 -36.713  41.993  1.00  0.00     0.035 C 
ATOM      6  C   UNL     1       1.765 -37.830  43.027  1.00  0.00     0.066 C 
ATOM      7  O   UNL     1       2.037 -37.345  44.342  1.00  0.00    -0.369 OA
ATOM      8  C   UNL     1       2.672 -39.061  42.739  1.00  0.00     0.035 C 
ATOM      9  C   UNL     1       4.160 -38.640  42.794  1.00  0.00     0.009 C 
ATOM     10  C   UNL     1       0.287 -38.226  42.943  1.00  0.00     0.042 C 
ATOM     11  C   UNL     1       3.419 -35.464  44.955  1.00  0.00     0.042 C 
ENDROOT
TORSDOF 0
ENDMDL
MODEL 5
REMARK VINA RESULT:    -4.253      1.288      2.941
REMARK INTER + INTRA:          -4.253
REMARK INTER:                  -4.253
REMARK INTRA:                   0.000
REMARK UNBOUND:                 0.000
REMARK SMILES CC1(C)O[C@]2(C)CC[C@H]1CC2
REMARK SMILES IDX 1 1 2 2 9 3 8 4 7 5 5 6 4 7 11 8 10 9 6 10 3 11
REMARK H PARENT
REMARK Flexibility Score: inf
ROOT
ATOM      1  C   UNL     1       5.324 -34.686  44.694  1.00  0.00     0.042 C 
ATOM      2  C   UNL     1       5.329 -36.212  44.460  1.00  0.00     0.066 C 
ATOM      3  C   UNL     1       4.346 -36.934  45.460  1.00  0.00     0.021 C 
ATOM      4  C   UNL     1       4.353 -38.450  45.146  1.00  0.00     0.009 C 
ATOM      5  C   UNL     1       4.090 -38.657  43.634  1.00  0.00     0.035 C 
ATOM      6  C   UNL     1       3.816 -37.285  42.954  1.00  0.00     0.066 C 
ATOM      7  O   UNL     1       4.970 -36.454  43.091  1.00  0.00    -0.369 OA
ATOM      8  C   UNL     1       2.609 -36.603  43.660  1.00  0.00     0.035 C 
ATOM      9  C   UNL     1       2.907 -36.444  45.171  1.00  0.00     0.009 C 
ATOM     10  C   UNL     1       3.521 -37.480  41.463  1.00  0.00     0.042 C 
ATOM     11  C   UNL     1       6.778 -36.703  44.669  1.00  0.00     0.042 C 
ENDROOT
TORSDOF 0
ENDMDL
MODEL 6
REMARK VINA RESULT:    -4.225      1.408      3.485
REMARK INTER + INTRA:          -4.225
REMARK INTER:                  -4.225
REMARK INTRA:                   0.000
REMARK UNBOUND:                 0.000
REMARK SMILES CC1(C)O[C@]2(C)CC[C@H]1CC2
REMARK SMILES IDX 1 1 2 2 9 3 8 4 7 5 5 6 4 7 11 8 10 9 6 10 3 11
REMARK H PARENT
REMARK Flexibility Score: inf
ROOT
ATOM      1  C   UNL     1       5.429 -38.771  42.843  1.00  0.00     0.042 C 
ATOM      2  C   UNL     1       4.409 -38.152  43.823  1.00  0.00     0.066 C 
ATOM      3  C   UNL     1       4.530 -36.579  43.835  1.00  0.00     0.021 C 
ATOM      4  C   UNL     1       3.453 -36.012  44.791  1.00  0.00     0.009 C 
ATOM      5  C   UNL     1       2.074 -36.605  44.413  1.00  0.00     0.035 C 
ATOM      6  C   UNL     1       2.214 -37.497  43.145  1.00  0.00     0.066 C 
ATOM      7  O   UNL     1       3.096 -38.583  43.430  1.00  0.00    -0.369 OA
ATOM      8  C   UNL     1       2.810 -36.643  41.989  1.00  0.00     0.035 C 
ATOM      9  C   UNL     1       4.172 -36.050  42.425  1.00  0.00     0.009 C 
ATOM     10  C   UNL     1       0.848 -38.063  42.740  1.00  0.00     0.042 C 
ATOM     11  C   UNL     1       4.706 -38.734  45.221  1.00  0.00     0.042 C 
ENDROOT
TORSDOF 0
ENDMDL
MODEL 7
REMARK VINA RESULT:    -4.190      1.258      2.362
REMARK INTER + INTRA:          -4.190
REMARK INTER:                  -4.190
REMARK INTRA:                   0.000
REMARK UNBOUND:                 0.000
REMARK SMILES CC1(C)O[C@]2(C)CC[C@H]1CC2
REMARK SMILES IDX 1 1 2 2 9 3 8 4 7 5 5 6 4 7 11 8 10 9 6 10 3 11
REMARK H PARENT
REMARK Flexibility Score: inf
ROOT
ATOM      1  C   UNL     1       6.297 -35.605  42.725  1.00  0.00     0.042 C 
ATOM      2  C   UNL     1       5.505 -35.896  44.018  1.00  0.00     0.066 C 
ATOM      3  C   UNL     1       3.958 -35.695  43.783  1.00  0.00     0.021 C 
ATOM      4  C   UNL     1       3.214 -36.050  45.093  1.00  0.00     0.009 C 
ATOM      5  C   UNL     1       3.672 -37.448  45.576  1.00  0.00     0.035 C 
ATOM      6  C   UNL     1       4.655 -38.067  44.540  1.00  0.00     0.066 C 
ATOM      7  O   UNL     1       5.811 -37.236  44.436  1.00  0.00    -0.369 OA
ATOM      8  C   UNL     1       3.950 -38.139  43.156  1.00  0.00     0.035 C 
ATOM      9  C   UNL     1       3.485 -36.725  42.730  1.00  0.00     0.009 C 
ATOM     10  C   UNL     1       5.090 -39.466  44.991  1.00  0.00     0.042 C 
ATOM     11  C   UNL     1       6.024 -34.926  45.101  1.00  0.00     0.042 C 
ENDROOT
TORSDOF 0
ENDMDL
MODEL 8
REMARK VINA RESULT:    -4.166      1.158      2.887
REMARK INTER + INTRA:          -4.166
REMARK INTER:                  -4.166
REMARK INTRA:                   0.000
REMARK UNBOUND:                 0.000
REMARK SMILES CC1(C)O[C@]2(C)CC[C@H]1CC2
REMARK SMILES IDX 1 1 2 2 9 3 8 4 7 5 5 6 4 7 11 8 10 9 6 10 3 11
REMARK H PARENT
REMARK Flexibility Score: inf
ROOT
ATOM      1  C   UNL     1       4.641 -38.808  45.270  1.00  0.00     0.042 C 
ATOM      2  C   UNL     1       4.834 -37.839  44.083  1.00  0.00     0.066 C 
ATOM      3  C   UNL     1       3.454 -37.536  43.381  1.00  0.00     0.021 C 
ATOM      4  C   UNL     1       3.700 -36.523  42.236  1.00  0.00     0.009 C 
ATOM      5  C   UNL     1       4.485 -35.309  42.790  1.00  0.00     0.035 C 
ATOM      6  C   UNL     1       4.684 -35.467  44.325  1.00  0.00     0.066 C 
ATOM      7  O   UNL     1       5.454 -36.643  44.580  1.00  0.00    -0.369 OA
ATOM      8  C   UNL     1       3.292 -35.611  45.004  1.00  0.00     0.035 C 
ATOM      9  C   UNL     1       2.535 -36.817  44.398  1.00  0.00     0.009 C 
ATOM     10  C   UNL     1       5.431 -34.255  44.892  1.00  0.00     0.042 C 
ATOM     11  C   UNL     1       5.812 -38.512  43.097  1.00  0.00     0.042 C 
ENDROOT
TORSDOF 0
ENDMDL
MODEL 9
REMARK VINA RESULT:    -4.104      1.785      3.339
REMARK INTER + INTRA:          -4.104
REMARK INTER:                  -4.104
REMARK INTRA:                   0.000
REMARK UNBOUND:                 0.000
REMARK SMILES CC1(C)O[C@]2(C)CC[C@H]1CC2
REMARK SMILES IDX 1 1 2 2 9 3 8 4 7 5 5 6 4 7 11 8 10 9 6 10 3 11
REMARK H PARENT
REMARK Flexibility Score: inf
ROOT
ATOM      1  C   UNL     1       4.753 -37.420  41.074  1.00  0.00     0.042 C 
ATOM      2  C   UNL     1       3.339 -37.183  41.647  1.00  0.00     0.066 C 
ATOM      3  C   UNL     1       2.708 -38.538  42.153  1.00  0.00     0.021 C 
ATOM      4  C   UNL     1       1.318 -38.232  42.762  1.00  0.00     0.009 C 
ATOM      5  C   UNL     1       1.457 -37.094  43.802  1.00  0.00     0.035 C 
ATOM      6  C   UNL     1       2.955 -36.700  43.955  1.00  0.00     0.066 C 
ATOM      7  O   UNL     1       3.444 -36.216  42.703  1.00  0.00    -0.369 OA
ATOM      8  C   UNL     1       3.769 -37.960  44.368  1.00  0.00     0.035 C 
ATOM      9  C   UNL     1       3.576 -39.078  43.315  1.00  0.00     0.009 C 
ATOM     10  C   UNL     1       3.111 -35.596  45.007  1.00  0.00     0.042 C 
ATOM     11  C   UNL     1       2.484 -36.570  40.518  1.00  0.00     0.042 C 
ENDROOT
TORSDOF 0
ENDMDL
