MODEL 1
REMARK VINA RESULT:    -3.365      0.000      0.000
REMARK INTER + INTRA:          -9.446
REMARK INTER:                  -6.512
REMARK INTRA:                  -2.935
REMARK UNBOUND:                -2.935
REMARK SMILES CCCCCCCCCCCCCCCCCC(=O)[O-]
REMARK SMILES IDX 10 1 11 2 12 3 13 4 14 5 15 6 16 7 17 8 18 9 19 10 20 11
REMARK SMILES IDX 9 12 8 13 7 14 6 15 5 16 4 17 3 18 2 19 1 20
REMARK H PARENT
REMARK Flexibility Score: inf
ROOT
ATOM      1  C   UNL     1      -6.125   2.321  -1.037  1.00  0.00     0.000 C 
ENDROOT
BRANCH   1   2
ATOM      2  C   UNL     1      -7.308   3.236  -0.688  1.00  0.00     0.000 C 
BRANCH   2   3
ATOM      3  C   UNL     1      -7.625   4.247  -1.802  1.00  0.00     0.000 C 
BRANCH   3   4
ATOM      4  C   UNL     1      -6.402   4.560  -2.683  1.00  0.00     0.000 C 
BRANCH   4   5
ATOM      5  C   UNL     1      -5.633   5.802  -2.205  1.00  0.00     0.000 C 
BRANCH   5   6
ATOM      6  C   UNL     1      -4.212   5.472  -1.723  1.00  0.00     0.000 C 
BRANCH   6   7
ATOM      7  C   UNL     1      -3.532   4.469  -2.665  1.00  0.00     0.006 C 
BRANCH   7   8
ATOM      8  C   UNL     1      -2.967   5.143  -3.922  1.00  0.00     0.053 C 
BRANCH   8   9
ATOM      9  C   UNL     1      -1.846   4.350  -4.520  1.00  0.00     0.041 C 
ATOM     10  O   UNL     1      -2.078   3.510  -5.429  1.00  0.00    -0.550 OA
ATOM     11  O   UNL     1      -0.541   4.562  -4.094  1.00  0.00    -0.550 OA
ENDBRANCH   8   9
ENDBRANCH   7   8
ENDBRANCH   6   7
ENDBRANCH   5   6
ENDBRANCH   4   5
ENDBRANCH   3   4
ENDBRANCH   2   3
ENDBRANCH   1   2
BRANCH   1  12
ATOM     12  C   UNL     1      -6.044   1.136  -0.067  1.00  0.00     0.000 C 
BRANCH  12  13
ATOM     13  C   UNL     1      -4.704   1.125   0.682  1.00  0.00    -0.000 C 
BRANCH  13  14
ATOM     14  C   UNL     1      -3.672   2.092   0.064  1.00  0.00    -0.000 C 
BRANCH  14  15
ATOM     15  C   UNL     1      -3.061   3.078   1.078  1.00  0.00    -0.000 C 
BRANCH  15  16
ATOM     16  C   UNL     1      -4.011   3.530   2.204  1.00  0.00    -0.000 C 
BRANCH  16  17
ATOM     17  C   UNL     1      -5.012   4.629   1.804  1.00  0.00    -0.000 C 
BRANCH  17  18
ATOM     18  C   UNL     1      -6.344   4.530   2.568  1.00  0.00    -0.000 C 
BRANCH  18  19
ATOM     19  C   UNL     1      -6.377   3.343   3.543  1.00  0.00    -0.003 C 
ATOM     20  C   UNL     1      -7.379   2.267   3.128  1.00  0.00     0.004 C 
ENDBRANCH  18  19
ENDBRANCH  17  18
ENDBRANCH  16  17
ENDBRANCH  15  16
ENDBRANCH  14  15
ENDBRANCH  13  14
ENDBRANCH  12  13
ENDBRANCH   1  12
TORSDOF 16
ENDMDL
MODEL 2
REMARK VINA RESULT:    -3.282      4.736      6.669
REMARK INTER + INTRA:          -9.286
REMARK INTER:                  -7.418
REMARK INTRA:                  -1.867
REMARK UNBOUND:                -2.935
REMARK SMILES CCCCCCCCCCCCCCCCCC(=O)[O-]
REMARK SMILES IDX 10 1 11 2 12 3 13 4 14 5 15 6 16 7 17 8 18 9 19 10 20 11
REMARK SMILES IDX 9 12 8 13 7 14 6 15 5 16 4 17 3 18 2 19 1 20
REMARK H PARENT
REMARK Flexibility Score: inf
ROOT
ATOM      1  C   UNL     1      -6.317   0.962  -0.063  1.00  0.00     0.000 C 
ENDROOT
BRANCH   1   2
ATOM      2  C   UNL     1      -5.232   0.214   0.727  1.00  0.00     0.000 C 
BRANCH   2   3
ATOM      3  C   UNL     1      -5.409  -1.313   0.681  1.00  0.00     0.000 C 
BRANCH   3   4
ATOM      4  C   UNL     1      -6.749  -1.733   0.050  1.00  0.00     0.000 C 
BRANCH   4   5
ATOM      5  C   UNL     1      -6.717  -3.168  -0.500  1.00  0.00     0.000 C 
BRANCH   5   6
ATOM      6  C   UNL     1      -7.748  -3.400  -1.615  1.00  0.00     0.000 C 
BRANCH   6   7
ATOM      7  C   UNL     1      -7.097  -4.067  -2.835  1.00  0.00     0.006 C 
BRANCH   7   8
ATOM      8  C   UNL     1      -5.667  -4.540  -2.545  1.00  0.00     0.053 C 
BRANCH   8   9
ATOM      9  C   UNL     1      -5.535  -6.025  -2.682  1.00  0.00     0.041 C 
ATOM     10  O   UNL     1      -6.070  -6.790  -1.836  1.00  0.00    -0.550 OA
ATOM     11  O   UNL     1      -4.850  -6.566  -3.762  1.00  0.00    -0.550 OA
ENDBRANCH   8   9
ENDBRANCH   7   8
ENDBRANCH   6   7
ENDBRANCH   5   6
ENDBRANCH   4   5
ENDBRANCH   3   4
ENDBRANCH   2   3
ENDBRANCH   1   2
BRANCH   1  12
ATOM     12  C   UNL     1      -5.738   2.208  -0.743  1.00  0.00     0.000 C 
BRANCH  12  13
ATOM     13  C   UNL     1      -4.242   2.363  -0.432  1.00  0.00    -0.000 C 
BRANCH  13  14
ATOM     14  C   UNL     1      -3.916   3.705   0.257  1.00  0.00    -0.000 C 
BRANCH  14  15
ATOM     15  C   UNL     1      -3.212   3.549   1.618  1.00  0.00    -0.000 C 
BRANCH  15  16
ATOM     16  C   UNL     1      -4.072   3.914   2.844  1.00  0.00    -0.000 C 
BRANCH  16  17
ATOM     17  C   UNL     1      -5.432   3.195   2.918  1.00  0.00    -0.000 C 
BRANCH  17  18
ATOM     18  C   UNL     1      -6.611   4.108   2.542  1.00  0.00    -0.000 C 
BRANCH  18  19
ATOM     19  C   UNL     1      -7.974   3.438   2.780  1.00  0.00    -0.003 C 
ATOM     20  C   UNL     1      -7.850   1.950   3.105  1.00  0.00     0.004 C 
ENDBRANCH  18  19
ENDBRANCH  17  18
ENDBRANCH  16  17
ENDBRANCH  15  16
ENDBRANCH  14  15
ENDBRANCH  13  14
ENDBRANCH  12  13
ENDBRANCH   1  12
TORSDOF 16
ENDMDL
MODEL 3
REMARK VINA RESULT:    -3.277      4.117      6.324
REMARK INTER + INTRA:          -9.277
REMARK INTER:                  -7.164
REMARK INTRA:                  -2.112
REMARK UNBOUND:                -2.935
REMARK SMILES CCCCCCCCCCCCCCCCCC(=O)[O-]
REMARK SMILES IDX 10 1 11 2 12 3 13 4 14 5 15 6 16 7 17 8 18 9 19 10 20 11
REMARK SMILES IDX 9 12 8 13 7 14 6 15 5 16 4 17 3 18 2 19 1 20
REMARK H PARENT
REMARK Flexibility Score: inf
ROOT
ATOM      1  C   UNL     1      -5.880   3.550  -1.467  1.00  0.00     0.000 C 
ENDROOT
BRANCH   1   2
ATOM      2  C   UNL     1      -4.452   3.953  -1.067  1.00  0.00     0.000 C 
BRANCH   2   3
ATOM      3  C   UNL     1      -3.580   2.747  -0.681  1.00  0.00     0.000 C 
BRANCH   3   4
ATOM      4  C   UNL     1      -3.058   2.834   0.764  1.00  0.00     0.000 C 
BRANCH   4   5
ATOM      5  C   UNL     1      -3.702   3.985   1.556  1.00  0.00     0.000 C 
BRANCH   5   6
ATOM      6  C   UNL     1      -4.628   3.490   2.676  1.00  0.00     0.000 C 
BRANCH   6   7
ATOM      7  C   UNL     1      -5.276   4.671   3.414  1.00  0.00     0.006 C 
BRANCH   7   8
ATOM      8  C   UNL     1      -4.641   4.916   4.789  1.00  0.00     0.053 C 
BRANCH   8   9
ATOM      9  C   UNL     1      -4.595   6.375   5.126  1.00  0.00     0.041 C 
ATOM     10  O   UNL     1      -5.524   6.902   5.792  1.00  0.00    -0.550 OA
ATOM     11  O   UNL     1      -3.508   7.145   4.730  1.00  0.00    -0.550 OA
ENDBRANCH   8   9
ENDBRANCH   7   8
ENDBRANCH   6   7
ENDBRANCH   5   6
ENDBRANCH   4   5
ENDBRANCH   3   4
ENDBRANCH   2   3
ENDBRANCH   1   2
BRANCH   1  12
ATOM     12  C   UNL     1      -6.191   2.117  -1.020  1.00  0.00     0.000 C 
BRANCH  12  13
ATOM     13  C   UNL     1      -7.044   2.110   0.257  1.00  0.00    -0.000 C 
BRANCH  13  14
ATOM     14  C   UNL     1      -6.768   0.879   1.146  1.00  0.00    -0.000 C 
BRANCH  14  15
ATOM     15  C   UNL     1      -5.441   0.166   0.825  1.00  0.00    -0.000 C 
BRANCH  15  16
ATOM     16  C   UNL     1      -5.551  -1.358   0.621  1.00  0.00    -0.000 C 
BRANCH  16  17
ATOM     17  C   UNL     1      -6.937  -1.851   0.167  1.00  0.00    -0.000 C 
BRANCH  17  18
ATOM     18  C   UNL     1      -7.536  -2.904   1.115  1.00  0.00    -0.000 C 
BRANCH  18  19
ATOM     19  C   UNL     1      -8.452  -2.284   2.182  1.00  0.00    -0.003 C 
ATOM     20  C   UNL     1      -7.973  -2.563   3.605  1.00  0.00     0.004 C 
ENDBRANCH  18  19
ENDBRANCH  17  18
ENDBRANCH  16  17
ENDBRANCH  15  16
ENDBRANCH  14  15
ENDBRANCH  13  14
ENDBRANCH  12  13
ENDBRANCH   1  12
TORSDOF 16
ENDMDL
MODEL 4
REMARK VINA RESULT:    -3.268      4.254      6.718
REMARK INTER + INTRA:          -9.259
REMARK INTER:                  -7.189
REMARK INTRA:                  -2.069
REMARK UNBOUND:                -2.935
REMARK SMILES CCCCCCCCCCCCCCCCCC(=O)[O-]
REMARK SMILES IDX 10 1 11 2 12 3 13 4 14 5 15 6 16 7 17 8 18 9 19 10 20 11
REMARK SMILES IDX 9 12 8 13 7 14 6 15 5 16 4 17 3 18 2 19 1 20
REMARK H PARENT
REMARK Flexibility Score: inf
ROOT
ATOM      1  C   UNL     1      -6.023   3.122  -1.563  1.00  0.00     0.000 C 
ENDROOT
BRANCH   1   2
ATOM      2  C   UNL     1      -4.788   3.854  -1.015  1.00  0.00     0.000 C 
BRANCH   2   3
ATOM      3  C   UNL     1      -3.593   2.915  -0.784  1.00  0.00     0.000 C 
BRANCH   3   4
ATOM      4  C   UNL     1      -3.271   2.727   0.709  1.00  0.00     0.000 C 
BRANCH   4   5
ATOM      5  C   UNL     1      -3.406   4.032   1.511  1.00  0.00     0.000 C 
BRANCH   5   6
ATOM      6  C   UNL     1      -4.040   3.817   2.893  1.00  0.00     0.000 C 
BRANCH   6   7
ATOM      7  C   UNL     1      -5.570   3.734   2.788  1.00  0.00     0.006 C 
BRANCH   7   8
ATOM      8  C   UNL     1      -6.248   3.729   4.164  1.00  0.00     0.053 C 
BRANCH   8   9
ATOM      9  C   UNL     1      -6.087   5.042   4.866  1.00  0.00     0.041 C 
ATOM     10  O   UNL     1      -6.553   6.095   4.357  1.00  0.00    -0.550 OA
ATOM     11  O   UNL     1      -5.450   5.096   6.099  1.00  0.00    -0.550 OA
ENDBRANCH   8   9
ENDBRANCH   7   8
ENDBRANCH   6   7
ENDBRANCH   5   6
ENDBRANCH   4   5
ENDBRANCH   3   4
ENDBRANCH   2   3
ENDBRANCH   1   2
BRANCH   1  12
ATOM     12  C   UNL     1      -6.967   2.715  -0.426  1.00  0.00     0.000 C 
BRANCH  12  13
ATOM     13  C   UNL     1      -7.051   1.187  -0.298  1.00  0.00    -0.000 C 
BRANCH  13  14
ATOM     14  C   UNL     1      -6.234   0.646   0.895  1.00  0.00    -0.000 C 
BRANCH  14  15
ATOM     15  C   UNL     1      -5.271  -0.496   0.520  1.00  0.00    -0.000 C 
BRANCH  15  16
ATOM     16  C   UNL     1      -5.601  -1.862   1.151  1.00  0.00    -0.000 C 
BRANCH  16  17
ATOM     17  C   UNL     1      -7.024  -2.378   0.869  1.00  0.00    -0.000 C 
BRANCH  17  18
ATOM     18  C   UNL     1      -7.311  -2.549  -0.633  1.00  0.00    -0.000 C 
BRANCH  18  19
ATOM     19  C   UNL     1      -7.351  -4.024  -1.061  1.00  0.00    -0.003 C 
ATOM     20  C   UNL     1      -6.527  -4.295  -2.319  1.00  0.00     0.004 C 
ENDBRANCH  18  19
ENDBRANCH  17  18
ENDBRANCH  16  17
ENDBRANCH  15  16
ENDBRANCH  14  15
ENDBRANCH  13  14
ENDBRANCH  12  13
ENDBRANCH   1  12
TORSDOF 16
ENDMDL
MODEL 5
REMARK VINA RESULT:    -3.260      4.462      7.187
REMARK INTER + INTRA:          -9.245
REMARK INTER:                  -7.907
REMARK INTRA:                  -1.338
REMARK UNBOUND:                -2.935
REMARK SMILES CCCCCCCCCCCCCCCCCC(=O)[O-]
REMARK SMILES IDX 10 1 11 2 12 3 13 4 14 5 15 6 16 7 17 8 18 9 19 10 20 11
REMARK SMILES IDX 9 12 8 13 7 14 6 15 5 16 4 17 3 18 2 19 1 20
REMARK H PARENT
REMARK Flexibility Score: inf
ROOT
ATOM      1  C   UNL     1      -4.564   2.643  -0.626  1.00  0.00     0.000 C 
ENDROOT
BRANCH   1   2
ATOM      2  C   UNL     1      -3.261   2.374   0.142  1.00  0.00     0.000 C 
BRANCH   2   3
ATOM      3  C   UNL     1      -3.094   3.286   1.369  1.00  0.00     0.000 C 
BRANCH   3   4
ATOM      4  C   UNL     1      -3.585   4.721   1.108  1.00  0.00     0.000 C 
BRANCH   4   5
ATOM      5  C   UNL     1      -4.851   5.066   1.909  1.00  0.00     0.000 C 
BRANCH   5   6
ATOM      6  C   UNL     1      -5.363   3.886   2.749  1.00  0.00     0.000 C 
BRANCH   6   7
ATOM      7  C   UNL     1      -5.695   4.335   4.180  1.00  0.00     0.006 C 
BRANCH   7   8
ATOM      8  C   UNL     1      -4.450   4.789   4.951  1.00  0.00     0.053 C 
BRANCH   8   9
ATOM      9  C   UNL     1      -4.492   6.254   5.258  1.00  0.00     0.041 C 
ATOM     10  O   UNL     1      -5.359   6.712   6.048  1.00  0.00    -0.550 OA
ATOM     11  O   UNL     1      -3.552   7.109   4.696  1.00  0.00    -0.550 OA
ENDBRANCH   8   9
ENDBRANCH   7   8
ENDBRANCH   6   7
ENDBRANCH   5   6
ENDBRANCH   4   5
ENDBRANCH   3   4
ENDBRANCH   2   3
ENDBRANCH   1   2
BRANCH   1  12
ATOM     12  C   UNL     1      -5.640   1.615  -0.258  1.00  0.00     0.000 C 
BRANCH  12  13
ATOM     13  C   UNL     1      -5.046   0.465   0.567  1.00  0.00    -0.000 C 
BRANCH  13  14
ATOM     14  C   UNL     1      -6.038  -0.702   0.758  1.00  0.00    -0.000 C 
BRANCH  14  15
ATOM     15  C   UNL     1      -7.428  -0.440   0.147  1.00  0.00    -0.000 C 
BRANCH  15  16
ATOM     16  C   UNL     1      -8.086  -1.660  -0.526  1.00  0.00    -0.000 C 
BRANCH  16  17
ATOM     17  C   UNL     1      -7.312  -2.982  -0.368  1.00  0.00    -0.000 C 
BRANCH  17  18
ATOM     18  C   UNL     1      -7.829  -4.092  -1.299  1.00  0.00    -0.000 C 
BRANCH  18  19
ATOM     19  C   UNL     1      -7.116  -4.097  -2.661  1.00  0.00    -0.003 C 
ATOM     20  C   UNL     1      -5.634  -4.452  -2.549  1.00  0.00     0.004 C 
ENDBRANCH  18  19
ENDBRANCH  17  18
ENDBRANCH  16  17
ENDBRANCH  15  16
ENDBRANCH  14  15
ENDBRANCH  13  14
ENDBRANCH  12  13
ENDBRANCH   1  12
TORSDOF 16
ENDMDL
MODEL 6
REMARK VINA RESULT:    -3.239      3.654      6.372
REMARK INTER + INTRA:          -9.203
REMARK INTER:                  -6.813
REMARK INTRA:                  -2.389
REMARK UNBOUND:                -2.935
REMARK SMILES CCCCCCCCCCCCCCCCCC(=O)[O-]
REMARK SMILES IDX 10 1 11 2 12 3 13 4 14 5 15 6 16 7 17 8 18 9 19 10 20 11
REMARK SMILES IDX 9 12 8 13 7 14 6 15 5 16 4 17 3 18 2 19 1 20
REMARK H PARENT
REMARK Flexibility Score: inf
ROOT
ATOM      1  C   UNL     1      -3.763   3.940  -1.438  1.00  0.00     0.000 C 
ENDROOT
BRANCH   1   2
ATOM      2  C   UNL     1      -3.906   2.639  -0.634  1.00  0.00     0.000 C 
BRANCH   2   3
ATOM      3  C   UNL     1      -3.222   2.713   0.742  1.00  0.00     0.000 C 
BRANCH   3   4
ATOM      4  C   UNL     1      -3.994   3.597   1.738  1.00  0.00     0.000 C 
BRANCH   4   5
ATOM      5  C   UNL     1      -5.226   2.887   2.324  1.00  0.00     0.000 C 
BRANCH   5   6
ATOM      6  C   UNL     1      -6.403   3.844   2.568  1.00  0.00     0.000 C 
BRANCH   6   7
ATOM      7  C   UNL     1      -5.944   5.094   3.332  1.00  0.00     0.006 C 
BRANCH   7   8
ATOM      8  C   UNL     1      -5.797   4.834   4.837  1.00  0.00     0.053 C 
BRANCH   8   9
ATOM      9  C   UNL     1      -4.519   5.402   5.375  1.00  0.00     0.041 C 
ATOM     10  O   UNL     1      -3.997   4.916   6.413  1.00  0.00    -0.550 OA
ATOM     11  O   UNL     1      -3.888   6.446   4.710  1.00  0.00    -0.550 OA
ENDBRANCH   8   9
ENDBRANCH   7   8
ENDBRANCH   6   7
ENDBRANCH   5   6
ENDBRANCH   4   5
ENDBRANCH   3   4
ENDBRANCH   2   3
ENDBRANCH   1   2
BRANCH   1  12
ATOM     12  C   UNL     1      -5.104   4.349  -2.060  1.00  0.00     0.000 C 
BRANCH  12  13
ATOM     13  C   UNL     1      -6.282   3.831  -1.223  1.00  0.00    -0.000 C 
BRANCH  13  14
ATOM     14  C   UNL     1      -7.442   3.306  -2.096  1.00  0.00    -0.000 C 
BRANCH  14  15
ATOM     15  C   UNL     1      -8.230   2.150  -1.451  1.00  0.00    -0.000 C 
BRANCH  15  16
ATOM     16  C   UNL     1      -7.367   1.085  -0.747  1.00  0.00    -0.000 C 
BRANCH  16  17
ATOM     17  C   UNL     1      -7.928   0.583   0.597  1.00  0.00    -0.000 C 
BRANCH  17  18
ATOM     18  C   UNL     1      -6.906  -0.239   1.401  1.00  0.00    -0.000 C 
BRANCH  18  19
ATOM     19  C   UNL     1      -5.548  -0.347   0.690  1.00  0.00    -0.003 C 
ATOM     20  C   UNL     1      -5.112  -1.795   0.469  1.00  0.00     0.004 C 
ENDBRANCH  18  19
ENDBRANCH  17  18
ENDBRANCH  16  17
ENDBRANCH  15  16
ENDBRANCH  14  15
ENDBRANCH  13  14
ENDBRANCH  12  13
ENDBRANCH   1  12
TORSDOF 16
ENDMDL
MODEL 7
REMARK VINA RESULT:    -3.234      5.761      8.257
REMARK INTER + INTRA:          -9.193
REMARK INTER:                  -8.007
REMARK INTRA:                  -1.186
REMARK UNBOUND:                -2.935
REMARK SMILES CCCCCCCCCCCCCCCCCC(=O)[O-]
REMARK SMILES IDX 10 1 11 2 12 3 13 4 14 5 15 6 16 7 17 8 18 9 19 10 20 11
REMARK SMILES IDX 9 12 8 13 7 14 6 15 5 16 4 17 3 18 2 19 1 20
REMARK H PARENT
REMARK Flexibility Score: inf
ROOT
ATOM      1  C   UNL     1      -7.079  -1.546   1.280  1.00  0.00     0.000 C 
ENDROOT
BRANCH   1   2
ATOM      2  C   UNL     1      -5.585  -1.681   0.950  1.00  0.00     0.000 C 
BRANCH   2   3
ATOM      3  C   UNL     1      -4.898  -0.322   0.735  1.00  0.00     0.000 C 
BRANCH   3   4
ATOM      4  C   UNL     1      -5.906   0.833   0.596  1.00  0.00     0.000 C 
BRANCH   4   5
ATOM      5  C   UNL     1      -5.428   1.918  -0.383  1.00  0.00     0.000 C 
BRANCH   5   6
ATOM      6  C   UNL     1      -3.915   2.170  -0.298  1.00  0.00     0.000 C 
BRANCH   6   7
ATOM      7  C   UNL     1      -3.620   3.523   0.366  1.00  0.00     0.006 C 
BRANCH   7   8
ATOM      8  C   UNL     1      -3.211   3.373   1.836  1.00  0.00     0.053 C 
BRANCH   8   9
ATOM      9  C   UNL     1      -4.219   3.990   2.757  1.00  0.00     0.041 C 
ATOM     10  O   UNL     1      -4.072   5.176   3.154  1.00  0.00    -0.550 OA
ATOM     11  O   UNL     1      -5.337   3.265   3.150  1.00  0.00    -0.550 OA
ENDBRANCH   8   9
ENDBRANCH   7   8
ENDBRANCH   6   7
ENDBRANCH   5   6
ENDBRANCH   4   5
ENDBRANCH   3   4
ENDBRANCH   2   3
ENDBRANCH   1   2
BRANCH   1  12
ATOM     12  C   UNL     1      -7.922  -2.471   0.394  1.00  0.00     0.000 C 
BRANCH  12  13
ATOM     13  C   UNL     1      -7.127  -2.933  -0.836  1.00  0.00    -0.000 C 
BRANCH  13  14
ATOM     14  C   UNL     1      -8.026  -3.572  -1.916  1.00  0.00    -0.000 C 
BRANCH  14  15
ATOM     15  C   UNL     1      -7.241  -4.258  -3.050  1.00  0.00    -0.000 C 
BRANCH  15  16
ATOM     16  C   UNL     1      -5.790  -4.640  -2.702  1.00  0.00    -0.000 C 
BRANCH  16  17
ATOM     17  C   UNL     1      -5.563  -6.138  -2.426  1.00  0.00    -0.000 C 
BRANCH  17  18
ATOM     18  C   UNL     1      -5.526  -6.983  -3.711  1.00  0.00    -0.000 C 
BRANCH  18  19
ATOM     19  C   UNL     1      -4.100  -7.409  -4.095  1.00  0.00    -0.003 C 
ATOM     20  C   UNL     1      -4.065  -8.295  -5.339  1.00  0.00     0.004 C 
ENDBRANCH  18  19
ENDBRANCH  17  18
ENDBRANCH  16  17
ENDBRANCH  15  16
ENDBRANCH  14  15
ENDBRANCH  13  14
ENDBRANCH  12  13
ENDBRANCH   1  12
TORSDOF 16
ENDMDL
MODEL 8
REMARK VINA RESULT:    -3.226      3.895      6.132
REMARK INTER + INTRA:          -9.178
REMARK INTER:                  -6.838
REMARK INTRA:                  -2.340
REMARK UNBOUND:                -2.935
REMARK SMILES CCCCCCCCCCCCCCCCCC(=O)[O-]
REMARK SMILES IDX 10 1 11 2 12 3 13 4 14 5 15 6 16 7 17 8 18 9 19 10 20 11
REMARK SMILES IDX 9 12 8 13 7 14 6 15 5 16 4 17 3 18 2 19 1 20
REMARK H PARENT
REMARK Flexibility Score: inf
ROOT
ATOM      1  C   UNL     1      -6.146   3.612  -1.937  1.00  0.00     0.000 C 
ENDROOT
BRANCH   1   2
ATOM      2  C   UNL     1      -5.108   4.736  -2.071  1.00  0.00     0.000 C 
BRANCH   2   3
ATOM      3  C   UNL     1      -3.880   4.522  -1.170  1.00  0.00     0.000 C 
BRANCH   3   4
ATOM      4  C   UNL     1      -3.445   3.047  -1.107  1.00  0.00     0.000 C 
BRANCH   4   5
ATOM      5  C   UNL     1      -3.199   2.566   0.333  1.00  0.00     0.000 C 
BRANCH   5   6
ATOM      6  C   UNL     1      -3.462   3.661   1.378  1.00  0.00     0.000 C 
BRANCH   6   7
ATOM      7  C   UNL     1      -4.711   3.337   2.210  1.00  0.00     0.006 C 
BRANCH   7   8
ATOM      8  C   UNL     1      -4.785   4.169   3.497  1.00  0.00     0.053 C 
BRANCH   8   9
ATOM      9  C   UNL     1      -6.173   4.198   4.059  1.00  0.00     0.041 C 
ATOM     10  O   UNL     1      -6.761   3.123   4.351  1.00  0.00    -0.550 OA
ATOM     11  O   UNL     1      -6.803   5.413   4.292  1.00  0.00    -0.550 OA
ENDBRANCH   8   9
ENDBRANCH   7   8
ENDBRANCH   6   7
ENDBRANCH   5   6
ENDBRANCH   4   5
ENDBRANCH   3   4
ENDBRANCH   2   3
ENDBRANCH   1   2
BRANCH   1  12
ATOM     12  C   UNL     1      -7.190   3.955  -0.867  1.00  0.00     0.000 C 
BRANCH  12  13
ATOM     13  C   UNL     1      -7.507   2.733   0.006  1.00  0.00    -0.000 C 
BRANCH  13  14
ATOM     14  C   UNL     1      -6.732   1.472  -0.435  1.00  0.00    -0.000 C 
BRANCH  14  15
ATOM     15  C   UNL     1      -6.530   0.442   0.693  1.00  0.00    -0.000 C 
BRANCH  15  16
ATOM     16  C   UNL     1      -5.189  -0.317   0.651  1.00  0.00    -0.000 C 
BRANCH  16  17
ATOM     17  C   UNL     1      -5.314  -1.843   0.491  1.00  0.00    -0.000 C 
BRANCH  17  18
ATOM     18  C   UNL     1      -6.775  -2.325   0.476  1.00  0.00    -0.000 C 
BRANCH  18  19
ATOM     19  C   UNL     1      -7.140  -3.058  -0.824  1.00  0.00    -0.003 C 
ATOM     20  C   UNL     1      -8.510  -2.652  -1.365  1.00  0.00     0.004 C 
ENDBRANCH  18  19
ENDBRANCH  17  18
ENDBRANCH  16  17
ENDBRANCH  15  16
ENDBRANCH  14  15
ENDBRANCH  13  14
ENDBRANCH  12  13
ENDBRANCH   1  12
TORSDOF 16
ENDMDL
MODEL 9
REMARK VINA RESULT:    -3.179      4.589      6.915
REMARK INTER + INTRA:          -9.086
REMARK INTER:                  -6.604
REMARK INTRA:                  -2.482
REMARK UNBOUND:                -2.935
REMARK SMILES CCCCCCCCCCCCCCCCCC(=O)[O-]
REMARK SMILES IDX 10 1 11 2 12 3 13 4 14 5 15 6 16 7 17 8 18 9 19 10 20 11
REMARK SMILES IDX 9 12 8 13 7 14 6 15 5 16 4 17 3 18 2 19 1 20
REMARK H PARENT
REMARK Flexibility Score: inf
ROOT
ATOM      1  C   UNL     1      -5.499   5.914   0.319  1.00  0.00     0.000 C 
ENDROOT
BRANCH   1   2
ATOM      2  C   UNL     1      -6.800   5.179   0.675  1.00  0.00     0.000 C 
BRANCH   2   3
ATOM      3  C   UNL     1      -7.065   5.138   2.189  1.00  0.00     0.000 C 
BRANCH   3   4
ATOM      4  C   UNL     1      -7.441   3.731   2.684  1.00  0.00     0.000 C 
BRANCH   4   5
ATOM      5  C   UNL     1      -6.418   3.163   3.682  1.00  0.00     0.000 C 
BRANCH   5   6
ATOM      6  C   UNL     1      -5.384   4.206   4.131  1.00  0.00     0.000 C 
BRANCH   6   7
ATOM      7  C   UNL     1      -5.656   4.663   5.572  1.00  0.00     0.006 C 
BRANCH   7   8
ATOM      8  C   UNL     1      -4.388   5.169   6.270  1.00  0.00     0.053 C 
BRANCH   8   9
ATOM      9  C   UNL     1      -4.169   4.486   7.585  1.00  0.00     0.041 C 
ATOM     10  O   UNL     1      -5.142   3.991   8.212  1.00  0.00    -0.550 OA
ATOM     11  O   UNL     1      -2.885   4.369   8.102  1.00  0.00    -0.550 OA
ENDBRANCH   8   9
ENDBRANCH   7   8
ENDBRANCH   6   7
ENDBRANCH   5   6
ENDBRANCH   4   5
ENDBRANCH   3   4
ENDBRANCH   2   3
ENDBRANCH   1   2
BRANCH   1  12
ATOM     12  C   UNL     1      -4.400   4.922  -0.078  1.00  0.00     0.000 C 
BRANCH  12  13
ATOM     13  C   UNL     1      -3.644   4.411   1.157  1.00  0.00    -0.000 C 
BRANCH  13  14
ATOM     14  C   UNL     1      -3.033   3.010   0.940  1.00  0.00    -0.000 C 
BRANCH  14  15
ATOM     15  C   UNL     1      -3.898   2.085   0.062  1.00  0.00    -0.000 C 
BRANCH  15  16
ATOM     16  C   UNL     1      -5.000   1.314   0.814  1.00  0.00    -0.000 C 
BRANCH  16  17
ATOM     17  C   UNL     1      -6.304   1.110   0.020  1.00  0.00    -0.000 C 
BRANCH  17  18
ATOM     18  C   UNL     1      -6.481   2.138  -1.111  1.00  0.00    -0.000 C 
BRANCH  18  19
ATOM     19  C   UNL     1      -7.955   2.344  -1.494  1.00  0.00    -0.003 C 
ATOM     20  C   UNL     1      -8.843   1.177  -1.066  1.00  0.00     0.004 C 
ENDBRANCH  18  19
ENDBRANCH  17  18
ENDBRANCH  16  17
ENDBRANCH  15  16
ENDBRANCH  14  15
ENDBRANCH  13  14
ENDBRANCH  12  13
ENDBRANCH   1  12
TORSDOF 16
ENDMDL
