MODEL 1
REMARK VINA RESULT:    -6.301      0.000      0.000
REMARK INTER + INTRA:          -7.845
REMARK INTER:                  -7.590
REMARK INTRA:                  -0.255
REMARK UNBOUND:                -0.255
REMARK SMILES O=c1c(O)c(-c2ccc(O)c(O)c2)oc2cc(O)cc(O)c12
REMARK SMILES IDX 5 1 3 2 2 3 1 4 22 5 20 6 19 7 17 8 16 9 15 10 14 11 6 12
REMARK SMILES IDX 7 13 8 14 9 15 13 16 11 17 10 18 12 20 4 22 21 24 18 26
REMARK H PARENT 10 19 12 21 4 23 21 25 18 27
REMARK Flexibility Score: inf
ROOT
ATOM      1  C   UNL     1      11.000  21.662  11.383  1.00  0.00     0.180 A 
ATOM      2  C   UNL     1      10.444  21.886  10.112  1.00  0.00     0.208 A 
ATOM      3  C   UNL     1       9.159  22.442  10.019  1.00  0.00     0.238 A 
ATOM      4  O   UNL     1       8.644  22.590   8.879  1.00  0.00    -0.285 OA
ATOM      5  C   UNL     1       8.451  22.782  11.197  1.00  0.00     0.111 A 
ATOM      6  C   UNL     1       7.158  23.388  11.221  1.00  0.00     0.134 A 
ATOM      7  C   UNL     1       6.499  23.560  12.444  1.00  0.00     0.093 A 
ATOM      8  C   UNL     1       7.112  23.208  13.649  1.00  0.00     0.123 A 
ATOM      9  C   UNL     1       8.398  22.671  13.641  1.00  0.00     0.094 A 
ATOM     10  C   UNL     1       9.066  22.453  12.433  1.00  0.00     0.146 A 
ATOM     11  O   UNL     1      10.285  21.930  12.469  1.00  0.00    -0.452 OA
ENDROOT
BRANCH   1  12
ATOM     12  C   UNL     1      12.360  21.102  11.560  1.00  0.00     0.025 A 
ATOM     13  C   UNL     1      12.556  19.763  11.941  1.00  0.00     0.016 A 
ATOM     14  C   UNL     1      13.848  19.250  12.078  1.00  0.00     0.051 A 
ATOM     15  C   UNL     1      14.963  20.062  11.824  1.00  0.00     0.157 A 
ATOM     16  C   UNL     1      13.479  21.905  11.286  1.00  0.00     0.062 A 
ATOM     17  C   UNL     1      14.775  21.395  11.422  1.00  0.00     0.158 A 
BRANCH  15  18
ATOM     18  O   UNL     1      16.251  19.547  11.964  1.00  0.00    -0.504 OA
ATOM     19  H   UNL     1      16.619  19.277  12.868  1.00  0.00     0.293 HD
ENDBRANCH  15  18
BRANCH  17  20
ATOM     20  O   UNL     1      15.862  22.226  11.155  1.00  0.00    -0.504 OA
ATOM     21  H   UNL     1      16.423  22.633  11.893  1.00  0.00     0.293 HD
ENDBRANCH  17  20
ENDBRANCH   1  12
BRANCH   2  22
ATOM     22  O   UNL     1      11.150  21.524   8.961  1.00  0.00    -0.502 OA
ATOM     23  H   UNL     1      10.707  21.437   8.055  1.00  0.00     0.293 HD
ENDBRANCH   2  22
BRANCH   6  24
ATOM     24  O   UNL     1       6.497  23.860  10.083  1.00  0.00    -0.507 OA
ATOM     25  H   UNL     1       6.931  24.001   9.183  1.00  0.00     0.293 HD
ENDBRANCH   6  24
BRANCH   8  26
ATOM     26  O   UNL     1       6.455  23.397  14.862  1.00  0.00    -0.508 OA
ATOM     27  H   UNL     1       6.905  23.861  15.642  1.00  0.00     0.293 HD
ENDBRANCH   8  26
TORSDOF 6
ENDMDL
MODEL 2
REMARK VINA RESULT:    -6.297      5.040      8.020
REMARK INTER + INTRA:          -7.841
REMARK INTER:                  -7.628
REMARK INTRA:                  -0.213
REMARK UNBOUND:                -0.255
REMARK SMILES O=c1c(O)c(-c2ccc(O)c(O)c2)oc2cc(O)cc(O)c12
REMARK SMILES IDX 5 1 3 2 2 3 1 4 22 5 20 6 19 7 17 8 16 9 15 10 14 11 6 12
REMARK SMILES IDX 7 13 8 14 9 15 13 16 11 17 10 18 12 20 4 22 21 24 18 26
REMARK H PARENT 10 19 12 21 4 23 21 25 18 27
REMARK Flexibility Score: inf
ROOT
ATOM      1  C   UNL     1      14.712  15.907  10.245  1.00  0.00     0.180 A 
ATOM      2  C   UNL     1      13.572  16.406   9.594  1.00  0.00     0.208 A 
ATOM      3  C   UNL     1      13.264  17.771   9.708  1.00  0.00     0.238 A 
ATOM      4  O   UNL     1      12.212  18.202   9.167  1.00  0.00    -0.285 OA
ATOM      5  C   UNL     1      14.109  18.623  10.458  1.00  0.00     0.111 A 
ATOM      6  C   UNL     1      13.916  20.030  10.608  1.00  0.00     0.134 A 
ATOM      7  C   UNL     1      14.741  20.751  11.480  1.00  0.00     0.093 A 
ATOM      8  C   UNL     1      15.792  20.128  12.158  1.00  0.00     0.123 A 
ATOM      9  C   UNL     1      16.026  18.767  11.972  1.00  0.00     0.094 A 
ATOM     10  C   UNL     1      15.197  18.014  11.136  1.00  0.00     0.146 A 
ATOM     11  O   UNL     1      15.448  16.718  10.995  1.00  0.00    -0.452 OA
ENDROOT
BRANCH   1  12
ATOM     12  C   UNL     1      15.115  14.485  10.151  1.00  0.00     0.025 A 
ATOM     13  C   UNL     1      15.545  13.925   8.935  1.00  0.00     0.016 A 
ATOM     14  C   UNL     1      15.943  12.587   8.875  1.00  0.00     0.051 A 
ATOM     15  C   UNL     1      15.931  11.793  10.029  1.00  0.00     0.157 A 
ATOM     16  C   UNL     1      15.124  13.690  11.309  1.00  0.00     0.062 A 
ATOM     17  C   UNL     1      15.521  12.350  11.252  1.00  0.00     0.158 A 
BRANCH  15  18
ATOM     18  O   UNL     1      16.326  10.458   9.966  1.00  0.00    -0.504 OA
ATOM     19  H   UNL     1      16.564  10.016   9.086  1.00  0.00     0.293 HD
ENDBRANCH  15  18
BRANCH  17  20
ATOM     20  O   UNL     1      15.504  11.589  12.421  1.00  0.00    -0.504 OA
ATOM     21  H   UNL     1      14.885  10.796  12.538  1.00  0.00     0.293 HD
ENDBRANCH  17  20
ENDBRANCH   1  12
BRANCH   2  22
ATOM     22  O   UNL     1      12.738  15.544   8.875  1.00  0.00    -0.502 OA
ATOM     23  H   UNL     1      12.942  14.559   8.760  1.00  0.00     0.293 HD
ENDBRANCH   2  22
BRANCH   6  24
ATOM     24  O   UNL     1      12.955  20.764   9.908  1.00  0.00    -0.507 OA
ATOM     25  H   UNL     1      12.050  20.413   9.635  1.00  0.00     0.293 HD
ENDBRANCH   6  24
BRANCH   8  26
ATOM     26  O   UNL     1      16.618  20.856  13.012  1.00  0.00    -0.508 OA
ATOM     27  H   UNL     1      17.463  20.456  13.402  1.00  0.00     0.293 HD
ENDBRANCH   8  26
TORSDOF 6
ENDMDL
MODEL 3
REMARK VINA RESULT:    -5.994      6.412     10.886
REMARK INTER + INTRA:          -7.476
REMARK INTER:                  -7.800
REMARK INTRA:                   0.324
REMARK UNBOUND:                -0.255
REMARK SMILES O=c1c(O)c(-c2ccc(O)c(O)c2)oc2cc(O)cc(O)c12
REMARK SMILES IDX 5 1 3 2 2 3 1 4 22 5 20 6 19 7 17 8 16 9 15 10 14 11 6 12
REMARK SMILES IDX 7 13 8 14 9 15 13 16 11 17 10 18 12 20 4 22 21 24 18 26
REMARK H PARENT 10 19 12 21 4 23 21 25 18 27
REMARK Flexibility Score: inf
ROOT
ATOM      1  C   UNL     1       3.305  23.389  16.993  1.00  0.00     0.180 A 
ATOM      2  C   UNL     1       4.701  23.516  17.094  1.00  0.00     0.208 A 
ATOM      3  C   UNL     1       5.474  23.489  15.923  1.00  0.00     0.238 A 
ATOM      4  O   UNL     1       6.728  23.549  16.025  1.00  0.00    -0.285 OA
ATOM      5  C   UNL     1       4.842  23.353  14.665  1.00  0.00     0.111 A 
ATOM      6  C   UNL     1       5.524  23.354  13.410  1.00  0.00     0.134 A 
ATOM      7  C   UNL     1       4.811  23.082  12.236  1.00  0.00     0.093 A 
ATOM      8  C   UNL     1       3.430  22.872  12.264  1.00  0.00     0.123 A 
ATOM      9  C   UNL     1       2.745  22.928  13.477  1.00  0.00     0.094 A 
ATOM     10  C   UNL     1       3.436  23.162  14.669  1.00  0.00     0.146 A 
ATOM     11  O   UNL     1       2.748  23.197  15.803  1.00  0.00    -0.452 OA
ENDROOT
BRANCH   1  12
ATOM     12  C   UNL     1       2.422  23.432  18.181  1.00  0.00     0.025 A 
ATOM     13  C   UNL     1       1.099  23.900  18.093  1.00  0.00     0.016 A 
ATOM     14  C   UNL     1       0.276  23.909  19.222  1.00  0.00     0.051 A 
ATOM     15  C   UNL     1       0.757  23.438  20.451  1.00  0.00     0.157 A 
ATOM     16  C   UNL     1       2.891  22.942  19.410  1.00  0.00     0.062 A 
ATOM     17  C   UNL     1       2.071  22.950  20.543  1.00  0.00     0.158 A 
BRANCH  15  18
ATOM     18  O   UNL     1      -0.066  23.450  21.576  1.00  0.00    -0.504 OA
ATOM     19  H   UNL     1      -0.185  22.628  22.156  1.00  0.00     0.293 HD
ENDBRANCH  15  18
BRANCH  17  20
ATOM     20  O   UNL     1       2.577  22.468  21.750  1.00  0.00    -0.504 OA
ATOM     21  H   UNL     1       3.566  22.494  21.967  1.00  0.00     0.293 HD
ENDBRANCH  17  20
ENDBRANCH   1  12
BRANCH   2  22
ATOM     22  O   UNL     1       5.308  23.628  18.349  1.00  0.00    -0.502 OA
ATOM     23  H   UNL     1       6.123  23.087  18.609  1.00  0.00     0.293 HD
ENDBRANCH   2  22
BRANCH   6  24
ATOM     24  O   UNL     1       6.883  23.643  13.261  1.00  0.00    -0.507 OA
ATOM     25  H   UNL     1       7.383  24.345  13.787  1.00  0.00     0.293 HD
ENDBRANCH   6  24
BRANCH   8  26
ATOM     26  O   UNL     1       2.726  22.617  11.090  1.00  0.00    -0.508 OA
ATOM     27  H   UNL     1       3.129  22.801  10.179  1.00  0.00     0.293 HD
ENDBRANCH   8  26
TORSDOF 6
ENDMDL
MODEL 4
REMARK VINA RESULT:    -5.977      3.356      8.348
REMARK INTER + INTRA:          -7.455
REMARK INTER:                  -7.256
REMARK INTRA:                  -0.199
REMARK UNBOUND:                -0.255
REMARK SMILES O=c1c(O)c(-c2ccc(O)c(O)c2)oc2cc(O)cc(O)c12
REMARK SMILES IDX 5 1 3 2 2 3 1 4 22 5 20 6 19 7 17 8 16 9 15 10 14 11 6 12
REMARK SMILES IDX 7 13 8 14 9 15 13 16 11 17 10 18 12 20 4 22 21 24 18 26
REMARK H PARENT 10 19 12 21 4 23 21 25 18 27
REMARK Flexibility Score: inf
ROOT
ATOM      1  C   UNL     1       5.487  23.289  14.562  1.00  0.00     0.180 A 
ATOM      2  C   UNL     1       4.673  23.689  13.488  1.00  0.00     0.208 A 
ATOM      3  C   UNL     1       5.215  23.714  12.194  1.00  0.00     0.238 A 
ATOM      4  O   UNL     1       4.497  24.125  11.245  1.00  0.00    -0.285 OA
ATOM      5  C   UNL     1       6.559  23.323  11.986  1.00  0.00     0.111 A 
ATOM      6  C   UNL     1       7.201  23.271  10.712  1.00  0.00     0.134 A 
ATOM      7  C   UNL     1       8.572  22.996  10.639  1.00  0.00     0.093 A 
ATOM      8  C   UNL     1       9.310  22.706  11.790  1.00  0.00     0.123 A 
ATOM      9  C   UNL     1       8.680  22.696  13.032  1.00  0.00     0.094 A 
ATOM     10  C   UNL     1       7.322  23.003  13.140  1.00  0.00     0.146 A 
ATOM     11  O   UNL     1       6.763  22.992  14.343  1.00  0.00    -0.452 OA
ENDROOT
BRANCH   1  12
ATOM     12  C   UNL     1       4.979  23.214  15.951  1.00  0.00     0.025 A 
ATOM     13  C   UNL     1       5.402  24.123  16.936  1.00  0.00     0.016 A 
ATOM     14  C   UNL     1       4.891  24.048  18.233  1.00  0.00     0.051 A 
ATOM     15  C   UNL     1       3.939  23.074  18.563  1.00  0.00     0.157 A 
ATOM     16  C   UNL     1       4.010  22.253  16.281  1.00  0.00     0.062 A 
ATOM     17  C   UNL     1       3.495  22.174  17.580  1.00  0.00     0.158 A 
BRANCH  15  18
ATOM     18  O   UNL     1       3.432  23.001  19.860  1.00  0.00    -0.504 OA
ATOM     19  H   UNL     1       3.993  23.254  20.665  1.00  0.00     0.293 HD
ENDBRANCH  15  18
BRANCH  17  20
ATOM     20  O   UNL     1       2.544  21.197  17.874  1.00  0.00    -0.504 OA
ATOM     21  H   UNL     1       2.488  20.328  17.359  1.00  0.00     0.293 HD
ENDBRANCH  17  20
ENDBRANCH   1  12
BRANCH   2  22
ATOM     22  O   UNL     1       3.354  24.091  13.718  1.00  0.00    -0.502 OA
ATOM     23  H   UNL     1       2.579  23.440  13.726  1.00  0.00     0.293 HD
ENDBRANCH   2  22
BRANCH   6  24
ATOM     24  O   UNL     1       6.536  23.453   9.496  1.00  0.00    -0.507 OA
ATOM     25  H   UNL     1       6.935  23.265   8.588  1.00  0.00     0.293 HD
ENDBRANCH   6  24
BRANCH   8  26
ATOM     26  O   UNL     1      10.671  22.418  11.707  1.00  0.00    -0.508 OA
ATOM     27  H   UNL     1      11.031  21.494  11.915  1.00  0.00     0.293 HD
ENDBRANCH   8  26
TORSDOF 6
ENDMDL
MODEL 5
REMARK VINA RESULT:    -5.840      2.112      3.385
REMARK INTER + INTRA:          -7.290
REMARK INTER:                  -7.132
REMARK INTRA:                  -0.158
REMARK UNBOUND:                -0.255
REMARK SMILES O=c1c(O)c(-c2ccc(O)c(O)c2)oc2cc(O)cc(O)c12
REMARK SMILES IDX 5 1 3 2 2 3 1 4 22 5 20 6 19 7 17 8 16 9 15 10 14 11 6 12
REMARK SMILES IDX 7 13 8 14 9 15 13 16 11 17 10 18 12 20 4 22 21 24 18 26
REMARK H PARENT 10 19 12 21 4 23 21 25 18 27
REMARK Flexibility Score: inf
ROOT
ATOM      1  C   UNL     1       8.211  22.592  11.757  1.00  0.00     0.180 A 
ATOM      2  C   UNL     1       7.306  22.215  10.749  1.00  0.00     0.208 A 
ATOM      3  C   UNL     1       5.929  22.342  10.988  1.00  0.00     0.238 A 
ATOM      4  O   UNL     1       5.123  21.953  10.103  1.00  0.00    -0.285 OA
ATOM      5  C   UNL     1       5.473  22.859  12.224  1.00  0.00     0.111 A 
ATOM      6  C   UNL     1       4.101  23.070  12.560  1.00  0.00     0.134 A 
ATOM      7  C   UNL     1       3.761  23.464  13.860  1.00  0.00     0.093 A 
ATOM      8  C   UNL     1       4.746  23.718  14.817  1.00  0.00     0.123 A 
ATOM      9  C   UNL     1       6.091  23.573  14.482  1.00  0.00     0.094 A 
ATOM     10  C   UNL     1       6.460  23.146  13.204  1.00  0.00     0.146 A 
ATOM     11  O   UNL     1       7.751  23.011  12.929  1.00  0.00    -0.452 OA
ENDROOT
BRANCH   1  12
ATOM     12  C   UNL     1       9.678  22.509  11.569  1.00  0.00     0.025 A 
ATOM     13  C   UNL     1      10.331  23.251  10.569  1.00  0.00     0.016 A 
ATOM     14  C   UNL     1      11.718  23.176  10.426  1.00  0.00     0.051 A 
ATOM     15  C   UNL     1      12.476  22.372  11.288  1.00  0.00     0.157 A 
ATOM     16  C   UNL     1      10.444  21.721  12.443  1.00  0.00     0.062 A 
ATOM     17  C   UNL     1      11.834  21.644  12.303  1.00  0.00     0.158 A 
BRANCH  15  18
ATOM     18  O   UNL     1      13.860  22.298  11.142  1.00  0.00    -0.504 OA
ATOM     19  H   UNL     1      14.286  21.823  10.354  1.00  0.00     0.293 HD
ENDBRANCH  15  18
BRANCH  17  20
ATOM     20  O   UNL     1      12.559  20.839  13.182  1.00  0.00    -0.504 OA
ATOM     21  H   UNL     1      13.261  20.185  12.858  1.00  0.00     0.293 HD
ENDBRANCH  17  20
ENDBRANCH   1  12
BRANCH   2  22
ATOM     22  O   UNL     1       7.776  21.686   9.543  1.00  0.00    -0.502 OA
ATOM     23  H   UNL     1       7.385  20.851   9.126  1.00  0.00     0.293 HD
ENDBRANCH   2  22
BRANCH   6  24
ATOM     24  O   UNL     1       3.047  22.934  11.652  1.00  0.00    -0.507 OA
ATOM     25  H   UNL     1       2.529  23.702  11.254  1.00  0.00     0.293 HD
ENDBRANCH   6  24
BRANCH   8  26
ATOM     26  O   UNL     1       4.399  24.125  16.103  1.00  0.00    -0.508 OA
ATOM     27  H   UNL     1       5.087  24.189  16.843  1.00  0.00     0.293 HD
ENDBRANCH   8  26
TORSDOF 6
ENDMDL
MODEL 6
REMARK VINA RESULT:    -5.776      3.978      6.747
REMARK INTER + INTRA:          -7.213
REMARK INTER:                  -6.968
REMARK INTRA:                  -0.245
REMARK UNBOUND:                -0.255
REMARK SMILES O=c1c(O)c(-c2ccc(O)c(O)c2)oc2cc(O)cc(O)c12
REMARK SMILES IDX 5 1 3 2 2 3 1 4 22 5 20 6 19 7 17 8 16 9 15 10 14 11 6 12
REMARK SMILES IDX 7 13 8 14 9 15 13 16 11 17 10 18 12 20 4 22 21 24 18 26
REMARK H PARENT 10 19 12 21 4 23 21 25 18 27
REMARK Flexibility Score: inf
ROOT
ATOM      1  C   UNL     1      14.372  17.311  10.404  1.00  0.00     0.180 A 
ATOM      2  C   UNL     1      15.217  18.234  11.042  1.00  0.00     0.208 A 
ATOM      3  C   UNL     1      14.792  19.564  11.181  1.00  0.00     0.238 A 
ATOM      4  O   UNL     1      15.576  20.399  11.704  1.00  0.00    -0.285 OA
ATOM      5  C   UNL     1      13.520  19.952  10.695  1.00  0.00     0.111 A 
ATOM      6  C   UNL     1      12.970  21.263  10.818  1.00  0.00     0.134 A 
ATOM      7  C   UNL     1      11.758  21.566  10.186  1.00  0.00     0.093 A 
ATOM      8  C   UNL     1      11.044  20.587   9.490  1.00  0.00     0.123 A 
ATOM      9  C   UNL     1      11.544  19.288   9.414  1.00  0.00     0.094 A 
ATOM     10  C   UNL     1      12.768  18.966  10.005  1.00  0.00     0.146 A 
ATOM     11  O   UNL     1      13.213  17.719   9.901  1.00  0.00    -0.452 OA
ENDROOT
BRANCH   1  12
ATOM     12  C   UNL     1      14.741  15.885  10.242  1.00  0.00     0.025 A 
ATOM     13  C   UNL     1      15.152  15.372   9.000  1.00  0.00     0.016 A 
ATOM     14  C   UNL     1      15.520  14.030   8.877  1.00  0.00     0.051 A 
ATOM     15  C   UNL     1      15.495  13.184   9.994  1.00  0.00     0.157 A 
ATOM     16  C   UNL     1      14.739  15.039  11.363  1.00  0.00     0.062 A 
ATOM     17  C   UNL     1      15.105  13.694  11.243  1.00  0.00     0.158 A 
BRANCH  15  18
ATOM     18  O   UNL     1      15.860  11.845   9.867  1.00  0.00    -0.504 OA
ATOM     19  H   UNL     1      16.473  11.529   9.124  1.00  0.00     0.293 HD
ENDBRANCH  15  18
BRANCH  17  20
ATOM     20  O   UNL     1      15.077  12.881  12.376  1.00  0.00    -0.504 OA
ATOM     21  H   UNL     1      15.821  12.888  13.062  1.00  0.00     0.293 HD
ENDBRANCH  17  20
ENDBRANCH   1  12
BRANCH   2  22
ATOM     22  O   UNL     1      16.479  17.837  11.495  1.00  0.00    -0.502 OA
ATOM     23  H   UNL     1      16.619  17.007  12.057  1.00  0.00     0.293 HD
ENDBRANCH   2  22
BRANCH   6  24
ATOM     24  O   UNL     1      13.556  22.288  11.567  1.00  0.00    -0.507 OA
ATOM     25  H   UNL     1      13.338  23.268  11.470  1.00  0.00     0.293 HD
ENDBRANCH   6  24
BRANCH   8  26
ATOM     26  O   UNL     1       9.832  20.892   8.876  1.00  0.00    -0.508 OA
ATOM     27  H   UNL     1       9.544  20.442   8.016  1.00  0.00     0.293 HD
ENDBRANCH   8  26
TORSDOF 6
ENDMDL
MODEL 7
REMARK VINA RESULT:    -5.542      2.214      7.363
REMARK INTER + INTRA:          -6.931
REMARK INTER:                  -6.743
REMARK INTRA:                  -0.188
REMARK UNBOUND:                -0.255
REMARK SMILES O=c1c(O)c(-c2ccc(O)c(O)c2)oc2cc(O)cc(O)c12
REMARK SMILES IDX 5 1 3 2 2 3 1 4 22 5 20 6 19 7 17 8 16 9 15 10 14 11 6 12
REMARK SMILES IDX 7 13 8 14 9 15 13 16 11 17 10 18 12 20 4 22 21 24 18 26
REMARK H PARENT 10 19 12 21 4 23 21 25 18 27
REMARK Flexibility Score: inf
ROOT
ATOM      1  C   UNL     1      11.772  21.195  10.353  1.00  0.00     0.180 A 
ATOM      2  C   UNL     1      12.943  21.728  10.920  1.00  0.00     0.208 A 
ATOM      3  C   UNL     1      14.110  20.949  10.929  1.00  0.00     0.238 A 
ATOM      4  O   UNL     1      15.141  21.410  11.487  1.00  0.00    -0.285 OA
ATOM      5  C   UNL     1      14.099  19.655  10.357  1.00  0.00     0.111 A 
ATOM      6  C   UNL     1      15.234  18.793  10.275  1.00  0.00     0.134 A 
ATOM      7  C   UNL     1      15.076  17.483   9.806  1.00  0.00     0.093 A 
ATOM      8  C   UNL     1      13.835  17.025   9.355  1.00  0.00     0.123 A 
ATOM      9  C   UNL     1      12.733  17.877   9.376  1.00  0.00     0.094 A 
ATOM     10  C   UNL     1      12.853  19.178   9.872  1.00  0.00     0.146 A 
ATOM     11  O   UNL     1      11.776  19.954   9.884  1.00  0.00    -0.452 OA
ENDROOT
BRANCH   1  12
ATOM     12  C   UNL     1      10.509  21.966  10.284  1.00  0.00     0.025 A 
ATOM     13  C   UNL     1       9.969  22.377   9.053  1.00  0.00     0.016 A 
ATOM     14  C   UNL     1       8.763  23.082   9.012  1.00  0.00     0.051 A 
ATOM     15  C   UNL     1       8.073  23.374  10.196  1.00  0.00     0.157 A 
ATOM     16  C   UNL     1       9.803  22.243  11.466  1.00  0.00     0.062 A 
ATOM     17  C   UNL     1       8.596  22.949  11.428  1.00  0.00     0.158 A 
BRANCH  15  18
ATOM     18  O   UNL     1       6.871  24.079  10.151  1.00  0.00    -0.504 OA
ATOM     19  H   UNL     1       6.228  23.984   9.374  1.00  0.00     0.293 HD
ENDBRANCH  15  18
BRANCH  17  20
ATOM     20  O   UNL     1       7.930  23.217  12.624  1.00  0.00    -0.504 OA
ATOM     21  H   UNL     1       8.027  22.624  13.439  1.00  0.00     0.293 HD
ENDBRANCH  17  20
ENDBRANCH   1  12
BRANCH   2  22
ATOM     22  O   UNL     1      12.928  23.000  11.499  1.00  0.00    -0.502 OA
ATOM     23  H   UNL     1      13.107  23.152  12.484  1.00  0.00     0.293 HD
ENDBRANCH   2  22
BRANCH   6  24
ATOM     24  O   UNL     1      16.534  19.182  10.612  1.00  0.00    -0.507 OA
ATOM     25  H   UNL     1      17.245  19.448   9.948  1.00  0.00     0.293 HD
ENDBRANCH   6  24
BRANCH   8  26
ATOM     26  O   UNL     1      13.689  15.726   8.875  1.00  0.00    -0.508 OA
ATOM     27  H   UNL     1      12.961  15.483   8.214  1.00  0.00     0.293 HD
ENDBRANCH   8  26
TORSDOF 6
ENDMDL
MODEL 8
REMARK VINA RESULT:    -5.489      4.223      7.723
REMARK INTER + INTRA:          -6.868
REMARK INTER:                  -6.899
REMARK INTRA:                   0.032
REMARK UNBOUND:                -0.255
REMARK SMILES O=c1c(O)c(-c2ccc(O)c(O)c2)oc2cc(O)cc(O)c12
REMARK SMILES IDX 5 1 3 2 2 3 1 4 22 5 20 6 19 7 17 8 16 9 15 10 14 11 6 12
REMARK SMILES IDX 7 13 8 14 9 15 13 16 11 17 10 18 12 20 4 22 21 24 18 26
REMARK H PARENT 10 19 12 21 4 23 21 25 18 27
REMARK Flexibility Score: inf
ROOT
ATOM      1  C   UNL     1       5.289  23.306  14.467  1.00  0.00     0.180 A 
ATOM      2  C   UNL     1       5.925  23.649  15.672  1.00  0.00     0.208 A 
ATOM      3  C   UNL     1       5.210  23.543  16.874  1.00  0.00     0.238 A 
ATOM      4  O   UNL     1       5.768  23.902  17.945  1.00  0.00    -0.285 OA
ATOM      5  C   UNL     1       3.872  23.081  16.860  1.00  0.00     0.111 A 
ATOM      6  C   UNL     1       3.064  22.897  18.023  1.00  0.00     0.134 A 
ATOM      7  C   UNL     1       1.713  22.559  17.879  1.00  0.00     0.093 A 
ATOM      8  C   UNL     1       1.156  22.337  16.617  1.00  0.00     0.123 A 
ATOM      9  C   UNL     1       1.951  22.456  15.479  1.00  0.00     0.094 A 
ATOM     10  C   UNL     1       3.294  22.827  15.589  1.00  0.00     0.146 A 
ATOM     11  O   UNL     1       4.013  22.940  14.479  1.00  0.00    -0.452 OA
ENDROOT
BRANCH   1  12
ATOM     12  C   UNL     1       5.987  23.369  13.162  1.00  0.00     0.025 A 
ATOM     13  C   UNL     1       5.434  24.059  12.068  1.00  0.00     0.016 A 
ATOM     14  C   UNL     1       6.123  24.125  10.854  1.00  0.00     0.051 A 
ATOM     15  C   UNL     1       7.377  23.516  10.718  1.00  0.00     0.157 A 
ATOM     16  C   UNL     1       7.253  22.778  13.026  1.00  0.00     0.062 A 
ATOM     17  C   UNL     1       7.945  22.841  11.812  1.00  0.00     0.158 A 
BRANCH  15  18
ATOM     18  O   UNL     1       8.060  23.581   9.504  1.00  0.00    -0.504 OA
ATOM     19  H   UNL     1       8.253  24.466   9.051  1.00  0.00     0.293 HD
ENDBRANCH  15  18
BRANCH  17  20
ATOM     20  O   UNL     1       9.195  22.230  11.711  1.00  0.00    -0.504 OA
ATOM     21  H   UNL     1      10.030  22.643  12.109  1.00  0.00     0.293 HD
ENDBRANCH  17  20
ENDBRANCH   1  12
BRANCH   2  22
ATOM     22  O   UNL     1       7.241  24.123  15.663  1.00  0.00    -0.502 OA
ATOM     23  H   UNL     1       8.029  23.548  15.931  1.00  0.00     0.293 HD
ENDBRANCH   2  22
BRANCH   6  24
ATOM     24  O   UNL     1       3.545  23.004  19.331  1.00  0.00    -0.507 OA
ATOM     25  H   UNL     1       3.986  23.826  19.716  1.00  0.00     0.293 HD
ENDBRANCH   6  24
BRANCH   8  26
ATOM     26  O   UNL     1      -0.185  21.987  16.484  1.00  0.00    -0.508 OA
ATOM     27  H   UNL     1      -0.803  22.484  15.853  1.00  0.00     0.293 HD
ENDBRANCH   8  26
TORSDOF 6
ENDMDL
MODEL 9
REMARK VINA RESULT:    -5.018      6.315     11.514
REMARK INTER + INTRA:          -6.300
REMARK INTER:                  -6.824
REMARK INTRA:                   0.524
REMARK UNBOUND:                -0.255
REMARK SMILES O=c1c(O)c(-c2ccc(O)c(O)c2)oc2cc(O)cc(O)c12
REMARK SMILES IDX 5 1 3 2 2 3 1 4 22 5 20 6 19 7 17 8 16 9 15 10 14 11 6 12
REMARK SMILES IDX 7 13 8 14 9 15 13 16 11 17 10 18 12 20 4 22 21 24 18 26
REMARK H PARENT 10 19 12 21 4 23 21 25 18 27
REMARK Flexibility Score: inf
ROOT
ATOM      1  C   UNL     1       2.439  23.445  17.318  1.00  0.00     0.180 A 
ATOM      2  C   UNL     1       1.651  23.613  16.166  1.00  0.00     0.208 A 
ATOM      3  C   UNL     1       2.275  23.614  14.909  1.00  0.00     0.238 A 
ATOM      4  O   UNL     1       1.572  23.820  13.884  1.00  0.00    -0.285 OA
ATOM      5  C   UNL     1       3.675  23.430  14.817  1.00  0.00     0.111 A 
ATOM      6  C   UNL     1       4.408  23.373  13.592  1.00  0.00     0.134 A 
ATOM      7  C   UNL     1       5.807  23.318  13.626  1.00  0.00     0.093 A 
ATOM      8  C   UNL     1       6.496  23.253  14.840  1.00  0.00     0.123 A 
ATOM      9  C   UNL     1       5.787  23.247  16.039  1.00  0.00     0.094 A 
ATOM     10  C   UNL     1       4.393  23.338  16.038  1.00  0.00     0.146 A 
ATOM     11  O   UNL     1       3.757  23.340  17.203  1.00  0.00    -0.452 OA
ENDROOT
BRANCH   1  12
ATOM     12  C   UNL     1       1.849  23.408  18.676  1.00  0.00     0.025 A 
ATOM     13  C   UNL     1       2.623  23.072  19.801  1.00  0.00     0.016 A 
ATOM     14  C   UNL     1       2.051  23.068  21.076  1.00  0.00     0.051 A 
ATOM     15  C   UNL     1       0.704  23.413  21.248  1.00  0.00     0.157 A 
ATOM     16  C   UNL     1       0.505  23.773  18.857  1.00  0.00     0.062 A 
ATOM     17  C   UNL     1      -0.071  23.770  20.132  1.00  0.00     0.158 A 
BRANCH  15  18
ATOM     18  O   UNL     1       0.136  23.406  22.521  1.00  0.00    -0.504 OA
ATOM     19  H   UNL     1      -0.572  22.730  22.783  1.00  0.00     0.293 HD
ENDBRANCH  15  18
BRANCH  17  20
ATOM     20  O   UNL     1      -1.413  24.125  20.270  1.00  0.00    -0.504 OA
ATOM     21  H   UNL     1      -1.700  25.073  20.479  1.00  0.00     0.293 HD
ENDBRANCH  17  20
ENDBRANCH   1  12
BRANCH   2  22
ATOM     22  O   UNL     1       0.272  23.815  16.279  1.00  0.00    -0.502 OA
ATOM     23  H   UNL     1      -0.139  24.359  17.028  1.00  0.00     0.293 HD
ENDBRANCH   2  22
BRANCH   6  24
ATOM     24  O   UNL     1       3.812  23.340  12.328  1.00  0.00    -0.507 OA
ATOM     25  H   UNL     1       2.852  23.584  12.139  1.00  0.00     0.293 HD
ENDBRANCH   6  24
BRANCH   8  26
ATOM     26  O   UNL     1       7.887  23.182  14.864  1.00  0.00    -0.508 OA
ATOM     27  H   UNL     1       8.462  23.966  14.580  1.00  0.00     0.293 HD
ENDBRANCH   8  26
TORSDOF 6
ENDMDL
