MODEL 1
REMARK VINA RESULT:    -5.646      0.000      0.000
REMARK INTER + INTRA:         -18.542
REMARK INTER:                 -14.888
REMARK INTRA:                  -3.654
REMARK UNBOUND:                -3.654
REMARK SMILES CCCCCCCCCCCCCCCCCCCCCCCCCCCCCC(=O)[O-]
REMARK SMILES IDX 16 1 17 2 18 3 19 4 20 5 21 6 22 7 23 8 24 9 25 10 26 11
REMARK SMILES IDX 27 12 28 13 29 14 30 15 31 16 32 17 15 18 14 19 13 20 12 21
REMARK SMILES IDX 11 22 10 23 9 24 8 25 7 26 6 27 5 28 4 29 3 30 2 31 1 32
REMARK H PARENT
REMARK Flexibility Score: inf
ROOT
ATOM      1  C   UNL     1       4.214  -4.806  33.935  1.00  0.00     0.000 C 
ENDROOT
BRANCH   1   2
ATOM      2  C   UNL     1       5.242  -4.815  32.784  1.00  0.00     0.000 C 
BRANCH   2   3
ATOM      3  C   UNL     1       5.786  -6.209  32.408  1.00  0.00     0.000 C 
BRANCH   3   4
ATOM      4  C   UNL     1       6.681  -6.873  33.477  1.00  0.00     0.000 C 
BRANCH   4   5
ATOM      5  C   UNL     1       6.244  -8.284  33.909  1.00  0.00     0.000 C 
BRANCH   5   6
ATOM      6  C   UNL     1       6.391  -8.522  35.418  1.00  0.00     0.000 C 
BRANCH   6   7
ATOM      7  C   UNL     1       6.033  -7.252  36.204  1.00  0.00     0.000 C 
BRANCH   7   8
ATOM      8  C   UNL     1       4.988  -7.494  37.309  1.00  0.00     0.000 C 
BRANCH   8   9
ATOM      9  C   UNL     1       3.747  -6.575  37.261  1.00  0.00     0.000 C 
BRANCH   9  10
ATOM     10  C   UNL     1       2.766  -6.736  38.436  1.00  0.00     0.000 C 
BRANCH  10  11
ATOM     11  C   UNL     1       2.355  -5.391  39.057  1.00  0.00     0.000 C 
BRANCH  11  12
ATOM     12  C   UNL     1       2.514  -4.209  38.079  1.00  0.00     0.000 C 
BRANCH  12  13
ATOM     13  C   UNL     1       2.781  -2.842  38.741  1.00  0.00     0.006 C 
BRANCH  13  14
ATOM     14  C   UNL     1       3.263  -2.962  40.194  1.00  0.00     0.053 C 
BRANCH  14  15
ATOM     15  C   UNL     1       2.444  -2.089  41.095  1.00  0.00     0.041 C 
ATOM     16  O   UNL     1       1.590  -2.599  41.871  1.00  0.00    -0.550 OA
ATOM     17  O   UNL     1       2.614  -0.709  41.065  1.00  0.00    -0.550 OA
ENDBRANCH  14  15
ENDBRANCH  13  14
ENDBRANCH  12  13
ENDBRANCH  11  12
ENDBRANCH  10  11
ENDBRANCH   9  10
ENDBRANCH   8   9
ENDBRANCH   7   8
ENDBRANCH   6   7
ENDBRANCH   5   6
ENDBRANCH   4   5
ENDBRANCH   3   4
ENDBRANCH   2   3
ENDBRANCH   1   2
BRANCH   1  18
ATOM     18  C   UNL     1       4.578  -3.901  35.126  1.00  0.00     0.000 C 
BRANCH  18  19
ATOM     19  C   UNL     1       6.087  -3.639  35.242  1.00  0.00     0.000 C 
BRANCH  19  20
ATOM     20  C   UNL     1       6.380  -2.579  36.315  1.00  0.00     0.000 C 
BRANCH  20  21
ATOM     21  C   UNL     1       5.184  -1.645  36.567  1.00  0.00     0.000 C 
BRANCH  21  22
ATOM     22  C   UNL     1       5.542  -0.162  36.375  1.00  0.00     0.000 C 
BRANCH  22  23
ATOM     23  C   UNL     1       6.886   0.041  35.652  1.00  0.00     0.000 C 
BRANCH  23  24
ATOM     24  C   UNL     1       7.861   1.017  36.337  1.00  0.00    -0.000 C 
BRANCH  24  25
ATOM     25  C   UNL     1       9.261   1.008  35.700  1.00  0.00    -0.000 C 
BRANCH  25  26
ATOM     26  C   UNL     1       9.247   1.460  34.230  1.00  0.00    -0.000 C 
BRANCH  26  27
ATOM     27  C   UNL     1      10.558   1.131  33.492  1.00  0.00    -0.000 C 
BRANCH  27  28
ATOM     28  C   UNL     1      11.399   0.069  34.219  1.00  0.00    -0.000 C 
BRANCH  28  29
ATOM     29  C   UNL     1      12.855   0.518  34.440  1.00  0.00    -0.000 C 
BRANCH  29  30
ATOM     30  C   UNL     1      13.045   1.295  35.756  1.00  0.00    -0.000 C 
BRANCH  30  31
ATOM     31  C   UNL     1      13.291   2.806  35.586  1.00  0.00    -0.003 C 
ATOM     32  C   UNL     1      12.023   3.641  35.759  1.00  0.00     0.004 C 
ENDBRANCH  30  31
ENDBRANCH  29  30
ENDBRANCH  28  29
ENDBRANCH  27  28
ENDBRANCH  26  27
ENDBRANCH  25  26
ENDBRANCH  24  25
ENDBRANCH  23  24
ENDBRANCH  22  23
ENDBRANCH  21  22
ENDBRANCH  20  21
ENDBRANCH  19  20
ENDBRANCH  18  19
ENDBRANCH   1  18
TORSDOF 28
ENDMDL
MODEL 2
REMARK VINA RESULT:    -5.566      3.396      9.273
REMARK INTER + INTRA:         -18.331
REMARK INTER:                 -13.831
REMARK INTRA:                  -4.499
REMARK UNBOUND:                -3.654
REMARK SMILES CCCCCCCCCCCCCCCCCCCCCCCCCCCCCC(=O)[O-]
REMARK SMILES IDX 16 1 17 2 18 3 19 4 20 5 21 6 22 7 23 8 24 9 25 10 26 11
REMARK SMILES IDX 27 12 28 13 29 14 30 15 31 16 32 17 15 18 14 19 13 20 12 21
REMARK SMILES IDX 11 22 10 23 9 24 8 25 7 26 6 27 5 28 4 29 3 30 2 31 1 32
REMARK H PARENT
REMARK Flexibility Score: inf
ROOT
ATOM      1  C   UNL     1       3.884  -4.404  38.166  1.00  0.00     0.000 C 
ENDROOT
BRANCH   1   2
ATOM      2  C   UNL     1       2.681  -3.840  38.949  1.00  0.00     0.000 C 
BRANCH   2   3
ATOM      3  C   UNL     1       3.039  -2.809  40.040  1.00  0.00     0.000 C 
BRANCH   3   4
ATOM      4  C   UNL     1       2.577  -1.364  39.752  1.00  0.00     0.000 C 
BRANCH   4   5
ATOM      5  C   UNL     1       1.877  -1.161  38.396  1.00  0.00     0.000 C 
BRANCH   5   6
ATOM      6  C   UNL     1       2.444   0.024  37.601  1.00  0.00     0.000 C 
BRANCH   6   7
ATOM      7  C   UNL     1       3.972   0.093  37.747  1.00  0.00     0.000 C 
BRANCH   7   8
ATOM      8  C   UNL     1       4.704   0.262  36.402  1.00  0.00     0.000 C 
BRANCH   8   9
ATOM      9  C   UNL     1       6.225   0.514  36.503  1.00  0.00     0.000 C 
BRANCH   9  10
ATOM     10  C   UNL     1       7.099  -0.399  35.625  1.00  0.00     0.000 C 
BRANCH  10  11
ATOM     11  C   UNL     1       8.578   0.022  35.617  1.00  0.00     0.000 C 
BRANCH  11  12
ATOM     12  C   UNL     1       8.847   1.275  36.473  1.00  0.00     0.000 C 
BRANCH  12  13
ATOM     13  C   UNL     1      10.230   1.926  36.268  1.00  0.00     0.006 C 
BRANCH  13  14
ATOM     14  C   UNL     1      10.598   2.098  34.786  1.00  0.00     0.053 C 
BRANCH  14  15
ATOM     15  C   UNL     1      11.994   1.615  34.531  1.00  0.00     0.041 C 
ATOM     16  O   UNL     1      12.924   2.442  34.322  1.00  0.00    -0.550 OA
ATOM     17  O   UNL     1      12.263   0.251  34.506  1.00  0.00    -0.550 OA
ENDBRANCH  14  15
ENDBRANCH  13  14
ENDBRANCH  12  13
ENDBRANCH  11  12
ENDBRANCH  10  11
ENDBRANCH   9  10
ENDBRANCH   8   9
ENDBRANCH   7   8
ENDBRANCH   6   7
ENDBRANCH   5   6
ENDBRANCH   4   5
ENDBRANCH   3   4
ENDBRANCH   2   3
ENDBRANCH   1   2
BRANCH   1  18
ATOM     18  C   UNL     1       4.858  -3.346  37.617  1.00  0.00     0.000 C 
BRANCH  18  19
ATOM     19  C   UNL     1       4.846  -3.258  36.084  1.00  0.00     0.000 C 
BRANCH  19  20
ATOM     20  C   UNL     1       5.772  -4.318  35.466  1.00  0.00     0.000 C 
BRANCH  20  21
ATOM     21  C   UNL     1       6.354  -3.879  34.112  1.00  0.00     0.000 C 
BRANCH  21  22
ATOM     22  C   UNL     1       5.565  -4.445  32.919  1.00  0.00     0.000 C 
BRANCH  22  23
ATOM     23  C   UNL     1       4.471  -5.442  33.343  1.00  0.00     0.000 C 
BRANCH  23  24
ATOM     24  C   UNL     1       3.024  -4.978  33.090  1.00  0.00    -0.000 C 
BRANCH  24  25
ATOM     25  C   UNL     1       1.992  -5.767  33.913  1.00  0.00    -0.000 C 
BRANCH  25  26
ATOM     26  C   UNL     1       2.439  -5.992  35.367  1.00  0.00    -0.000 C 
BRANCH  26  27
ATOM     27  C   UNL     1       2.592  -7.483  35.720  1.00  0.00    -0.000 C 
BRANCH  27  28
ATOM     28  C   UNL     1       3.596  -7.724  36.860  1.00  0.00    -0.000 C 
BRANCH  28  29
ATOM     29  C   UNL     1       5.056  -7.707  36.375  1.00  0.00    -0.000 C 
BRANCH  29  30
ATOM     30  C   UNL     1       5.277  -8.574  35.121  1.00  0.00    -0.000 C 
BRANCH  30  31
ATOM     31  C   UNL     1       6.747  -8.725  34.689  1.00  0.00    -0.003 C 
ATOM     32  C   UNL     1       7.489  -7.391  34.616  1.00  0.00     0.004 C 
ENDBRANCH  30  31
ENDBRANCH  29  30
ENDBRANCH  28  29
ENDBRANCH  27  28
ENDBRANCH  26  27
ENDBRANCH  25  26
ENDBRANCH  24  25
ENDBRANCH  23  24
ENDBRANCH  22  23
ENDBRANCH  21  22
ENDBRANCH  20  21
ENDBRANCH  19  20
ENDBRANCH  18  19
ENDBRANCH   1  18
TORSDOF 28
ENDMDL
MODEL 3
REMARK VINA RESULT:    -5.471      3.801      9.809
REMARK INTER + INTRA:         -18.081
REMARK INTER:                 -14.076
REMARK INTRA:                  -4.005
REMARK UNBOUND:                -3.654
REMARK SMILES CCCCCCCCCCCCCCCCCCCCCCCCCCCCCC(=O)[O-]
REMARK SMILES IDX 16 1 17 2 18 3 19 4 20 5 21 6 22 7 23 8 24 9 25 10 26 11
REMARK SMILES IDX 27 12 28 13 29 14 30 15 31 16 32 17 15 18 14 19 13 20 12 21
REMARK SMILES IDX 11 22 10 23 9 24 8 25 7 26 6 27 5 28 4 29 3 30 2 31 1 32
REMARK H PARENT
REMARK Flexibility Score: inf
ROOT
ATOM      1  C   UNL     1       1.603  -3.151  41.227  1.00  0.00     0.000 C 
ENDROOT
BRANCH   1   2
ATOM      2  C   UNL     1       2.767  -2.616  40.367  1.00  0.00     0.000 C 
BRANCH   2   3
ATOM      3  C   UNL     1       2.638  -1.137  39.943  1.00  0.00     0.000 C 
BRANCH   3   4
ATOM      4  C   UNL     1       2.160  -0.911  38.493  1.00  0.00     0.000 C 
BRANCH   4   5
ATOM      5  C   UNL     1       2.987   0.102  37.683  1.00  0.00     0.000 C 
BRANCH   5   6
ATOM      6  C   UNL     1       4.433  -0.357  37.446  1.00  0.00     0.000 C 
BRANCH   6   7
ATOM      7  C   UNL     1       5.045   0.380  36.245  1.00  0.00     0.000 C 
BRANCH   7   8
ATOM      8  C   UNL     1       6.585   0.353  36.235  1.00  0.00     0.000 C 
BRANCH   8   9
ATOM      9  C   UNL     1       7.222  -0.899  35.593  1.00  0.00     0.000 C 
BRANCH   9  10
ATOM     10  C   UNL     1       7.886  -0.667  34.223  1.00  0.00     0.000 C 
BRANCH  10  11
ATOM     11  C   UNL     1       8.873   0.512  34.232  1.00  0.00     0.000 C 
BRANCH  11  12
ATOM     12  C   UNL     1      10.340   0.063  34.077  1.00  0.00     0.000 C 
BRANCH  12  13
ATOM     13  C   UNL     1      11.340   0.750  35.028  1.00  0.00     0.006 C 
BRANCH  13  14
ATOM     14  C   UNL     1      12.751   0.869  34.433  1.00  0.00     0.053 C 
BRANCH  14  15
ATOM     15  C   UNL     1      13.022   2.276  33.995  1.00  0.00     0.041 C 
ATOM     16  O   UNL     1      13.964   2.522  33.193  1.00  0.00    -0.550 OA
ATOM     17  O   UNL     1      12.243   3.318  34.487  1.00  0.00    -0.550 OA
ENDBRANCH  14  15
ENDBRANCH  13  14
ENDBRANCH  12  13
ENDBRANCH  11  12
ENDBRANCH  10  11
ENDBRANCH   9  10
ENDBRANCH   8   9
ENDBRANCH   7   8
ENDBRANCH   6   7
ENDBRANCH   5   6
ENDBRANCH   4   5
ENDBRANCH   3   4
ENDBRANCH   2   3
ENDBRANCH   1   2
BRANCH   1  18
ATOM     18  C   UNL     1       0.375  -2.225  41.310  1.00  0.00     0.000 C 
BRANCH  18  19
ATOM     19  C   UNL     1      -0.768  -2.659  40.382  1.00  0.00     0.000 C 
BRANCH  19  20
ATOM     20  C   UNL     1      -0.494  -4.049  39.786  1.00  0.00     0.000 C 
BRANCH  20  21
ATOM     21  C   UNL     1      -0.669  -4.084  38.258  1.00  0.00     0.000 C 
BRANCH  21  22
ATOM     22  C   UNL     1       0.671  -3.990  37.508  1.00  0.00     0.000 C 
BRANCH  22  23
ATOM     23  C   UNL     1       1.070  -5.313  36.828  1.00  0.00     0.000 C 
BRANCH  23  24
ATOM     24  C   UNL     1       1.714  -6.361  37.755  1.00  0.00    -0.000 C 
BRANCH  24  25
ATOM     25  C   UNL     1       2.907  -5.803  38.550  1.00  0.00    -0.000 C 
BRANCH  25  26
ATOM     26  C   UNL     1       4.140  -5.546  37.667  1.00  0.00    -0.000 C 
BRANCH  26  27
ATOM     27  C   UNL     1       4.464  -4.049  37.517  1.00  0.00    -0.000 C 
BRANCH  27  28
ATOM     28  C   UNL     1       4.563  -3.607  36.047  1.00  0.00    -0.000 C 
BRANCH  28  29
ATOM     29  C   UNL     1       4.757  -4.793  35.085  1.00  0.00    -0.000 C 
BRANCH  29  30
ATOM     30  C   UNL     1       4.105  -4.557  33.710  1.00  0.00    -0.000 C 
BRANCH  30  31
ATOM     31  C   UNL     1       2.570  -4.675  33.692  1.00  0.00    -0.003 C 
ATOM     32  C   UNL     1       1.987  -4.664  32.280  1.00  0.00     0.004 C 
ENDBRANCH  30  31
ENDBRANCH  29  30
ENDBRANCH  28  29
ENDBRANCH  27  28
ENDBRANCH  26  27
ENDBRANCH  25  26
ENDBRANCH  24  25
ENDBRANCH  23  24
ENDBRANCH  22  23
ENDBRANCH  21  22
ENDBRANCH  20  21
ENDBRANCH  19  20
ENDBRANCH  18  19
ENDBRANCH   1  18
TORSDOF 28
ENDMDL
MODEL 4
REMARK VINA RESULT:    -5.464      3.477      9.702
REMARK INTER + INTRA:         -18.062
REMARK INTER:                 -13.358
REMARK INTRA:                  -4.704
REMARK UNBOUND:                -3.654
REMARK SMILES CCCCCCCCCCCCCCCCCCCCCCCCCCCCCC(=O)[O-]
REMARK SMILES IDX 16 1 17 2 18 3 19 4 20 5 21 6 22 7 23 8 24 9 25 10 26 11
REMARK SMILES IDX 27 12 28 13 29 14 30 15 31 16 32 17 15 18 14 19 13 20 12 21
REMARK SMILES IDX 11 22 10 23 9 24 8 25 7 26 6 27 5 28 4 29 3 30 2 31 1 32
REMARK H PARENT
REMARK Flexibility Score: inf
ROOT
ATOM      1  C   UNL     1       2.823  -3.814  37.211  1.00  0.00     0.000 C 
ENDROOT
BRANCH   1   2
ATOM      2  C   UNL     1       3.368  -4.168  38.610  1.00  0.00     0.000 C 
BRANCH   2   3
ATOM      3  C   UNL     1       3.033  -3.146  39.717  1.00  0.00     0.000 C 
BRANCH   3   4
ATOM      4  C   UNL     1       2.110  -1.988  39.282  1.00  0.00     0.000 C 
BRANCH   4   5
ATOM      5  C   UNL     1       2.729  -0.584  39.388  1.00  0.00     0.000 C 
BRANCH   5   6
ATOM      6  C   UNL     1       3.016   0.051  38.020  1.00  0.00     0.000 C 
BRANCH   6   7
ATOM      7  C   UNL     1       4.352  -0.456  37.457  1.00  0.00     0.000 C 
BRANCH   7   8
ATOM      8  C   UNL     1       4.911   0.428  36.327  1.00  0.00     0.000 C 
BRANCH   8   9
ATOM      9  C   UNL     1       6.440   0.643  36.348  1.00  0.00     0.000 C 
BRANCH   9  10
ATOM     10  C   UNL     1       7.259  -0.390  35.554  1.00  0.00     0.000 C 
BRANCH  10  11
ATOM     11  C   UNL     1       8.759  -0.056  35.510  1.00  0.00     0.000 C 
BRANCH  11  12
ATOM     12  C   UNL     1       9.358  -0.189  34.095  1.00  0.00     0.000 C 
BRANCH  12  13
ATOM     13  C   UNL     1      10.422   0.867  33.732  1.00  0.00     0.006 C 
BRANCH  13  14
ATOM     14  C   UNL     1      11.083   1.503  34.965  1.00  0.00     0.053 C 
BRANCH  14  15
ATOM     15  C   UNL     1      12.487   1.005  35.127  1.00  0.00     0.041 C 
ATOM     16  O   UNL     1      13.309   1.643  35.840  1.00  0.00    -0.550 OA
ATOM     17  O   UNL     1      12.892  -0.154  34.475  1.00  0.00    -0.550 OA
ENDBRANCH  14  15
ENDBRANCH  13  14
ENDBRANCH  12  13
ENDBRANCH  11  12
ENDBRANCH  10  11
ENDBRANCH   9  10
ENDBRANCH   8   9
ENDBRANCH   7   8
ENDBRANCH   6   7
ENDBRANCH   5   6
ENDBRANCH   4   5
ENDBRANCH   3   4
ENDBRANCH   2   3
ENDBRANCH   1   2
BRANCH   1  18
ATOM     18  C   UNL     1       3.860  -3.872  36.074  1.00  0.00     0.000 C 
BRANCH  18  19
ATOM     19  C   UNL     1       5.283  -3.535  36.541  1.00  0.00     0.000 C 
BRANCH  19  20
ATOM     20  C   UNL     1       6.321  -3.965  35.493  1.00  0.00     0.000 C 
BRANCH  20  21
ATOM     21  C   UNL     1       5.677  -4.426  34.175  1.00  0.00     0.000 C 
BRANCH  21  22
ATOM     22  C   UNL     1       6.253  -5.761  33.672  1.00  0.00     0.000 C 
BRANCH  22  23
ATOM     23  C   UNL     1       6.846  -6.621  34.802  1.00  0.00     0.000 C 
BRANCH  23  24
ATOM     24  C   UNL     1       6.187  -8.000  34.994  1.00  0.00    -0.000 C 
BRANCH  24  25
ATOM     25  C   UNL     1       5.854  -8.304  36.465  1.00  0.00    -0.000 C 
BRANCH  25  26
ATOM     26  C   UNL     1       4.949  -7.235  37.101  1.00  0.00    -0.000 C 
BRANCH  26  27
ATOM     27  C   UNL     1       3.786  -7.841  37.907  1.00  0.00    -0.000 C 
BRANCH  27  28
ATOM     28  C   UNL     1       2.620  -8.300  37.015  1.00  0.00    -0.000 C 
BRANCH  28  29
ATOM     29  C   UNL     1       1.612  -7.171  36.733  1.00  0.00    -0.000 C 
BRANCH  29  30
ATOM     30  C   UNL     1       1.378  -6.944  35.228  1.00  0.00    -0.000 C 
BRANCH  30  31
ATOM     31  C   UNL     1       2.660  -6.860  34.379  1.00  0.00    -0.003 C 
ATOM     32  C   UNL     1       2.823  -8.043  33.425  1.00  0.00     0.004 C 
ENDBRANCH  30  31
ENDBRANCH  29  30
ENDBRANCH  28  29
ENDBRANCH  27  28
ENDBRANCH  26  27
ENDBRANCH  25  26
ENDBRANCH  24  25
ENDBRANCH  23  24
ENDBRANCH  22  23
ENDBRANCH  21  22
ENDBRANCH  20  21
ENDBRANCH  19  20
ENDBRANCH  18  19
ENDBRANCH   1  18
TORSDOF 28
ENDMDL
MODEL 5
REMARK VINA RESULT:    -5.444      1.090      2.092
REMARK INTER + INTRA:         -18.010
REMARK INTER:                 -14.454
REMARK INTRA:                  -3.556
REMARK UNBOUND:                -3.654
REMARK SMILES CCCCCCCCCCCCCCCCCCCCCCCCCCCCCC(=O)[O-]
REMARK SMILES IDX 16 1 17 2 18 3 19 4 20 5 21 6 22 7 23 8 24 9 25 10 26 11
REMARK SMILES IDX 27 12 28 13 29 14 30 15 31 16 32 17 15 18 14 19 13 20 12 21
REMARK SMILES IDX 11 22 10 23 9 24 8 25 7 26 6 27 5 28 4 29 3 30 2 31 1 32
REMARK H PARENT
REMARK Flexibility Score: inf
ROOT
ATOM      1  C   UNL     1       5.689  -4.848  33.146  1.00  0.00     0.000 C 
ENDROOT
BRANCH   1   2
ATOM      2  C   UNL     1       6.024  -6.335  32.905  1.00  0.00     0.000 C 
BRANCH   2   3
ATOM      3  C   UNL     1       6.854  -7.004  34.021  1.00  0.00     0.000 C 
BRANCH   3   4
ATOM      4  C   UNL     1       6.045  -7.878  35.003  1.00  0.00     0.000 C 
BRANCH   4   5
ATOM      5  C   UNL     1       5.812  -7.256  36.391  1.00  0.00     0.000 C 
BRANCH   5   6
ATOM      6  C   UNL     1       4.333  -6.962  36.676  1.00  0.00     0.000 C 
BRANCH   6   7
ATOM      7  C   UNL     1       3.902  -7.592  38.009  1.00  0.00     0.000 C 
BRANCH   7   8
ATOM      8  C   UNL     1       2.710  -6.871  38.667  1.00  0.00     0.000 C 
BRANCH   8   9
ATOM      9  C   UNL     1       2.428  -5.446  38.144  1.00  0.00     0.000 C 
BRANCH   9  10
ATOM     10  C   UNL     1       3.314  -4.340  38.745  1.00  0.00     0.000 C 
BRANCH  10  11
ATOM     11  C   UNL     1       2.885  -2.929  38.309  1.00  0.00     0.000 C 
BRANCH  11  12
ATOM     12  C   UNL     1       2.885  -1.919  39.473  1.00  0.00     0.000 C 
BRANCH  12  13
ATOM     13  C   UNL     1       2.635  -2.526  40.868  1.00  0.00     0.006 C 
BRANCH  13  14
ATOM     14  C   UNL     1       1.195  -2.320  41.363  1.00  0.00     0.053 C 
BRANCH  14  15
ATOM     15  C   UNL     1       0.316  -3.446  40.909  1.00  0.00     0.041 C 
ATOM     16  O   UNL     1      -0.338  -3.349  39.835  1.00  0.00    -0.550 OA
ATOM     17  O   UNL     1       0.206  -4.596  41.684  1.00  0.00    -0.550 OA
ENDBRANCH  14  15
ENDBRANCH  13  14
ENDBRANCH  12  13
ENDBRANCH  11  12
ENDBRANCH  10  11
ENDBRANCH   9  10
ENDBRANCH   8   9
ENDBRANCH   7   8
ENDBRANCH   6   7
ENDBRANCH   5   6
ENDBRANCH   4   5
ENDBRANCH   3   4
ENDBRANCH   2   3
ENDBRANCH   1   2
BRANCH   1  18
ATOM     18  C   UNL     1       4.379  -4.592  33.913  1.00  0.00     0.000 C 
BRANCH  18  19
ATOM     19  C   UNL     1       4.583  -3.758  35.186  1.00  0.00     0.000 C 
BRANCH  19  20
ATOM     20  C   UNL     1       6.056  -3.777  35.625  1.00  0.00     0.000 C 
BRANCH  20  21
ATOM     21  C   UNL     1       6.476  -2.487  36.349  1.00  0.00     0.000 C 
BRANCH  21  22
ATOM     22  C   UNL     1       5.346  -1.445  36.401  1.00  0.00     0.000 C 
BRANCH  22  23
ATOM     23  C   UNL     1       5.851  -0.004  36.200  1.00  0.00     0.000 C 
BRANCH  23  24
ATOM     24  C   UNL     1       7.278   0.120  35.635  1.00  0.00    -0.000 C 
BRANCH  24  25
ATOM     25  C   UNL     1       8.129   1.160  36.384  1.00  0.00    -0.000 C 
BRANCH  25  26
ATOM     26  C   UNL     1       9.633   1.016  36.095  1.00  0.00    -0.000 C 
BRANCH  26  27
ATOM     27  C   UNL     1       9.920   0.184  34.832  1.00  0.00    -0.000 C 
BRANCH  27  28
ATOM     28  C   UNL     1      11.048   0.779  33.973  1.00  0.00    -0.000 C 
BRANCH  28  29
ATOM     29  C   UNL     1      12.444   0.315  34.427  1.00  0.00    -0.000 C 
BRANCH  29  30
ATOM     30  C   UNL     1      13.138   1.333  35.351  1.00  0.00    -0.000 C 
BRANCH  30  31
ATOM     31  C   UNL     1      13.252   2.757  34.777  1.00  0.00    -0.003 C 
ATOM     32  C   UNL     1      12.579   3.810  35.655  1.00  0.00     0.004 C 
ENDBRANCH  30  31
ENDBRANCH  29  30
ENDBRANCH  28  29
ENDBRANCH  27  28
ENDBRANCH  26  27
ENDBRANCH  25  26
ENDBRANCH  24  25
ENDBRANCH  23  24
ENDBRANCH  22  23
ENDBRANCH  21  22
ENDBRANCH  20  21
ENDBRANCH  19  20
ENDBRANCH  18  19
ENDBRANCH   1  18
TORSDOF 28
ENDMDL
MODEL 6
REMARK VINA RESULT:    -5.422      3.808      9.825
REMARK INTER + INTRA:         -17.950
REMARK INTER:                 -14.111
REMARK INTRA:                  -3.839
REMARK UNBOUND:                -3.654
REMARK SMILES CCCCCCCCCCCCCCCCCCCCCCCCCCCCCC(=O)[O-]
REMARK SMILES IDX 16 1 17 2 18 3 19 4 20 5 21 6 22 7 23 8 24 9 25 10 26 11
REMARK SMILES IDX 27 12 28 13 29 14 30 15 31 16 32 17 15 18 14 19 13 20 12 21
REMARK SMILES IDX 11 22 10 23 9 24 8 25 7 26 6 27 5 28 4 29 3 30 2 31 1 32
REMARK H PARENT
REMARK Flexibility Score: inf
ROOT
ATOM      1  C   UNL     1       2.381  -1.102  39.669  1.00  0.00     0.000 C 
ENDROOT
BRANCH   1   2
ATOM      2  C   UNL     1       2.818  -0.997  38.194  1.00  0.00     0.000 C 
BRANCH   2   3
ATOM      3  C   UNL     1       3.784  -2.103  37.719  1.00  0.00     0.000 C 
BRANCH   3   4
ATOM      4  C   UNL     1       4.883  -1.637  36.741  1.00  0.00     0.000 C 
BRANCH   4   5
ATOM      5  C   UNL     1       5.056  -0.112  36.632  1.00  0.00     0.000 C 
BRANCH   5   6
ATOM      6  C   UNL     1       6.415   0.298  36.046  1.00  0.00     0.000 C 
BRANCH   6   7
ATOM      7  C   UNL     1       7.218  -0.941  35.623  1.00  0.00     0.000 C 
BRANCH   7   8
ATOM      8  C   UNL     1       8.022  -0.732  34.326  1.00  0.00     0.000 C 
BRANCH   8   9
ATOM      9  C   UNL     1       8.235   0.739  33.908  1.00  0.00     0.000 C 
BRANCH   9  10
ATOM     10  C   UNL     1       9.662   1.278  34.109  1.00  0.00     0.000 C 
BRANCH  10  11
ATOM     11  C   UNL     1       9.871   1.908  35.497  1.00  0.00     0.000 C 
BRANCH  11  12
ATOM     12  C   UNL     1      10.972   1.202  36.313  1.00  0.00     0.000 C 
BRANCH  12  13
ATOM     13  C   UNL     1      12.359   1.158  35.641  1.00  0.00     0.006 C 
BRANCH  13  14
ATOM     14  C   UNL     1      13.152   2.463  35.813  1.00  0.00     0.053 C 
BRANCH  14  15
ATOM     15  C   UNL     1      12.876   3.400  34.677  1.00  0.00     0.041 C 
ATOM     16  O   UNL     1      13.140   3.058  33.492  1.00  0.00    -0.550 OA
ATOM     17  O   UNL     1      12.344   4.660  34.930  1.00  0.00    -0.550 OA
ENDBRANCH  14  15
ENDBRANCH  13  14
ENDBRANCH  12  13
ENDBRANCH  11  12
ENDBRANCH  10  11
ENDBRANCH   9  10
ENDBRANCH   8   9
ENDBRANCH   7   8
ENDBRANCH   6   7
ENDBRANCH   5   6
ENDBRANCH   4   5
ENDBRANCH   3   4
ENDBRANCH   2   3
ENDBRANCH   1   2
BRANCH   1  18
ATOM     18  C   UNL     1       2.921  -2.332  40.422  1.00  0.00     0.000 C 
BRANCH  18  19
ATOM     19  C   UNL     1       1.871  -2.988  41.331  1.00  0.00     0.000 C 
BRANCH  19  20
ATOM     20  C   UNL     1       0.532  -2.237  41.253  1.00  0.00     0.000 C 
BRANCH  20  21
ATOM     21  C   UNL     1      -0.520  -2.987  40.419  1.00  0.00     0.000 C 
BRANCH  21  22
ATOM     22  C   UNL     1      -0.078  -4.415  40.055  1.00  0.00     0.000 C 
BRANCH  22  23
ATOM     23  C   UNL     1       0.003  -4.648  38.536  1.00  0.00     0.000 C 
BRANCH  23  24
ATOM     24  C   UNL     1       1.427  -4.809  37.970  1.00  0.00    -0.000 C 
BRANCH  24  25
ATOM     25  C   UNL     1       2.357  -5.596  38.909  1.00  0.00    -0.000 C 
BRANCH  25  26
ATOM     26  C   UNL     1       3.605  -6.137  38.190  1.00  0.00    -0.000 C 
BRANCH  26  27
ATOM     27  C   UNL     1       3.654  -5.744  36.703  1.00  0.00    -0.000 C 
BRANCH  27  28
ATOM     28  C   UNL     1       5.069  -5.364  36.235  1.00  0.00    -0.000 C 
BRANCH  28  29
ATOM     29  C   UNL     1       5.075  -4.713  34.840  1.00  0.00    -0.000 C 
BRANCH  29  30
ATOM     30  C   UNL     1       3.657  -4.428  34.310  1.00  0.00    -0.000 C 
BRANCH  30  31
ATOM     31  C   UNL     1       3.429  -4.808  32.836  1.00  0.00    -0.003 C 
ATOM     32  C   UNL     1       1.961  -4.728  32.418  1.00  0.00     0.004 C 
ENDBRANCH  30  31
ENDBRANCH  29  30
ENDBRANCH  28  29
ENDBRANCH  27  28
ENDBRANCH  26  27
ENDBRANCH  25  26
ENDBRANCH  24  25
ENDBRANCH  23  24
ENDBRANCH  22  23
ENDBRANCH  21  22
ENDBRANCH  20  21
ENDBRANCH  19  20
ENDBRANCH  18  19
ENDBRANCH   1  18
TORSDOF 28
ENDMDL
MODEL 7
REMARK VINA RESULT:    -5.416      2.774      5.701
REMARK INTER + INTRA:         -17.937
REMARK INTER:                 -14.283
REMARK INTRA:                  -3.654
REMARK UNBOUND:                -3.654
REMARK SMILES CCCCCCCCCCCCCCCCCCCCCCCCCCCCCC(=O)[O-]
REMARK SMILES IDX 16 1 17 2 18 3 19 4 20 5 21 6 22 7 23 8 24 9 25 10 26 11
REMARK SMILES IDX 27 12 28 13 29 14 30 15 31 16 32 17 15 18 14 19 13 20 12 21
REMARK SMILES IDX 11 22 10 23 9 24 8 25 7 26 6 27 5 28 4 29 3 30 2 31 1 32
REMARK H PARENT
REMARK Flexibility Score: inf
ROOT
ATOM      1  C   UNL     1       2.686  -0.871  39.789  1.00  0.00     0.000 C 
ENDROOT
BRANCH   1   2
ATOM      2  C   UNL     1       2.815  -2.245  40.478  1.00  0.00     0.000 C 
BRANCH   2   3
ATOM      3  C   UNL     1       1.626  -2.635  41.382  1.00  0.00     0.000 C 
BRANCH   3   4
ATOM      4  C   UNL     1       0.231  -2.313  40.804  1.00  0.00     0.000 C 
BRANCH   4   5
ATOM      5  C   UNL     1      -0.448  -3.472  40.053  1.00  0.00     0.000 C 
BRANCH   5   6
ATOM      6  C   UNL     1      -0.384  -3.317  38.527  1.00  0.00     0.000 C 
BRANCH   6   7
ATOM      7  C   UNL     1       0.851  -4.033  37.960  1.00  0.00     0.000 C 
BRANCH   7   8
ATOM      8  C   UNL     1       1.218  -5.315  38.731  1.00  0.00     0.000 C 
BRANCH   8   9
ATOM      9  C   UNL     1       2.730  -5.554  38.939  1.00  0.00     0.000 C 
BRANCH   9  10
ATOM     10  C   UNL     1       3.444  -6.275  37.781  1.00  0.00     0.000 C 
BRANCH  10  11
ATOM     11  C   UNL     1       4.480  -5.386  37.074  1.00  0.00     0.000 C 
BRANCH  11  12
ATOM     12  C   UNL     1       5.056  -6.037  35.801  1.00  0.00     0.000 C 
BRANCH  12  13
ATOM     13  C   UNL     1       6.324  -5.365  35.237  1.00  0.00     0.006 C 
BRANCH  13  14
ATOM     14  C   UNL     1       6.013  -4.174  34.317  1.00  0.00     0.053 C 
BRANCH  14  15
ATOM     15  C   UNL     1       5.120  -4.596  33.190  1.00  0.00     0.041 C 
ATOM     16  O   UNL     1       5.616  -5.040  32.119  1.00  0.00    -0.550 OA
ATOM     17  O   UNL     1       3.740  -4.483  33.319  1.00  0.00    -0.550 OA
ENDBRANCH  14  15
ENDBRANCH  13  14
ENDBRANCH  12  13
ENDBRANCH  11  12
ENDBRANCH  10  11
ENDBRANCH   9  10
ENDBRANCH   8   9
ENDBRANCH   7   8
ENDBRANCH   6   7
ENDBRANCH   5   6
ENDBRANCH   4   5
ENDBRANCH   3   4
ENDBRANCH   2   3
ENDBRANCH   1   2
BRANCH   1  18
ATOM     18  C   UNL     1       2.951  -0.876  38.272  1.00  0.00     0.000 C 
BRANCH  18  19
ATOM     19  C   UNL     1       3.858  -2.031  37.825  1.00  0.00     0.000 C 
BRANCH  19  20
ATOM     20  C   UNL     1       4.799  -1.585  36.694  1.00  0.00     0.000 C 
BRANCH  20  21
ATOM     21  C   UNL     1       4.927  -0.056  36.599  1.00  0.00     0.000 C 
BRANCH  21  22
ATOM     22  C   UNL     1       6.331   0.393  36.161  1.00  0.00     0.000 C 
BRANCH  22  23
ATOM     23  C   UNL     1       7.144  -0.738  35.506  1.00  0.00     0.000 C 
BRANCH  23  24
ATOM     24  C   UNL     1       7.982  -0.323  34.282  1.00  0.00    -0.000 C 
BRANCH  24  25
ATOM     25  C   UNL     1       8.676   1.037  34.467  1.00  0.00    -0.000 C 
BRANCH  25  26
ATOM     26  C   UNL     1      10.044   1.105  33.768  1.00  0.00    -0.000 C 
BRANCH  26  27
ATOM     27  C   UNL     1      11.000  -0.014  34.219  1.00  0.00    -0.000 C 
BRANCH  27  28
ATOM     28  C   UNL     1      12.449   0.473  34.389  1.00  0.00    -0.000 C 
BRANCH  28  29
ATOM     29  C   UNL     1      12.614   1.429  35.584  1.00  0.00    -0.000 C 
BRANCH  29  30
ATOM     30  C   UNL     1      13.325   2.742  35.203  1.00  0.00    -0.000 C 
BRANCH  30  31
ATOM     31  C   UNL     1      12.441   4.000  35.273  1.00  0.00    -0.003 C 
ATOM     32  C   UNL     1      12.040   4.526  33.895  1.00  0.00     0.004 C 
ENDBRANCH  30  31
ENDBRANCH  29  30
ENDBRANCH  28  29
ENDBRANCH  27  28
ENDBRANCH  26  27
ENDBRANCH  25  26
ENDBRANCH  24  25
ENDBRANCH  23  24
ENDBRANCH  22  23
ENDBRANCH  21  22
ENDBRANCH  20  21
ENDBRANCH  19  20
ENDBRANCH  18  19
ENDBRANCH   1  18
TORSDOF 28
ENDMDL
MODEL 8
REMARK VINA RESULT:    -5.397      3.393      8.523
REMARK INTER + INTRA:         -17.886
REMARK INTER:                 -13.807
REMARK INTRA:                  -4.079
REMARK UNBOUND:                -3.654
REMARK SMILES CCCCCCCCCCCCCCCCCCCCCCCCCCCCCC(=O)[O-]
REMARK SMILES IDX 16 1 17 2 18 3 19 4 20 5 21 6 22 7 23 8 24 9 25 10 26 11
REMARK SMILES IDX 27 12 28 13 29 14 30 15 31 16 32 17 15 18 14 19 13 20 12 21
REMARK SMILES IDX 11 22 10 23 9 24 8 25 7 26 6 27 5 28 4 29 3 30 2 31 1 32
REMARK H PARENT
REMARK Flexibility Score: inf
ROOT
ATOM      1  C   UNL     1       1.499  -4.749  33.266  1.00  0.00     0.000 C 
ENDROOT
BRANCH   1   2
ATOM      2  C   UNL     1       2.910  -4.775  32.643  1.00  0.00     0.000 C 
BRANCH   2   3
ATOM      3  C   UNL     1       4.065  -4.950  33.652  1.00  0.00     0.000 C 
BRANCH   3   4
ATOM      4  C   UNL     1       5.465  -4.587  33.114  1.00  0.00     0.000 C 
BRANCH   4   5
ATOM      5  C   UNL     1       6.378  -3.854  34.113  1.00  0.00     0.000 C 
BRANCH   5   6
ATOM      6  C   UNL     1       5.926  -4.017  35.571  1.00  0.00     0.000 C 
BRANCH   6   7
ATOM      7  C   UNL     1       6.297  -2.776  36.396  1.00  0.00     0.000 C 
BRANCH   7   8
ATOM      8  C   UNL     1       5.194  -1.701  36.408  1.00  0.00     0.000 C 
BRANCH   8   9
ATOM      9  C   UNL     1       5.691  -0.240  36.332  1.00  0.00     0.000 C 
BRANCH   9  10
ATOM     10  C   UNL     1       7.103  -0.059  35.747  1.00  0.00     0.000 C 
BRANCH  10  11
ATOM     11  C   UNL     1       7.853   1.136  36.360  1.00  0.00     0.000 C 
BRANCH  11  12
ATOM     12  C   UNL     1       9.110   1.527  35.557  1.00  0.00     0.000 C 
BRANCH  12  13
ATOM     13  C   UNL     1      10.448   1.058  36.164  1.00  0.00     0.006 C 
BRANCH  13  14
ATOM     14  C   UNL     1      11.659   1.397  35.281  1.00  0.00     0.053 C 
BRANCH  14  15
ATOM     15  C   UNL     1      11.674   2.857  34.944  1.00  0.00     0.041 C 
ATOM     16  O   UNL     1      11.533   3.234  33.749  1.00  0.00    -0.550 OA
ATOM     17  O   UNL     1      11.860   3.800  35.949  1.00  0.00    -0.550 OA
ENDBRANCH  14  15
ENDBRANCH  13  14
ENDBRANCH  12  13
ENDBRANCH  11  12
ENDBRANCH  10  11
ENDBRANCH   9  10
ENDBRANCH   8   9
ENDBRANCH   7   8
ENDBRANCH   6   7
ENDBRANCH   5   6
ENDBRANCH   4   5
ENDBRANCH   3   4
ENDBRANCH   2   3
ENDBRANCH   1   2
BRANCH   1  18
ATOM     18  C   UNL     1       1.467  -4.673  34.803  1.00  0.00     0.000 C 
BRANCH  18  19
ATOM     19  C   UNL     1       0.148  -4.106  35.348  1.00  0.00     0.000 C 
BRANCH  19  20
ATOM     20  C   UNL     1       0.324  -3.590  36.785  1.00  0.00     0.000 C 
BRANCH  20  21
ATOM     21  C   UNL     1      -0.254  -2.178  36.983  1.00  0.00     0.000 C 
BRANCH  21  22
ATOM     22  C   UNL     1       0.369  -1.448  38.184  1.00  0.00     0.000 C 
BRANCH  22  23
ATOM     23  C   UNL     1       1.703  -0.760  37.841  1.00  0.00     0.000 C 
BRANCH  23  24
ATOM     24  C   UNL     1       2.721  -0.684  38.995  1.00  0.00    -0.000 C 
BRANCH  24  25
ATOM     25  C   UNL     1       2.292  -1.504  40.224  1.00  0.00    -0.000 C 
BRANCH  25  26
ATOM     26  C   UNL     1       3.126  -2.784  40.403  1.00  0.00    -0.000 C 
BRANCH  26  27
ATOM     27  C   UNL     1       2.574  -3.973  39.593  1.00  0.00    -0.000 C 
BRANCH  27  28
ATOM     28  C   UNL     1       3.516  -4.406  38.457  1.00  0.00    -0.000 C 
BRANCH  28  29
ATOM     29  C   UNL     1       3.205  -5.822  37.940  1.00  0.00    -0.000 C 
BRANCH  29  30
ATOM     30  C   UNL     1       4.463  -6.569  37.459  1.00  0.00    -0.000 C 
BRANCH  30  31
ATOM     31  C   UNL     1       4.279  -7.379  36.163  1.00  0.00    -0.003 C 
ATOM     32  C   UNL     1       5.601  -7.847  35.557  1.00  0.00     0.004 C 
ENDBRANCH  30  31
ENDBRANCH  29  30
ENDBRANCH  28  29
ENDBRANCH  27  28
ENDBRANCH  26  27
ENDBRANCH  25  26
ENDBRANCH  24  25
ENDBRANCH  23  24
ENDBRANCH  22  23
ENDBRANCH  21  22
ENDBRANCH  20  21
ENDBRANCH  19  20
ENDBRANCH  18  19
ENDBRANCH   1  18
TORSDOF 28
ENDMDL
MODEL 9
REMARK VINA RESULT:    -5.317      3.889      9.788
REMARK INTER + INTRA:         -17.674
REMARK INTER:                 -13.477
REMARK INTRA:                  -4.197
REMARK UNBOUND:                -3.654
REMARK SMILES CCCCCCCCCCCCCCCCCCCCCCCCCCCCCC(=O)[O-]
REMARK SMILES IDX 16 1 17 2 18 3 19 4 20 5 21 6 22 7 23 8 24 9 25 10 26 11
REMARK SMILES IDX 27 12 28 13 29 14 30 15 31 16 32 17 15 18 14 19 13 20 12 21
REMARK SMILES IDX 11 22 10 23 9 24 8 25 7 26 6 27 5 28 4 29 3 30 2 31 1 32
REMARK H PARENT
REMARK Flexibility Score: inf
ROOT
ATOM      1  C   UNL     1       2.722  -2.108  38.399  1.00  0.00     0.000 C 
ENDROOT
BRANCH   1   2
ATOM      2  C   UNL     1       3.486  -3.333  38.943  1.00  0.00     0.000 C 
BRANCH   2   3
ATOM      3  C   UNL     1       4.206  -4.181  37.873  1.00  0.00     0.000 C 
BRANCH   3   4
ATOM      4  C   UNL     1       4.476  -3.456  36.537  1.00  0.00     0.000 C 
BRANCH   4   5
ATOM      5  C   UNL     1       5.870  -3.699  35.932  1.00  0.00     0.000 C 
BRANCH   5   6
ATOM      6  C   UNL     1       6.754  -2.444  35.938  1.00  0.00     0.000 C 
BRANCH   6   7
ATOM      7  C   UNL     1       5.930  -1.203  36.313  1.00  0.00     0.000 C 
BRANCH   7   8
ATOM      8  C   UNL     1       6.628   0.123  35.953  1.00  0.00     0.000 C 
BRANCH   8   9
ATOM      9  C   UNL     1       8.122   0.005  35.579  1.00  0.00     0.000 C 
BRANCH   9  10
ATOM     10  C   UNL     1       9.041   1.064  36.214  1.00  0.00     0.000 C 
BRANCH  10  11
ATOM     11  C   UNL     1       9.739   1.951  35.170  1.00  0.00     0.000 C 
BRANCH  11  12
ATOM     12  C   UNL     1      10.414   1.134  34.050  1.00  0.00     0.000 C 
BRANCH  12  13
ATOM     13  C   UNL     1      11.760   0.487  34.432  1.00  0.00     0.006 C 
BRANCH  13  14
ATOM     14  C   UNL     1      12.634   1.392  35.314  1.00  0.00     0.053 C 
BRANCH  14  15
ATOM     15  C   UNL     1      13.220   2.509  34.505  1.00  0.00     0.041 C 
ATOM     16  O   UNL     1      13.104   3.704  34.893  1.00  0.00    -0.550 OA
ATOM     17  O   UNL     1      13.881   2.230  33.313  1.00  0.00    -0.550 OA
ENDBRANCH  14  15
ENDBRANCH  13  14
ENDBRANCH  12  13
ENDBRANCH  11  12
ENDBRANCH  10  11
ENDBRANCH   9  10
ENDBRANCH   8   9
ENDBRANCH   7   8
ENDBRANCH   6   7
ENDBRANCH   5   6
ENDBRANCH   4   5
ENDBRANCH   3   4
ENDBRANCH   2   3
ENDBRANCH   1   2
BRANCH   1  18
ATOM     18  C   UNL     1       2.105  -1.195  39.475  1.00  0.00     0.000 C 
BRANCH  18  19
ATOM     19  C   UNL     1       2.653  -1.472  40.882  1.00  0.00     0.000 C 
BRANCH  19  20
ATOM     20  C   UNL     1       1.753  -2.464  41.636  1.00  0.00     0.000 C 
BRANCH  20  21
ATOM     21  C   UNL     1       0.271  -2.332  41.249  1.00  0.00     0.000 C 
BRANCH  21  22
ATOM     22  C   UNL     1      -0.342  -3.667  40.792  1.00  0.00     0.000 C 
BRANCH  22  23
ATOM     23  C   UNL     1       0.646  -4.843  40.892  1.00  0.00     0.000 C 
BRANCH  23  24
ATOM     24  C   UNL     1       0.778  -5.701  39.619  1.00  0.00    -0.000 C 
BRANCH  24  25
ATOM     25  C   UNL     1       0.217  -5.003  38.368  1.00  0.00    -0.000 C 
BRANCH  25  26
ATOM     26  C   UNL     1       0.834  -5.538  37.064  1.00  0.00    -0.000 C 
BRANCH  26  27
ATOM     27  C   UNL     1       0.979  -4.452  35.983  1.00  0.00    -0.000 C 
BRANCH  27  28
ATOM     28  C   UNL     1       1.709  -4.957  34.727  1.00  0.00    -0.000 C 
BRANCH  28  29
ATOM     29  C   UNL     1       2.550  -6.217  34.999  1.00  0.00    -0.000 C 
BRANCH  29  30
ATOM     30  C   UNL     1       3.826  -6.277  34.139  1.00  0.00    -0.000 C 
BRANCH  30  31
ATOM     31  C   UNL     1       3.790  -5.414  32.865  1.00  0.00    -0.003 C 
ATOM     32  C   UNL     1       5.087  -4.641  32.630  1.00  0.00     0.004 C 
ENDBRANCH  30  31
ENDBRANCH  29  30
ENDBRANCH  28  29
ENDBRANCH  27  28
ENDBRANCH  26  27
ENDBRANCH  25  26
ENDBRANCH  24  25
ENDBRANCH  23  24
ENDBRANCH  22  23
ENDBRANCH  21  22
ENDBRANCH  20  21
ENDBRANCH  19  20
ENDBRANCH  18  19
ENDBRANCH   1  18
TORSDOF 28
ENDMDL
