MODEL 1
REMARK VINA RESULT:    -5.464      0.000      0.000
REMARK INTER + INTRA:         -13.030
REMARK INTER:                 -10.255
REMARK INTRA:                  -2.775
REMARK UNBOUND:                -2.775
REMARK SMILES CCCCCCCCC=CCCCCCCCC(=O)[O-]
REMARK SMILES IDX 10 1 9 2 11 3 12 4 13 5 14 6 15 7 16 8 17 9 18 10 19 11
REMARK SMILES IDX 20 12 8 13 7 14 6 15 5 16 4 17 3 18 2 19 1 20
REMARK H PARENT
REMARK Flexibility Score: inf
ROOT
ATOM      1  C   UNL     1       2.874   4.617  20.009  1.00  0.00    -0.031 C 
ATOM      2  C   UNL     1       2.032   4.123  19.084  1.00  0.00    -0.031 C 
ENDROOT
BRANCH   1   3
ATOM      3  C   UNL     1       2.633   5.873  20.810  1.00  0.00     0.027 C 
BRANCH   3   4
ATOM      4  C   UNL     1       3.567   5.973  22.028  1.00  0.00     0.004 C 
BRANCH   4   5
ATOM      5  C   UNL     1       4.645   7.071  21.920  1.00  0.00     0.000 C 
BRANCH   5   6
ATOM      6  C   UNL     1       5.752   7.007  22.987  1.00  0.00     0.000 C 
BRANCH   6   7
ATOM      7  C   UNL     1       7.149   7.294  22.419  1.00  0.00     0.000 C 
BRANCH   7   8
ATOM      8  C   UNL     1       7.074   7.658  20.932  1.00  0.00     0.006 C 
BRANCH   8   9
ATOM      9  C   UNL     1       7.595   9.077  20.685  1.00  0.00     0.053 C 
BRANCH   9  10
ATOM     10  C   UNL     1       6.502   9.952  20.159  1.00  0.00     0.041 C 
ATOM     11  O   UNL     1       5.585  10.351  20.924  1.00  0.00    -0.550 OA
ATOM     12  O   UNL     1       6.523  10.370  18.834  1.00  0.00    -0.550 OA
ENDBRANCH   9  10
ENDBRANCH   8   9
ENDBRANCH   7   8
ENDBRANCH   6   7
ENDBRANCH   5   6
ENDBRANCH   4   5
ENDBRANCH   3   4
ENDBRANCH   1   3
BRANCH   2  13
ATOM     13  C   UNL     1       0.668   4.692  18.773  1.00  0.00     0.027 C 
BRANCH  13  14
ATOM     14  C   UNL     1       0.704   5.641  17.566  1.00  0.00     0.004 C 
BRANCH  14  15
ATOM     15  C   UNL     1       0.082   7.010  17.886  1.00  0.00     0.000 C 
BRANCH  15  16
ATOM     16  C   UNL     1       1.135   8.116  18.071  1.00  0.00     0.000 C 
BRANCH  16  17
ATOM     17  C   UNL     1       2.503   7.835  17.418  1.00  0.00    -0.000 C 
BRANCH  17  18
ATOM     18  C   UNL     1       3.723   8.114  18.313  1.00  0.00    -0.000 C 
BRANCH  18  19
ATOM     19  C   UNL     1       4.936   7.244  17.955  1.00  0.00    -0.003 C 
ATOM     20  C   UNL     1       4.519   6.039  17.117  1.00  0.00     0.004 C 
ENDBRANCH  18  19
ENDBRANCH  17  18
ENDBRANCH  16  17
ENDBRANCH  15  16
ENDBRANCH  14  15
ENDBRANCH  13  14
ENDBRANCH   2  13
TORSDOF 15
ENDMDL
MODEL 2
REMARK VINA RESULT:    -5.463      2.521      5.575
REMARK INTER + INTRA:         -13.029
REMARK INTER:                 -10.340
REMARK INTRA:                  -2.690
REMARK UNBOUND:                -2.775
REMARK SMILES CCCCCCCCC=CCCCCCCCC(=O)[O-]
REMARK SMILES IDX 10 1 9 2 11 3 12 4 13 5 14 6 15 7 16 8 17 9 18 10 19 11
REMARK SMILES IDX 20 12 8 13 7 14 6 15 5 16 4 17 3 18 2 19 1 20
REMARK H PARENT
REMARK Flexibility Score: inf
ROOT
ATOM      1  C   UNL     1       7.174   8.436  21.788  1.00  0.00    -0.031 C 
ATOM      2  C   UNL     1       7.727   8.707  20.592  1.00  0.00    -0.031 C 
ENDROOT
BRANCH   1   3
ATOM      3  C   UNL     1       6.886   7.049  22.309  1.00  0.00     0.027 C 
BRANCH   3   4
ATOM      4  C   UNL     1       5.617   7.008  23.177  1.00  0.00     0.004 C 
BRANCH   4   5
ATOM      5  C   UNL     1       4.321   7.396  22.437  1.00  0.00     0.000 C 
BRANCH   5   6
ATOM      6  C   UNL     1       3.391   6.220  22.086  1.00  0.00     0.000 C 
BRANCH   6   7
ATOM      7  C   UNL     1       3.053   6.149  20.590  1.00  0.00     0.000 C 
BRANCH   7   8
ATOM      8  C   UNL     1       2.835   4.699  20.144  1.00  0.00     0.006 C 
BRANCH   8   9
ATOM      9  C   UNL     1       1.433   4.508  19.557  1.00  0.00     0.053 C 
BRANCH   9  10
ATOM     10  C   UNL     1       1.181   5.503  18.469  1.00  0.00     0.041 C 
ATOM     11  O   UNL     1       1.895   5.504  17.432  1.00  0.00    -0.550 OA
ATOM     12  O   UNL     1       0.124   6.397  18.576  1.00  0.00    -0.550 OA
ENDBRANCH   9  10
ENDBRANCH   8   9
ENDBRANCH   7   8
ENDBRANCH   6   7
ENDBRANCH   5   6
ENDBRANCH   4   5
ENDBRANCH   3   4
ENDBRANCH   1   3
BRANCH   2  13
ATOM     13  C   UNL     1       8.238   7.665  19.627  1.00  0.00     0.027 C 
BRANCH  13  14
ATOM     14  C   UNL     1       7.420   7.638  18.327  1.00  0.00     0.004 C 
BRANCH  14  15
ATOM     15  C   UNL     1       6.145   6.789  18.462  1.00  0.00     0.000 C 
BRANCH  15  16
ATOM     16  C   UNL     1       4.910   7.462  17.838  1.00  0.00     0.000 C 
BRANCH  16  17
ATOM     17  C   UNL     1       4.847   8.995  17.997  1.00  0.00    -0.000 C 
BRANCH  17  18
ATOM     18  C   UNL     1       4.309   9.489  19.351  1.00  0.00    -0.000 C 
BRANCH  18  19
ATOM     19  C   UNL     1       4.888  10.852  19.760  1.00  0.00    -0.003 C 
ATOM     20  C   UNL     1       5.937  11.326  18.760  1.00  0.00     0.004 C 
ENDBRANCH  18  19
ENDBRANCH  17  18
ENDBRANCH  16  17
ENDBRANCH  15  16
ENDBRANCH  14  15
ENDBRANCH  13  14
ENDBRANCH   2  13
TORSDOF 15
ENDMDL
MODEL 3
REMARK VINA RESULT:    -5.394      1.634      4.650
REMARK INTER + INTRA:         -12.899
REMARK INTER:                 -10.545
REMARK INTRA:                  -2.354
REMARK UNBOUND:                -2.775
REMARK SMILES CCCCCCCCC=CCCCCCCCC(=O)[O-]
REMARK SMILES IDX 10 1 9 2 11 3 12 4 13 5 14 6 15 7 16 8 17 9 18 10 19 11
REMARK SMILES IDX 20 12 8 13 7 14 6 15 5 16 4 17 3 18 2 19 1 20
REMARK H PARENT
REMARK Flexibility Score: inf
ROOT
ATOM      1  C   UNL     1       7.163   7.484  21.986  1.00  0.00    -0.031 C 
ATOM      2  C   UNL     1       6.105   7.006  22.666  1.00  0.00    -0.031 C 
ENDROOT
BRANCH   1   3
ATOM      3  C   UNL     1       7.075   8.304  20.722  1.00  0.00     0.027 C 
BRANCH   3   4
ATOM      4  C   UNL     1       7.935   7.717  19.589  1.00  0.00     0.004 C 
BRANCH   4   5
ATOM      5  C   UNL     1       7.130   7.080  18.438  1.00  0.00     0.000 C 
BRANCH   5   6
ATOM      6  C   UNL     1       5.606   7.035  18.653  1.00  0.00     0.000 C 
BRANCH   6   7
ATOM      7  C   UNL     1       4.854   8.090  17.829  1.00  0.00     0.000 C 
BRANCH   7   8
ATOM      8  C   UNL     1       3.990   8.978  18.731  1.00  0.00     0.006 C 
BRANCH   8   9
ATOM      9  C   UNL     1       3.084   9.891  17.900  1.00  0.00     0.053 C 
BRANCH   9  10
ATOM     10  C   UNL     1       3.587  11.299  17.931  1.00  0.00     0.041 C 
ATOM     11  O   UNL     1       3.015  12.161  18.649  1.00  0.00    -0.550 OA
ATOM     12  O   UNL     1       4.718  11.649  17.205  1.00  0.00    -0.550 OA
ENDBRANCH   9  10
ENDBRANCH   8   9
ENDBRANCH   7   8
ENDBRANCH   6   7
ENDBRANCH   5   6
ENDBRANCH   4   5
ENDBRANCH   3   4
ENDBRANCH   1   3
BRANCH   2  13
ATOM     13  C   UNL     1       4.663   7.301  22.328  1.00  0.00     0.027 C 
BRANCH  13  14
ATOM     14  C   UNL     1       3.852   6.016  22.108  1.00  0.00     0.004 C 
BRANCH  14  15
ATOM     15  C   UNL     1       3.045   6.056  20.800  1.00  0.00     0.000 C 
BRANCH  15  16
ATOM     16  C   UNL     1       2.447   4.690  20.424  1.00  0.00     0.000 C 
BRANCH  16  17
ATOM     17  C   UNL     1       1.583   4.680  19.146  1.00  0.00    -0.000 C 
BRANCH  17  18
ATOM     18  C   UNL     1       2.123   5.537  17.987  1.00  0.00    -0.000 C 
BRANCH  18  19
ATOM     19  C   UNL     1       1.247   6.765  17.697  1.00  0.00    -0.003 C 
ATOM     20  C   UNL     1      -0.071   6.693  18.461  1.00  0.00     0.004 C 
ENDBRANCH  18  19
ENDBRANCH  17  18
ENDBRANCH  16  17
ENDBRANCH  15  16
ENDBRANCH  14  15
ENDBRANCH  13  14
ENDBRANCH   2  13
TORSDOF 15
ENDMDL
MODEL 4
REMARK VINA RESULT:    -5.372      1.810      4.891
REMARK INTER + INTRA:         -12.858
REMARK INTER:                 -10.681
REMARK INTRA:                  -2.177
REMARK UNBOUND:                -2.775
REMARK SMILES CCCCCCCCC=CCCCCCCCC(=O)[O-]
REMARK SMILES IDX 10 1 9 2 11 3 12 4 13 5 14 6 15 7 16 8 17 9 18 10 19 11
REMARK SMILES IDX 20 12 8 13 7 14 6 15 5 16 4 17 3 18 2 19 1 20
REMARK H PARENT
REMARK Flexibility Score: inf
ROOT
ATOM      1  C   UNL     1       6.507   7.382  23.073  1.00  0.00    -0.031 C 
ATOM      2  C   UNL     1       5.278   6.925  23.371  1.00  0.00    -0.031 C 
ENDROOT
BRANCH   1   3
ATOM      3  C   UNL     1       6.840   8.240  21.877  1.00  0.00     0.027 C 
BRANCH   3   4
ATOM      4  C   UNL     1       7.351   7.407  20.689  1.00  0.00     0.004 C 
BRANCH   4   5
ATOM      5  C   UNL     1       6.697   7.752  19.336  1.00  0.00     0.000 C 
BRANCH   5   6
ATOM      6  C   UNL     1       7.223   6.949  18.132  1.00  0.00     0.000 C 
BRANCH   6   7
ATOM      7  C   UNL     1       6.129   6.124  17.439  1.00  0.00     0.000 C 
BRANCH   7   8
ATOM      8  C   UNL     1       5.591   6.852  16.202  1.00  0.00     0.006 C 
BRANCH   8   9
ATOM      9  C   UNL     1       4.069   7.008  16.273  1.00  0.00     0.053 C 
BRANCH   9  10
ATOM     10  C   UNL     1       3.700   8.428  16.565  1.00  0.00     0.041 C 
ATOM     11  O   UNL     1       4.315   9.372  16.003  1.00  0.00    -0.550 OA
ATOM     12  O   UNL     1       2.643   8.709  17.422  1.00  0.00    -0.550 OA
ENDBRANCH   9  10
ENDBRANCH   8   9
ENDBRANCH   7   8
ENDBRANCH   6   7
ENDBRANCH   5   6
ENDBRANCH   4   5
ENDBRANCH   3   4
ENDBRANCH   1   3
BRANCH   2  13
ATOM     13  C   UNL     1       4.022   7.282  22.613  1.00  0.00     0.027 C 
BRANCH  13  14
ATOM     14  C   UNL     1       3.509   6.107  21.767  1.00  0.00     0.004 C 
BRANCH  14  15
ATOM     15  C   UNL     1       3.515   6.431  20.263  1.00  0.00     0.000 C 
BRANCH  15  16
ATOM     16  C   UNL     1       3.225   5.200  19.386  1.00  0.00     0.000 C 
BRANCH  16  17
ATOM     17  C   UNL     1       1.971   4.394  19.781  1.00  0.00    -0.000 C 
BRANCH  17  18
ATOM     18  C   UNL     1       0.824   4.427  18.756  1.00  0.00    -0.000 C 
BRANCH  18  19
ATOM     19  C   UNL     1       0.843   5.689  17.881  1.00  0.00    -0.003 C 
ATOM     20  C   UNL     1      -0.085   6.762  18.442  1.00  0.00     0.004 C 
ENDBRANCH  18  19
ENDBRANCH  17  18
ENDBRANCH  16  17
ENDBRANCH  15  16
ENDBRANCH  14  15
ENDBRANCH  13  14
ENDBRANCH   2  13
TORSDOF 15
ENDMDL
MODEL 5
REMARK VINA RESULT:    -5.349      1.884      5.178
REMARK INTER + INTRA:         -12.815
REMARK INTER:                 -10.222
REMARK INTRA:                  -2.593
REMARK UNBOUND:                -2.775
REMARK SMILES CCCCCCCCC=CCCCCCCCC(=O)[O-]
REMARK SMILES IDX 10 1 9 2 11 3 12 4 13 5 14 6 15 7 16 8 17 9 18 10 19 11
REMARK SMILES IDX 20 12 8 13 7 14 6 15 5 16 4 17 3 18 2 19 1 20
REMARK H PARENT
REMARK Flexibility Score: inf
ROOT
ATOM      1  C   UNL     1       7.703   8.532  20.654  1.00  0.00    -0.031 C 
ATOM      2  C   UNL     1       7.201   8.360  21.889  1.00  0.00    -0.031 C 
ENDROOT
BRANCH   1   3
ATOM      3  C   UNL     1       8.116   7.413  19.729  1.00  0.00     0.027 C 
BRANCH   3   4
ATOM      4  C   UNL     1       7.231   7.342  18.473  1.00  0.00     0.004 C 
BRANCH   4   5
ATOM      5  C   UNL     1       5.740   7.066  18.754  1.00  0.00     0.000 C 
BRANCH   5   6
ATOM      6  C   UNL     1       4.754   8.000  18.029  1.00  0.00     0.000 C 
BRANCH   6   7
ATOM      7  C   UNL     1       3.990   8.925  18.987  1.00  0.00     0.000 C 
BRANCH   7   8
ATOM      8  C   UNL     1       4.848  10.130  19.388  1.00  0.00     0.006 C 
BRANCH   8   9
ATOM      9  C   UNL     1       5.051  11.080  18.203  1.00  0.00     0.053 C 
BRANCH   9  10
ATOM     10  C   UNL     1       3.733  11.505  17.640  1.00  0.00     0.041 C 
ATOM     11  O   UNL     1       2.953  12.221  18.322  1.00  0.00    -0.550 OA
ATOM     12  O   UNL     1       3.385  11.154  16.342  1.00  0.00    -0.550 OA
ENDBRANCH   9  10
ENDBRANCH   8   9
ENDBRANCH   7   8
ENDBRANCH   6   7
ENDBRANCH   5   6
ENDBRANCH   4   5
ENDBRANCH   3   4
ENDBRANCH   1   3
BRANCH   2  13
ATOM     13  C   UNL     1       6.876   7.021  22.506  1.00  0.00     0.027 C 
BRANCH  13  14
ATOM     14  C   UNL     1       5.524   7.038  23.234  1.00  0.00     0.004 C 
BRANCH  14  15
ATOM     15  C   UNL     1       4.345   7.208  22.261  1.00  0.00     0.000 C 
BRANCH  15  16
ATOM     16  C   UNL     1       3.697   5.869  21.868  1.00  0.00     0.000 C 
BRANCH  16  17
ATOM     17  C   UNL     1       2.744   5.932  20.657  1.00  0.00    -0.000 C 
BRANCH  17  18
ATOM     18  C   UNL     1       2.358   4.568  20.059  1.00  0.00    -0.000 C 
BRANCH  18  19
ATOM     19  C   UNL     1       1.311   4.683  18.941  1.00  0.00    -0.003 C 
ATOM     20  C   UNL     1       1.594   5.885  18.045  1.00  0.00     0.004 C 
ENDBRANCH  18  19
ENDBRANCH  17  18
ENDBRANCH  16  17
ENDBRANCH  15  16
ENDBRANCH  14  15
ENDBRANCH  13  14
ENDBRANCH   2  13
TORSDOF 15
ENDMDL
MODEL 6
REMARK VINA RESULT:    -5.347      1.854      4.713
REMARK INTER + INTRA:         -12.811
REMARK INTER:                 -10.590
REMARK INTRA:                  -2.221
REMARK UNBOUND:                -2.775
REMARK SMILES CCCCCCCCC=CCCCCCCCC(=O)[O-]
REMARK SMILES IDX 10 1 9 2 11 3 12 4 13 5 14 6 15 7 16 8 17 9 18 10 19 11
REMARK SMILES IDX 20 12 8 13 7 14 6 15 5 16 4 17 3 18 2 19 1 20
REMARK H PARENT
REMARK Flexibility Score: inf
ROOT
ATOM      1  C   UNL     1       6.947   7.228  22.111  1.00  0.00    -0.031 C 
ATOM      2  C   UNL     1       5.794   7.205  22.802  1.00  0.00    -0.031 C 
ENDROOT
BRANCH   1   3
ATOM      3  C   UNL     1       7.053   7.427  20.619  1.00  0.00     0.027 C 
BRANCH   3   4
ATOM      4  C   UNL     1       7.981   8.599  20.254  1.00  0.00     0.004 C 
BRANCH   4   5
ATOM      5  C   UNL     1       7.480   9.981  20.720  1.00  0.00     0.000 C 
BRANCH   5   6
ATOM      6  C   UNL     1       6.573  10.719  19.718  1.00  0.00     0.000 C 
BRANCH   6   7
ATOM      7  C   UNL     1       5.082  10.419  19.927  1.00  0.00     0.000 C 
BRANCH   7   8
ATOM      8  C   UNL     1       4.481   9.734  18.694  1.00  0.00     0.006 C 
BRANCH   8   9
ATOM      9  C   UNL     1       3.123  10.343  18.333  1.00  0.00     0.053 C 
BRANCH   9  10
ATOM     10  C   UNL     1       3.278  11.780  17.951  1.00  0.00     0.041 C 
ATOM     11  O   UNL     1       3.846  12.093  16.871  1.00  0.00    -0.550 OA
ATOM     12  O   UNL     1       2.752  12.776  18.764  1.00  0.00    -0.550 OA
ENDBRANCH   9  10
ENDBRANCH   8   9
ENDBRANCH   7   8
ENDBRANCH   6   7
ENDBRANCH   5   6
ENDBRANCH   4   5
ENDBRANCH   3   4
ENDBRANCH   1   3
BRANCH   2  13
ATOM     13  C   UNL     1       4.432   7.475  22.209  1.00  0.00     0.027 C 
BRANCH  13  14
ATOM     14  C   UNL     1       3.474   6.291  22.407  1.00  0.00     0.004 C 
BRANCH  14  15
ATOM     15  C   UNL     1       3.026   5.679  21.070  1.00  0.00     0.000 C 
BRANCH  15  16
ATOM     16  C   UNL     1       3.641   6.389  19.851  1.00  0.00     0.000 C 
BRANCH  16  17
ATOM     17  C   UNL     1       2.750   6.423  18.593  1.00  0.00    -0.000 C 
BRANCH  17  18
ATOM     18  C   UNL     1       2.029   5.103  18.268  1.00  0.00    -0.000 C 
BRANCH  18  19
ATOM     19  C   UNL     1       0.506   5.198  18.440  1.00  0.00    -0.003 C 
ATOM     20  C   UNL     1       0.047   6.653  18.474  1.00  0.00     0.004 C 
ENDBRANCH  18  19
ENDBRANCH  17  18
ENDBRANCH  16  17
ENDBRANCH  15  16
ENDBRANCH  14  15
ENDBRANCH  13  14
ENDBRANCH   2  13
TORSDOF 15
ENDMDL
MODEL 7
REMARK VINA RESULT:    -5.340      1.110      4.739
REMARK INTER + INTRA:         -12.798
REMARK INTER:                 -10.268
REMARK INTRA:                  -2.530
REMARK UNBOUND:                -2.775
REMARK SMILES CCCCCCCCC=CCCCCCCCC(=O)[O-]
REMARK SMILES IDX 10 1 9 2 11 3 12 4 13 5 14 6 15 7 16 8 17 9 18 10 19 11
REMARK SMILES IDX 20 12 8 13 7 14 6 15 5 16 4 17 3 18 2 19 1 20
REMARK H PARENT
REMARK Flexibility Score: inf
ROOT
ATOM      1  C   UNL     1       2.172   4.228  19.197  1.00  0.00    -0.031 C 
ATOM      2  C   UNL     1       3.058   4.795  20.035  1.00  0.00    -0.031 C 
ENDROOT
BRANCH   1   3
ATOM      3  C   UNL     1       0.787   4.758  18.919  1.00  0.00     0.027 C 
BRANCH   3   4
ATOM      4  C   UNL     1       0.766   5.727  17.725  1.00  0.00     0.004 C 
BRANCH   4   5
ATOM      5  C   UNL     1       0.528   7.204  18.102  1.00  0.00     0.000 C 
BRANCH   5   6
ATOM      6  C   UNL     1       1.664   8.168  17.715  1.00  0.00     0.000 C 
BRANCH   6   7
ATOM      7  C   UNL     1       2.955   7.441  17.311  1.00  0.00     0.000 C 
BRANCH   7   8
ATOM      8  C   UNL     1       4.191   8.213  17.786  1.00  0.00     0.006 C 
BRANCH   8   9
ATOM      9  C   UNL     1       3.845   9.144  18.952  1.00  0.00     0.053 C 
BRANCH   9  10
ATOM     10  C   UNL     1       4.264  10.546  18.645  1.00  0.00     0.041 C 
ATOM     11  O   UNL     1       3.854  11.117  17.600  1.00  0.00    -0.550 OA
ATOM     12  O   UNL     1       5.068  11.243  19.538  1.00  0.00    -0.550 OA
ENDBRANCH   9  10
ENDBRANCH   8   9
ENDBRANCH   7   8
ENDBRANCH   6   7
ENDBRANCH   5   6
ENDBRANCH   4   5
ENDBRANCH   3   4
ENDBRANCH   1   3
BRANCH   2  13
ATOM     13  C   UNL     1       2.843   6.107  20.752  1.00  0.00     0.027 C 
BRANCH  13  14
ATOM     14  C   UNL     1       3.437   6.090  22.168  1.00  0.00     0.004 C 
BRANCH  14  15
ATOM     15  C   UNL     1       4.280   7.344  22.457  1.00  0.00     0.000 C 
BRANCH  15  16
ATOM     16  C   UNL     1       5.663   7.012  23.044  1.00  0.00     0.000 C 
BRANCH  16  17
ATOM     17  C   UNL     1       6.862   7.375  22.144  1.00  0.00    -0.000 C 
BRANCH  17  18
ATOM     18  C   UNL     1       6.578   7.339  20.632  1.00  0.00    -0.000 C 
BRANCH  18  19
ATOM     19  C   UNL     1       7.450   8.325  19.840  1.00  0.00    -0.003 C 
ATOM     20  C   UNL     1       8.119   9.335  20.767  1.00  0.00     0.004 C 
ENDBRANCH  18  19
ENDBRANCH  17  18
ENDBRANCH  16  17
ENDBRANCH  15  16
ENDBRANCH  14  15
ENDBRANCH  13  14
ENDBRANCH   2  13
TORSDOF 15
ENDMDL
MODEL 8
REMARK VINA RESULT:    -5.332      1.749      5.017
REMARK INTER + INTRA:         -12.783
REMARK INTER:                 -10.376
REMARK INTRA:                  -2.407
REMARK UNBOUND:                -2.775
REMARK SMILES CCCCCCCCC=CCCCCCCCC(=O)[O-]
REMARK SMILES IDX 10 1 9 2 11 3 12 4 13 5 14 6 15 7 16 8 17 9 18 10 19 11
REMARK SMILES IDX 20 12 8 13 7 14 6 15 5 16 4 17 3 18 2 19 1 20
REMARK H PARENT
REMARK Flexibility Score: inf
ROOT
ATOM      1  C   UNL     1       1.846   4.118  18.987  1.00  0.00    -0.031 C 
ATOM      2  C   UNL     1       2.782   4.385  19.915  1.00  0.00    -0.031 C 
ENDROOT
BRANCH   1   3
ATOM      3  C   UNL     1       0.581   4.916  18.786  1.00  0.00     0.027 C 
BRANCH   3   4
ATOM      4  C   UNL     1       0.690   5.888  17.599  1.00  0.00     0.004 C 
BRANCH   4   5
ATOM      5  C   UNL     1       1.220   7.289  17.966  1.00  0.00     0.000 C 
BRANCH   5   6
ATOM      6  C   UNL     1       2.595   7.644  17.370  1.00  0.00     0.000 C 
BRANCH   6   7
ATOM      7  C   UNL     1       3.250   6.467  16.634  1.00  0.00     0.000 C 
BRANCH   7   8
ATOM      8  C   UNL     1       4.678   6.230  17.139  1.00  0.00     0.006 C 
BRANCH   8   9
ATOM      9  C   UNL     1       5.661   6.103  15.971  1.00  0.00     0.053 C 
BRANCH   9  10
ATOM     10  C   UNL     1       6.027   7.455  15.445  1.00  0.00     0.041 C 
ATOM     11  O   UNL     1       6.083   8.444  16.222  1.00  0.00    -0.550 OA
ATOM     12  O   UNL     1       6.354   7.614  14.104  1.00  0.00    -0.550 OA
ENDBRANCH   9  10
ENDBRANCH   8   9
ENDBRANCH   7   8
ENDBRANCH   6   7
ENDBRANCH   5   6
ENDBRANCH   4   5
ENDBRANCH   3   4
ENDBRANCH   1   3
BRANCH   2  13
ATOM     13  C   UNL     1       2.763   5.583  20.834  1.00  0.00     0.027 C 
BRANCH  13  14
ATOM     14  C   UNL     1       4.019   6.452  20.670  1.00  0.00     0.004 C 
BRANCH  14  15
ATOM     15  C   UNL     1       4.253   7.367  21.884  1.00  0.00     0.000 C 
BRANCH  15  16
ATOM     16  C   UNL     1       5.404   6.883  22.783  1.00  0.00     0.000 C 
BRANCH  16  17
ATOM     17  C   UNL     1       6.815   7.028  22.178  1.00  0.00    -0.000 C 
BRANCH  17  18
ATOM     18  C   UNL     1       7.142   8.421  21.610  1.00  0.00    -0.000 C 
BRANCH  18  19
ATOM     19  C   UNL     1       8.009   8.359  20.344  1.00  0.00    -0.003 C 
ATOM     20  C   UNL     1       7.424   7.385  19.325  1.00  0.00     0.004 C 
ENDBRANCH  18  19
ENDBRANCH  17  18
ENDBRANCH  16  17
ENDBRANCH  15  16
ENDBRANCH  14  15
ENDBRANCH  13  14
ENDBRANCH   2  13
TORSDOF 15
ENDMDL
MODEL 9
REMARK VINA RESULT:    -5.290      1.995      4.995
REMARK INTER + INTRA:         -12.704
REMARK INTER:                 -10.449
REMARK INTRA:                  -2.254
REMARK UNBOUND:                -2.775
REMARK SMILES CCCCCCCCC=CCCCCCCCC(=O)[O-]
REMARK SMILES IDX 10 1 9 2 11 3 12 4 13 5 14 6 15 7 16 8 17 9 18 10 19 11
REMARK SMILES IDX 20 12 8 13 7 14 6 15 5 16 4 17 3 18 2 19 1 20
REMARK H PARENT
REMARK Flexibility Score: inf
ROOT
ATOM      1  C   UNL     1       6.906   7.546  22.519  1.00  0.00    -0.031 C 
ATOM      2  C   UNL     1       5.777   6.985  22.988  1.00  0.00    -0.031 C 
ENDROOT
BRANCH   1   3
ATOM      3  C   UNL     1       6.993   8.399  21.277  1.00  0.00     0.027 C 
BRANCH   3   4
ATOM      4  C   UNL     1       7.410   7.583  20.042  1.00  0.00     0.004 C 
BRANCH   4   5
ATOM      5  C   UNL     1       6.290   7.377  19.001  1.00  0.00     0.000 C 
BRANCH   5   6
ATOM      6  C   UNL     1       5.663   8.671  18.452  1.00  0.00     0.000 C 
BRANCH   6   7
ATOM      7  C   UNL     1       4.335   9.030  19.135  1.00  0.00     0.000 C 
BRANCH   7   8
ATOM      8  C   UNL     1       3.325   9.576  18.120  1.00  0.00     0.006 C 
BRANCH   8   9
ATOM      9  C   UNL     1       3.024   8.541  17.031  1.00  0.00     0.053 C 
BRANCH   9  10
ATOM     10  C   UNL     1       3.520   9.018  15.703  1.00  0.00     0.041 C 
ATOM     11  O   UNL     1       3.891   8.190  14.830  1.00  0.00    -0.550 OA
ATOM     12  O   UNL     1       3.524  10.375  15.409  1.00  0.00    -0.550 OA
ENDBRANCH   9  10
ENDBRANCH   8   9
ENDBRANCH   7   8
ENDBRANCH   6   7
ENDBRANCH   5   6
ENDBRANCH   4   5
ENDBRANCH   3   4
ENDBRANCH   1   3
BRANCH   2  13
ATOM     13  C   UNL     1       4.403   7.202  22.402  1.00  0.00     0.027 C 
BRANCH  13  14
ATOM     14  C   UNL     1       3.771   5.888  21.920  1.00  0.00     0.004 C 
BRANCH  14  15
ATOM     15  C   UNL     1       2.805   6.107  20.744  1.00  0.00     0.000 C 
BRANCH  15  16
ATOM     16  C   UNL     1       3.284   5.437  19.445  1.00  0.00     0.000 C 
BRANCH  16  17
ATOM     17  C   UNL     1       2.347   4.347  18.885  1.00  0.00    -0.000 C 
BRANCH  17  18
ATOM     18  C   UNL     1       0.859   4.733  18.824  1.00  0.00    -0.000 C 
BRANCH  18  19
ATOM     19  C   UNL     1       0.571   5.832  17.790  1.00  0.00    -0.003 C 
ATOM     20  C   UNL     1      -0.174   7.002  18.425  1.00  0.00     0.004 C 
ENDBRANCH  18  19
ENDBRANCH  17  18
ENDBRANCH  16  17
ENDBRANCH  15  16
ENDBRANCH  14  15
ENDBRANCH  13  14
ENDBRANCH   2  13
TORSDOF 15
ENDMDL
