MODEL 1
REMARK VINA RESULT:    -4.380      0.000      0.000
REMARK INTER + INTRA:          -5.276
REMARK INTER:                  -5.020
REMARK INTRA:                  -0.256
REMARK UNBOUND:                -0.256
REMARK SMILES O=C([O-])C=Cc1ccc(O)cc1
REMARK SMILES IDX 6 1 7 2 12 3 8 4 11 5 9 6 5 7 4 8 2 9 1 10 3 11 10 12
REMARK H PARENT 10 13
REMARK Flexibility Score: inf
ROOT
ATOM      1  C   UNL     1      74.216  35.413  52.682  1.00  0.00    -0.025 A 
ATOM      2  C   UNL     1      74.190  35.996  53.958  1.00  0.00     0.012 A 
ATOM      3  C   UNL     1      73.516  34.214  52.460  1.00  0.00     0.012 A 
ATOM      4  C   UNL     1      73.520  35.364  55.010  1.00  0.00     0.047 A 
ATOM      5  C   UNL     1      72.845  33.584  53.512  1.00  0.00     0.047 A 
ATOM      6  C   UNL     1      72.849  34.157  54.792  1.00  0.00     0.115 A 
ENDROOT
BRANCH   1   7
ATOM      7  C   UNL     1      74.886  36.125  51.574  1.00  0.00     0.010 C 
ATOM      8  C   UNL     1      76.172  35.976  51.218  1.00  0.00     0.025 C 
BRANCH   8   9
ATOM      9  C   UNL     1      77.192  35.219  51.970  1.00  0.00     0.064 C 
ATOM     10  O   UNL     1      78.106  35.802  52.610  1.00  0.00    -0.545 OA
ATOM     11  O   UNL     1      77.184  33.832  51.912  1.00  0.00    -0.545 OA
ENDBRANCH   8   9
ENDBRANCH   1   7
BRANCH   6  12
ATOM     12  O   UNL     1      72.186  33.537  55.849  1.00  0.00    -0.508 OA
ATOM     13  H   UNL     1      71.180  33.604  55.955  1.00  0.00     0.293 HD
ENDBRANCH   6  12
TORSDOF 3
ENDMDL
MODEL 2
REMARK VINA RESULT:    -4.378      2.310      3.594
REMARK INTER + INTRA:          -5.273
REMARK INTER:                  -5.271
REMARK INTRA:                  -0.003
REMARK UNBOUND:                -0.256
REMARK SMILES O=C([O-])C=Cc1ccc(O)cc1
REMARK SMILES IDX 6 1 7 2 12 3 8 4 11 5 9 6 5 7 4 8 2 9 1 10 3 11 10 12
REMARK H PARENT 10 13
REMARK Flexibility Score: inf
ROOT
ATOM      1  C   UNL     1      72.395  33.476  54.944  1.00  0.00    -0.025 A 
ATOM      2  C   UNL     1      71.345  33.950  55.745  1.00  0.00     0.012 A 
ATOM      3  C   UNL     1      73.374  32.645  55.516  1.00  0.00     0.012 A 
ATOM      4  C   UNL     1      71.301  33.642  57.108  1.00  0.00     0.047 A 
ATOM      5  C   UNL     1      73.329  32.337  56.879  1.00  0.00     0.047 A 
ATOM      6  C   UNL     1      72.293  32.838  57.679  1.00  0.00     0.115 A 
ENDROOT
BRANCH   1   7
ATOM      7  C   UNL     1      72.393  33.772  53.496  1.00  0.00     0.010 C 
ATOM      8  C   UNL     1      73.249  34.593  52.868  1.00  0.00     0.025 C 
BRANCH   8   9
ATOM      9  C   UNL     1      74.227  35.484  53.522  1.00  0.00     0.064 C 
ATOM     10  O   UNL     1      73.938  36.125  54.566  1.00  0.00    -0.545 OA
ATOM     11  O   UNL     1      75.470  35.672  52.934  1.00  0.00    -0.545 OA
ENDBRANCH   8   9
ENDBRANCH   1   7
BRANCH   6  12
ATOM     12  O   UNL     1      72.237  32.539  59.039  1.00  0.00    -0.508 OA
ATOM     13  H   UNL     1      71.354  32.478  59.531  1.00  0.00     0.293 HD
ENDBRANCH   6  12
TORSDOF 3
ENDMDL
MODEL 3
REMARK VINA RESULT:    -4.056      3.209      6.582
REMARK INTER + INTRA:          -4.905
REMARK INTER:                  -4.688
REMARK INTRA:                  -0.216
REMARK UNBOUND:                -0.256
REMARK SMILES O=C([O-])C=Cc1ccc(O)cc1
REMARK SMILES IDX 6 1 7 2 12 3 8 4 11 5 9 6 5 7 4 8 2 9 1 10 3 11 10 12
REMARK H PARENT 10 13
REMARK Flexibility Score: inf
ROOT
ATOM      1  C   UNL     1      79.353  35.250  51.356  1.00  0.00    -0.025 A 
ATOM      2  C   UNL     1      79.369  35.757  50.047  1.00  0.00     0.012 A 
ATOM      3  C   UNL     1      79.999  34.031  51.629  1.00  0.00     0.012 A 
ATOM      4  C   UNL     1      79.975  35.032  49.017  1.00  0.00     0.047 A 
ATOM      5  C   UNL     1      80.605  33.308  50.597  1.00  0.00     0.047 A 
ATOM      6  C   UNL     1      80.592  33.806  49.287  1.00  0.00     0.115 A 
ENDROOT
BRANCH   1   7
ATOM      7  C   UNL     1      78.752  36.057  52.438  1.00  0.00     0.010 C 
ATOM      8  C   UNL     1      77.443  36.125  52.724  1.00  0.00     0.025 C 
BRANCH   8   9
ATOM      9  C   UNL     1      76.352  35.555  51.909  1.00  0.00     0.064 C 
ATOM     10  O   UNL     1      75.945  36.125  50.863  1.00  0.00    -0.545 OA
ATOM     11  O   UNL     1      75.715  34.401  52.343  1.00  0.00    -0.545 OA
ENDBRANCH   8   9
ENDBRANCH   1   7
BRANCH   6  12
ATOM     12  O   UNL     1      81.191  33.094  48.250  1.00  0.00    -0.508 OA
ATOM     13  H   UNL     1      81.489  33.552  47.397  1.00  0.00     0.293 HD
ENDBRANCH   6  12
TORSDOF 3
ENDMDL
MODEL 4
REMARK VINA RESULT:    -4.009     16.269     17.008
REMARK INTER + INTRA:          -4.850
REMARK INTER:                  -4.668
REMARK INTRA:                  -0.182
REMARK UNBOUND:                -0.256
REMARK SMILES O=C([O-])C=Cc1ccc(O)cc1
REMARK SMILES IDX 6 1 7 2 12 3 8 4 11 5 9 6 5 7 4 8 2 9 1 10 3 11 10 12
REMARK H PARENT 10 13
REMARK Flexibility Score: inf
ROOT
ATOM      1  C   UNL     1      85.664  30.966  66.289  1.00  0.00    -0.025 A 
ATOM      2  C   UNL     1      84.523  31.745  66.535  1.00  0.00     0.012 A 
ATOM      3  C   UNL     1      85.626  29.990  65.278  1.00  0.00     0.012 A 
ATOM      4  C   UNL     1      83.345  31.516  65.818  1.00  0.00     0.047 A 
ATOM      5  C   UNL     1      84.448  29.764  64.561  1.00  0.00     0.047 A 
ATOM      6  C   UNL     1      83.302  30.525  64.832  1.00  0.00     0.115 A 
ENDROOT
BRANCH   1   7
ATOM      7  C   UNL     1      86.913  31.260  67.023  1.00  0.00     0.010 C 
ATOM      8  C   UNL     1      87.869  32.113  66.622  1.00  0.00     0.025 C 
BRANCH   8   9
ATOM      9  C   UNL     1      87.938  32.772  65.303  1.00  0.00     0.064 C 
ATOM     10  O   UNL     1      87.779  34.014  65.179  1.00  0.00    -0.545 OA
ATOM     11  O   UNL     1      88.115  31.994  64.167  1.00  0.00    -0.545 OA
ENDBRANCH   8   9
ENDBRANCH   1   7
BRANCH   6  12
ATOM     12  O   UNL     1      82.121  30.307  64.125  1.00  0.00    -0.508 OA
ATOM     13  H   UNL     1      81.305  30.891  64.267  1.00  0.00     0.293 HD
ENDBRANCH   6  12
TORSDOF 3
ENDMDL
MODEL 5
REMARK VINA RESULT:    -3.816      2.045      5.592
REMARK INTER + INTRA:          -4.630
REMARK INTER:                  -4.732
REMARK INTRA:                   0.102
REMARK UNBOUND:                -0.256
REMARK SMILES O=C([O-])C=Cc1ccc(O)cc1
REMARK SMILES IDX 6 1 7 2 12 3 8 4 11 5 9 6 5 7 4 8 2 9 1 10 3 11 10 12
REMARK H PARENT 10 13
REMARK Flexibility Score: inf
ROOT
ATOM      1  C   UNL     1      72.368  34.148  55.146  1.00  0.00    -0.025 A 
ATOM      2  C   UNL     1      72.700  33.238  54.131  1.00  0.00     0.012 A 
ATOM      3  C   UNL     1      73.087  35.352  55.253  1.00  0.00     0.012 A 
ATOM      4  C   UNL     1      73.769  33.502  53.269  1.00  0.00     0.047 A 
ATOM      5  C   UNL     1      74.155  35.614  54.390  1.00  0.00     0.047 A 
ATOM      6  C   UNL     1      74.501  34.687  53.397  1.00  0.00     0.115 A 
ENDROOT
BRANCH   1   7
ATOM      7  C   UNL     1      71.202  33.873  56.012  1.00  0.00     0.010 C 
ATOM      8  C   UNL     1      71.254  33.331  57.238  1.00  0.00     0.025 C 
BRANCH   8   9
ATOM      9  C   UNL     1      72.453  32.747  57.872  1.00  0.00     0.064 C 
ATOM     10  O   UNL     1      73.337  32.162  57.195  1.00  0.00    -0.545 OA
ATOM     11  O   UNL     1      72.572  32.784  59.255  1.00  0.00    -0.545 OA
ENDBRANCH   8   9
ENDBRANCH   1   7
BRANCH   6  12
ATOM     12  O   UNL     1      75.564  34.936  52.531  1.00  0.00    -0.508 OA
ATOM     13  H   UNL     1      75.735  34.351  51.722  1.00  0.00     0.293 HD
ENDBRANCH   6  12
TORSDOF 3
ENDMDL
MODEL 6
REMARK VINA RESULT:    -3.795     16.456     17.351
REMARK INTER + INTRA:          -4.605
REMARK INTER:                  -4.906
REMARK INTRA:                   0.301
REMARK UNBOUND:                -0.256
REMARK SMILES O=C([O-])C=Cc1ccc(O)cc1
REMARK SMILES IDX 6 1 7 2 12 3 8 4 11 5 9 6 5 7 4 8 2 9 1 10 3 11 10 12
REMARK H PARENT 10 13
REMARK Flexibility Score: inf
ROOT
ATOM      1  C   UNL     1      84.796  31.601  65.475  1.00  0.00    -0.025 A 
ATOM      2  C   UNL     1      84.767  31.538  66.877  1.00  0.00     0.012 A 
ATOM      3  C   UNL     1      85.968  32.032  64.830  1.00  0.00     0.012 A 
ATOM      4  C   UNL     1      85.875  31.951  67.624  1.00  0.00     0.047 A 
ATOM      5  C   UNL     1      87.074  32.444  65.579  1.00  0.00     0.047 A 
ATOM      6  C   UNL     1      87.029  32.407  66.979  1.00  0.00     0.115 A 
ENDROOT
BRANCH   1   7
ATOM      7  C   UNL     1      83.634  31.111  64.705  1.00  0.00     0.010 C 
ATOM      8  C   UNL     1      83.381  29.826  64.410  1.00  0.00     0.025 C 
BRANCH   8   9
ATOM      9  C   UNL     1      84.297  28.692  64.640  1.00  0.00     0.064 C 
ATOM     10  O   UNL     1      85.535  28.866  64.788  1.00  0.00    -0.545 OA
ATOM     11  O   UNL     1      83.791  27.400  64.623  1.00  0.00    -0.545 OA
ENDBRANCH   8   9
ENDBRANCH   1   7
BRANCH   6  12
ATOM     12  O   UNL     1      88.125  32.816  67.737  1.00  0.00    -0.508 OA
ATOM     13  H   UNL     1      88.810  33.464  67.368  1.00  0.00     0.293 HD
ENDBRANCH   6  12
TORSDOF 3
ENDMDL
MODEL 7
REMARK VINA RESULT:    -3.768     16.468     17.163
REMARK INTER + INTRA:          -4.575
REMARK INTER:                  -4.683
REMARK INTRA:                   0.108
REMARK UNBOUND:                -0.256
REMARK SMILES O=C([O-])C=Cc1ccc(O)cc1
REMARK SMILES IDX 6 1 7 2 12 3 8 4 11 5 9 6 5 7 4 8 2 9 1 10 3 11 10 12
REMARK H PARENT 10 13
REMARK Flexibility Score: inf
ROOT
ATOM      1  C   UNL     1      85.230  30.873  64.688  1.00  0.00    -0.025 A 
ATOM      2  C   UNL     1      86.021  29.725  64.849  1.00  0.00     0.012 A 
ATOM      3  C   UNL     1      83.833  30.738  64.602  1.00  0.00     0.012 A 
ATOM      4  C   UNL     1      85.431  28.458  64.871  1.00  0.00     0.047 A 
ATOM      5  C   UNL     1      83.244  29.470  64.625  1.00  0.00     0.047 A 
ATOM      6  C   UNL     1      84.043  28.326  64.756  1.00  0.00     0.115 A 
ENDROOT
BRANCH   1   7
ATOM      7  C   UNL     1      85.870  32.204  64.720  1.00  0.00     0.010 C 
ATOM      8  C   UNL     1      86.700  32.646  65.677  1.00  0.00     0.025 C 
BRANCH   8   9
ATOM      9  C   UNL     1      86.984  31.963  66.954  1.00  0.00     0.064 C 
ATOM     10  O   UNL     1      86.328  32.217  67.998  1.00  0.00    -0.545 OA
ATOM     11  O   UNL     1      88.045  31.070  67.022  1.00  0.00    -0.545 OA
ENDBRANCH   8   9
ENDBRANCH   1   7
BRANCH   6  12
ATOM     12  O   UNL     1      83.468  27.057  64.779  1.00  0.00    -0.508 OA
ATOM     13  H   UNL     1      83.537  26.460  65.594  1.00  0.00     0.293 HD
ENDBRANCH   6  12
TORSDOF 3
ENDMDL
MODEL 8
REMARK VINA RESULT:    -3.763      2.334      3.413
REMARK INTER + INTRA:          -4.569
REMARK INTER:                  -4.680
REMARK INTRA:                   0.111
REMARK UNBOUND:                -0.256
REMARK SMILES O=C([O-])C=Cc1ccc(O)cc1
REMARK SMILES IDX 6 1 7 2 12 3 8 4 11 5 9 6 5 7 4 8 2 9 1 10 3 11 10 12
REMARK H PARENT 10 13
REMARK Flexibility Score: inf
ROOT
ATOM      1  C   UNL     1      77.395  34.904  51.356  1.00  0.00    -0.025 A 
ATOM      2  C   UNL     1      76.281  35.718  51.615  1.00  0.00     0.012 A 
ATOM      3  C   UNL     1      77.356  33.548  51.724  1.00  0.00     0.012 A 
ATOM      4  C   UNL     1      75.166  35.197  52.279  1.00  0.00     0.047 A 
ATOM      5  C   UNL     1      76.240  33.029  52.387  1.00  0.00     0.047 A 
ATOM      6  C   UNL     1      75.143  33.854  52.669  1.00  0.00     0.115 A 
ENDROOT
BRANCH   1   7
ATOM      7  C   UNL     1      78.541  35.461  50.607  1.00  0.00     0.010 C 
ATOM      8  C   UNL     1      79.834  35.215  50.867  1.00  0.00     0.025 C 
BRANCH   8   9
ATOM      9  C   UNL     1      80.355  34.495  52.045  1.00  0.00     0.064 C 
ATOM     10  O   UNL     1      80.537  35.077  53.146  1.00  0.00    -0.545 OA
ATOM     11  O   UNL     1      80.718  33.161  51.916  1.00  0.00    -0.545 OA
ENDBRANCH   8   9
ENDBRANCH   1   7
BRANCH   6  12
ATOM     12  O   UNL     1      74.025  33.350  53.331  1.00  0.00    -0.508 OA
ATOM     13  H   UNL     1      74.079  33.029  54.291  1.00  0.00     0.293 HD
ENDBRANCH   6  12
TORSDOF 3
ENDMDL
MODEL 9
REMARK VINA RESULT:    -1.782     16.638     17.393
REMARK INTER + INTRA:          -2.298
REMARK INTER:                  -2.119
REMARK INTRA:                  -0.180
REMARK UNBOUND:                -0.256
REMARK SMILES O=C([O-])C=Cc1ccc(O)cc1
REMARK SMILES IDX 6 1 7 2 12 3 8 4 11 5 9 6 5 7 4 8 2 9 1 10 3 11 10 12
REMARK H PARENT 10 13
REMARK Flexibility Score: inf
ROOT
ATOM      1  C   UNL     1      85.764  32.025  65.672  1.00  0.00    -0.025 A 
ATOM      2  C   UNL     1      84.694  31.615  64.861  1.00  0.00     0.012 A 
ATOM      3  C   UNL     1      85.614  32.007  67.069  1.00  0.00     0.012 A 
ATOM      4  C   UNL     1      83.476  31.241  65.437  1.00  0.00     0.047 A 
ATOM      5  C   UNL     1      84.395  31.633  67.643  1.00  0.00     0.047 A 
ATOM      6  C   UNL     1      83.321  31.252  66.827  1.00  0.00     0.115 A 
ENDROOT
BRANCH   1   7
ATOM      7  C   UNL     1      87.058  32.366  65.045  1.00  0.00     0.010 C 
ATOM      8  C   UNL     1      88.042  31.496  64.769  1.00  0.00     0.025 C 
BRANCH   8   9
ATOM      9  C   UNL     1      88.091  30.085  65.200  1.00  0.00     0.064 C 
ATOM     10  O   UNL     1      88.039  29.140  64.369  1.00  0.00    -0.545 OA
ATOM     11  O   UNL     1      88.125  29.793  66.557  1.00  0.00    -0.545 OA
ENDBRANCH   8   9
ENDBRANCH   1   7
BRANCH   6  12
ATOM     12  O   UNL     1      82.101  30.878  67.386  1.00  0.00    -0.508 OA
ATOM     13  H   UNL     1      81.982  29.983  67.846  1.00  0.00     0.293 HD
ENDBRANCH   6  12
TORSDOF 3
ENDMDL
