MODEL 1
REMARK VINA RESULT:    -4.362      0.000      0.000
REMARK INTER + INTRA:         -15.595
REMARK INTER:                 -10.992
REMARK INTRA:                  -4.603
REMARK UNBOUND:                -4.603
REMARK SMILES CCCCCCCCCCCCCCCCCCCCCCCCCCCC(=O)[O-]
REMARK SMILES IDX 15 1 16 2 17 3 18 4 19 5 20 6 21 7 22 8 23 9 24 10 25 11
REMARK SMILES IDX 26 12 27 13 28 14 29 15 30 16 14 17 13 18 12 19 11 20 10 21
REMARK SMILES IDX 9 22 8 23 7 24 6 25 5 26 4 27 3 28 2 29 1 30
REMARK H PARENT
REMARK Flexibility Score: inf
ROOT
ATOM      1  C   UNL     1      34.470  33.608  21.897  1.00  0.00     0.000 C 
ENDROOT
BRANCH   1   2
ATOM      2  C   UNL     1      33.614  34.470  22.849  1.00  0.00     0.000 C 
BRANCH   2   3
ATOM      3  C   UNL     1      34.454  35.497  23.624  1.00  0.00     0.000 C 
BRANCH   3   4
ATOM      4  C   UNL     1      35.168  34.842  24.817  1.00  0.00     0.000 C 
BRANCH   4   5
ATOM      5  C   UNL     1      34.322  33.750  25.501  1.00  0.00     0.000 C 
BRANCH   5   6
ATOM      6  C   UNL     1      34.975  32.357  25.545  1.00  0.00     0.000 C 
BRANCH   6   7
ATOM      7  C   UNL     1      36.434  32.365  25.060  1.00  0.00     0.000 C 
BRANCH   7   8
ATOM      8  C   UNL     1      37.447  32.240  26.214  1.00  0.00     0.000 C 
BRANCH   8   9
ATOM      9  C   UNL     1      38.478  33.382  26.300  1.00  0.00     0.000 C 
BRANCH   9  10
ATOM     10  C   UNL     1      38.025  34.618  27.103  1.00  0.00     0.000 C 
BRANCH  10  11
ATOM     11  C   UNL     1      36.914  34.320  28.133  1.00  0.00     0.000 C 
BRANCH  11  12
ATOM     12  C   UNL     1      35.997  35.530  28.381  1.00  0.00     0.006 C 
BRANCH  12  13
ATOM     13  C   UNL     1      36.476  36.386  29.559  1.00  0.00     0.053 C 
BRANCH  13  14
ATOM     14  C   UNL     1      37.197  37.615  29.094  1.00  0.00     0.041 C 
ATOM     15  O   UNL     1      37.856  38.309  29.912  1.00  0.00    -0.550 OA
ATOM     16  O   UNL     1      37.156  37.982  27.755  1.00  0.00    -0.550 OA
ENDBRANCH  13  14
ENDBRANCH  12  13
ENDBRANCH  11  12
ENDBRANCH  10  11
ENDBRANCH   9  10
ENDBRANCH   8   9
ENDBRANCH   7   8
ENDBRANCH   6   7
ENDBRANCH   5   6
ENDBRANCH   4   5
ENDBRANCH   3   4
ENDBRANCH   2   3
ENDBRANCH   1   2
BRANCH   1  17
ATOM     17  C   UNL     1      33.676  32.522  21.154  1.00  0.00     0.000 C 
BRANCH  17  18
ATOM     18  C   UNL     1      32.907  31.587  22.097  1.00  0.00     0.000 C 
BRANCH  18  19
ATOM     19  C   UNL     1      33.801  30.438  22.585  1.00  0.00     0.000 C 
BRANCH  19  20
ATOM     20  C   UNL     1      33.221  29.052  22.259  1.00  0.00     0.000 C 
BRANCH  20  21
ATOM     21  C   UNL     1      32.405  29.042  20.954  1.00  0.00     0.000 C 
BRANCH  21  22
ATOM     22  C   UNL     1      33.248  28.622  19.739  1.00  0.00    -0.000 C 
BRANCH  22  23
ATOM     23  C   UNL     1      33.427  29.760  18.720  1.00  0.00    -0.000 C 
BRANCH  23  24
ATOM     24  C   UNL     1      34.898  30.167  18.533  1.00  0.00    -0.000 C 
BRANCH  24  25
ATOM     25  C   UNL     1      35.803  29.752  19.711  1.00  0.00    -0.000 C 
BRANCH  25  26
ATOM     26  C   UNL     1      37.231  30.305  19.571  1.00  0.00    -0.000 C 
BRANCH  26  27
ATOM     27  C   UNL     1      37.988  30.357  20.908  1.00  0.00    -0.000 C 
BRANCH  27  28
ATOM     28  C   UNL     1      37.265  29.621  22.056  1.00  0.00    -0.000 C 
BRANCH  28  29
ATOM     29  C   UNL     1      38.126  29.538  23.326  1.00  0.00    -0.003 C 
ATOM     30  C   UNL     1      39.585  29.873  23.025  1.00  0.00     0.004 C 
ENDBRANCH  28  29
ENDBRANCH  27  28
ENDBRANCH  26  27
ENDBRANCH  25  26
ENDBRANCH  24  25
ENDBRANCH  23  24
ENDBRANCH  22  23
ENDBRANCH  21  22
ENDBRANCH  20  21
ENDBRANCH  19  20
ENDBRANCH  18  19
ENDBRANCH  17  18
ENDBRANCH   1  17
TORSDOF 26
ENDMDL
MODEL 2
REMARK VINA RESULT:    -4.358      1.757      3.758
REMARK INTER + INTRA:         -15.585
REMARK INTER:                 -10.375
REMARK INTRA:                  -5.210
REMARK UNBOUND:                -4.603
REMARK SMILES CCCCCCCCCCCCCCCCCCCCCCCCCCCC(=O)[O-]
REMARK SMILES IDX 15 1 16 2 17 3 18 4 19 5 20 6 21 7 22 8 23 9 24 10 25 11
REMARK SMILES IDX 26 12 27 13 28 14 29 15 30 16 14 17 13 18 12 19 11 20 10 21
REMARK SMILES IDX 9 22 8 23 7 24 6 25 5 26 4 27 3 28 2 29 1 30
REMARK H PARENT
REMARK Flexibility Score: inf
ROOT
ATOM      1  C   UNL     1      35.289  35.706  22.209  1.00  0.00     0.000 C 
ENDROOT
BRANCH   1   2
ATOM      2  C   UNL     1      36.416  34.654  22.259  1.00  0.00     0.000 C 
BRANCH   2   3
ATOM      3  C   UNL     1      37.265  34.765  23.535  1.00  0.00     0.000 C 
BRANCH   3   4
ATOM      4  C   UNL     1      37.396  36.229  23.988  1.00  0.00     0.000 C 
BRANCH   4   5
ATOM      5  C   UNL     1      37.117  36.423  25.490  1.00  0.00     0.000 C 
BRANCH   5   6
ATOM      6  C   UNL     1      35.635  36.625  25.855  1.00  0.00     0.000 C 
BRANCH   6   7
ATOM      7  C   UNL     1      35.075  35.490  26.729  1.00  0.00     0.000 C 
BRANCH   7   8
ATOM      8  C   UNL     1      36.069  34.326  26.905  1.00  0.00     0.000 C 
BRANCH   8   9
ATOM      9  C   UNL     1      36.737  34.246  28.291  1.00  0.00     0.000 C 
BRANCH   9  10
ATOM     10  C   UNL     1      36.442  35.430  29.234  1.00  0.00     0.000 C 
BRANCH  10  11
ATOM     11  C   UNL     1      37.576  36.476  29.296  1.00  0.00     0.000 C 
BRANCH  11  12
ATOM     12  C   UNL     1      37.050  37.922  29.283  1.00  0.00     0.006 C 
BRANCH  12  13
ATOM     13  C   UNL     1      37.787  38.795  28.260  1.00  0.00     0.053 C 
BRANCH  13  14
ATOM     14  C   UNL     1      38.497  39.939  28.917  1.00  0.00     0.041 C 
ATOM     15  O   UNL     1      39.711  40.159  28.665  1.00  0.00    -0.550 OA
ATOM     16  O   UNL     1      37.813  40.772  29.794  1.00  0.00    -0.550 OA
ENDBRANCH  13  14
ENDBRANCH  12  13
ENDBRANCH  11  12
ENDBRANCH  10  11
ENDBRANCH   9  10
ENDBRANCH   8   9
ENDBRANCH   7   8
ENDBRANCH   6   7
ENDBRANCH   5   6
ENDBRANCH   4   5
ENDBRANCH   3   4
ENDBRANCH   2   3
ENDBRANCH   1   2
BRANCH   1  17
ATOM     17  C   UNL     1      33.952  35.218  22.792  1.00  0.00     0.000 C 
BRANCH  17  18
ATOM     18  C   UNL     1      33.340  34.055  21.999  1.00  0.00     0.000 C 
BRANCH  18  19
ATOM     19  C   UNL     1      33.098  32.837  22.903  1.00  0.00     0.000 C 
BRANCH  19  20
ATOM     20  C   UNL     1      33.643  33.034  24.327  1.00  0.00     0.000 C 
BRANCH  20  21
ATOM     21  C   UNL     1      34.567  31.886  24.773  1.00  0.00     0.000 C 
BRANCH  21  22
ATOM     22  C   UNL     1      34.753  30.824  23.677  1.00  0.00    -0.000 C 
BRANCH  22  23
ATOM     23  C   UNL     1      36.230  30.605  23.309  1.00  0.00    -0.000 C 
BRANCH  23  24
ATOM     24  C   UNL     1      36.422  30.178  21.844  1.00  0.00    -0.000 C 
BRANCH  24  25
ATOM     25  C   UNL     1      36.549  31.368  20.871  1.00  0.00    -0.000 C 
BRANCH  25  26
ATOM     26  C   UNL     1      35.308  31.522  19.975  1.00  0.00    -0.000 C 
BRANCH  26  27
ATOM     27  C   UNL     1      34.543  30.203  19.779  1.00  0.00    -0.000 C 
BRANCH  27  28
ATOM     28  C   UNL     1      33.019  30.389  19.621  1.00  0.00    -0.000 C 
BRANCH  28  29
ATOM     29  C   UNL     1      32.245  29.931  20.866  1.00  0.00    -0.003 C 
ATOM     30  C   UNL     1      32.891  28.698  21.493  1.00  0.00     0.004 C 
ENDBRANCH  28  29
ENDBRANCH  27  28
ENDBRANCH  26  27
ENDBRANCH  25  26
ENDBRANCH  24  25
ENDBRANCH  23  24
ENDBRANCH  22  23
ENDBRANCH  21  22
ENDBRANCH  20  21
ENDBRANCH  19  20
ENDBRANCH  18  19
ENDBRANCH  17  18
ENDBRANCH   1  17
TORSDOF 26
ENDMDL
MODEL 3
REMARK VINA RESULT:    -4.315      2.826      7.340
REMARK INTER + INTRA:         -15.477
REMARK INTER:                 -10.036
REMARK INTRA:                  -5.441
REMARK UNBOUND:                -4.603
REMARK SMILES CCCCCCCCCCCCCCCCCCCCCCCCCCCC(=O)[O-]
REMARK SMILES IDX 15 1 16 2 17 3 18 4 19 5 20 6 21 7 22 8 23 9 24 10 25 11
REMARK SMILES IDX 26 12 27 13 28 14 29 15 30 16 14 17 13 18 12 19 11 20 10 21
REMARK SMILES IDX 9 22 8 23 7 24 6 25 5 26 4 27 3 28 2 29 1 30
REMARK H PARENT
REMARK Flexibility Score: inf
ROOT
ATOM      1  C   UNL     1      33.609  32.561  21.357  1.00  0.00     0.000 C 
ENDROOT
BRANCH   1   2
ATOM      2  C   UNL     1      32.893  31.507  22.227  1.00  0.00     0.000 C 
BRANCH   2   3
ATOM      3  C   UNL     1      33.818  30.343  22.615  1.00  0.00     0.000 C 
BRANCH   3   4
ATOM      4  C   UNL     1      33.230  28.995  22.166  1.00  0.00     0.000 C 
BRANCH   4   5
ATOM      5  C   UNL     1      32.393  29.102  20.877  1.00  0.00     0.000 C 
BRANCH   5   6
ATOM      6  C   UNL     1      33.095  28.593  19.604  1.00  0.00     0.000 C 
BRANCH   6   7
ATOM      7  C   UNL     1      34.035  29.639  18.982  1.00  0.00     0.000 C 
BRANCH   7   8
ATOM      8  C   UNL     1      35.523  29.280  19.150  1.00  0.00     0.000 C 
BRANCH   8   9
ATOM      9  C   UNL     1      36.354  30.309  19.940  1.00  0.00     0.000 C 
BRANCH   9  10
ATOM     10  C   UNL     1      37.093  29.752  21.173  1.00  0.00     0.000 C 
BRANCH  10  11
ATOM     11  C   UNL     1      38.578  30.165  21.250  1.00  0.00     0.000 C 
BRANCH  11  12
ATOM     12  C   UNL     1      39.261  29.682  22.542  1.00  0.00     0.006 C 
BRANCH  12  13
ATOM     13  C   UNL     1      40.361  30.644  23.008  1.00  0.00     0.053 C 
BRANCH  13  14
ATOM     14  C   UNL     1      41.336  29.968  23.924  1.00  0.00     0.041 C 
ATOM     15  O   UNL     1      41.192  28.752  24.214  1.00  0.00    -0.550 OA
ATOM     16  O   UNL     1      42.413  30.678  24.440  1.00  0.00    -0.550 OA
ENDBRANCH  13  14
ENDBRANCH  12  13
ENDBRANCH  11  12
ENDBRANCH  10  11
ENDBRANCH   9  10
ENDBRANCH   8   9
ENDBRANCH   7   8
ENDBRANCH   6   7
ENDBRANCH   5   6
ENDBRANCH   4   5
ENDBRANCH   3   4
ENDBRANCH   2   3
ENDBRANCH   1   2
BRANCH   1  17
ATOM     17  C   UNL     1      33.685  33.956  22.000  1.00  0.00     0.000 C 
BRANCH  17  18
ATOM     18  C   UNL     1      35.121  34.477  22.140  1.00  0.00     0.000 C 
BRANCH  18  19
ATOM     19  C   UNL     1      36.142  33.382  21.797  1.00  0.00     0.000 C 
BRANCH  19  20
ATOM     20  C   UNL     1      37.547  33.686  22.339  1.00  0.00     0.000 C 
BRANCH  20  21
ATOM     21  C   UNL     1      37.742  33.204  23.788  1.00  0.00     0.000 C 
BRANCH  21  22
ATOM     22  C   UNL     1      36.810  32.034  24.147  1.00  0.00    -0.000 C 
BRANCH  22  23
ATOM     23  C   UNL     1      36.216  32.162  25.560  1.00  0.00    -0.000 C 
BRANCH  23  24
ATOM     24  C   UNL     1      34.678  32.146  25.563  1.00  0.00    -0.000 C 
BRANCH  24  25
ATOM     25  C   UNL     1      34.050  33.553  25.635  1.00  0.00    -0.000 C 
BRANCH  25  26
ATOM     26  C   UNL     1      35.106  34.651  25.848  1.00  0.00    -0.000 C 
BRANCH  26  27
ATOM     27  C   UNL     1      34.891  35.445  27.146  1.00  0.00    -0.000 C 
BRANCH  27  28
ATOM     28  C   UNL     1      36.205  35.865  27.839  1.00  0.00    -0.000 C 
BRANCH  28  29
ATOM     29  C   UNL     1      37.134  34.668  28.095  1.00  0.00    -0.003 C 
ATOM     30  C   UNL     1      38.381  34.741  27.219  1.00  0.00     0.004 C 
ENDBRANCH  28  29
ENDBRANCH  27  28
ENDBRANCH  26  27
ENDBRANCH  25  26
ENDBRANCH  24  25
ENDBRANCH  23  24
ENDBRANCH  22  23
ENDBRANCH  21  22
ENDBRANCH  20  21
ENDBRANCH  19  20
ENDBRANCH  18  19
ENDBRANCH  17  18
ENDBRANCH   1  17
TORSDOF 26
ENDMDL
MODEL 4
REMARK VINA RESULT:    -4.275      3.635      9.083
REMARK INTER + INTRA:         -15.376
REMARK INTER:                 -10.833
REMARK INTRA:                  -4.544
REMARK UNBOUND:                -4.603
REMARK SMILES CCCCCCCCCCCCCCCCCCCCCCCCCCCC(=O)[O-]
REMARK SMILES IDX 15 1 16 2 17 3 18 4 19 5 20 6 21 7 22 8 23 9 24 10 25 11
REMARK SMILES IDX 26 12 27 13 28 14 29 15 30 16 14 17 13 18 12 19 11 20 10 21
REMARK SMILES IDX 9 22 8 23 7 24 6 25 5 26 4 27 3 28 2 29 1 30
REMARK H PARENT
REMARK Flexibility Score: inf
ROOT
ATOM      1  C   UNL     1      37.071  34.712  24.154  1.00  0.00     0.000 C 
ENDROOT
BRANCH   1   2
ATOM      2  C   UNL     1      37.381  33.373  23.452  1.00  0.00     0.000 C 
BRANCH   2   3
ATOM      3  C   UNL     1      37.085  32.160  24.348  1.00  0.00     0.000 C 
BRANCH   3   4
ATOM      4  C   UNL     1      36.536  32.601  25.714  1.00  0.00     0.000 C 
BRANCH   4   5
ATOM      5  C   UNL     1      35.019  32.370  25.858  1.00  0.00     0.000 C 
BRANCH   5   6
ATOM      6  C   UNL     1      34.364  31.616  24.688  1.00  0.00     0.000 C 
BRANCH   6   7
ATOM      7  C   UNL     1      33.526  32.533  23.781  1.00  0.00     0.000 C 
BRANCH   7   8
ATOM      8  C   UNL     1      33.609  32.140  22.294  1.00  0.00     0.000 C 
BRANCH   8   9
ATOM      9  C   UNL     1      32.526  31.151  21.822  1.00  0.00     0.000 C 
BRANCH   9  10
ATOM     10  C   UNL     1      32.953  29.670  21.799  1.00  0.00     0.000 C 
BRANCH  10  11
ATOM     11  C   UNL     1      32.732  28.978  20.437  1.00  0.00     0.000 C 
BRANCH  11  12
ATOM     12  C   UNL     1      33.693  29.490  19.350  1.00  0.00     0.006 C 
BRANCH  12  13
ATOM     13  C   UNL     1      32.947  30.138  18.177  1.00  0.00     0.053 C 
BRANCH  13  14
ATOM     14  C   UNL     1      33.401  31.546  17.941  1.00  0.00     0.041 C 
ATOM     15  O   UNL     1      34.028  32.167  18.839  1.00  0.00    -0.550 OA
ATOM     16  O   UNL     1      33.148  32.164  16.722  1.00  0.00    -0.550 OA
ENDBRANCH  13  14
ENDBRANCH  12  13
ENDBRANCH  11  12
ENDBRANCH  10  11
ENDBRANCH   9  10
ENDBRANCH   8   9
ENDBRANCH   7   8
ENDBRANCH   6   7
ENDBRANCH   5   6
ENDBRANCH   4   5
ENDBRANCH   3   4
ENDBRANCH   2   3
ENDBRANCH   1   2
BRANCH   1  17
ATOM     17  C   UNL     1      35.847  35.447  23.582  1.00  0.00     0.000 C 
BRANCH  17  18
ATOM     18  C   UNL     1      34.866  35.913  24.666  1.00  0.00     0.000 C 
BRANCH  18  19
ATOM     19  C   UNL     1      35.614  36.445  25.897  1.00  0.00     0.000 C 
BRANCH  19  20
ATOM     20  C   UNL     1      35.094  35.847  27.214  1.00  0.00     0.000 C 
BRANCH  20  21
ATOM     21  C   UNL     1      36.214  35.220  28.065  1.00  0.00     0.000 C 
BRANCH  21  22
ATOM     22  C   UNL     1      36.251  35.787  29.493  1.00  0.00    -0.000 C 
BRANCH  22  23
ATOM     23  C   UNL     1      36.304  37.324  29.519  1.00  0.00    -0.000 C 
BRANCH  23  24
ATOM     24  C   UNL     1      37.528  37.891  28.781  1.00  0.00    -0.000 C 
BRANCH  24  25
ATOM     25  C   UNL     1      38.856  37.670  29.535  1.00  0.00    -0.000 C 
BRANCH  25  26
ATOM     26  C   UNL     1      39.736  36.603  28.863  1.00  0.00    -0.000 C 
BRANCH  26  27
ATOM     27  C   UNL     1      40.130  36.972  27.423  1.00  0.00    -0.000 C 
BRANCH  27  28
ATOM     28  C   UNL     1      39.643  35.955  26.369  1.00  0.00    -0.000 C 
BRANCH  28  29
ATOM     29  C   UNL     1      39.438  34.554  26.965  1.00  0.00    -0.003 C 
ATOM     30  C   UNL     1      40.168  33.494  26.144  1.00  0.00     0.004 C 
ENDBRANCH  28  29
ENDBRANCH  27  28
ENDBRANCH  26  27
ENDBRANCH  25  26
ENDBRANCH  24  25
ENDBRANCH  23  24
ENDBRANCH  22  23
ENDBRANCH  21  22
ENDBRANCH  20  21
ENDBRANCH  19  20
ENDBRANCH  18  19
ENDBRANCH  17  18
ENDBRANCH   1  17
TORSDOF 26
ENDMDL
MODEL 5
REMARK VINA RESULT:    -4.257      2.557      7.963
REMARK INTER + INTRA:         -15.331
REMARK INTER:                 -10.215
REMARK INTRA:                  -5.116
REMARK UNBOUND:                -4.603
REMARK SMILES CCCCCCCCCCCCCCCCCCCCCCCCCCCC(=O)[O-]
REMARK SMILES IDX 15 1 16 2 17 3 18 4 19 5 20 6 21 7 22 8 23 9 24 10 25 11
REMARK SMILES IDX 26 12 27 13 28 14 29 15 30 16 14 17 13 18 12 19 11 20 10 21
REMARK SMILES IDX 9 22 8 23 7 24 6 25 5 26 4 27 3 28 2 29 1 30
REMARK H PARENT
REMARK Flexibility Score: inf
ROOT
ATOM      1  C   UNL     1      35.511  33.249  22.267  1.00  0.00     0.000 C 
ENDROOT
BRANCH   1   2
ATOM      2  C   UNL     1      34.025  33.375  21.871  1.00  0.00     0.000 C 
BRANCH   2   3
ATOM      3  C   UNL     1      33.199  32.153  22.299  1.00  0.00     0.000 C 
BRANCH   3   4
ATOM      4  C   UNL     1      34.060  31.151  23.086  1.00  0.00     0.000 C 
BRANCH   4   5
ATOM      5  C   UNL     1      34.014  29.726  22.502  1.00  0.00     0.000 C 
BRANCH   5   6
ATOM      6  C   UNL     1      32.705  29.364  21.777  1.00  0.00     0.000 C 
BRANCH   6   7
ATOM      7  C   UNL     1      32.929  28.954  20.311  1.00  0.00     0.000 C 
BRANCH   7   8
ATOM      8  C   UNL     1      32.929  30.156  19.348  1.00  0.00     0.000 C 
BRANCH   8   9
ATOM      9  C   UNL     1      34.202  30.303  18.493  1.00  0.00     0.000 C 
BRANCH   9  10
ATOM     10  C   UNL     1      35.400  30.965  19.204  1.00  0.00     0.000 C 
BRANCH  10  11
ATOM     11  C   UNL     1      36.493  29.966  19.643  1.00  0.00     0.000 C 
BRANCH  11  12
ATOM     12  C   UNL     1      37.303  30.470  20.851  1.00  0.00     0.006 C 
BRANCH  12  13
ATOM     13  C   UNL     1      37.599  29.349  21.855  1.00  0.00     0.053 C 
BRANCH  13  14
ATOM     14  C   UNL     1      38.169  29.886  23.133  1.00  0.00     0.041 C 
ATOM     15  O   UNL     1      37.403  30.321  24.033  1.00  0.00    -0.550 OA
ATOM     16  O   UNL     1      39.543  29.889  23.336  1.00  0.00    -0.550 OA
ENDBRANCH  13  14
ENDBRANCH  12  13
ENDBRANCH  11  12
ENDBRANCH  10  11
ENDBRANCH   9  10
ENDBRANCH   8   9
ENDBRANCH   7   8
ENDBRANCH   6   7
ENDBRANCH   5   6
ENDBRANCH   4   5
ENDBRANCH   3   4
ENDBRANCH   2   3
ENDBRANCH   1   2
BRANCH   1  17
ATOM     17  C   UNL     1      36.059  34.465  23.033  1.00  0.00     0.000 C 
BRANCH  17  18
ATOM     18  C   UNL     1      34.971  35.239  23.790  1.00  0.00     0.000 C 
BRANCH  18  19
ATOM     19  C   UNL     1      35.098  35.029  25.307  1.00  0.00     0.000 C 
BRANCH  19  20
ATOM     20  C   UNL     1      34.437  33.726  25.785  1.00  0.00     0.000 C 
BRANCH  20  21
ATOM     21  C   UNL     1      35.462  32.620  26.098  1.00  0.00     0.000 C 
BRANCH  21  22
ATOM     22  C   UNL     1      36.610  33.120  26.989  1.00  0.00    -0.000 C 
BRANCH  22  23
ATOM     23  C   UNL     1      37.996  32.794  26.408  1.00  0.00    -0.000 C 
BRANCH  23  24
ATOM     24  C   UNL     1      38.673  34.014  25.759  1.00  0.00    -0.000 C 
BRANCH  24  25
ATOM     25  C   UNL     1      39.106  35.088  26.778  1.00  0.00    -0.000 C 
BRANCH  25  26
ATOM     26  C   UNL     1      38.553  36.480  26.427  1.00  0.00    -0.000 C 
BRANCH  26  27
ATOM     27  C   UNL     1      38.106  37.276  27.663  1.00  0.00    -0.000 C 
BRANCH  27  28
ATOM     28  C   UNL     1      36.580  37.253  27.894  1.00  0.00    -0.000 C 
BRANCH  28  29
ATOM     29  C   UNL     1      36.220  37.075  29.377  1.00  0.00    -0.003 C 
ATOM     30  C   UNL     1      36.112  35.597  29.744  1.00  0.00     0.004 C 
ENDBRANCH  28  29
ENDBRANCH  27  28
ENDBRANCH  26  27
ENDBRANCH  25  26
ENDBRANCH  24  25
ENDBRANCH  23  24
ENDBRANCH  22  23
ENDBRANCH  21  22
ENDBRANCH  20  21
ENDBRANCH  19  20
ENDBRANCH  18  19
ENDBRANCH  17  18
ENDBRANCH   1  17
TORSDOF 26
ENDMDL
MODEL 6
REMARK VINA RESULT:    -4.240      1.572      3.124
REMARK INTER + INTRA:         -15.289
REMARK INTER:                 -11.507
REMARK INTRA:                  -3.782
REMARK UNBOUND:                -4.603
REMARK SMILES CCCCCCCCCCCCCCCCCCCCCCCCCCCC(=O)[O-]
REMARK SMILES IDX 15 1 16 2 17 3 18 4 19 5 20 6 21 7 22 8 23 9 24 10 25 11
REMARK SMILES IDX 26 12 27 13 28 14 29 15 30 16 14 17 13 18 12 19 11 20 10 21
REMARK SMILES IDX 9 22 8 23 7 24 6 25 5 26 4 27 3 28 2 29 1 30
REMARK H PARENT
REMARK Flexibility Score: inf
ROOT
ATOM      1  C   UNL     1      33.730  31.745  22.523  1.00  0.00     0.000 C 
ENDROOT
BRANCH   1   2
ATOM      2  C   UNL     1      34.337  31.067  23.768  1.00  0.00     0.000 C 
BRANCH   2   3
ATOM      3  C   UNL     1      34.366  32.000  24.989  1.00  0.00     0.000 C 
BRANCH   3   4
ATOM      4  C   UNL     1      33.870  33.407  24.621  1.00  0.00     0.000 C 
BRANCH   4   5
ATOM      5  C   UNL     1      34.884  34.514  24.967  1.00  0.00     0.000 C 
BRANCH   5   6
ATOM      6  C   UNL     1      35.140  34.712  26.472  1.00  0.00     0.000 C 
BRANCH   6   7
ATOM      7  C   UNL     1      36.577  34.351  26.886  1.00  0.00     0.000 C 
BRANCH   7   8
ATOM      8  C   UNL     1      36.877  34.688  28.358  1.00  0.00     0.000 C 
BRANCH   8   9
ATOM      9  C   UNL     1      35.838  35.597  29.042  1.00  0.00     0.000 C 
BRANCH   9  10
ATOM     10  C   UNL     1      36.388  36.929  29.589  1.00  0.00     0.000 C 
BRANCH  10  11
ATOM     11  C   UNL     1      37.392  37.624  28.645  1.00  0.00     0.000 C 
BRANCH  11  12
ATOM     12  C   UNL     1      38.667  38.086  29.373  1.00  0.00     0.006 C 
BRANCH  12  13
ATOM     13  C   UNL     1      38.830  39.610  29.341  1.00  0.00     0.053 C 
BRANCH  13  14
ATOM     14  C   UNL     1      38.647  40.216  30.699  1.00  0.00     0.041 C 
ATOM     15  O   UNL     1      38.905  39.543  31.731  1.00  0.00    -0.550 OA
ATOM     16  O   UNL     1      38.210  41.529  30.823  1.00  0.00    -0.550 OA
ENDBRANCH  13  14
ENDBRANCH  12  13
ENDBRANCH  11  12
ENDBRANCH  10  11
ENDBRANCH   9  10
ENDBRANCH   8   9
ENDBRANCH   7   8
ENDBRANCH   6   7
ENDBRANCH   5   6
ENDBRANCH   4   5
ENDBRANCH   3   4
ENDBRANCH   2   3
ENDBRANCH   1   2
BRANCH   1  17
ATOM     17  C   UNL     1      32.625  30.922  21.839  1.00  0.00     0.000 C 
BRANCH  17  18
ATOM     18  C   UNL     1      32.827  29.408  21.985  1.00  0.00     0.000 C 
BRANCH  18  19
ATOM     19  C   UNL     1      32.936  28.731  20.610  1.00  0.00     0.000 C 
BRANCH  19  20
ATOM     20  C   UNL     1      32.927  29.736  19.448  1.00  0.00     0.000 C 
BRANCH  20  21
ATOM     21  C   UNL     1      34.032  29.457  18.413  1.00  0.00     0.000 C 
BRANCH  21  22
ATOM     22  C   UNL     1      35.381  29.125  19.071  1.00  0.00    -0.000 C 
BRANCH  22  23
ATOM     23  C   UNL     1      36.096  30.373  19.618  1.00  0.00    -0.000 C 
BRANCH  23  24
ATOM     24  C   UNL     1      36.646  30.169  21.040  1.00  0.00    -0.000 C 
BRANCH  24  25
ATOM     25  C   UNL     1      38.109  29.681  21.067  1.00  0.00    -0.000 C 
BRANCH  25  26
ATOM     26  C   UNL     1      38.683  29.640  22.493  1.00  0.00    -0.000 C 
BRANCH  26  27
ATOM     27  C   UNL     1      37.651  30.026  23.565  1.00  0.00    -0.000 C 
BRANCH  27  28
ATOM     28  C   UNL     1      38.047  31.272  24.385  1.00  0.00    -0.000 C 
BRANCH  28  29
ATOM     29  C   UNL     1      38.603  32.398  23.500  1.00  0.00    -0.003 C 
ATOM     30  C   UNL     1      37.477  33.227  22.890  1.00  0.00     0.004 C 
ENDBRANCH  28  29
ENDBRANCH  27  28
ENDBRANCH  26  27
ENDBRANCH  25  26
ENDBRANCH  24  25
ENDBRANCH  23  24
ENDBRANCH  22  23
ENDBRANCH  21  22
ENDBRANCH  20  21
ENDBRANCH  19  20
ENDBRANCH  18  19
ENDBRANCH  17  18
ENDBRANCH   1  17
TORSDOF 26
ENDMDL
MODEL 7
REMARK VINA RESULT:    -4.236      1.246      4.458
REMARK INTER + INTRA:         -15.277
REMARK INTER:                 -10.229
REMARK INTRA:                  -5.048
REMARK UNBOUND:                -4.603
REMARK SMILES CCCCCCCCCCCCCCCCCCCCCCCCCCCC(=O)[O-]
REMARK SMILES IDX 15 1 16 2 17 3 18 4 19 5 20 6 21 7 22 8 23 9 24 10 25 11
REMARK SMILES IDX 26 12 27 13 28 14 29 15 30 16 14 17 13 18 12 19 11 20 10 21
REMARK SMILES IDX 9 22 8 23 7 24 6 25 5 26 4 27 3 28 2 29 1 30
REMARK H PARENT
REMARK Flexibility Score: inf
ROOT
ATOM      1  C   UNL     1      35.734  31.975  19.614  1.00  0.00     0.000 C 
ENDROOT
BRANCH   1   2
ATOM      2  C   UNL     1      36.561  30.745  19.187  1.00  0.00     0.000 C 
BRANCH   2   3
ATOM      3  C   UNL     1      36.563  29.640  20.255  1.00  0.00     0.000 C 
BRANCH   3   4
ATOM      4  C   UNL     1      37.757  29.795  21.210  1.00  0.00     0.000 C 
BRANCH   4   5
ATOM      5  C   UNL     1      37.386  29.545  22.685  1.00  0.00     0.000 C 
BRANCH   5   6
ATOM      6  C   UNL     1      37.669  30.724  23.634  1.00  0.00     0.000 C 
BRANCH   6   7
ATOM      7  C   UNL     1      37.369  32.090  22.995  1.00  0.00     0.000 C 
BRANCH   7   8
ATOM      8  C   UNL     1      36.981  33.161  24.031  1.00  0.00     0.000 C 
BRANCH   8   9
ATOM      9  C   UNL     1      36.321  32.617  25.312  1.00  0.00     0.000 C 
BRANCH   9  10
ATOM     10  C   UNL     1      35.925  33.684  26.353  1.00  0.00     0.000 C 
BRANCH  10  11
ATOM     11  C   UNL     1      37.095  34.148  27.246  1.00  0.00     0.000 C 
BRANCH  11  12
ATOM     12  C   UNL     1      36.623  34.687  28.608  1.00  0.00     0.006 C 
BRANCH  12  13
ATOM     13  C   UNL     1      36.170  36.150  28.525  1.00  0.00     0.053 C 
BRANCH  13  14
ATOM     14  C   UNL     1      37.234  37.087  29.007  1.00  0.00     0.041 C 
ATOM     15  O   UNL     1      38.369  36.646  29.325  1.00  0.00    -0.550 OA
ATOM     16  O   UNL     1      36.978  38.451  29.087  1.00  0.00    -0.550 OA
ENDBRANCH  13  14
ENDBRANCH  12  13
ENDBRANCH  11  12
ENDBRANCH  10  11
ENDBRANCH   9  10
ENDBRANCH   8   9
ENDBRANCH   7   8
ENDBRANCH   6   7
ENDBRANCH   5   6
ENDBRANCH   4   5
ENDBRANCH   3   4
ENDBRANCH   2   3
ENDBRANCH   1   2
BRANCH   1  17
ATOM     17  C   UNL     1      34.581  32.317  18.656  1.00  0.00     0.000 C 
BRANCH  17  18
ATOM     18  C   UNL     1      34.116  31.116  17.823  1.00  0.00     0.000 C 
BRANCH  18  19
ATOM     19  C   UNL     1      32.903  30.431  18.470  1.00  0.00     0.000 C 
BRANCH  19  20
ATOM     20  C   UNL     1      33.153  28.948  18.785  1.00  0.00     0.000 C 
BRANCH  20  21
ATOM     21  C   UNL     1      32.911  28.605  20.266  1.00  0.00     0.000 C 
BRANCH  21  22
ATOM     22  C   UNL     1      32.757  29.861  21.139  1.00  0.00    -0.000 C 
BRANCH  22  23
ATOM     23  C   UNL     1      33.639  29.819  22.399  1.00  0.00    -0.000 C 
BRANCH  23  24
ATOM     24  C   UNL     1      33.893  31.213  22.996  1.00  0.00    -0.000 C 
BRANCH  24  25
ATOM     25  C   UNL     1      33.157  32.344  22.247  1.00  0.00    -0.000 C 
BRANCH  25  26
ATOM     26  C   UNL     1      33.521  33.735  22.792  1.00  0.00    -0.000 C 
BRANCH  26  27
ATOM     27  C   UNL     1      34.258  34.607  21.763  1.00  0.00    -0.000 C 
BRANCH  27  28
ATOM     28  C   UNL     1      34.632  36.008  22.293  1.00  0.00    -0.000 C 
BRANCH  28  29
ATOM     29  C   UNL     1      34.678  36.055  23.828  1.00  0.00    -0.003 C 
ATOM     30  C   UNL     1      34.368  37.456  24.347  1.00  0.00     0.004 C 
ENDBRANCH  28  29
ENDBRANCH  27  28
ENDBRANCH  26  27
ENDBRANCH  25  26
ENDBRANCH  24  25
ENDBRANCH  23  24
ENDBRANCH  22  23
ENDBRANCH  21  22
ENDBRANCH  20  21
ENDBRANCH  19  20
ENDBRANCH  18  19
ENDBRANCH  17  18
ENDBRANCH   1  17
TORSDOF 26
ENDMDL
MODEL 8
REMARK VINA RESULT:    -4.231      3.313      7.085
REMARK INTER + INTRA:         -15.266
REMARK INTER:                  -9.618
REMARK INTRA:                  -5.648
REMARK UNBOUND:                -4.603
REMARK SMILES CCCCCCCCCCCCCCCCCCCCCCCCCCCC(=O)[O-]
REMARK SMILES IDX 15 1 16 2 17 3 18 4 19 5 20 6 21 7 22 8 23 9 24 10 25 11
REMARK SMILES IDX 26 12 27 13 28 14 29 15 30 16 14 17 13 18 12 19 11 20 10 21
REMARK SMILES IDX 9 22 8 23 7 24 6 25 5 26 4 27 3 28 2 29 1 30
REMARK H PARENT
REMARK Flexibility Score: inf
ROOT
ATOM      1  C   UNL     1      35.922  31.863  19.108  1.00  0.00     0.000 C 
ENDROOT
BRANCH   1   2
ATOM      2  C   UNL     1      35.131  30.635  18.612  1.00  0.00     0.000 C 
BRANCH   2   3
ATOM      3  C   UNL     1      33.613  30.874  18.619  1.00  0.00     0.000 C 
BRANCH   3   4
ATOM      4  C   UNL     1      32.843  29.547  18.537  1.00  0.00     0.000 C 
BRANCH   4   5
ATOM      5  C   UNL     1      33.076  28.637  19.759  1.00  0.00     0.000 C 
BRANCH   5   6
ATOM      6  C   UNL     1      32.417  29.122  21.063  1.00  0.00     0.000 C 
BRANCH   6   7
ATOM      7  C   UNL     1      33.407  29.198  22.239  1.00  0.00     0.000 C 
BRANCH   7   8
ATOM      8  C   UNL     1      33.976  30.614  22.448  1.00  0.00     0.000 C 
BRANCH   8   9
ATOM      9  C   UNL     1      32.968  31.759  22.233  1.00  0.00     0.000 C 
BRANCH   9  10
ATOM     10  C   UNL     1      33.549  33.034  21.591  1.00  0.00     0.000 C 
BRANCH  10  11
ATOM     11  C   UNL     1      33.344  34.308  22.438  1.00  0.00     0.000 C 
BRANCH  11  12
ATOM     12  C   UNL     1      33.699  35.594  21.670  1.00  0.00     0.006 C 
BRANCH  12  13
ATOM     13  C   UNL     1      33.644  35.393  20.151  1.00  0.00     0.053 C 
BRANCH  13  14
ATOM     14  C   UNL     1      32.967  36.540  19.465  1.00  0.00     0.041 C 
ATOM     15  O   UNL     1      33.561  37.168  18.549  1.00  0.00    -0.550 OA
ATOM     16  O   UNL     1      31.675  36.903  19.824  1.00  0.00    -0.550 OA
ENDBRANCH  13  14
ENDBRANCH  12  13
ENDBRANCH  11  12
ENDBRANCH  10  11
ENDBRANCH   9  10
ENDBRANCH   8   9
ENDBRANCH   7   8
ENDBRANCH   6   7
ENDBRANCH   5   6
ENDBRANCH   4   5
ENDBRANCH   3   4
ENDBRANCH   2   3
ENDBRANCH   1   2
BRANCH   1  17
ATOM     17  C   UNL     1      37.032  31.524  20.118  1.00  0.00     0.000 C 
BRANCH  17  18
ATOM     18  C   UNL     1      37.078  30.035  20.484  1.00  0.00     0.000 C 
BRANCH  18  19
ATOM     19  C   UNL     1      38.231  29.740  21.454  1.00  0.00     0.000 C 
BRANCH  19  20
ATOM     20  C   UNL     1      37.744  29.332  22.853  1.00  0.00     0.000 C 
BRANCH  20  21
ATOM     21  C   UNL     1      38.040  30.400  23.921  1.00  0.00     0.000 C 
BRANCH  21  22
ATOM     22  C   UNL     1      37.073  31.592  23.841  1.00  0.00    -0.000 C 
BRANCH  22  23
ATOM     23  C   UNL     1      37.801  32.933  23.644  1.00  0.00    -0.000 C 
BRANCH  23  24
ATOM     24  C   UNL     1      37.032  33.898  22.726  1.00  0.00    -0.000 C 
BRANCH  24  25
ATOM     25  C   UNL     1      36.988  35.346  23.258  1.00  0.00    -0.000 C 
BRANCH  25  26
ATOM     26  C   UNL     1      36.800  35.399  24.783  1.00  0.00    -0.000 C 
BRANCH  26  27
ATOM     27  C   UNL     1      35.380  35.817  25.197  1.00  0.00    -0.000 C 
BRANCH  27  28
ATOM     28  C   UNL     1      34.768  34.923  26.297  1.00  0.00    -0.000 C 
BRANCH  28  29
ATOM     29  C   UNL     1      35.160  33.447  26.132  1.00  0.00    -0.003 C 
ATOM     30  C   UNL     1      33.966  32.606  25.690  1.00  0.00     0.004 C 
ENDBRANCH  28  29
ENDBRANCH  27  28
ENDBRANCH  26  27
ENDBRANCH  25  26
ENDBRANCH  24  25
ENDBRANCH  23  24
ENDBRANCH  22  23
ENDBRANCH  21  22
ENDBRANCH  20  21
ENDBRANCH  19  20
ENDBRANCH  18  19
ENDBRANCH  17  18
ENDBRANCH   1  17
TORSDOF 26
ENDMDL
MODEL 9
REMARK VINA RESULT:    -4.222      1.348      3.704
REMARK INTER + INTRA:         -15.242
REMARK INTER:                 -10.632
REMARK INTRA:                  -4.611
REMARK UNBOUND:                -4.603
REMARK SMILES CCCCCCCCCCCCCCCCCCCCCCCCCCCC(=O)[O-]
REMARK SMILES IDX 15 1 16 2 17 3 18 4 19 5 20 6 21 7 22 8 23 9 24 10 25 11
REMARK SMILES IDX 26 12 27 13 28 14 29 15 30 16 14 17 13 18 12 19 11 20 10 21
REMARK SMILES IDX 9 22 8 23 7 24 6 25 5 26 4 27 3 28 2 29 1 30
REMARK H PARENT
REMARK Flexibility Score: inf
ROOT
ATOM      1  C   UNL     1      37.729  33.774  22.993  1.00  0.00     0.000 C 
ENDROOT
BRANCH   1   2
ATOM      2  C   UNL     1      36.301  34.018  22.461  1.00  0.00     0.000 C 
BRANCH   2   3
ATOM      3  C   UNL     1      35.519  35.023  23.322  1.00  0.00     0.000 C 
BRANCH   3   4
ATOM      4  C   UNL     1      34.008  34.748  23.258  1.00  0.00     0.000 C 
BRANCH   4   5
ATOM      5  C   UNL     1      33.625  33.354  23.790  1.00  0.00     0.000 C 
BRANCH   5   6
ATOM      6  C   UNL     1      33.617  33.224  25.324  1.00  0.00     0.000 C 
BRANCH   6   7
ATOM      7  C   UNL     1      34.469  32.048  25.828  1.00  0.00     0.000 C 
BRANCH   7   8
ATOM      8  C   UNL     1      35.972  32.377  25.876  1.00  0.00     0.000 C 
BRANCH   8   9
ATOM      9  C   UNL     1      36.422  33.184  27.109  1.00  0.00     0.000 C 
BRANCH   9  10
ATOM     10  C   UNL     1      36.855  34.636  26.823  1.00  0.00     0.000 C 
BRANCH  10  11
ATOM     11  C   UNL     1      35.781  35.688  27.176  1.00  0.00     0.000 C 
BRANCH  11  12
ATOM     12  C   UNL     1      35.735  36.004  28.681  1.00  0.00     0.006 C 
BRANCH  12  13
ATOM     13  C   UNL     1      37.134  36.031  29.309  1.00  0.00     0.053 C 
BRANCH  13  14
ATOM     14  C   UNL     1      37.704  37.416  29.332  1.00  0.00     0.041 C 
ATOM     15  O   UNL     1      36.994  38.398  28.989  1.00  0.00    -0.550 OA
ATOM     16  O   UNL     1      39.013  37.624  29.750  1.00  0.00    -0.550 OA
ENDBRANCH  13  14
ENDBRANCH  12  13
ENDBRANCH  11  12
ENDBRANCH  10  11
ENDBRANCH   9  10
ENDBRANCH   8   9
ENDBRANCH   7   8
ENDBRANCH   6   7
ENDBRANCH   5   6
ENDBRANCH   4   5
ENDBRANCH   3   4
ENDBRANCH   2   3
ENDBRANCH   1   2
BRANCH   1  17
ATOM     17  C   UNL     1      38.534  32.752  22.173  1.00  0.00     0.000 C 
BRANCH  17  18
ATOM     18  C   UNL     1      39.148  31.640  23.035  1.00  0.00     0.000 C 
BRANCH  18  19
ATOM     19  C   UNL     1      38.070  30.662  23.525  1.00  0.00     0.000 C 
BRANCH  19  20
ATOM     20  C   UNL     1      37.756  29.559  22.502  1.00  0.00     0.000 C 
BRANCH  20  21
ATOM     21  C   UNL     1      36.419  29.786  21.774  1.00  0.00     0.000 C 
BRANCH  21  22
ATOM     22  C   UNL     1      35.374  30.470  22.670  1.00  0.00    -0.000 C 
BRANCH  22  23
ATOM     23  C   UNL     1      34.020  29.741  22.664  1.00  0.00    -0.000 C 
BRANCH  23  24
ATOM     24  C   UNL     1      32.954  30.471  21.830  1.00  0.00    -0.000 C 
BRANCH  24  25
ATOM     25  C   UNL     1      32.123  29.527  20.935  1.00  0.00    -0.000 C 
BRANCH  25  26
ATOM     26  C   UNL     1      33.009  28.641  20.044  1.00  0.00    -0.000 C 
BRANCH  26  27
ATOM     27  C   UNL     1      33.894  29.451  19.083  1.00  0.00    -0.000 C 
BRANCH  27  28
ATOM     28  C   UNL     1      33.236  30.759  18.592  1.00  0.00    -0.000 C 
BRANCH  28  29
ATOM     29  C   UNL     1      34.252  31.903  18.454  1.00  0.00    -0.003 C 
ATOM     30  C   UNL     1      34.009  32.986  19.502  1.00  0.00     0.004 C 
ENDBRANCH  28  29
ENDBRANCH  27  28
ENDBRANCH  26  27
ENDBRANCH  25  26
ENDBRANCH  24  25
ENDBRANCH  23  24
ENDBRANCH  22  23
ENDBRANCH  21  22
ENDBRANCH  20  21
ENDBRANCH  19  20
ENDBRANCH  18  19
ENDBRANCH  17  18
ENDBRANCH   1  17
TORSDOF 26
ENDMDL
