MODEL 1
REMARK VINA RESULT:    -7.320      0.000      0.000
REMARK INTER + INTRA:          -8.539
REMARK INTER:                  -8.818
REMARK INTRA:                   0.279
REMARK UNBOUND:                 0.279
REMARK SMILES O=c1c(O)c(-c2ccc(O)c(O)c2)oc2cc(O)cc(O)c12
REMARK SMILES IDX 5 1 3 2 2 3 1 4 22 5 20 6 19 7 17 8 16 9 15 10 14 11 6 12
REMARK SMILES IDX 7 13 8 14 9 15 13 16 11 17 10 18 12 20 4 22 21 24 18 26
REMARK H PARENT 10 19 12 21 4 23 21 25 18 27
REMARK Flexibility Score: inf
ROOT
ATOM      1  C   UNL     1     -10.734  -8.823  38.579  1.00  0.00     0.180 A 
ATOM      2  C   UNL     1      -9.838  -9.120  37.537  1.00  0.00     0.208 A 
ATOM      3  C   UNL     1      -8.782 -10.011  37.781  1.00  0.00     0.238 A 
ATOM      4  O   UNL     1      -7.952 -10.231  36.860  1.00  0.00    -0.285 OA
ATOM      5  C   UNL     1      -8.642 -10.606  39.058  1.00  0.00     0.111 A 
ATOM      6  C   UNL     1      -7.633 -11.553  39.405  1.00  0.00     0.134 A 
ATOM      7  C   UNL     1      -7.510 -11.977  40.733  1.00  0.00     0.093 A 
ATOM      8  C   UNL     1      -8.399 -11.540  41.714  1.00  0.00     0.123 A 
ATOM      9  C   UNL     1      -9.427 -10.659  41.374  1.00  0.00     0.094 A 
ATOM     10  C   UNL     1      -9.552 -10.190  40.064  1.00  0.00     0.146 A 
ATOM     11  O   UNL     1     -10.538  -9.345  39.784  1.00  0.00    -0.452 OA
ENDROOT
BRANCH   1  12
ATOM     12  C   UNL     1     -11.887  -7.912  38.392  1.00  0.00     0.025 A 
ATOM     13  C   UNL     1     -12.427  -7.243  39.502  1.00  0.00     0.016 A 
ATOM     14  C   UNL     1     -13.528  -6.396  39.351  1.00  0.00     0.051 A 
ATOM     15  C   UNL     1     -14.115  -6.218  38.092  1.00  0.00     0.157 A 
ATOM     16  C   UNL     1     -12.491  -7.746  37.133  1.00  0.00     0.062 A 
ATOM     17  C   UNL     1     -13.596  -6.899  36.979  1.00  0.00     0.158 A 
BRANCH  15  18
ATOM     18  O   UNL     1     -15.211  -5.369  37.944  1.00  0.00    -0.504 OA
ATOM     19  H   UNL     1     -15.641  -4.913  38.742  1.00  0.00     0.293 HD
ENDBRANCH  15  18
BRANCH  17  20
ATOM     20  O   UNL     1     -14.166  -6.753  35.715  1.00  0.00    -0.504 OA
ATOM     21  H   UNL     1     -13.857  -7.298  34.919  1.00  0.00     0.293 HD
ENDBRANCH  17  20
ENDBRANCH   1  12
BRANCH   2  22
ATOM     22  O   UNL     1      -9.982  -8.504  36.291  1.00  0.00    -0.502 OA
ATOM     23  H   UNL     1      -9.961  -7.498  36.175  1.00  0.00     0.293 HD
ENDBRANCH   2  22
BRANCH   6  24
ATOM     24  O   UNL     1      -6.750 -12.125  38.483  1.00  0.00    -0.507 OA
ATOM     25  H   UNL     1      -5.911 -11.682  38.140  1.00  0.00     0.293 HD
ENDBRANCH   6  24
BRANCH   8  26
ATOM     26  O   UNL     1      -8.257 -11.993  43.023  1.00  0.00    -0.508 OA
ATOM     27  H   UNL     1      -7.760 -11.452  43.721  1.00  0.00     0.293 HD
ENDBRANCH   8  26
TORSDOF 6
ENDMDL
MODEL 2
REMARK VINA RESULT:    -7.150      4.664      7.592
REMARK INTER + INTRA:          -8.334
REMARK INTER:                  -8.091
REMARK INTRA:                  -0.242
REMARK UNBOUND:                 0.279
REMARK SMILES O=c1c(O)c(-c2ccc(O)c(O)c2)oc2cc(O)cc(O)c12
REMARK SMILES IDX 5 1 3 2 2 3 1 4 22 5 20 6 19 7 17 8 16 9 15 10 14 11 6 12
REMARK SMILES IDX 7 13 8 14 9 15 13 16 11 17 10 18 12 20 4 22 21 24 18 26
REMARK H PARENT 10 19 12 21 4 23 21 25 18 27
REMARK Flexibility Score: inf
ROOT
ATOM      1  C   UNL     1     -14.365  -5.901  41.184  1.00  0.00     0.180 A 
ATOM      2  C   UNL     1     -13.446  -5.127  41.913  1.00  0.00     0.208 A 
ATOM      3  C   UNL     1     -13.611  -5.004  43.302  1.00  0.00     0.238 A 
ATOM      4  O   UNL     1     -12.817  -4.266  43.942  1.00  0.00    -0.285 OA
ATOM      5  C   UNL     1     -14.682  -5.669  43.946  1.00  0.00     0.111 A 
ATOM      6  C   UNL     1     -14.921  -5.648  45.353  1.00  0.00     0.134 A 
ATOM      7  C   UNL     1     -16.085  -6.233  45.865  1.00  0.00     0.093 A 
ATOM      8  C   UNL     1     -16.984  -6.897  45.031  1.00  0.00     0.123 A 
ATOM      9  C   UNL     1     -16.730  -6.975  43.661  1.00  0.00     0.094 A 
ATOM     10  C   UNL     1     -15.596  -6.369  43.116  1.00  0.00     0.146 A 
ATOM     11  O   UNL     1     -15.396  -6.458  41.807  1.00  0.00    -0.452 OA
ENDROOT
BRANCH   1  12
ATOM     12  C   UNL     1     -14.242  -6.097  39.720  1.00  0.00     0.025 A 
ATOM     13  C   UNL     1     -15.210  -5.545  38.866  1.00  0.00     0.016 A 
ATOM     14  C   UNL     1     -15.126  -5.736  37.485  1.00  0.00     0.051 A 
ATOM     15  C   UNL     1     -14.083  -6.495  36.938  1.00  0.00     0.157 A 
ATOM     16  C   UNL     1     -13.209  -6.876  39.170  1.00  0.00     0.062 A 
ATOM     17  C   UNL     1     -13.123  -7.070  37.786  1.00  0.00     0.158 A 
BRANCH  15  18
ATOM     18  O   UNL     1     -14.000  -6.681  35.559  1.00  0.00    -0.504 OA
ATOM     19  H   UNL     1     -13.272  -6.242  35.007  1.00  0.00     0.293 HD
ENDBRANCH  15  18
BRANCH  17  20
ATOM     20  O   UNL     1     -12.081  -7.842  37.275  1.00  0.00    -0.504 OA
ATOM     21  H   UNL     1     -12.130  -8.278  36.362  1.00  0.00     0.293 HD
ENDBRANCH  17  20
ENDBRANCH   1  12
BRANCH   2  22
ATOM     22  O   UNL     1     -12.409  -4.461  41.255  1.00  0.00    -0.502 OA
ATOM     23  H   UNL     1     -11.437  -4.728  41.360  1.00  0.00     0.293 HD
ENDBRANCH   2  22
BRANCH   6  24
ATOM     24  O   UNL     1     -14.040  -5.092  46.285  1.00  0.00    -0.507 OA
ATOM     25  H   UNL     1     -14.202  -4.232  46.787  1.00  0.00     0.293 HD
ENDBRANCH   6  24
BRANCH   8  26
ATOM     26  O   UNL     1     -18.125  -7.481  45.577  1.00  0.00    -0.508 OA
ATOM     27  H   UNL     1     -18.081  -8.048  46.416  1.00  0.00     0.293 HD
ENDBRANCH   8  26
TORSDOF 6
ENDMDL
MODEL 3
REMARK VINA RESULT:    -7.071      7.447      9.274
REMARK INTER + INTRA:          -8.239
REMARK INTER:                  -8.556
REMARK INTRA:                   0.317
REMARK UNBOUND:                 0.279
REMARK SMILES O=c1c(O)c(-c2ccc(O)c(O)c2)oc2cc(O)cc(O)c12
REMARK SMILES IDX 5 1 3 2 2 3 1 4 22 5 20 6 19 7 17 8 16 9 15 10 14 11 6 12
REMARK SMILES IDX 7 13 8 14 9 15 13 16 11 17 10 18 12 20 4 22 21 24 18 26
REMARK H PARENT 10 19 12 21 4 23 21 25 18 27
REMARK Flexibility Score: inf
ROOT
ATOM      1  C   UNL     1     -16.859  -7.634  43.719  1.00  0.00     0.180 A 
ATOM      2  C   UNL     1     -17.225  -8.919  44.156  1.00  0.00     0.208 A 
ATOM      3  C   UNL     1     -17.093  -9.238  45.517  1.00  0.00     0.238 A 
ATOM      4  O   UNL     1     -17.372 -10.406  45.894  1.00  0.00    -0.285 OA
ATOM      5  C   UNL     1     -16.611  -8.265  46.426  1.00  0.00     0.111 A 
ATOM      6  C   UNL     1     -16.474  -8.466  47.832  1.00  0.00     0.134 A 
ATOM      7  C   UNL     1     -15.864  -7.479  48.614  1.00  0.00     0.093 A 
ATOM      8  C   UNL     1     -15.446  -6.272  48.055  1.00  0.00     0.123 A 
ATOM      9  C   UNL     1     -15.629  -6.040  46.691  1.00  0.00     0.094 A 
ATOM     10  C   UNL     1     -16.201  -7.021  45.877  1.00  0.00     0.146 A 
ATOM     11  O   UNL     1     -16.348  -6.766  44.583  1.00  0.00    -0.452 OA
ENDROOT
BRANCH   1  12
ATOM     12  C   UNL     1     -16.994  -7.216  42.304  1.00  0.00     0.025 A 
ATOM     13  C   UNL     1     -17.994  -7.794  41.506  1.00  0.00     0.016 A 
ATOM     14  C   UNL     1     -18.125  -7.430  40.163  1.00  0.00     0.051 A 
ATOM     15  C   UNL     1     -17.249  -6.496  39.595  1.00  0.00     0.157 A 
ATOM     16  C   UNL     1     -16.103  -6.295  41.725  1.00  0.00     0.062 A 
ATOM     17  C   UNL     1     -16.231  -5.930  40.379  1.00  0.00     0.158 A 
BRANCH  15  18
ATOM     18  O   UNL     1     -17.384  -6.133  38.255  1.00  0.00    -0.504 OA
ATOM     19  H   UNL     1     -16.578  -5.925  37.678  1.00  0.00     0.293 HD
ENDBRANCH  15  18
BRANCH  17  20
ATOM     20  O   UNL     1     -15.335  -5.008  39.840  1.00  0.00    -0.504 OA
ATOM     21  H   UNL     1     -15.286  -4.050  40.166  1.00  0.00     0.293 HD
ENDBRANCH  17  20
ENDBRANCH   1  12
BRANCH   2  22
ATOM     22  O   UNL     1     -17.678  -9.871  43.239  1.00  0.00    -0.502 OA
ATOM     23  H   UNL     1     -17.091 -10.234  42.497  1.00  0.00     0.293 HD
ENDBRANCH   2  22
BRANCH   6  24
ATOM     24  O   UNL     1     -16.942  -9.597  48.507  1.00  0.00    -0.507 OA
ATOM     25  H   UNL     1     -17.476  -9.576  49.362  1.00  0.00     0.293 HD
ENDBRANCH   6  24
BRANCH   8  26
ATOM     26  O   UNL     1     -14.857  -5.305  48.866  1.00  0.00    -0.508 OA
ATOM     27  H   UNL     1     -13.851  -5.241  48.969  1.00  0.00     0.293 HD
ENDBRANCH   8  26
TORSDOF 6
ENDMDL
MODEL 4
REMARK VINA RESULT:    -7.016      8.360     10.595
REMARK INTER + INTRA:          -8.172
REMARK INTER:                  -7.899
REMARK INTRA:                  -0.273
REMARK UNBOUND:                 0.279
REMARK SMILES O=c1c(O)c(-c2ccc(O)c(O)c2)oc2cc(O)cc(O)c12
REMARK SMILES IDX 5 1 3 2 2 3 1 4 22 5 20 6 19 7 17 8 16 9 15 10 14 11 6 12
REMARK SMILES IDX 7 13 8 14 9 15 13 16 11 17 10 18 12 20 4 22 21 24 18 26
REMARK H PARENT 10 19 12 21 4 23 21 25 18 27
REMARK Flexibility Score: inf
ROOT
ATOM      1  C   UNL     1     -13.308  -8.285  47.000  1.00  0.00     0.180 A 
ATOM      2  C   UNL     1     -13.628  -9.651  47.084  1.00  0.00     0.208 A 
ATOM      3  C   UNL     1     -14.756 -10.129  46.399  1.00  0.00     0.238 A 
ATOM      4  O   UNL     1     -15.069 -11.343  46.523  1.00  0.00    -0.285 OA
ATOM      5  C   UNL     1     -15.541  -9.240  45.626  1.00  0.00     0.111 A 
ATOM      6  C   UNL     1     -16.682  -9.623  44.859  1.00  0.00     0.134 A 
ATOM      7  C   UNL     1     -17.459  -8.638  44.238  1.00  0.00     0.093 A 
ATOM      8  C   UNL     1     -17.100  -7.292  44.301  1.00  0.00     0.123 A 
ATOM      9  C   UNL     1     -15.953  -6.912  44.999  1.00  0.00     0.094 A 
ATOM     10  C   UNL     1     -15.178  -7.868  45.659  1.00  0.00     0.146 A 
ATOM     11  O   UNL     1     -14.100  -7.465  46.321  1.00  0.00    -0.452 OA
ENDROOT
BRANCH   1  12
ATOM     12  C   UNL     1     -12.120  -7.712  47.674  1.00  0.00     0.025 A 
ATOM     13  C   UNL     1     -12.167  -7.449  49.052  1.00  0.00     0.016 A 
ATOM     14  C   UNL     1     -11.066  -6.889  49.704  1.00  0.00     0.051 A 
ATOM     15  C   UNL     1      -9.908  -6.567  48.985  1.00  0.00     0.157 A 
ATOM     16  C   UNL     1     -10.963  -7.369  46.952  1.00  0.00     0.062 A 
ATOM     17  C   UNL     1      -9.858  -6.805  47.602  1.00  0.00     0.158 A 
BRANCH  15  18
ATOM     18  O   UNL     1      -8.809  -6.011  49.639  1.00  0.00    -0.504 OA
ATOM     19  H   UNL     1      -7.871  -6.090  49.262  1.00  0.00     0.293 HD
ENDBRANCH  15  18
BRANCH  17  20
ATOM     20  O   UNL     1      -8.725  -6.484  46.856  1.00  0.00    -0.504 OA
ATOM     21  H   UNL     1      -7.865  -7.016  46.926  1.00  0.00     0.293 HD
ENDBRANCH  17  20
ENDBRANCH   1  12
BRANCH   2  22
ATOM     22  O   UNL     1     -12.853 -10.508  47.871  1.00  0.00    -0.502 OA
ATOM     23  H   UNL     1     -11.989 -10.920  47.537  1.00  0.00     0.293 HD
ENDBRANCH   2  22
BRANCH   6  24
ATOM     24  O   UNL     1     -17.076 -10.949  44.655  1.00  0.00    -0.507 OA
ATOM     25  H   UNL     1     -17.226 -11.372  43.752  1.00  0.00     0.293 HD
ENDBRANCH   6  24
BRANCH   8  26
ATOM     26  O   UNL     1     -17.888  -6.340  43.658  1.00  0.00    -0.508 OA
ATOM     27  H   UNL     1     -18.197  -6.465  42.701  1.00  0.00     0.293 HD
ENDBRANCH   8  26
TORSDOF 6
ENDMDL
MODEL 5
REMARK VINA RESULT:    -6.931      7.090      8.780
REMARK INTER + INTRA:          -8.070
REMARK INTER:                  -7.758
REMARK INTRA:                  -0.312
REMARK UNBOUND:                 0.279
REMARK SMILES O=c1c(O)c(-c2ccc(O)c(O)c2)oc2cc(O)cc(O)c12
REMARK SMILES IDX 5 1 3 2 2 3 1 4 22 5 20 6 19 7 17 8 16 9 15 10 14 11 6 12
REMARK SMILES IDX 7 13 8 14 9 15 13 16 11 17 10 18 12 20 4 22 21 24 18 26
REMARK H PARENT 10 19 12 21 4 23 21 25 18 27
REMARK Flexibility Score: inf
ROOT
ATOM      1  C   UNL     1     -15.731  -7.357  44.827  1.00  0.00     0.180 A 
ATOM      2  C   UNL     1     -15.641  -6.386  45.840  1.00  0.00     0.208 A 
ATOM      3  C   UNL     1     -15.084  -6.745  47.077  1.00  0.00     0.238 A 
ATOM      4  O   UNL     1     -15.055  -5.886  47.998  1.00  0.00    -0.285 OA
ATOM      5  C   UNL     1     -14.610  -8.063  47.282  1.00  0.00     0.111 A 
ATOM      6  C   UNL     1     -13.991  -8.525  48.482  1.00  0.00     0.134 A 
ATOM      7  C   UNL     1     -13.679  -9.882  48.620  1.00  0.00     0.093 A 
ATOM      8  C   UNL     1     -13.903 -10.782  47.579  1.00  0.00     0.123 A 
ATOM      9  C   UNL     1     -14.454 -10.331  46.379  1.00  0.00     0.094 A 
ATOM     10  C   UNL     1     -14.809  -8.988  46.225  1.00  0.00     0.146 A 
ATOM     11  O   UNL     1     -15.339  -8.601  45.071  1.00  0.00    -0.452 OA
ENDROOT
BRANCH   1  12
ATOM     12  C   UNL     1     -16.284  -7.048  43.487  1.00  0.00     0.025 A 
ATOM     13  C   UNL     1     -17.591  -7.448  43.170  1.00  0.00     0.016 A 
ATOM     14  C   UNL     1     -18.125  -7.186  41.906  1.00  0.00     0.051 A 
ATOM     15  C   UNL     1     -17.354  -6.535  40.935  1.00  0.00     0.157 A 
ATOM     16  C   UNL     1     -15.506  -6.412  42.503  1.00  0.00     0.062 A 
ATOM     17  C   UNL     1     -16.037  -6.150  41.234  1.00  0.00     0.158 A 
BRANCH  15  18
ATOM     18  O   UNL     1     -17.890  -6.272  39.675  1.00  0.00    -0.504 OA
ATOM     19  H   UNL     1     -18.293  -5.369  39.447  1.00  0.00     0.293 HD
ENDBRANCH  15  18
BRANCH  17  20
ATOM     20  O   UNL     1     -15.239  -5.512  40.286  1.00  0.00    -0.504 OA
ATOM     21  H   UNL     1     -14.355  -5.898  39.978  1.00  0.00     0.293 HD
ENDBRANCH  17  20
ENDBRANCH   1  12
BRANCH   2  22
ATOM     22  O   UNL     1     -16.135  -5.097  45.624  1.00  0.00    -0.502 OA
ATOM     23  H   UNL     1     -15.530  -4.288  45.548  1.00  0.00     0.293 HD
ENDBRANCH   2  22
BRANCH   6  24
ATOM     24  O   UNL     1     -13.639  -7.692  49.549  1.00  0.00    -0.507 OA
ATOM     25  H   UNL     1     -12.742  -7.696  50.009  1.00  0.00     0.293 HD
ENDBRANCH   6  24
BRANCH   8  26
ATOM     26  O   UNL     1     -13.567 -12.124  47.745  1.00  0.00    -0.508 OA
ATOM     27  H   UNL     1     -14.044 -12.710  48.420  1.00  0.00     0.293 HD
ENDBRANCH   8  26
TORSDOF 6
ENDMDL
MODEL 6
REMARK VINA RESULT:    -6.865      1.918      6.906
REMARK INTER + INTRA:          -7.991
REMARK INTER:                  -7.888
REMARK INTRA:                  -0.104
REMARK UNBOUND:                 0.279
REMARK SMILES O=c1c(O)c(-c2ccc(O)c(O)c2)oc2cc(O)cc(O)c12
REMARK SMILES IDX 5 1 3 2 2 3 1 4 22 5 20 6 19 7 17 8 16 9 15 10 14 11 6 12
REMARK SMILES IDX 7 13 8 14 9 15 13 16 11 17 10 18 12 20 4 22 21 24 18 26
REMARK H PARENT 10 19 12 21 4 23 21 25 18 27
REMARK Flexibility Score: inf
ROOT
ATOM      1  C   UNL     1     -11.039  -8.235  40.056  1.00  0.00     0.180 A 
ATOM      2  C   UNL     1     -10.945  -8.729  38.744  1.00  0.00     0.208 A 
ATOM      3  C   UNL     1     -11.848  -8.263  37.775  1.00  0.00     0.238 A 
ATOM      4  O   UNL     1     -11.793  -8.748  36.615  1.00  0.00    -0.285 OA
ATOM      5  C   UNL     1     -12.824  -7.299  38.127  1.00  0.00     0.111 A 
ATOM      6  C   UNL     1     -13.763  -6.728  37.217  1.00  0.00     0.134 A 
ATOM      7  C   UNL     1     -14.767  -5.881  37.702  1.00  0.00     0.093 A 
ATOM      8  C   UNL     1     -14.826  -5.533  39.051  1.00  0.00     0.123 A 
ATOM      9  C   UNL     1     -13.876  -6.039  39.940  1.00  0.00     0.094 A 
ATOM     10  C   UNL     1     -12.884  -6.915  39.492  1.00  0.00     0.146 A 
ATOM     11  O   UNL     1     -12.006  -7.382  40.371  1.00  0.00    -0.452 OA
ENDROOT
BRANCH   1  12
ATOM     12  C   UNL     1     -10.106  -8.660  41.126  1.00  0.00     0.025 A 
ATOM     13  C   UNL     1      -9.270  -7.708  41.731  1.00  0.00     0.016 A 
ATOM     14  C   UNL     1      -8.368  -8.091  42.727  1.00  0.00     0.051 A 
ATOM     15  C   UNL     1      -8.276  -9.432  43.121  1.00  0.00     0.157 A 
ATOM     16  C   UNL     1      -9.997 -10.008  41.510  1.00  0.00     0.062 A 
ATOM     17  C   UNL     1      -9.093 -10.395  42.506  1.00  0.00     0.158 A 
BRANCH  15  18
ATOM     18  O   UNL     1      -7.377  -9.810  44.117  1.00  0.00    -0.504 OA
ATOM     19  H   UNL     1      -6.544 -10.347  43.904  1.00  0.00     0.293 HD
ENDBRANCH  15  18
BRANCH  17  20
ATOM     20  O   UNL     1      -9.017 -11.740  42.866  1.00  0.00    -0.504 OA
ATOM     21  H   UNL     1      -8.220 -12.318  42.626  1.00  0.00     0.293 HD
ENDBRANCH  17  20
ENDBRANCH   1  12
BRANCH   2  22
ATOM     22  O   UNL     1      -9.988  -9.696  38.423  1.00  0.00    -0.502 OA
ATOM     23  H   UNL     1      -9.411 -10.144  39.126  1.00  0.00     0.293 HD
ENDBRANCH   2  22
BRANCH   6  24
ATOM     24  O   UNL     1     -13.738  -6.937  35.835  1.00  0.00    -0.507 OA
ATOM     25  H   UNL     1     -13.416  -7.782  35.388  1.00  0.00     0.293 HD
ENDBRANCH   6  24
BRANCH   8  26
ATOM     26  O   UNL     1     -15.829  -4.675  39.497  1.00  0.00    -0.508 OA
ATOM     27  H   UNL     1     -16.735  -4.638  39.044  1.00  0.00     0.293 HD
ENDBRANCH   8  26
TORSDOF 6
ENDMDL
MODEL 7
REMARK VINA RESULT:    -6.810      2.207      6.919
REMARK INTER + INTRA:          -7.924
REMARK INTER:                  -7.603
REMARK INTRA:                  -0.321
REMARK UNBOUND:                 0.279
REMARK SMILES O=c1c(O)c(-c2ccc(O)c(O)c2)oc2cc(O)cc(O)c12
REMARK SMILES IDX 5 1 3 2 2 3 1 4 22 5 20 6 19 7 17 8 16 9 15 10 14 11 6 12
REMARK SMILES IDX 7 13 8 14 9 15 13 16 11 17 10 18 12 20 4 22 21 24 18 26
REMARK H PARENT 10 19 12 21 4 23 21 25 18 27
REMARK Flexibility Score: inf
ROOT
ATOM      1  C   UNL     1     -10.697  -8.478  40.729  1.00  0.00     0.180 A 
ATOM      2  C   UNL     1     -10.576  -9.156  39.503  1.00  0.00     0.208 A 
ATOM      3  C   UNL     1     -11.388  -8.766  38.427  1.00  0.00     0.238 A 
ATOM      4  O   UNL     1     -11.314  -9.412  37.349  1.00  0.00    -0.285 OA
ATOM      5  C   UNL     1     -12.299  -7.694  38.583  1.00  0.00     0.111 A 
ATOM      6  C   UNL     1     -13.141  -7.188  37.549  1.00  0.00     0.134 A 
ATOM      7  C   UNL     1     -14.097  -6.210  37.851  1.00  0.00     0.093 A 
ATOM      8  C   UNL     1     -14.195  -5.673  39.134  1.00  0.00     0.123 A 
ATOM      9  C   UNL     1     -13.336  -6.117  40.140  1.00  0.00     0.094 A 
ATOM     10  C   UNL     1     -12.398  -7.118  39.877  1.00  0.00     0.146 A 
ATOM     11  O   UNL     1     -11.606  -7.521  40.864  1.00  0.00    -0.452 OA
ENDROOT
BRANCH   1  12
ATOM     12  C   UNL     1      -9.857  -8.816  41.902  1.00  0.00     0.025 A 
ATOM     13  C   UNL     1     -10.286  -9.812  42.793  1.00  0.00     0.016 A 
ATOM     14  C   UNL     1      -9.520 -10.132  43.918  1.00  0.00     0.051 A 
ATOM     15  C   UNL     1      -8.324  -9.450  44.176  1.00  0.00     0.157 A 
ATOM     16  C   UNL     1      -8.667  -8.119  42.175  1.00  0.00     0.062 A 
ATOM     17  C   UNL     1      -7.899  -8.436  43.302  1.00  0.00     0.158 A 
BRANCH  15  18
ATOM     18  O   UNL     1      -7.561  -9.773  45.297  1.00  0.00    -0.504 OA
ATOM     19  H   UNL     1      -7.949 -10.306  46.068  1.00  0.00     0.293 HD
ENDBRANCH  15  18
BRANCH  17  20
ATOM     20  O   UNL     1      -6.720  -7.729  43.538  1.00  0.00    -0.504 OA
ATOM     21  H   UNL     1      -6.637  -6.739  43.341  1.00  0.00     0.293 HD
ENDBRANCH  17  20
ENDBRANCH   1  12
BRANCH   2  22
ATOM     22  O   UNL     1      -9.686 -10.226  39.377  1.00  0.00    -0.502 OA
ATOM     23  H   UNL     1      -9.813 -11.101  39.874  1.00  0.00     0.293 HD
ENDBRANCH   2  22
BRANCH   6  24
ATOM     24  O   UNL     1     -13.063  -7.590  36.212  1.00  0.00    -0.507 OA
ATOM     25  H   UNL     1     -12.613  -7.064  35.479  1.00  0.00     0.293 HD
ENDBRANCH   6  24
BRANCH   8  26
ATOM     26  O   UNL     1     -15.147  -4.690  39.397  1.00  0.00    -0.508 OA
ATOM     27  H   UNL     1     -15.929  -4.528  38.772  1.00  0.00     0.293 HD
ENDBRANCH   8  26
TORSDOF 6
ENDMDL
MODEL 8
REMARK VINA RESULT:    -6.787      5.969      9.594
REMARK INTER + INTRA:          -7.897
REMARK INTER:                  -7.573
REMARK INTRA:                  -0.324
REMARK UNBOUND:                 0.279
REMARK SMILES O=c1c(O)c(-c2ccc(O)c(O)c2)oc2cc(O)cc(O)c12
REMARK SMILES IDX 5 1 3 2 2 3 1 4 22 5 20 6 19 7 17 8 16 9 15 10 14 11 6 12
REMARK SMILES IDX 7 13 8 14 9 15 13 16 11 17 10 18 12 20 4 22 21 24 18 26
REMARK H PARENT 10 19 12 21 4 23 21 25 18 27
REMARK Flexibility Score: inf
ROOT
ATOM      1  C   UNL     1     -12.785  -8.936  45.374  1.00  0.00     0.180 A 
ATOM      2  C   UNL     1     -13.360  -9.981  46.117  1.00  0.00     0.208 A 
ATOM      3  C   UNL     1     -14.757 -10.107  46.147  1.00  0.00     0.238 A 
ATOM      4  O   UNL     1     -15.268 -11.012  46.858  1.00  0.00    -0.285 OA
ATOM      5  C   UNL     1     -15.563  -9.196  45.422  1.00  0.00     0.111 A 
ATOM      6  C   UNL     1     -16.987  -9.253  45.348  1.00  0.00     0.134 A 
ATOM      7  C   UNL     1     -17.687  -8.224  44.709  1.00  0.00     0.093 A 
ATOM      8  C   UNL     1     -17.015  -7.175  44.083  1.00  0.00     0.123 A 
ATOM      9  C   UNL     1     -15.620  -7.140  44.097  1.00  0.00     0.094 A 
ATOM     10  C   UNL     1     -14.894  -8.134  44.759  1.00  0.00     0.146 A 
ATOM     11  O   UNL     1     -13.568  -8.059  44.758  1.00  0.00    -0.452 OA
ENDROOT
BRANCH   1  12
ATOM     12  C   UNL     1     -11.318  -8.754  45.274  1.00  0.00     0.025 A 
ATOM     13  C   UNL     1     -10.684  -7.802  46.088  1.00  0.00     0.016 A 
ATOM     14  C   UNL     1      -9.304  -7.599  45.995  1.00  0.00     0.051 A 
ATOM     15  C   UNL     1      -8.542  -8.332  45.077  1.00  0.00     0.157 A 
ATOM     16  C   UNL     1     -10.553  -9.473  44.339  1.00  0.00     0.062 A 
ATOM     17  C   UNL     1      -9.171  -9.270  44.243  1.00  0.00     0.158 A 
BRANCH  15  18
ATOM     18  O   UNL     1      -7.166  -8.129  44.989  1.00  0.00    -0.504 OA
ATOM     19  H   UNL     1      -6.563  -8.783  44.501  1.00  0.00     0.293 HD
ENDBRANCH  15  18
BRANCH  17  20
ATOM     20  O   UNL     1      -8.443 -10.006  43.309  1.00  0.00    -0.504 OA
ATOM     21  H   UNL     1      -7.443  -9.890  43.192  1.00  0.00     0.293 HD
ENDBRANCH  17  20
ENDBRANCH   1  12
BRANCH   2  22
ATOM     22  O   UNL     1     -12.547 -10.856  46.844  1.00  0.00    -0.502 OA
ATOM     23  H   UNL     1     -12.769 -11.147  47.788  1.00  0.00     0.293 HD
ENDBRANCH   2  22
BRANCH   6  24
ATOM     24  O   UNL     1     -17.753 -10.305  45.861  1.00  0.00    -0.507 OA
ATOM     25  H   UNL     1     -18.752 -10.392  45.757  1.00  0.00     0.293 HD
ENDBRANCH   6  24
BRANCH   8  26
ATOM     26  O   UNL     1     -17.743  -6.175  43.443  1.00  0.00    -0.508 OA
ATOM     27  H   UNL     1     -17.295  -5.500  42.834  1.00  0.00     0.293 HD
ENDBRANCH   8  26
TORSDOF 6
ENDMDL
MODEL 9
REMARK VINA RESULT:    -6.678      7.508      9.174
REMARK INTER + INTRA:          -7.765
REMARK INTER:                  -7.436
REMARK INTRA:                  -0.329
REMARK UNBOUND:                 0.279
REMARK SMILES O=c1c(O)c(-c2ccc(O)c(O)c2)oc2cc(O)cc(O)c12
REMARK SMILES IDX 5 1 3 2 2 3 1 4 22 5 20 6 19 7 17 8 16 9 15 10 14 11 6 12
REMARK SMILES IDX 7 13 8 14 9 15 13 16 11 17 10 18 12 20 4 22 21 24 18 26
REMARK H PARENT 10 19 12 21 4 23 21 25 18 27
REMARK Flexibility Score: inf
ROOT
ATOM      1  C   UNL     1     -13.944  -8.364  46.352  1.00  0.00     0.180 A 
ATOM      2  C   UNL     1     -14.117  -8.125  47.726  1.00  0.00     0.208 A 
ATOM      3  C   UNL     1     -13.030  -7.649  48.476  1.00  0.00     0.238 A 
ATOM      4  O   UNL     1     -13.176  -7.488  49.716  1.00  0.00    -0.285 OA
ATOM      5  C   UNL     1     -11.789  -7.403  47.840  1.00  0.00     0.111 A 
ATOM      6  C   UNL     1     -10.633  -6.883  48.494  1.00  0.00     0.134 A 
ATOM      7  C   UNL     1      -9.422  -6.803  47.797  1.00  0.00     0.093 A 
ATOM      8  C   UNL     1      -9.340  -7.162  46.452  1.00  0.00     0.123 A 
ATOM      9  C   UNL     1     -10.479  -7.616  45.786  1.00  0.00     0.094 A 
ATOM     10  C   UNL     1     -11.693  -7.742  46.465  1.00  0.00     0.146 A 
ATOM     11  O   UNL     1     -12.751  -8.187  45.798  1.00  0.00    -0.452 OA
ENDROOT
BRANCH   1  12
ATOM     12  C   UNL     1     -15.051  -8.843  45.490  1.00  0.00     0.025 A 
ATOM     13  C   UNL     1     -15.237 -10.222  45.308  1.00  0.00     0.016 A 
ATOM     14  C   UNL     1     -16.261 -10.695  44.483  1.00  0.00     0.051 A 
ATOM     15  C   UNL     1     -17.102  -9.796  43.815  1.00  0.00     0.157 A 
ATOM     16  C   UNL     1     -15.885  -7.943  44.802  1.00  0.00     0.062 A 
ATOM     17  C   UNL     1     -16.910  -8.414  43.973  1.00  0.00     0.158 A 
BRANCH  15  18
ATOM     18  O   UNL     1     -18.125 -10.271  42.995  1.00  0.00    -0.504 OA
ATOM     19  H   UNL     1     -18.107 -10.134  41.990  1.00  0.00     0.293 HD
ENDBRANCH  15  18
BRANCH  17  20
ATOM     20  O   UNL     1     -17.722  -7.494  43.312  1.00  0.00    -0.504 OA
ATOM     21  H   UNL     1     -17.734  -6.511  43.559  1.00  0.00     0.293 HD
ENDBRANCH  17  20
ENDBRANCH   1  12
BRANCH   2  22
ATOM     22  O   UNL     1     -15.345  -8.395  48.337  1.00  0.00    -0.502 OA
ATOM     23  H   UNL     1     -15.994  -9.082  47.973  1.00  0.00     0.293 HD
ENDBRANCH   2  22
BRANCH   6  24
ATOM     24  O   UNL     1     -10.627  -6.409  49.810  1.00  0.00    -0.507 OA
ATOM     25  H   UNL     1     -11.400  -5.938  50.255  1.00  0.00     0.293 HD
ENDBRANCH   6  24
BRANCH   8  26
ATOM     26  O   UNL     1      -8.122  -7.056  45.784  1.00  0.00    -0.508 OA
ATOM     27  H   UNL     1      -7.777  -6.164  45.450  1.00  0.00     0.293 HD
ENDBRANCH   8  26
TORSDOF 6
ENDMDL
