MODEL 1
REMARK VINA RESULT:    -3.019      0.000      0.000
REMARK INTER + INTRA:         -13.812
REMARK INTER:                  -7.960
REMARK INTRA:                  -5.851
REMARK UNBOUND:                -5.851
REMARK SMILES CCCCCCCCCCCCCCCCCCCCCCCCCCCCCC(=O)[O-]
REMARK SMILES IDX 16 1 17 2 18 3 19 4 20 5 21 6 22 7 23 8 24 9 25 10 26 11
REMARK SMILES IDX 27 12 28 13 29 14 30 15 31 16 32 17 15 18 14 19 13 20 12 21
REMARK SMILES IDX 11 22 10 23 9 24 8 25 7 26 6 27 5 28 4 29 3 30 2 31 1 32
REMARK H PARENT
REMARK Flexibility Score: inf
ROOT
ATOM      1  C   UNL     1     -14.501 -16.195  27.679  1.00  0.00     0.000 C 
ENDROOT
BRANCH   1   2
ATOM      2  C   UNL     1     -15.642 -15.480  26.926  1.00  0.00     0.000 C 
BRANCH   2   3
ATOM      3  C   UNL     1     -16.736 -16.446  26.434  1.00  0.00     0.000 C 
BRANCH   3   4
ATOM      4  C   UNL     1     -18.113 -16.160  27.057  1.00  0.00     0.000 C 
BRANCH   4   5
ATOM      5  C   UNL     1     -18.134 -14.937  28.000  1.00  0.00     0.000 C 
BRANCH   5   6
ATOM      6  C   UNL     1     -18.778 -13.708  27.336  1.00  0.00     0.000 C 
BRANCH   6   7
ATOM      7  C   UNL     1     -17.904 -12.449  27.435  1.00  0.00     0.000 C 
BRANCH   7   8
ATOM      8  C   UNL     1     -17.308 -12.031  26.076  1.00  0.00     0.000 C 
BRANCH   8   9
ATOM      9  C   UNL     1     -18.075 -12.625  24.886  1.00  0.00     0.000 C 
BRANCH   9  10
ATOM     10  C   UNL     1     -17.178 -13.474  23.965  1.00  0.00     0.000 C 
BRANCH  10  11
ATOM     11  C   UNL     1     -17.924 -14.694  23.388  1.00  0.00     0.000 C 
BRANCH  11  12
ATOM     12  C   UNL     1     -19.394 -14.788  23.834  1.00  0.00     0.000 C 
BRANCH  12  13
ATOM     13  C   UNL     1     -19.942 -16.224  23.794  1.00  0.00     0.006 C 
BRANCH  13  14
ATOM     14  C   UNL     1     -18.975 -17.198  23.110  1.00  0.00     0.053 C 
BRANCH  14  15
ATOM     15  C   UNL     1     -18.760 -18.437  23.925  1.00  0.00     0.041 C 
ATOM     16  O   UNL     1     -19.550 -18.724  24.862  1.00  0.00    -0.550 OA
ATOM     17  O   UNL     1     -17.695 -19.280  23.639  1.00  0.00    -0.550 OA
ENDBRANCH  14  15
ENDBRANCH  13  14
ENDBRANCH  12  13
ENDBRANCH  11  12
ENDBRANCH  10  11
ENDBRANCH   9  10
ENDBRANCH   8   9
ENDBRANCH   7   8
ENDBRANCH   6   7
ENDBRANCH   5   6
ENDBRANCH   4   5
ENDBRANCH   3   4
ENDBRANCH   2   3
ENDBRANCH   1   2
BRANCH   1  18
ATOM     18  C   UNL     1     -14.967 -17.320  28.621  1.00  0.00     0.000 C 
BRANCH  18  19
ATOM     19  C   UNL     1     -14.916 -16.922  30.107  1.00  0.00     0.000 C 
BRANCH  19  20
ATOM     20  C   UNL     1     -16.312 -16.774  30.742  1.00  0.00     0.000 C 
BRANCH  20  21
ATOM     21  C   UNL     1     -16.663 -15.365  31.257  1.00  0.00     0.000 C 
BRANCH  21  22
ATOM     22  C   UNL     1     -15.461 -14.403  31.258  1.00  0.00     0.000 C 
BRANCH  22  23
ATOM     23  C   UNL     1     -15.739 -13.111  30.469  1.00  0.00     0.000 C 
BRANCH  23  24
ATOM     24  C   UNL     1     -14.752 -12.903  29.306  1.00  0.00    -0.000 C 
BRANCH  24  25
ATOM     25  C   UNL     1     -13.309 -12.686  29.792  1.00  0.00    -0.000 C 
BRANCH  25  26
ATOM     26  C   UNL     1     -12.311 -13.665  29.147  1.00  0.00    -0.000 C 
BRANCH  26  27
ATOM     27  C   UNL     1     -11.880 -14.788  30.106  1.00  0.00    -0.000 C 
BRANCH  27  28
ATOM     28  C   UNL     1     -11.301 -16.040  29.421  1.00  0.00    -0.000 C 
BRANCH  28  29
ATOM     29  C   UNL     1     -10.356 -16.862  30.325  1.00  0.00    -0.000 C 
BRANCH  29  30
ATOM     30  C   UNL     1      -9.089 -16.080  30.704  1.00  0.00    -0.000 C 
BRANCH  30  31
ATOM     31  C   UNL     1      -8.007 -17.018  31.251  1.00  0.00    -0.003 C 
ATOM     32  C   UNL     1      -6.857 -17.172  30.259  1.00  0.00     0.004 C 
ENDBRANCH  30  31
ENDBRANCH  29  30
ENDBRANCH  28  29
ENDBRANCH  27  28
ENDBRANCH  26  27
ENDBRANCH  25  26
ENDBRANCH  24  25
ENDBRANCH  23  24
ENDBRANCH  22  23
ENDBRANCH  21  22
ENDBRANCH  20  21
ENDBRANCH  19  20
ENDBRANCH  18  19
ENDBRANCH   1  18
TORSDOF 28
ENDMDL
MODEL 2
REMARK VINA RESULT:    -2.825      2.688      5.779
REMARK INTER + INTRA:         -13.299
REMARK INTER:                  -9.350
REMARK INTRA:                  -3.949
REMARK UNBOUND:                -5.851
REMARK SMILES CCCCCCCCCCCCCCCCCCCCCCCCCCCCCC(=O)[O-]
REMARK SMILES IDX 16 1 17 2 18 3 19 4 20 5 21 6 22 7 23 8 24 9 25 10 26 11
REMARK SMILES IDX 27 12 28 13 29 14 30 15 31 16 32 17 15 18 14 19 13 20 12 21
REMARK SMILES IDX 11 22 10 23 9 24 8 25 7 26 6 27 5 28 4 29 3 30 2 31 1 32
REMARK H PARENT
REMARK Flexibility Score: inf
ROOT
ATOM      1  C   UNL     1     -11.996 -15.373  28.800  1.00  0.00     0.000 C 
ENDROOT
BRANCH   1   2
ATOM      2  C   UNL     1     -12.493 -14.219  29.697  1.00  0.00     0.000 C 
BRANCH   2   3
ATOM      3  C   UNL     1     -13.889 -13.706  29.298  1.00  0.00     0.000 C 
BRANCH   3   4
ATOM      4  C   UNL     1     -14.978 -14.076  30.318  1.00  0.00     0.000 C 
BRANCH   4   5
ATOM      5  C   UNL     1     -14.444 -14.810  31.568  1.00  0.00     0.000 C 
BRANCH   5   6
ATOM      6  C   UNL     1     -14.931 -16.268  31.632  1.00  0.00     0.000 C 
BRANCH   6   7
ATOM      7  C   UNL     1     -16.035 -16.575  30.609  1.00  0.00     0.000 C 
BRANCH   7   8
ATOM      8  C   UNL     1     -15.545 -17.476  29.457  1.00  0.00     0.000 C 
BRANCH   8   9
ATOM      9  C   UNL     1     -16.138 -17.075  28.099  1.00  0.00     0.000 C 
BRANCH   9  10
ATOM     10  C   UNL     1     -15.123 -16.341  27.202  1.00  0.00     0.000 C 
BRANCH  10  11
ATOM     11  C   UNL     1     -15.812 -15.541  26.078  1.00  0.00     0.000 C 
BRANCH  11  12
ATOM     12  C   UNL     1     -16.992 -16.280  25.424  1.00  0.00     0.000 C 
BRANCH  12  13
ATOM     13  C   UNL     1     -17.777 -15.403  24.435  1.00  0.00     0.006 C 
BRANCH  13  14
ATOM     14  C   UNL     1     -17.245 -13.967  24.383  1.00  0.00     0.053 C 
BRANCH  14  15
ATOM     15  C   UNL     1     -18.299 -12.967  24.751  1.00  0.00     0.041 C 
ATOM     16  O   UNL     1     -18.511 -11.969  24.013  1.00  0.00    -0.550 OA
ATOM     17  O   UNL     1     -19.054 -13.145  25.902  1.00  0.00    -0.550 OA
ENDBRANCH  14  15
ENDBRANCH  13  14
ENDBRANCH  12  13
ENDBRANCH  11  12
ENDBRANCH  10  11
ENDBRANCH   9  10
ENDBRANCH   8   9
ENDBRANCH   7   8
ENDBRANCH   6   7
ENDBRANCH   5   6
ENDBRANCH   4   5
ENDBRANCH   3   4
ENDBRANCH   2   3
ENDBRANCH   1   2
BRANCH   1  18
ATOM     18  C   UNL     1     -12.029 -16.758  29.468  1.00  0.00     0.000 C 
BRANCH  18  19
ATOM     19  C   UNL     1     -10.823 -17.013  30.389  1.00  0.00     0.000 C 
BRANCH  19  20
ATOM     20  C   UNL     1     -11.134 -16.762  31.877  1.00  0.00     0.000 C 
BRANCH  20  21
ATOM     21  C   UNL     1     -10.107 -15.899  32.635  1.00  0.00     0.000 C 
BRANCH  21  22
ATOM     22  C   UNL     1      -9.477 -14.798  31.763  1.00  0.00     0.000 C 
BRANCH  22  23
ATOM     23  C   UNL     1      -7.941 -14.880  31.726  1.00  0.00     0.000 C 
BRANCH  23  24
ATOM     24  C   UNL     1      -7.371 -14.706  30.307  1.00  0.00    -0.000 C 
BRANCH  24  25
ATOM     25  C   UNL     1      -6.885 -16.033  29.702  1.00  0.00    -0.000 C 
BRANCH  25  26
ATOM     26  C   UNL     1      -7.158 -17.240  30.618  1.00  0.00    -0.000 C 
BRANCH  26  27
ATOM     27  C   UNL     1      -5.868 -17.942  31.072  1.00  0.00    -0.000 C 
BRANCH  27  28
ATOM     28  C   UNL     1      -4.591 -17.495  30.336  1.00  0.00    -0.000 C 
BRANCH  28  29
ATOM     29  C   UNL     1      -3.554 -18.624  30.149  1.00  0.00    -0.000 C 
BRANCH  29  30
ATOM     30  C   UNL     1      -3.440 -19.520  31.392  1.00  0.00    -0.000 C 
BRANCH  30  31
ATOM     31  C   UNL     1      -2.123 -20.304  31.385  1.00  0.00    -0.003 C 
ATOM     32  C   UNL     1      -2.093 -21.323  30.249  1.00  0.00     0.004 C 
ENDBRANCH  30  31
ENDBRANCH  29  30
ENDBRANCH  28  29
ENDBRANCH  27  28
ENDBRANCH  26  27
ENDBRANCH  25  26
ENDBRANCH  24  25
ENDBRANCH  23  24
ENDBRANCH  22  23
ENDBRANCH  21  22
ENDBRANCH  20  21
ENDBRANCH  19  20
ENDBRANCH  18  19
ENDBRANCH   1  18
TORSDOF 28
ENDMDL
MODEL 3
REMARK VINA RESULT:    -2.816      9.359     12.658
REMARK INTER + INTRA:         -13.276
REMARK INTER:                  -7.214
REMARK INTRA:                  -6.062
REMARK UNBOUND:                -5.851
REMARK SMILES CCCCCCCCCCCCCCCCCCCCCCCCCCCCCC(=O)[O-]
REMARK SMILES IDX 16 1 17 2 18 3 19 4 20 5 21 6 22 7 23 8 24 9 25 10 26 11
REMARK SMILES IDX 27 12 28 13 29 14 30 15 31 16 32 17 15 18 14 19 13 20 12 21
REMARK SMILES IDX 11 22 10 23 9 24 8 25 7 26 6 27 5 28 4 29 3 30 2 31 1 32
REMARK H PARENT
REMARK Flexibility Score: inf
ROOT
ATOM      1  C   UNL     1     -10.017 -20.787  20.114  1.00  0.00     0.000 C 
ENDROOT
BRANCH   1   2
ATOM      2  C   UNL     1     -10.755 -19.526  20.610  1.00  0.00     0.000 C 
BRANCH   2   3
ATOM      3  C   UNL     1     -12.218 -19.459  20.135  1.00  0.00     0.000 C 
BRANCH   3   4
ATOM      4  C   UNL     1     -12.591 -18.096  19.530  1.00  0.00     0.000 C 
BRANCH   4   5
ATOM      5  C   UNL     1     -13.240 -18.186  18.131  1.00  0.00     0.000 C 
BRANCH   5   6
ATOM      6  C   UNL     1     -12.854 -19.483  17.399  1.00  0.00     0.000 C 
BRANCH   6   7
ATOM      7  C   UNL     1     -11.716 -19.282  16.386  1.00  0.00     0.000 C 
BRANCH   7   8
ATOM      8  C   UNL     1     -10.623 -20.364  16.498  1.00  0.00     0.000 C 
BRANCH   8   9
ATOM      9  C   UNL     1      -9.224 -19.771  16.713  1.00  0.00     0.000 C 
BRANCH   9  10
ATOM     10  C   UNL     1      -9.264 -18.372  17.357  1.00  0.00     0.000 C 
BRANCH  10  11
ATOM     11  C   UNL     1      -8.042 -18.112  18.261  1.00  0.00     0.000 C 
BRANCH  11  12
ATOM     12  C   UNL     1      -7.020 -19.263  18.269  1.00  0.00     0.000 C 
BRANCH  12  13
ATOM     13  C   UNL     1      -6.508 -19.602  19.678  1.00  0.00     0.006 C 
BRANCH  13  14
ATOM     14  C   UNL     1      -7.092 -18.673  20.748  1.00  0.00     0.053 C 
BRANCH  14  15
ATOM     15  C   UNL     1      -6.032 -18.138  21.663  1.00  0.00     0.041 C 
ATOM     16  O   UNL     1      -5.281 -18.928  22.293  1.00  0.00    -0.550 OA
ATOM     17  O   UNL     1      -5.867 -16.767  21.809  1.00  0.00    -0.550 OA
ENDBRANCH  14  15
ENDBRANCH  13  14
ENDBRANCH  12  13
ENDBRANCH  11  12
ENDBRANCH  10  11
ENDBRANCH   9  10
ENDBRANCH   8   9
ENDBRANCH   7   8
ENDBRANCH   6   7
ENDBRANCH   5   6
ENDBRANCH   4   5
ENDBRANCH   3   4
ENDBRANCH   2   3
ENDBRANCH   1   2
BRANCH   1  18
ATOM     18  C   UNL     1     -10.943 -21.947  19.707  1.00  0.00     0.000 C 
BRANCH  18  19
ATOM     19  C   UNL     1     -10.182 -23.152  19.126  1.00  0.00     0.000 C 
BRANCH  19  20
ATOM     20  C   UNL     1     -11.019 -24.445  19.106  1.00  0.00     0.000 C 
BRANCH  20  21
ATOM     21  C   UNL     1     -12.470 -24.305  19.607  1.00  0.00     0.000 C 
BRANCH  21  22
ATOM     22  C   UNL     1     -12.761 -25.143  20.865  1.00  0.00     0.000 C 
BRANCH  22  23
ATOM     23  C   UNL     1     -11.890 -24.730  22.064  1.00  0.00     0.000 C 
BRANCH  23  24
ATOM     24  C   UNL     1     -12.687 -24.654  23.378  1.00  0.00    -0.000 C 
BRANCH  24  25
ATOM     25  C   UNL     1     -12.531 -23.295  24.083  1.00  0.00    -0.000 C 
BRANCH  25  26
ATOM     26  C   UNL     1     -12.202 -22.153  23.105  1.00  0.00    -0.000 C 
BRANCH  26  27
ATOM     27  C   UNL     1     -13.059 -20.899  23.348  1.00  0.00    -0.000 C 
BRANCH  27  28
ATOM     28  C   UNL     1     -14.403 -20.875  22.596  1.00  0.00    -0.000 C 
BRANCH  28  29
ATOM     29  C   UNL     1     -14.476 -21.879  21.425  1.00  0.00    -0.000 C 
BRANCH  29  30
ATOM     30  C   UNL     1     -15.905 -22.031  20.879  1.00  0.00    -0.000 C 
BRANCH  30  31
ATOM     31  C   UNL     1     -16.279 -23.510  20.726  1.00  0.00    -0.003 C 
ATOM     32  C   UNL     1     -16.109 -24.262  22.043  1.00  0.00     0.004 C 
ENDBRANCH  30  31
ENDBRANCH  29  30
ENDBRANCH  28  29
ENDBRANCH  27  28
ENDBRANCH  26  27
ENDBRANCH  25  26
ENDBRANCH  24  25
ENDBRANCH  23  24
ENDBRANCH  22  23
ENDBRANCH  21  22
ENDBRANCH  20  21
ENDBRANCH  19  20
ENDBRANCH  18  19
ENDBRANCH   1  18
TORSDOF 28
ENDMDL
MODEL 4
REMARK VINA RESULT:    -2.791      9.670     13.087
REMARK INTER + INTRA:         -13.211
REMARK INTER:                  -7.540
REMARK INTRA:                  -5.672
REMARK UNBOUND:                -5.851
REMARK SMILES CCCCCCCCCCCCCCCCCCCCCCCCCCCCCC(=O)[O-]
REMARK SMILES IDX 16 1 17 2 18 3 19 4 20 5 21 6 22 7 23 8 24 9 25 10 26 11
REMARK SMILES IDX 27 12 28 13 29 14 30 15 31 16 32 17 15 18 14 19 13 20 12 21
REMARK SMILES IDX 11 22 10 23 9 24 8 25 7 26 6 27 5 28 4 29 3 30 2 31 1 32
REMARK H PARENT
REMARK Flexibility Score: inf
ROOT
ATOM      1  C   UNL     1     -13.000 -17.877  18.870  1.00  0.00     0.000 C 
ENDROOT
BRANCH   1   2
ATOM      2  C   UNL     1     -13.554 -18.666  17.664  1.00  0.00     0.000 C 
BRANCH   2   3
ATOM      3  C   UNL     1     -14.102 -20.051  18.053  1.00  0.00     0.000 C 
BRANCH   3   4
ATOM      4  C   UNL     1     -13.421 -21.201  17.292  1.00  0.00     0.000 C 
BRANCH   4   5
ATOM      5  C   UNL     1     -12.149 -20.778  16.524  1.00  0.00     0.000 C 
BRANCH   5   6
ATOM      6  C   UNL     1     -11.127 -21.924  16.425  1.00  0.00     0.000 C 
BRANCH   6   7
ATOM      7  C   UNL     1      -9.681 -21.455  16.645  1.00  0.00     0.000 C 
BRANCH   7   8
ATOM      8  C   UNL     1      -9.543 -19.920  16.620  1.00  0.00     0.000 C 
BRANCH   8   9
ATOM      9  C   UNL     1      -8.135 -19.445  17.006  1.00  0.00     0.000 C 
BRANCH   9  10
ATOM     10  C   UNL     1      -7.637 -20.070  18.323  1.00  0.00     0.000 C 
BRANCH  10  11
ATOM     11  C   UNL     1      -6.818 -19.073  19.167  1.00  0.00     0.000 C 
BRANCH  11  12
ATOM     12  C   UNL     1      -7.381 -18.851  20.582  1.00  0.00     0.000 C 
BRANCH  12  13
ATOM     13  C   UNL     1      -6.302 -18.445  21.600  1.00  0.00     0.006 C 
BRANCH  13  14
ATOM     14  C   UNL     1      -4.901 -18.901  21.176  1.00  0.00     0.053 C 
BRANCH  14  15
ATOM     15  C   UNL     1      -4.452 -20.110  21.939  1.00  0.00     0.041 C 
ATOM     16  O   UNL     1      -4.986 -20.398  23.042  1.00  0.00    -0.550 OA
ATOM     17  O   UNL     1      -3.452 -20.924  21.424  1.00  0.00    -0.550 OA
ENDBRANCH  14  15
ENDBRANCH  13  14
ENDBRANCH  12  13
ENDBRANCH  11  12
ENDBRANCH  10  11
ENDBRANCH   9  10
ENDBRANCH   8   9
ENDBRANCH   7   8
ENDBRANCH   6   7
ENDBRANCH   5   6
ENDBRANCH   4   5
ENDBRANCH   3   4
ENDBRANCH   2   3
ENDBRANCH   1   2
BRANCH   1  18
ATOM     18  C   UNL     1     -12.421 -18.755  19.993  1.00  0.00     0.000 C 
BRANCH  18  19
ATOM     19  C   UNL     1     -10.983 -19.225  19.711  1.00  0.00     0.000 C 
BRANCH  19  20
ATOM     20  C   UNL     1     -10.569 -20.446  20.554  1.00  0.00     0.000 C 
BRANCH  20  21
ATOM     21  C   UNL     1     -11.237 -21.779  20.168  1.00  0.00     0.000 C 
BRANCH  21  22
ATOM     22  C   UNL     1     -10.225 -22.890  19.832  1.00  0.00     0.000 C 
BRANCH  22  23
ATOM     23  C   UNL     1     -10.871 -24.287  19.802  1.00  0.00     0.000 C 
BRANCH  23  24
ATOM     24  C   UNL     1     -12.334 -24.254  19.325  1.00  0.00    -0.000 C 
BRANCH  24  25
ATOM     25  C   UNL     1     -13.264 -25.085  20.225  1.00  0.00    -0.000 C 
BRANCH  25  26
ATOM     26  C   UNL     1     -13.787 -24.290  21.435  1.00  0.00    -0.000 C 
BRANCH  26  27
ATOM     27  C   UNL     1     -13.103 -24.695  22.751  1.00  0.00    -0.000 C 
BRANCH  27  28
ATOM     28  C   UNL     1     -12.047 -23.700  23.267  1.00  0.00    -0.000 C 
BRANCH  28  29
ATOM     29  C   UNL     1     -12.636 -22.563  24.131  1.00  0.00    -0.000 C 
BRANCH  29  30
ATOM     30  C   UNL     1     -12.768 -21.247  23.349  1.00  0.00    -0.000 C 
BRANCH  30  31
ATOM     31  C   UNL     1     -14.239 -20.920  23.069  1.00  0.00    -0.003 C 
ATOM     32  C   UNL     1     -14.571 -21.086  21.589  1.00  0.00     0.004 C 
ENDBRANCH  30  31
ENDBRANCH  29  30
ENDBRANCH  28  29
ENDBRANCH  27  28
ENDBRANCH  26  27
ENDBRANCH  25  26
ENDBRANCH  24  25
ENDBRANCH  23  24
ENDBRANCH  22  23
ENDBRANCH  21  22
ENDBRANCH  20  21
ENDBRANCH  19  20
ENDBRANCH  18  19
ENDBRANCH   1  18
TORSDOF 28
ENDMDL
MODEL 5
REMARK VINA RESULT:    -2.763      8.970     12.452
REMARK INTER + INTRA:         -13.136
REMARK INTER:                  -7.253
REMARK INTRA:                  -5.882
REMARK UNBOUND:                -5.851
REMARK SMILES CCCCCCCCCCCCCCCCCCCCCCCCCCCCCC(=O)[O-]
REMARK SMILES IDX 16 1 17 2 18 3 19 4 20 5 21 6 22 7 23 8 24 9 25 10 26 11
REMARK SMILES IDX 27 12 28 13 29 14 30 15 31 16 32 17 15 18 14 19 13 20 12 21
REMARK SMILES IDX 11 22 10 23 9 24 8 25 7 26 6 27 5 28 4 29 3 30 2 31 1 32
REMARK H PARENT
REMARK Flexibility Score: inf
ROOT
ATOM      1  C   UNL     1     -11.318 -22.769  20.014  1.00  0.00     0.000 C 
ENDROOT
BRANCH   1   2
ATOM      2  C   UNL     1     -12.606 -22.417  19.239  1.00  0.00     0.000 C 
BRANCH   2   3
ATOM      3  C   UNL     1     -12.327 -21.695  17.908  1.00  0.00     0.000 C 
BRANCH   3   4
ATOM      4  C   UNL     1     -13.295 -20.530  17.643  1.00  0.00     0.000 C 
BRANCH   4   5
ATOM      5  C   UNL     1     -13.505 -19.600  18.859  1.00  0.00     0.000 C 
BRANCH   5   6
ATOM      6  C   UNL     1     -12.267 -18.730  19.140  1.00  0.00     0.000 C 
BRANCH   6   7
ATOM      7  C   UNL     1     -11.645 -19.004  20.517  1.00  0.00     0.000 C 
BRANCH   7   8
ATOM      8  C   UNL     1     -10.184 -19.491  20.423  1.00  0.00     0.000 C 
BRANCH   8   9
ATOM      9  C   UNL     1      -9.606 -19.356  19.007  1.00  0.00     0.000 C 
BRANCH   9  10
ATOM     10  C   UNL     1      -8.490 -20.378  18.721  1.00  0.00     0.000 C 
BRANCH  10  11
ATOM     11  C   UNL     1      -7.086 -19.745  18.800  1.00  0.00     0.000 C 
BRANCH  11  12
ATOM     12  C   UNL     1      -7.105 -18.225  19.035  1.00  0.00     0.000 C 
BRANCH  12  13
ATOM     13  C   UNL     1      -6.469 -17.816  20.374  1.00  0.00     0.006 C 
BRANCH  13  14
ATOM     14  C   UNL     1      -6.491 -18.955  21.400  1.00  0.00     0.053 C 
BRANCH  14  15
ATOM     15  C   UNL     1      -5.125 -19.240  21.948  1.00  0.00     0.041 C 
ATOM     16  O   UNL     1      -4.956 -20.181  22.766  1.00  0.00    -0.550 OA
ATOM     17  O   UNL     1      -4.041 -18.473  21.546  1.00  0.00    -0.550 OA
ENDBRANCH  14  15
ENDBRANCH  13  14
ENDBRANCH  12  13
ENDBRANCH  11  12
ENDBRANCH  10  11
ENDBRANCH   9  10
ENDBRANCH   8   9
ENDBRANCH   7   8
ENDBRANCH   6   7
ENDBRANCH   5   6
ENDBRANCH   4   5
ENDBRANCH   3   4
ENDBRANCH   2   3
ENDBRANCH   1   2
BRANCH   1  18
ATOM     18  C   UNL     1     -11.408 -24.061  20.846  1.00  0.00     0.000 C 
BRANCH  18  19
ATOM     19  C   UNL     1     -12.856 -24.519  21.094  1.00  0.00     0.000 C 
BRANCH  19  20
ATOM     20  C   UNL     1     -13.216 -24.605  22.590  1.00  0.00     0.000 C 
BRANCH  20  21
ATOM     21  C   UNL     1     -12.226 -23.922  23.552  1.00  0.00     0.000 C 
BRANCH  21  22
ATOM     22  C   UNL     1     -12.760 -22.602  24.137  1.00  0.00     0.000 C 
BRANCH  22  23
ATOM     23  C   UNL     1     -12.412 -21.385  23.262  1.00  0.00     0.000 C 
BRANCH  23  24
ATOM     24  C   UNL     1     -13.642 -20.521  22.931  1.00  0.00    -0.000 C 
BRANCH  24  25
ATOM     25  C   UNL     1     -14.682 -21.279  22.089  1.00  0.00    -0.000 C 
BRANCH  25  26
ATOM     26  C   UNL     1     -16.058 -21.359  22.776  1.00  0.00    -0.000 C 
BRANCH  26  27
ATOM     27  C   UNL     1     -16.457 -22.801  23.133  1.00  0.00    -0.000 C 
BRANCH  27  28
ATOM     28  C   UNL     1     -17.833 -23.244  22.600  1.00  0.00    -0.000 C 
BRANCH  28  29
ATOM     29  C   UNL     1     -17.885 -23.391  21.063  1.00  0.00    -0.000 C 
BRANCH  29  30
ATOM     30  C   UNL     1     -16.752 -24.278  20.525  1.00  0.00    -0.000 C 
BRANCH  30  31
ATOM     31  C   UNL     1     -16.042 -23.607  19.343  1.00  0.00    -0.003 C 
ATOM     32  C   UNL     1     -16.598 -22.209  19.087  1.00  0.00     0.004 C 
ENDBRANCH  30  31
ENDBRANCH  29  30
ENDBRANCH  28  29
ENDBRANCH  27  28
ENDBRANCH  26  27
ENDBRANCH  25  26
ENDBRANCH  24  25
ENDBRANCH  23  24
ENDBRANCH  22  23
ENDBRANCH  21  22
ENDBRANCH  20  21
ENDBRANCH  19  20
ENDBRANCH  18  19
ENDBRANCH   1  18
TORSDOF 28
ENDMDL
MODEL 6
REMARK VINA RESULT:    -2.708      3.730      8.340
REMARK INTER + INTRA:         -12.992
REMARK INTER:                  -7.227
REMARK INTRA:                  -5.765
REMARK UNBOUND:                -5.851
REMARK SMILES CCCCCCCCCCCCCCCCCCCCCCCCCCCCCC(=O)[O-]
REMARK SMILES IDX 16 1 17 2 18 3 19 4 20 5 21 6 22 7 23 8 24 9 25 10 26 11
REMARK SMILES IDX 27 12 28 13 29 14 30 15 31 16 32 17 15 18 14 19 13 20 12 21
REMARK SMILES IDX 11 22 10 23 9 24 8 25 7 26 6 27 5 28 4 29 3 30 2 31 1 32
REMARK H PARENT
REMARK Flexibility Score: inf
ROOT
ATOM      1  C   UNL     1     -14.697 -16.375  27.850  1.00  0.00     0.000 C 
ENDROOT
BRANCH   1   2
ATOM      2  C   UNL     1     -15.332 -17.460  28.746  1.00  0.00     0.000 C 
BRANCH   2   3
ATOM      3  C   UNL     1     -15.428 -17.037  30.224  1.00  0.00     0.000 C 
BRANCH   3   4
ATOM      4  C   UNL     1     -15.641 -15.525  30.403  1.00  0.00     0.000 C 
BRANCH   4   5
ATOM      5  C   UNL     1     -14.849 -14.915  31.581  1.00  0.00     0.000 C 
BRANCH   5   6
ATOM      6  C   UNL     1     -13.992 -15.966  32.306  1.00  0.00     0.000 C 
BRANCH   6   7
ATOM      7  C   UNL     1     -12.624 -15.422  32.745  1.00  0.00     0.000 C 
BRANCH   7   8
ATOM      8  C   UNL     1     -11.455 -16.330  32.312  1.00  0.00     0.000 C 
BRANCH   8   9
ATOM      9  C   UNL     1     -11.526 -16.717  30.828  1.00  0.00     0.000 C 
BRANCH   9  10
ATOM     10  C   UNL     1     -10.906 -15.650  29.906  1.00  0.00     0.000 C 
BRANCH  10  11
ATOM     11  C   UNL     1     -11.882 -15.199  28.800  1.00  0.00     0.000 C 
BRANCH  11  12
ATOM     12  C   UNL     1     -12.497 -13.810  29.045  1.00  0.00     0.000 C 
BRANCH  12  13
ATOM     13  C   UNL     1     -11.508 -12.819  29.682  1.00  0.00     0.006 C 
BRANCH  13  14
ATOM     14  C   UNL     1     -12.023 -12.256  31.011  1.00  0.00     0.053 C 
BRANCH  14  15
ATOM     15  C   UNL     1     -10.907 -11.980  31.972  1.00  0.00     0.041 C 
ATOM     16  O   UNL     1     -10.724 -10.815  32.413  1.00  0.00    -0.550 OA
ATOM     17  O   UNL     1     -10.077 -13.012  32.388  1.00  0.00    -0.550 OA
ENDBRANCH  14  15
ENDBRANCH  13  14
ENDBRANCH  12  13
ENDBRANCH  11  12
ENDBRANCH  10  11
ENDBRANCH   9  10
ENDBRANCH   8   9
ENDBRANCH   7   8
ENDBRANCH   6   7
ENDBRANCH   5   6
ENDBRANCH   4   5
ENDBRANCH   3   4
ENDBRANCH   2   3
ENDBRANCH   1   2
BRANCH   1  18
ATOM     18  C   UNL     1     -15.500 -16.050  26.578  1.00  0.00     0.000 C 
BRANCH  18  19
ATOM     19  C   UNL     1     -16.908 -16.672  26.577  1.00  0.00     0.000 C 
BRANCH  19  20
ATOM     20  C   UNL     1     -17.414 -17.019  25.164  1.00  0.00     0.000 C 
BRANCH  20  21
ATOM     21  C   UNL     1     -18.605 -16.181  24.659  1.00  0.00     0.000 C 
BRANCH  21  22
ATOM     22  C   UNL     1     -18.609 -15.990  23.131  1.00  0.00     0.000 C 
BRANCH  22  23
ATOM     23  C   UNL     1     -18.605 -14.507  22.722  1.00  0.00     0.000 C 
BRANCH  23  24
ATOM     24  C   UNL     1     -17.468 -13.711  23.388  1.00  0.00    -0.000 C 
BRANCH  24  25
ATOM     25  C   UNL     1     -17.993 -12.628  24.347  1.00  0.00    -0.000 C 
BRANCH  25  26
ATOM     26  C   UNL     1     -17.290 -12.656  25.716  1.00  0.00    -0.000 C 
BRANCH  26  27
ATOM     27  C   UNL     1     -18.217 -13.129  26.848  1.00  0.00    -0.000 C 
BRANCH  27  28
ATOM     28  C   UNL     1     -17.529 -13.328  28.211  1.00  0.00    -0.000 C 
BRANCH  28  29
ATOM     29  C   UNL     1     -16.078 -12.797  28.257  1.00  0.00    -0.000 C 
BRANCH  29  30
ATOM     30  C   UNL     1     -15.826 -11.899  29.478  1.00  0.00    -0.000 C 
BRANCH  30  31
ATOM     31  C   UNL     1     -15.207 -10.561  29.058  1.00  0.00    -0.003 C 
ATOM     32  C   UNL     1     -16.026  -9.895  27.956  1.00  0.00     0.004 C 
ENDBRANCH  30  31
ENDBRANCH  29  30
ENDBRANCH  28  29
ENDBRANCH  27  28
ENDBRANCH  26  27
ENDBRANCH  25  26
ENDBRANCH  24  25
ENDBRANCH  23  24
ENDBRANCH  22  23
ENDBRANCH  21  22
ENDBRANCH  20  21
ENDBRANCH  19  20
ENDBRANCH  18  19
ENDBRANCH   1  18
TORSDOF 28
ENDMDL
MODEL 7
REMARK VINA RESULT:    -2.699      9.008     11.687
REMARK INTER + INTRA:         -12.967
REMARK INTER:                  -7.257
REMARK INTRA:                  -5.711
REMARK UNBOUND:                -5.851
REMARK SMILES CCCCCCCCCCCCCCCCCCCCCCCCCCCCCC(=O)[O-]
REMARK SMILES IDX 16 1 17 2 18 3 19 4 20 5 21 6 22 7 23 8 24 9 25 10 26 11
REMARK SMILES IDX 27 12 28 13 29 14 30 15 31 16 32 17 15 18 14 19 13 20 12 21
REMARK SMILES IDX 11 22 10 23 9 24 8 25 7 26 6 27 5 28 4 29 3 30 2 31 1 32
REMARK H PARENT
REMARK Flexibility Score: inf
ROOT
ATOM      1  C   UNL     1     -10.631 -19.756  20.811  1.00  0.00     0.000 C 
ENDROOT
BRANCH   1   2
ATOM      2  C   UNL     1     -10.760 -21.293  20.761  1.00  0.00     0.000 C 
BRANCH   2   3
ATOM      3  C   UNL     1     -11.390 -21.800  19.450  1.00  0.00     0.000 C 
BRANCH   3   4
ATOM      4  C   UNL     1     -11.809 -23.278  19.519  1.00  0.00     0.000 C 
BRANCH   4   5
ATOM      5  C   UNL     1     -11.369 -23.996  20.814  1.00  0.00     0.000 C 
BRANCH   5   6
ATOM      6  C   UNL     1     -12.493 -24.866  21.401  1.00  0.00     0.000 C 
BRANCH   6   7
ATOM      7  C   UNL     1     -12.858 -24.478  22.843  1.00  0.00     0.000 C 
BRANCH   7   8
ATOM      8  C   UNL     1     -11.898 -23.427  23.436  1.00  0.00     0.000 C 
BRANCH   8   9
ATOM      9  C   UNL     1     -12.638 -22.262  24.107  1.00  0.00     0.000 C 
BRANCH   9  10
ATOM     10  C   UNL     1     -13.990 -21.952  23.437  1.00  0.00     0.000 C 
BRANCH  10  11
ATOM     11  C   UNL     1     -13.890 -20.779  22.440  1.00  0.00     0.000 C 
BRANCH  11  12
ATOM     12  C   UNL     1     -14.456 -21.102  21.046  1.00  0.00     0.000 C 
BRANCH  12  13
ATOM     13  C   UNL     1     -15.266 -22.408  21.014  1.00  0.00     0.006 C 
BRANCH  13  14
ATOM     14  C   UNL     1     -16.303 -22.422  19.885  1.00  0.00     0.053 C 
BRANCH  14  15
ATOM     15  C   UNL     1     -16.164 -23.634  19.014  1.00  0.00     0.041 C 
ATOM     16  O   UNL     1     -15.184 -24.410  19.160  1.00  0.00    -0.550 OA
ATOM     17  O   UNL     1     -17.124 -23.911  18.051  1.00  0.00    -0.550 OA
ENDBRANCH  14  15
ENDBRANCH  13  14
ENDBRANCH  12  13
ENDBRANCH  11  12
ENDBRANCH  10  11
ENDBRANCH   9  10
ENDBRANCH   8   9
ENDBRANCH   7   8
ENDBRANCH   6   7
ENDBRANCH   5   6
ENDBRANCH   4   5
ENDBRANCH   3   4
ENDBRANCH   2   3
ENDBRANCH   1   2
BRANCH   1  18
ATOM     18  C   UNL     1     -11.138 -19.033  19.550  1.00  0.00     0.000 C 
BRANCH  18  19
ATOM     19  C   UNL     1     -12.482 -18.315  19.765  1.00  0.00     0.000 C 
BRANCH  19  20
ATOM     20  C   UNL     1     -13.315 -18.191  18.475  1.00  0.00     0.000 C 
BRANCH  20  21
ATOM     21  C   UNL     1     -12.534 -17.760  17.218  1.00  0.00     0.000 C 
BRANCH  21  22
ATOM     22  C   UNL     1     -12.764 -18.689  16.012  1.00  0.00     0.000 C 
BRANCH  22  23
ATOM     23  C   UNL     1     -11.900 -19.960  16.073  1.00  0.00     0.000 C 
BRANCH  23  24
ATOM     24  C   UNL     1     -10.392 -19.654  16.056  1.00  0.00    -0.000 C 
BRANCH  24  25
ATOM     25  C   UNL     1      -9.545 -20.838  16.552  1.00  0.00    -0.000 C 
BRANCH  25  26
ATOM     26  C   UNL     1      -8.391 -20.400  17.471  1.00  0.00    -0.000 C 
BRANCH  26  27
ATOM     27  C   UNL     1      -8.202 -18.874  17.499  1.00  0.00    -0.000 C 
BRANCH  27  28
ATOM     28  C   UNL     1      -7.123 -18.370  18.475  1.00  0.00    -0.000 C 
BRANCH  28  29
ATOM     29  C   UNL     1      -6.819 -19.356  19.626  1.00  0.00    -0.000 C 
BRANCH  29  30
ATOM     30  C   UNL     1      -7.086 -18.737  21.006  1.00  0.00    -0.000 C 
BRANCH  30  31
ATOM     31  C   UNL     1      -5.953 -19.069  21.985  1.00  0.00    -0.003 C 
ATOM     32  C   UNL     1      -4.802 -19.778  21.277  1.00  0.00     0.004 C 
ENDBRANCH  30  31
ENDBRANCH  29  30
ENDBRANCH  28  29
ENDBRANCH  27  28
ENDBRANCH  26  27
ENDBRANCH  25  26
ENDBRANCH  24  25
ENDBRANCH  23  24
ENDBRANCH  22  23
ENDBRANCH  21  22
ENDBRANCH  20  21
ENDBRANCH  19  20
ENDBRANCH  18  19
ENDBRANCH   1  18
TORSDOF 28
ENDMDL
MODEL 8
REMARK VINA RESULT:    -2.698      9.340     11.997
REMARK INTER + INTRA:         -12.966
REMARK INTER:                  -6.748
REMARK INTRA:                  -6.218
REMARK UNBOUND:                -5.851
REMARK SMILES CCCCCCCCCCCCCCCCCCCCCCCCCCCCCC(=O)[O-]
REMARK SMILES IDX 16 1 17 2 18 3 19 4 20 5 21 6 22 7 23 8 24 9 25 10 26 11
REMARK SMILES IDX 27 12 28 13 29 14 30 15 31 16 32 17 15 18 14 19 13 20 12 21
REMARK SMILES IDX 11 22 10 23 9 24 8 25 7 26 6 27 5 28 4 29 3 30 2 31 1 32
REMARK H PARENT
REMARK Flexibility Score: inf
ROOT
ATOM      1  C   UNL     1     -13.097 -21.712  17.121  1.00  0.00     0.000 C 
ENDROOT
BRANCH   1   2
ATOM      2  C   UNL     1     -11.646 -22.040  16.710  1.00  0.00     0.000 C 
BRANCH   2   3
ATOM      3  C   UNL     1     -10.971 -23.059  17.647  1.00  0.00     0.000 C 
BRANCH   3   4
ATOM      4  C   UNL     1     -11.692 -23.200  18.998  1.00  0.00     0.000 C 
BRANCH   4   5
ATOM      5  C   UNL     1     -10.742 -23.415  20.197  1.00  0.00     0.000 C 
BRANCH   5   6
ATOM      6  C   UNL     1     -11.171 -24.610  21.065  1.00  0.00     0.000 C 
BRANCH   6   7
ATOM      7  C   UNL     1     -12.695 -24.707  21.238  1.00  0.00     0.000 C 
BRANCH   7   8
ATOM      8  C   UNL     1     -13.132 -24.622  22.714  1.00  0.00     0.000 C 
BRANCH   8   9
ATOM      9  C   UNL     1     -12.157 -23.804  23.574  1.00  0.00     0.000 C 
BRANCH   9  10
ATOM     10  C   UNL     1     -12.786 -22.505  24.112  1.00  0.00     0.000 C 
BRANCH  10  11
ATOM     11  C   UNL     1     -12.585 -21.318  23.147  1.00  0.00     0.000 C 
BRANCH  11  12
ATOM     12  C   UNL     1     -13.893 -20.603  22.765  1.00  0.00     0.000 C 
BRANCH  12  13
ATOM     13  C   UNL     1     -14.881 -21.516  22.020  1.00  0.00     0.006 C 
BRANCH  13  14
ATOM     14  C   UNL     1     -14.611 -21.558  20.512  1.00  0.00     0.053 C 
BRANCH  14  15
ATOM     15  C   UNL     1     -15.682 -22.300  19.772  1.00  0.00     0.041 C 
ATOM     16  O   UNL     1     -15.462 -23.459  19.333  1.00  0.00    -0.550 OA
ATOM     17  O   UNL     1     -16.926 -21.715  19.580  1.00  0.00    -0.550 OA
ENDBRANCH  14  15
ENDBRANCH  13  14
ENDBRANCH  12  13
ENDBRANCH  11  12
ENDBRANCH  10  11
ENDBRANCH   9  10
ENDBRANCH   8   9
ENDBRANCH   7   8
ENDBRANCH   6   7
ENDBRANCH   5   6
ENDBRANCH   4   5
ENDBRANCH   3   4
ENDBRANCH   2   3
ENDBRANCH   1   2
BRANCH   1  18
ATOM     18  C   UNL     1     -13.536 -20.270  16.811  1.00  0.00     0.000 C 
BRANCH  18  19
ATOM     19  C   UNL     1     -12.364 -19.351  16.425  1.00  0.00     0.000 C 
BRANCH  19  20
ATOM     20  C   UNL     1     -12.125 -18.217  17.440  1.00  0.00     0.000 C 
BRANCH  20  21
ATOM     21  C   UNL     1     -13.093 -18.180  18.638  1.00  0.00     0.000 C 
BRANCH  21  22
ATOM     22  C   UNL     1     -12.413 -18.508  19.979  1.00  0.00     0.000 C 
BRANCH  22  23
ATOM     23  C   UNL     1     -11.529 -19.765  19.902  1.00  0.00     0.000 C 
BRANCH  23  24
ATOM     24  C   UNL     1     -10.294 -19.679  20.815  1.00  0.00    -0.000 C 
BRANCH  24  25
ATOM     25  C   UNL     1      -8.991 -19.475  20.023  1.00  0.00    -0.000 C 
BRANCH  25  26
ATOM     26  C   UNL     1      -8.853 -20.452  18.843  1.00  0.00    -0.000 C 
BRANCH  26  27
ATOM     27  C   UNL     1      -8.552 -19.738  17.514  1.00  0.00    -0.000 C 
BRANCH  27  28
ATOM     28  C   UNL     1      -8.469 -18.203  17.607  1.00  0.00    -0.000 C 
BRANCH  28  29
ATOM     29  C   UNL     1      -7.044 -17.675  17.884  1.00  0.00    -0.000 C 
BRANCH  29  30
ATOM     30  C   UNL     1      -5.967 -18.504  17.168  1.00  0.00    -0.000 C 
BRANCH  30  31
ATOM     31  C   UNL     1      -4.789 -18.798  18.104  1.00  0.00    -0.003 C 
ATOM     32  C   UNL     1      -5.175 -19.814  19.176  1.00  0.00     0.004 C 
ENDBRANCH  30  31
ENDBRANCH  29  30
ENDBRANCH  28  29
ENDBRANCH  27  28
ENDBRANCH  26  27
ENDBRANCH  25  26
ENDBRANCH  24  25
ENDBRANCH  23  24
ENDBRANCH  22  23
ENDBRANCH  21  22
ENDBRANCH  20  21
ENDBRANCH  19  20
ENDBRANCH  18  19
ENDBRANCH   1  18
TORSDOF 28
ENDMDL
MODEL 9
REMARK VINA RESULT:    -2.684      9.085     12.440
REMARK INTER + INTRA:         -12.927
REMARK INTER:                  -6.216
REMARK INTRA:                  -6.711
REMARK UNBOUND:                -5.851
REMARK SMILES CCCCCCCCCCCCCCCCCCCCCCCCCCCCCC(=O)[O-]
REMARK SMILES IDX 16 1 17 2 18 3 19 4 20 5 21 6 22 7 23 8 24 9 25 10 26 11
REMARK SMILES IDX 27 12 28 13 29 14 30 15 31 16 32 17 15 18 14 19 13 20 12 21
REMARK SMILES IDX 11 22 10 23 9 24 8 25 7 26 6 27 5 28 4 29 3 30 2 31 1 32
REMARK H PARENT
REMARK Flexibility Score: inf
ROOT
ATOM      1  C   UNL     1     -10.557 -24.494  20.725  1.00  0.00     0.000 C 
ENDROOT
BRANCH   1   2
ATOM      2  C   UNL     1     -10.209 -24.447  19.222  1.00  0.00     0.000 C 
BRANCH   2   3
ATOM      3  C   UNL     1     -10.284 -23.026  18.632  1.00  0.00     0.000 C 
BRANCH   3   4
ATOM      4  C   UNL     1     -10.209 -21.927  19.705  1.00  0.00     0.000 C 
BRANCH   4   5
ATOM      5  C   UNL     1     -11.517 -21.125  19.875  1.00  0.00     0.000 C 
BRANCH   5   6
ATOM      6  C   UNL     1     -11.301 -19.833  20.681  1.00  0.00     0.000 C 
BRANCH   6   7
ATOM      7  C   UNL     1     -12.332 -18.742  20.351  1.00  0.00     0.000 C 
BRANCH   7   8
ATOM      8  C   UNL     1     -13.183 -19.085  19.111  1.00  0.00     0.000 C 
BRANCH   8   9
ATOM      9  C   UNL     1     -13.329 -17.899  18.147  1.00  0.00     0.000 C 
BRANCH   9  10
ATOM     10  C   UNL     1     -12.192 -17.833  17.111  1.00  0.00     0.000 C 
BRANCH  10  11
ATOM     11  C   UNL     1     -11.650 -19.231  16.750  1.00  0.00     0.000 C 
BRANCH  11  12
ATOM     12  C   UNL     1     -10.126 -19.268  16.537  1.00  0.00     0.000 C 
BRANCH  12  13
ATOM     13  C   UNL     1      -9.334 -18.859  17.790  1.00  0.00     0.006 C 
BRANCH  13  14
ATOM     14  C   UNL     1      -7.959 -19.533  17.855  1.00  0.00     0.053 C 
BRANCH  14  15
ATOM     15  C   UNL     1      -7.368 -19.466  19.231  1.00  0.00     0.041 C 
ATOM     16  O   UNL     1      -6.234 -19.962  19.457  1.00  0.00    -0.550 OA
ATOM     17  O   UNL     1      -8.066 -18.846  20.257  1.00  0.00    -0.550 OA
ENDBRANCH  14  15
ENDBRANCH  13  14
ENDBRANCH  12  13
ENDBRANCH  11  12
ENDBRANCH  10  11
ENDBRANCH   9  10
ENDBRANCH   8   9
ENDBRANCH   7   8
ENDBRANCH   6   7
ENDBRANCH   5   6
ENDBRANCH   4   5
ENDBRANCH   3   4
ENDBRANCH   2   3
ENDBRANCH   1   2
BRANCH   1  18
ATOM     18  C   UNL     1     -12.041 -24.769  21.027  1.00  0.00     0.000 C 
BRANCH  18  19
ATOM     19  C   UNL     1     -12.432 -24.444  22.479  1.00  0.00     0.000 C 
BRANCH  19  20
ATOM     20  C   UNL     1     -11.883 -23.089  22.965  1.00  0.00     0.000 C 
BRANCH  20  21
ATOM     21  C   UNL     1     -12.827 -22.274  23.869  1.00  0.00     0.000 C 
BRANCH  21  22
ATOM     22  C   UNL     1     -13.364 -20.998  23.194  1.00  0.00     0.000 C 
BRANCH  22  23
ATOM     23  C   UNL     1     -14.819 -21.150  22.718  1.00  0.00     0.000 C 
BRANCH  23  24
ATOM     24  C   UNL     1     -14.925 -21.840  21.346  1.00  0.00    -0.000 C 
BRANCH  24  25
ATOM     25  C   UNL     1     -16.374 -21.906  20.832  1.00  0.00    -0.000 C 
BRANCH  25  26
ATOM     26  C   UNL     1     -16.744 -23.292  20.274  1.00  0.00    -0.000 C 
BRANCH  26  27
ATOM     27  C   UNL     1     -15.655 -24.346  20.535  1.00  0.00    -0.000 C 
BRANCH  27  28
ATOM     28  C   UNL     1     -15.243 -25.173  19.303  1.00  0.00    -0.000 C 
BRANCH  28  29
ATOM     29  C   UNL     1     -15.043 -24.326  18.027  1.00  0.00    -0.000 C 
BRANCH  29  30
ATOM     30  C   UNL     1     -13.836 -23.383  18.138  1.00  0.00    -0.000 C 
BRANCH  30  31
ATOM     31  C   UNL     1     -13.942 -22.233  17.130  1.00  0.00    -0.003 C 
ATOM     32  C   UNL     1     -15.254 -21.471  17.297  1.00  0.00     0.004 C 
ENDBRANCH  30  31
ENDBRANCH  29  30
ENDBRANCH  28  29
ENDBRANCH  27  28
ENDBRANCH  26  27
ENDBRANCH  25  26
ENDBRANCH  24  25
ENDBRANCH  23  24
ENDBRANCH  22  23
ENDBRANCH  21  22
ENDBRANCH  20  21
ENDBRANCH  19  20
ENDBRANCH  18  19
ENDBRANCH   1  18
TORSDOF 28
ENDMDL
