MODEL 1
REMARK VINA RESULT:    -3.101      0.000      0.000
REMARK INTER + INTRA:          -6.154
REMARK INTER:                  -5.639
REMARK INTRA:                  -0.515
REMARK UNBOUND:                -0.515
REMARK SMILES CCCCCCCCCCCCCCCC(=O)[O-]
REMARK SMILES IDX 9 1 10 2 11 3 12 4 13 5 14 6 15 7 16 8 17 9 18 10 8 11 7 12
REMARK SMILES IDX 6 13 5 14 4 15 3 16 2 17 1 18
REMARK H PARENT
REMARK Flexibility Score: inf
ROOT
ATOM      1  C   UNL     1      -1.927   1.987  -9.017  1.00  0.00     0.000 C 
ENDROOT
BRANCH   1   2
ATOM      2  C   UNL     1      -3.391   2.109  -9.468  1.00  0.00     0.000 C 
BRANCH   2   3
ATOM      3  C   UNL     1      -3.651   3.477 -10.118  1.00  0.00     0.000 C 
BRANCH   3   4
ATOM      4  C   UNL     1      -5.129   3.895 -10.051  1.00  0.00     0.000 C 
BRANCH   4   5
ATOM      5  C   UNL     1      -5.352   5.133  -9.165  1.00  0.00     0.000 C 
BRANCH   5   6
ATOM      6  C   UNL     1      -6.712   5.804  -9.417  1.00  0.00     0.006 C 
BRANCH   6   7
ATOM      7  C   UNL     1      -7.136   6.735  -8.273  1.00  0.00     0.053 C 
BRANCH   7   8
ATOM      8  C   UNL     1      -7.416   8.109  -8.796  1.00  0.00     0.041 C 
ATOM      9  O   UNL     1      -6.570   9.030  -8.642  1.00  0.00    -0.550 OA
ATOM     10  O   UNL     1      -8.631   8.386  -9.409  1.00  0.00    -0.550 OA
ENDBRANCH   7   8
ENDBRANCH   6   7
ENDBRANCH   5   6
ENDBRANCH   4   5
ENDBRANCH   3   4
ENDBRANCH   2   3
ENDBRANCH   1   2
BRANCH   1  11
ATOM     11  C   UNL     1      -1.011   1.421 -10.114  1.00  0.00     0.000 C 
BRANCH  11  12
ATOM     12  C   UNL     1       0.477   1.464  -9.724  1.00  0.00    -0.000 C 
BRANCH  12  13
ATOM     13  C   UNL     1       1.228   0.183 -10.124  1.00  0.00    -0.000 C 
BRANCH  13  14
ATOM     14  C   UNL     1       0.353  -1.078 -10.010  1.00  0.00    -0.000 C 
BRANCH  14  15
ATOM     15  C   UNL     1       1.182  -2.373 -10.021  1.00  0.00    -0.000 C 
BRANCH  15  16
ATOM     16  C   UNL     1       2.695  -2.104  -9.962  1.00  0.00    -0.000 C 
BRANCH  16  17
ATOM     17  C   UNL     1       3.525  -3.396 -10.011  1.00  0.00    -0.003 C 
ATOM     18  C   UNL     1       5.028  -3.135  -9.937  1.00  0.00     0.004 C 
ENDBRANCH  16  17
ENDBRANCH  15  16
ENDBRANCH  14  15
ENDBRANCH  13  14
ENDBRANCH  12  13
ENDBRANCH  11  12
ENDBRANCH   1  11
TORSDOF 14
ENDMDL
MODEL 2
REMARK VINA RESULT:    -3.069      6.837     12.252
REMARK INTER + INTRA:          -6.096
REMARK INTER:                  -5.762
REMARK INTRA:                  -0.334
REMARK UNBOUND:                -0.515
REMARK SMILES CCCCCCCCCCCCCCCC(=O)[O-]
REMARK SMILES IDX 9 1 10 2 11 3 12 4 13 5 14 6 15 7 16 8 17 9 18 10 8 11 7 12
REMARK SMILES IDX 6 13 5 14 4 15 3 16 2 17 1 18
REMARK H PARENT
REMARK Flexibility Score: inf
ROOT
ATOM      1  C   UNL     1      -0.236   0.389 -10.124  1.00  0.00     0.000 C 
ENDROOT
BRANCH   1   2
ATOM      2  C   UNL     1       0.211  -1.043  -9.791  1.00  0.00     0.000 C 
BRANCH   2   3
ATOM      3  C   UNL     1       1.744  -1.144  -9.758  1.00  0.00     0.000 C 
BRANCH   3   4
ATOM      4  C   UNL     1       2.252  -2.559 -10.077  1.00  0.00     0.000 C 
BRANCH   4   5
ATOM      5  C   UNL     1       3.683  -2.801  -9.566  1.00  0.00     0.000 C 
BRANCH   5   6
ATOM      6  C   UNL     1       4.289  -4.110 -10.099  1.00  0.00     0.006 C 
BRANCH   6   7
ATOM      7  C   UNL     1       3.812  -5.344  -9.322  1.00  0.00     0.053 C 
BRANCH   7   8
ATOM      8  C   UNL     1       4.782  -6.471  -9.487  1.00  0.00     0.041 C 
ATOM      9  O   UNL     1       4.366  -7.632  -9.746  1.00  0.00    -0.550 OA
ATOM     10  O   UNL     1       6.142  -6.252  -9.306  1.00  0.00    -0.550 OA
ENDBRANCH   7   8
ENDBRANCH   6   7
ENDBRANCH   5   6
ENDBRANCH   4   5
ENDBRANCH   3   4
ENDBRANCH   2   3
ENDBRANCH   1   2
BRANCH   1  11
ATOM     11  C   UNL     1      -1.424   0.858  -9.267  1.00  0.00     0.000 C 
BRANCH  11  12
ATOM     12  C   UNL     1      -2.647   1.251 -10.114  1.00  0.00    -0.000 C 
BRANCH  12  13
ATOM     13  C   UNL     1      -3.109   2.693  -9.848  1.00  0.00    -0.000 C 
BRANCH  13  14
ATOM     14  C   UNL     1      -4.639   2.850  -9.927  1.00  0.00    -0.000 C 
BRANCH  14  15
ATOM     15  C   UNL     1      -5.079   4.323  -9.942  1.00  0.00    -0.000 C 
BRANCH  15  16
ATOM     16  C   UNL     1      -6.609   4.481  -9.948  1.00  0.00    -0.000 C 
BRANCH  16  17
ATOM     17  C   UNL     1      -7.075   5.728  -9.181  1.00  0.00    -0.003 C 
ATOM     18  C   UNL     1      -5.915   6.510  -8.567  1.00  0.00     0.004 C 
ENDBRANCH  16  17
ENDBRANCH  15  16
ENDBRANCH  14  15
ENDBRANCH  13  14
ENDBRANCH  12  13
ENDBRANCH  11  12
ENDBRANCH   1  11
TORSDOF 14
ENDMDL
MODEL 3
REMARK VINA RESULT:    -2.982     20.638     21.954
REMARK INTER + INTRA:          -5.937
REMARK INTER:                  -4.976
REMARK INTRA:                  -0.961
REMARK UNBOUND:                -0.515
REMARK SMILES CCCCCCCCCCCCCCCC(=O)[O-]
REMARK SMILES IDX 9 1 10 2 11 3 12 4 13 5 14 6 15 7 16 8 17 9 18 10 8 11 7 12
REMARK SMILES IDX 6 13 5 14 4 15 3 16 2 17 1 18
REMARK H PARENT
REMARK Flexibility Score: inf
ROOT
ATOM      1  C   UNL     1       6.027   5.051   9.655  1.00  0.00     0.000 C 
ENDROOT
BRANCH   1   2
ATOM      2  C   UNL     1       5.151   3.864  10.085  1.00  0.00     0.000 C 
BRANCH   2   3
ATOM      3  C   UNL     1       3.740   3.980   9.489  1.00  0.00     0.000 C 
BRANCH   3   4
ATOM      4  C   UNL     1       2.747   2.989  10.116  1.00  0.00     0.000 C 
BRANCH   4   5
ATOM      5  C   UNL     1       2.578   1.711   9.275  1.00  0.00     0.000 C 
BRANCH   5   6
ATOM      6  C   UNL     1       2.170   0.495  10.122  1.00  0.00     0.006 C 
BRANCH   6   7
ATOM      7  C   UNL     1       0.660   0.222  10.081  1.00  0.00     0.053 C 
BRANCH   7   8
ATOM      8  C   UNL     1       0.398  -1.211   9.745  1.00  0.00     0.041 C 
ATOM      9  O   UNL     1      -0.741  -1.570   9.344  1.00  0.00    -0.550 OA
ATOM     10  O   UNL     1       1.396  -2.162   9.920  1.00  0.00    -0.550 OA
ENDBRANCH   7   8
ENDBRANCH   6   7
ENDBRANCH   5   6
ENDBRANCH   4   5
ENDBRANCH   3   4
ENDBRANCH   2   3
ENDBRANCH   1   2
BRANCH   1  11
ATOM     11  C   UNL     1       7.157   4.642   8.697  1.00  0.00     0.000 C 
BRANCH  11  12
ATOM     12  C   UNL     1       8.496   5.323   9.035  1.00  0.00    -0.000 C 
BRANCH  12  13
ATOM     13  C   UNL     1       8.316   6.563   9.926  1.00  0.00    -0.000 C 
BRANCH  13  14
ATOM     14  C   UNL     1       8.512   7.881   9.154  1.00  0.00    -0.000 C 
BRANCH  14  15
ATOM     15  C   UNL     1       7.180   8.583   8.841  1.00  0.00    -0.000 C 
BRANCH  15  16
ATOM     16  C   UNL     1       6.613   9.340  10.054  1.00  0.00    -0.000 C 
BRANCH  16  17
ATOM     17  C   UNL     1       5.078   9.390  10.051  1.00  0.00    -0.003 C 
ATOM     18  C   UNL     1       4.450   8.186   9.351  1.00  0.00     0.004 C 
ENDBRANCH  16  17
ENDBRANCH  15  16
ENDBRANCH  14  15
ENDBRANCH  13  14
ENDBRANCH  12  13
ENDBRANCH  11  12
ENDBRANCH   1  11
TORSDOF 14
ENDMDL
MODEL 4
REMARK VINA RESULT:    -2.942     21.182     22.260
REMARK INTER + INTRA:          -5.865
REMARK INTER:                  -5.637
REMARK INTRA:                  -0.228
REMARK UNBOUND:                -0.515
REMARK SMILES CCCCCCCCCCCCCCCC(=O)[O-]
REMARK SMILES IDX 9 1 10 2 11 3 12 4 13 5 14 6 15 7 16 8 17 9 18 10 8 11 7 12
REMARK SMILES IDX 6 13 5 14 4 15 3 16 2 17 1 18
REMARK H PARENT
REMARK Flexibility Score: inf
ROOT
ATOM      1  C   UNL     1      -6.888  -6.058   7.859  1.00  0.00     0.000 C 
ENDROOT
BRANCH   1   2
ATOM      2  C   UNL     1      -7.748  -6.868   6.877  1.00  0.00     0.000 C 
BRANCH   2   3
ATOM      3  C   UNL     1      -8.205  -8.190   7.511  1.00  0.00     0.000 C 
BRANCH   3   4
ATOM      4  C   UNL     1      -9.208  -7.984   8.657  1.00  0.00     0.000 C 
BRANCH   4   5
ATOM      5  C   UNL     1      -9.108  -9.078   9.734  1.00  0.00     0.000 C 
BRANCH   5   6
ATOM      6  C   UNL     1      -7.662  -9.545   9.971  1.00  0.00     0.006 C 
BRANCH   6   7
ATOM      7  C   UNL     1      -6.671  -8.378  10.075  1.00  0.00     0.053 C 
BRANCH   7   8
ATOM      8  C   UNL     1      -5.336  -8.777   9.531  1.00  0.00     0.041 C 
ATOM      9  O   UNL     1      -4.402  -7.935   9.464  1.00  0.00    -0.550 OA
ATOM     10  O   UNL     1      -5.136 -10.066   9.052  1.00  0.00    -0.550 OA
ENDBRANCH   7   8
ENDBRANCH   6   7
ENDBRANCH   5   6
ENDBRANCH   4   5
ENDBRANCH   3   4
ENDBRANCH   2   3
ENDBRANCH   1   2
BRANCH   1  11
ATOM     11  C   UNL     1      -7.698  -5.004   8.632  1.00  0.00     0.000 C 
BRANCH  11  12
ATOM     12  C   UNL     1      -7.003  -4.558   9.931  1.00  0.00    -0.000 C 
BRANCH  12  13
ATOM     13  C   UNL     1      -5.471  -4.644   9.839  1.00  0.00    -0.000 C 
BRANCH  13  14
ATOM     14  C   UNL     1      -4.783  -3.297  10.124  1.00  0.00    -0.000 C 
BRANCH  14  15
ATOM     15  C   UNL     1      -3.249  -3.408  10.125  1.00  0.00    -0.000 C 
BRANCH  15  16
ATOM     16  C   UNL     1      -2.565  -2.124   9.625  1.00  0.00    -0.000 C 
BRANCH  16  17
ATOM     17  C   UNL     1      -1.113  -2.004  10.111  1.00  0.00    -0.003 C 
ATOM     18  C   UNL     1      -0.504  -0.633   9.816  1.00  0.00     0.004 C 
ENDBRANCH  16  17
ENDBRANCH  15  16
ENDBRANCH  14  15
ENDBRANCH  13  14
ENDBRANCH  12  13
ENDBRANCH  11  12
ENDBRANCH   1  11
TORSDOF 14
ENDMDL
MODEL 5
REMARK VINA RESULT:    -2.895     20.451     21.408
REMARK INTER + INTRA:          -5.780
REMARK INTER:                  -5.467
REMARK INTRA:                  -0.313
REMARK UNBOUND:                -0.515
REMARK SMILES CCCCCCCCCCCCCCCC(=O)[O-]
REMARK SMILES IDX 9 1 10 2 11 3 12 4 13 5 14 6 15 7 16 8 17 9 18 10 8 11 7 12
REMARK SMILES IDX 6 13 5 14 4 15 3 16 2 17 1 18
REMARK H PARENT
REMARK Flexibility Score: inf
ROOT
ATOM      1  C   UNL     1      -6.248  -4.391   9.726  1.00  0.00     0.000 C 
ENDROOT
BRANCH   1   2
ATOM      2  C   UNL     1      -4.857  -4.463   9.076  1.00  0.00     0.000 C 
BRANCH   2   3
ATOM      3  C   UNL     1      -3.765  -4.049  10.074  1.00  0.00     0.000 C 
BRANCH   3   4
ATOM      4  C   UNL     1      -3.455  -2.545  10.026  1.00  0.00     0.000 C 
BRANCH   4   5
ATOM      5  C   UNL     1      -1.948  -2.249  10.124  1.00  0.00     0.000 C 
BRANCH   5   6
ATOM      6  C   UNL     1      -1.639  -0.743  10.125  1.00  0.00     0.006 C 
BRANCH   6   7
ATOM      7  C   UNL     1      -0.175  -0.437   9.783  1.00  0.00     0.053 C 
BRANCH   7   8
ATOM      8  C   UNL     1       0.072   1.038   9.816  1.00  0.00     0.041 C 
ATOM      9  O   UNL     1      -0.898   1.842   9.813  1.00  0.00    -0.550 OA
ATOM     10  O   UNL     1       1.372   1.527   9.801  1.00  0.00    -0.550 OA
ENDBRANCH   7   8
ENDBRANCH   6   7
ENDBRANCH   5   6
ENDBRANCH   4   5
ENDBRANCH   3   4
ENDBRANCH   2   3
ENDBRANCH   1   2
BRANCH   1  11
ATOM     11  C   UNL     1      -7.389  -4.402   8.695  1.00  0.00     0.000 C 
BRANCH  11  12
ATOM     12  C   UNL     1      -7.641  -5.800   8.105  1.00  0.00    -0.000 C 
BRANCH  12  13
ATOM     13  C   UNL     1      -7.206  -6.928   9.055  1.00  0.00    -0.000 C 
BRANCH  13  14
ATOM     14  C   UNL     1      -7.178  -8.305   8.368  1.00  0.00    -0.000 C 
BRANCH  14  15
ATOM     15  C   UNL     1      -7.367  -9.463   9.362  1.00  0.00    -0.000 C 
BRANCH  15  16
ATOM     16  C   UNL     1      -6.068  -9.821  10.104  1.00  0.00    -0.000 C 
BRANCH  16  17
ATOM     17  C   UNL     1      -4.831  -9.158   9.479  1.00  0.00    -0.003 C 
ATOM     18  C   UNL     1      -3.538  -9.908   9.793  1.00  0.00     0.004 C 
ENDBRANCH  16  17
ENDBRANCH  15  16
ENDBRANCH  14  15
ENDBRANCH  13  14
ENDBRANCH  12  13
ENDBRANCH  11  12
ENDBRANCH   1  11
TORSDOF 14
ENDMDL
MODEL 6
REMARK VINA RESULT:    -2.753      9.765     14.877
REMARK INTER + INTRA:          -5.522
REMARK INTER:                  -5.475
REMARK INTRA:                  -0.048
REMARK UNBOUND:                -0.515
REMARK SMILES CCCCCCCCCCCCCCCC(=O)[O-]
REMARK SMILES IDX 9 1 10 2 11 3 12 4 13 5 14 6 15 7 16 8 17 9 18 10 8 11 7 12
REMARK SMILES IDX 6 13 5 14 4 15 3 16 2 17 1 18
REMARK H PARENT
REMARK Flexibility Score: inf
ROOT
ATOM      1  C   UNL     1       6.961  -6.143  -8.210  1.00  0.00     0.000 C 
ENDROOT
BRANCH   1   2
ATOM      2  C   UNL     1       5.482  -6.498  -8.428  1.00  0.00     0.000 C 
BRANCH   2   3
ATOM      3  C   UNL     1       5.208  -6.820  -9.905  1.00  0.00     0.000 C 
BRANCH   3   4
ATOM      4  C   UNL     1       4.778  -8.279 -10.125  1.00  0.00     0.000 C 
BRANCH   4   5
ATOM      5  C   UNL     1       5.607  -9.271  -9.291  1.00  0.00     0.000 C 
BRANCH   5   6
ATOM      6  C   UNL     1       6.874  -9.745 -10.022  1.00  0.00     0.006 C 
BRANCH   6   7
ATOM      7  C   UNL     1       8.058  -9.971  -9.073  1.00  0.00     0.053 C 
BRANCH   7   8
ATOM      8  C   UNL     1       9.018  -8.826  -9.155  1.00  0.00     0.041 C 
ATOM      9  O   UNL     1      10.029  -8.793  -8.405  1.00  0.00    -0.550 OA
ATOM     10  O   UNL     1       8.771  -7.771 -10.024  1.00  0.00    -0.550 OA
ENDBRANCH   7   8
ENDBRANCH   6   7
ENDBRANCH   5   6
ENDBRANCH   4   5
ENDBRANCH   3   4
ENDBRANCH   2   3
ENDBRANCH   1   2
BRANCH   1  11
ATOM     11  C   UNL     1       7.393  -4.886  -8.982  1.00  0.00     0.000 C 
BRANCH  11  12
ATOM     12  C   UNL     1       6.347  -4.439 -10.019  1.00  0.00    -0.000 C 
BRANCH  12  13
ATOM     13  C   UNL     1       6.238  -2.909 -10.123  1.00  0.00    -0.000 C 
BRANCH  13  14
ATOM     14  C   UNL     1       4.781  -2.413 -10.077  1.00  0.00    -0.000 C 
BRANCH  14  15
ATOM     15  C   UNL     1       3.780  -3.552  -9.824  1.00  0.00    -0.000 C 
BRANCH  15  16
ATOM     16  C   UNL     1       2.329  -3.139 -10.124  1.00  0.00    -0.000 C 
BRANCH  16  17
ATOM     17  C   UNL     1       1.925  -1.843  -9.405  1.00  0.00    -0.003 C 
ATOM     18  C   UNL     1       0.805  -1.094 -10.125  1.00  0.00     0.004 C 
ENDBRANCH  16  17
ENDBRANCH  15  16
ENDBRANCH  14  15
ENDBRANCH  13  14
ENDBRANCH  12  13
ENDBRANCH  11  12
ENDBRANCH   1  11
TORSDOF 14
ENDMDL
MODEL 7
REMARK VINA RESULT:    -2.255      5.189     10.916
REMARK INTER + INTRA:          -4.617
REMARK INTER:                  -3.919
REMARK INTRA:                  -0.697
REMARK UNBOUND:                -0.515
REMARK SMILES CCCCCCCCCCCCCCCC(=O)[O-]
REMARK SMILES IDX 9 1 10 2 11 3 12 4 13 5 14 6 15 7 16 8 17 9 18 10 8 11 7 12
REMARK SMILES IDX 6 13 5 14 4 15 3 16 2 17 1 18
REMARK H PARENT
REMARK Flexibility Score: inf
ROOT
ATOM      1  C   UNL     1      -2.810   3.847 -10.011  1.00  0.00     0.000 C 
ENDROOT
BRANCH   1   2
ATOM      2  C   UNL     1      -2.017   2.679  -9.403  1.00  0.00     0.000 C 
BRANCH   2   3
ATOM      3  C   UNL     1      -2.791   1.359  -9.544  1.00  0.00     0.000 C 
BRANCH   3   4
ATOM      4  C   UNL     1      -1.916   0.212 -10.073  1.00  0.00     0.000 C 
BRANCH   4   5
ATOM      5  C   UNL     1      -0.418   0.558 -10.062  1.00  0.00     0.000 C 
BRANCH   5   6
ATOM      6  C   UNL     1       0.479  -0.689 -10.120  1.00  0.00     0.006 C 
BRANCH   6   7
ATOM      7  C   UNL     1       1.975  -0.347 -10.087  1.00  0.00     0.053 C 
BRANCH   7   8
ATOM      8  C   UNL     1       2.794  -1.594  -9.978  1.00  0.00     0.041 C 
ATOM      9  O   UNL     1       2.229  -2.716  -9.884  1.00  0.00    -0.550 OA
ATOM     10  O   UNL     1       4.180  -1.515  -9.931  1.00  0.00    -0.550 OA
ENDBRANCH   7   8
ENDBRANCH   6   7
ENDBRANCH   5   6
ENDBRANCH   4   5
ENDBRANCH   3   4
ENDBRANCH   2   3
ENDBRANCH   1   2
BRANCH   1  11
ATOM     11  C   UNL     1      -4.165   4.071  -9.321  1.00  0.00     0.000 C 
BRANCH  11  12
ATOM     12  C   UNL     1      -4.546   5.559  -9.233  1.00  0.00    -0.000 C 
BRANCH  12  13
ATOM     13  C   UNL     1      -5.846   5.881  -9.989  1.00  0.00    -0.000 C 
BRANCH  13  14
ATOM     14  C   UNL     1      -6.954   4.844  -9.730  1.00  0.00    -0.000 C 
BRANCH  14  15
ATOM     15  C   UNL     1      -7.979   5.325  -8.691  1.00  0.00    -0.000 C 
BRANCH  15  16
ATOM     16  C   UNL     1      -7.681   6.746  -8.183  1.00  0.00    -0.000 C 
BRANCH  16  17
ATOM     17  C   UNL     1      -8.676   7.785  -8.722  1.00  0.00    -0.003 C 
ATOM     18  C   UNL     1      -8.051   8.717  -9.760  1.00  0.00     0.004 C 
ENDBRANCH  16  17
ENDBRANCH  15  16
ENDBRANCH  14  15
ENDBRANCH  13  14
ENDBRANCH  12  13
ENDBRANCH  11  12
ENDBRANCH   1  11
TORSDOF 14
ENDMDL
MODEL 8
REMARK VINA RESULT:    -2.231      8.110     13.240
REMARK INTER + INTRA:          -4.572
REMARK INTER:                  -3.848
REMARK INTRA:                  -0.723
REMARK UNBOUND:                -0.515
REMARK SMILES CCCCCCCCCCCCCCCC(=O)[O-]
REMARK SMILES IDX 9 1 10 2 11 3 12 4 13 5 14 6 15 7 16 8 17 9 18 10 8 11 7 12
REMARK SMILES IDX 6 13 5 14 4 15 3 16 2 17 1 18
REMARK H PARENT
REMARK Flexibility Score: inf
ROOT
ATOM      1  C   UNL     1       2.918  -1.995 -10.025  1.00  0.00     0.000 C 
ENDROOT
BRANCH   1   2
ATOM      2  C   UNL     1       3.190  -3.270  -9.212  1.00  0.00     0.000 C 
BRANCH   2   3
ATOM      3  C   UNL     1       3.197  -4.508 -10.122  1.00  0.00     0.000 C 
BRANCH   3   4
ATOM      4  C   UNL     1       4.136  -5.613  -9.614  1.00  0.00     0.000 C 
BRANCH   4   5
ATOM      5  C   UNL     1       5.481  -5.060  -9.112  1.00  0.00     0.000 C 
BRANCH   5   6
ATOM      6  C   UNL     1       6.355  -6.138  -8.450  1.00  0.00     0.006 C 
BRANCH   6   7
ATOM      7  C   UNL     1       7.281  -6.847  -9.448  1.00  0.00     0.053 C 
BRANCH   7   8
ATOM      8  C   UNL     1       7.463  -8.281  -9.062  1.00  0.00     0.041 C 
ATOM      9  O   UNL     1       8.614  -8.792  -9.048  1.00  0.00    -0.550 OA
ATOM     10  O   UNL     1       6.357  -9.068  -8.765  1.00  0.00    -0.550 OA
ENDBRANCH   7   8
ENDBRANCH   6   7
ENDBRANCH   5   6
ENDBRANCH   4   5
ENDBRANCH   3   4
ENDBRANCH   2   3
ENDBRANCH   1   2
BRANCH   1  11
ATOM     11  C   UNL     1       1.941  -1.037  -9.324  1.00  0.00     0.000 C 
BRANCH  11  12
ATOM     12  C   UNL     1       0.643  -0.825 -10.123  1.00  0.00    -0.000 C 
BRANCH  12  13
ATOM     13  C   UNL     1      -0.330  -2.009  -9.991  1.00  0.00    -0.000 C 
BRANCH  13  14
ATOM     14  C   UNL     1      -1.805  -1.567  -9.989  1.00  0.00    -0.000 C 
BRANCH  14  15
ATOM     15  C   UNL     1      -1.962  -0.042 -10.112  1.00  0.00    -0.000 C 
BRANCH  15  16
ATOM     16  C   UNL     1      -3.436   0.400 -10.113  1.00  0.00    -0.000 C 
BRANCH  16  17
ATOM     17  C   UNL     1      -3.592   1.926 -10.032  1.00  0.00    -0.003 C 
ATOM     18  C   UNL     1      -2.288   2.634  -9.667  1.00  0.00     0.004 C 
ENDBRANCH  16  17
ENDBRANCH  15  16
ENDBRANCH  14  15
ENDBRANCH  13  14
ENDBRANCH  12  13
ENDBRANCH  11  12
ENDBRANCH   1  11
TORSDOF 14
ENDMDL
MODEL 9
REMARK VINA RESULT:    -2.221      1.408      2.071
REMARK INTER + INTRA:          -4.553
REMARK INTER:                  -3.933
REMARK INTRA:                  -0.620
REMARK UNBOUND:                -0.515
REMARK SMILES CCCCCCCCCCCCCCCC(=O)[O-]
REMARK SMILES IDX 9 1 10 2 11 3 12 4 13 5 14 6 15 7 16 8 17 9 18 10 8 11 7 12
REMARK SMILES IDX 6 13 5 14 4 15 3 16 2 17 1 18
REMARK H PARENT
REMARK Flexibility Score: inf
ROOT
ATOM      1  C   UNL     1      -4.183   2.098  -9.301  1.00  0.00     0.000 C 
ENDROOT
BRANCH   1   2
ATOM      2  C   UNL     1      -5.480   2.110 -10.124  1.00  0.00     0.000 C 
BRANCH   2   3
ATOM      3  C   UNL     1      -6.116   3.509 -10.124  1.00  0.00     0.000 C 
BRANCH   3   4
ATOM      4  C   UNL     1      -5.315   4.524  -9.294  1.00  0.00     0.000 C 
BRANCH   4   5
ATOM      5  C   UNL     1      -5.097   5.853 -10.037  1.00  0.00     0.000 C 
BRANCH   5   6
ATOM      6  C   UNL     1      -4.747   7.012  -9.089  1.00  0.00     0.006 C 
BRANCH   6   7
ATOM      7  C   UNL     1      -5.319   8.356  -9.557  1.00  0.00     0.053 C 
BRANCH   7   8
ATOM      8  C   UNL     1      -6.631   8.626  -8.890  1.00  0.00     0.041 C 
ATOM      9  O   UNL     1      -7.064   9.805  -8.799  1.00  0.00    -0.550 OA
ATOM     10  O   UNL     1      -7.352   7.582  -8.325  1.00  0.00    -0.550 OA
ENDBRANCH   7   8
ENDBRANCH   6   7
ENDBRANCH   5   6
ENDBRANCH   4   5
ENDBRANCH   3   4
ENDBRANCH   2   3
ENDBRANCH   1   2
BRANCH   1  11
ATOM     11  C   UNL     1      -2.995   1.494 -10.067  1.00  0.00     0.000 C 
BRANCH  11  12
ATOM     12  C   UNL     1      -1.776   2.433 -10.106  1.00  0.00    -0.000 C 
BRANCH  12  13
ATOM     13  C   UNL     1      -0.518   1.789  -9.502  1.00  0.00    -0.000 C 
BRANCH  13  14
ATOM     14  C   UNL     1      -0.196   0.417 -10.123  1.00  0.00    -0.000 C 
BRANCH  14  15
ATOM     15  C   UNL     1       0.524  -0.520  -9.139  1.00  0.00    -0.000 C 
BRANCH  15  16
ATOM     16  C   UNL     1       0.977  -1.833  -9.800  1.00  0.00    -0.000 C 
BRANCH  16  17
ATOM     17  C   UNL     1       2.486  -1.857 -10.088  1.00  0.00    -0.003 C 
ATOM     18  C   UNL     1       3.119  -0.467 -10.031  1.00  0.00     0.004 C 
ENDBRANCH  16  17
ENDBRANCH  15  16
ENDBRANCH  14  15
ENDBRANCH  13  14
ENDBRANCH  12  13
ENDBRANCH  11  12
ENDBRANCH   1  11
TORSDOF 14
ENDMDL
