MODEL 1
REMARK VINA RESULT:    -6.663      0.000      0.000
REMARK INTER + INTRA:          -8.239
REMARK INTER:                  -8.026
REMARK INTRA:                  -0.213
REMARK UNBOUND:                -0.213
REMARK SMILES O=c1c(O)c(-c2ccc(O)c(O)c2)oc2cc(O)cc(O)c12
REMARK SMILES IDX 5 1 3 2 2 3 1 4 22 5 20 6 19 7 17 8 16 9 15 10 14 11 6 12
REMARK SMILES IDX 7 13 8 14 9 15 13 16 11 17 10 18 12 20 4 22 21 24 18 26
REMARK H PARENT 10 19 12 21 4 23 21 25 18 27
REMARK Flexibility Score: inf
ROOT
ATOM      1  C   UNL     1      32.543  -3.429   4.309  1.00  0.00     0.180 A 
ATOM      2  C   UNL     1      31.974  -4.465   5.071  1.00  0.00     0.208 A 
ATOM      3  C   UNL     1      31.226  -5.458   4.419  1.00  0.00     0.238 A 
ATOM      4  O   UNL     1      30.673  -6.351   5.112  1.00  0.00    -0.285 OA
ATOM      5  C   UNL     1      31.070  -5.414   3.013  1.00  0.00     0.111 A 
ATOM      6  C   UNL     1      30.366  -6.390   2.244  1.00  0.00     0.134 A 
ATOM      7  C   UNL     1      30.165  -6.176   0.875  1.00  0.00     0.093 A 
ATOM      8  C   UNL     1      30.697  -5.053   0.236  1.00  0.00     0.123 A 
ATOM      9  C   UNL     1      31.435  -4.126   0.965  1.00  0.00     0.094 A 
ATOM     10  C   UNL     1      31.623  -4.294   2.340  1.00  0.00     0.146 A 
ATOM     11  O   UNL     1      32.324  -3.380   3.001  1.00  0.00    -0.452 OA
ENDROOT
BRANCH   1  12
ATOM     12  C   UNL     1      33.365  -2.362   4.921  1.00  0.00     0.025 A 
ATOM     13  C   UNL     1      32.745  -1.380   5.711  1.00  0.00     0.016 A 
ATOM     14  C   UNL     1      33.499  -0.352   6.283  1.00  0.00     0.051 A 
ATOM     15  C   UNL     1      34.880  -0.278   6.059  1.00  0.00     0.157 A 
ATOM     16  C   UNL     1      34.749  -2.274   4.682  1.00  0.00     0.062 A 
ATOM     17  C   UNL     1      35.506  -1.242   5.251  1.00  0.00     0.158 A 
BRANCH  15  18
ATOM     18  O   UNL     1      35.629   0.748   6.631  1.00  0.00    -0.504 OA
ATOM     19  H   UNL     1      35.888   1.573   6.104  1.00  0.00     0.293 HD
ENDBRANCH  15  18
BRANCH  17  20
ATOM     20  O   UNL     1      36.876  -1.190   4.998  1.00  0.00    -0.504 OA
ATOM     21  H   UNL     1      37.254  -0.731   4.177  1.00  0.00     0.293 HD
ENDBRANCH  17  20
ENDBRANCH   1  12
BRANCH   2  22
ATOM     22  O   UNL     1      32.122  -4.478   6.461  1.00  0.00    -0.502 OA
ATOM     23  H   UNL     1      31.787  -5.241   7.037  1.00  0.00     0.293 HD
ENDBRANCH   2  22
BRANCH   6  24
ATOM     24  O   UNL     1      29.875  -7.589   2.768  1.00  0.00    -0.507 OA
ATOM     25  H   UNL     1      29.101  -7.662   3.410  1.00  0.00     0.293 HD
ENDBRANCH   6  24
BRANCH   8  26
ATOM     26  O   UNL     1      30.504  -4.856  -1.130  1.00  0.00    -0.508 OA
ATOM     27  H   UNL     1      30.180  -3.969  -1.498  1.00  0.00     0.293 HD
ENDBRANCH   8  26
TORSDOF 6
ENDMDL
MODEL 2
REMARK VINA RESULT:    -6.589      1.500      6.809
REMARK INTER + INTRA:          -8.150
REMARK INTER:                  -8.013
REMARK INTRA:                  -0.137
REMARK UNBOUND:                -0.213
REMARK SMILES O=c1c(O)c(-c2ccc(O)c(O)c2)oc2cc(O)cc(O)c12
REMARK SMILES IDX 5 1 3 2 2 3 1 4 22 5 20 6 19 7 17 8 16 9 15 10 14 11 6 12
REMARK SMILES IDX 7 13 8 14 9 15 13 16 11 17 10 18 12 20 4 22 21 24 18 26
REMARK H PARENT 10 19 12 21 4 23 21 25 18 27
REMARK Flexibility Score: inf
ROOT
ATOM      1  C   UNL     1      32.100  -3.392   3.017  1.00  0.00     0.180 A 
ATOM      2  C   UNL     1      31.165  -3.155   4.041  1.00  0.00     0.208 A 
ATOM      3  C   UNL     1      31.562  -2.415   5.166  1.00  0.00     0.238 A 
ATOM      4  O   UNL     1      30.738  -2.253   6.104  1.00  0.00    -0.285 OA
ATOM      5  C   UNL     1      32.881  -1.906   5.247  1.00  0.00     0.111 A 
ATOM      6  C   UNL     1      33.378  -1.110   6.323  1.00  0.00     0.134 A 
ATOM      7  C   UNL     1      34.737  -0.772   6.360  1.00  0.00     0.093 A 
ATOM      8  C   UNL     1      35.601  -1.147   5.329  1.00  0.00     0.123 A 
ATOM      9  C   UNL     1      35.113  -1.873   4.247  1.00  0.00     0.094 A 
ATOM     10  C   UNL     1      33.769  -2.256   4.198  1.00  0.00     0.146 A 
ATOM     11  O   UNL     1      33.347  -2.958   3.153  1.00  0.00    -0.452 OA
ENDROOT
BRANCH   1  12
ATOM     12  C   UNL     1      31.749  -4.141   1.790  1.00  0.00     0.025 A 
ATOM     13  C   UNL     1      31.753  -3.478   0.552  1.00  0.00     0.016 A 
ATOM     14  C   UNL     1      31.405  -4.160  -0.617  1.00  0.00     0.051 A 
ATOM     15  C   UNL     1      31.033  -5.509  -0.564  1.00  0.00     0.157 A 
ATOM     16  C   UNL     1      31.356  -5.491   1.842  1.00  0.00     0.062 A 
ATOM     17  C   UNL     1      31.005  -6.175   0.672  1.00  0.00     0.158 A 
BRANCH  15  18
ATOM     18  O   UNL     1      30.690  -6.188  -1.732  1.00  0.00    -0.504 OA
ATOM     19  H   UNL     1      30.025  -5.803  -2.393  1.00  0.00     0.293 HD
ENDBRANCH  15  18
BRANCH  17  20
ATOM     20  O   UNL     1      30.626  -7.515   0.761  1.00  0.00    -0.504 OA
ATOM     21  H   UNL     1      30.998  -8.133   1.472  1.00  0.00     0.293 HD
ENDBRANCH  17  20
ENDBRANCH   1  12
BRANCH   2  22
ATOM     22  O   UNL     1      29.875  -3.684   3.951  1.00  0.00    -0.502 OA
ATOM     23  H   UNL     1      29.134  -3.422   4.590  1.00  0.00     0.293 HD
ENDBRANCH   2  22
BRANCH   6  24
ATOM     24  O   UNL     1      32.580  -0.606   7.354  1.00  0.00    -0.507 OA
ATOM     25  H   UNL     1      32.881   0.076   8.033  1.00  0.00     0.293 HD
ENDBRANCH   6  24
BRANCH   8  26
ATOM     26  O   UNL     1      36.948  -0.793   5.367  1.00  0.00    -0.508 OA
ATOM     27  H   UNL     1      37.601  -1.257   5.988  1.00  0.00     0.293 HD
ENDBRANCH   8  26
TORSDOF 6
ENDMDL
MODEL 3
REMARK VINA RESULT:    -6.373      4.464      6.875
REMARK INTER + INTRA:          -7.890
REMARK INTER:                  -8.037
REMARK INTRA:                   0.147
REMARK UNBOUND:                -0.213
REMARK SMILES O=c1c(O)c(-c2ccc(O)c(O)c2)oc2cc(O)cc(O)c12
REMARK SMILES IDX 5 1 3 2 2 3 1 4 22 5 20 6 19 7 17 8 16 9 15 10 14 11 6 12
REMARK SMILES IDX 7 13 8 14 9 15 13 16 11 17 10 18 12 20 4 22 21 24 18 26
REMARK H PARENT 10 19 12 21 4 23 21 25 18 27
REMARK Flexibility Score: inf
ROOT
ATOM      1  C   UNL     1      30.571  -7.154   3.533  1.00  0.00     0.180 A 
ATOM      2  C   UNL     1      30.305  -6.320   4.633  1.00  0.00     0.208 A 
ATOM      3  C   UNL     1      30.168  -6.896   5.906  1.00  0.00     0.238 A 
ATOM      4  O   UNL     1      29.875  -6.151   6.878  1.00  0.00    -0.285 OA
ATOM      5  C   UNL     1      30.316  -8.294   6.068  1.00  0.00     0.111 A 
ATOM      6  C   UNL     1      30.238  -8.979   7.318  1.00  0.00     0.134 A 
ATOM      7  C   UNL     1      30.271 -10.379   7.342  1.00  0.00     0.093 A 
ATOM      8  C   UNL     1      30.443 -11.115   6.167  1.00  0.00     0.123 A 
ATOM      9  C   UNL     1      30.579 -10.454   4.950  1.00  0.00     0.094 A 
ATOM     10  C   UNL     1      30.516  -9.059   4.890  1.00  0.00     0.146 A 
ATOM     11  O   UNL     1      30.640  -8.469   3.707  1.00  0.00    -0.452 OA
ENDROOT
BRANCH   1  12
ATOM     12  C   UNL     1      30.753  -6.619   2.165  1.00  0.00     0.025 A 
ATOM     13  C   UNL     1      29.877  -5.631   1.688  1.00  0.00     0.016 A 
ATOM     14  C   UNL     1      30.018  -5.126   0.393  1.00  0.00     0.051 A 
ATOM     15  C   UNL     1      31.024  -5.613  -0.450  1.00  0.00     0.157 A 
ATOM     16  C   UNL     1      31.751  -7.120   1.309  1.00  0.00     0.062 A 
ATOM     17  C   UNL     1      31.892  -6.617   0.010  1.00  0.00     0.158 A 
BRANCH  15  18
ATOM     18  O   UNL     1      31.164  -5.106  -1.741  1.00  0.00    -0.504 OA
ATOM     19  H   UNL     1      32.048  -5.148  -2.235  1.00  0.00     0.293 HD
ENDBRANCH  15  18
BRANCH  17  20
ATOM     20  O   UNL     1      32.896  -7.133  -0.809  1.00  0.00    -0.504 OA
ATOM     21  H   UNL     1      33.256  -8.073  -0.692  1.00  0.00     0.293 HD
ENDBRANCH  17  20
ENDBRANCH   1  12
BRANCH   2  22
ATOM     22  O   UNL     1      30.141  -4.945   4.448  1.00  0.00    -0.502 OA
ATOM     23  H   UNL     1      29.258  -4.535   4.167  1.00  0.00     0.293 HD
ENDBRANCH   2  22
BRANCH   6  24
ATOM     24  O   UNL     1      30.158  -8.335   8.556  1.00  0.00    -0.507 OA
ATOM     25  H   UNL     1      30.664  -8.613   9.383  1.00  0.00     0.293 HD
ENDBRANCH   6  24
BRANCH   8  26
ATOM     26  O   UNL     1      30.490 -12.507   6.202  1.00  0.00    -0.508 OA
ATOM     27  H   UNL     1      31.327 -13.017   5.947  1.00  0.00     0.293 HD
ENDBRANCH   8  26
TORSDOF 6
ENDMDL
MODEL 4
REMARK VINA RESULT:    -6.362      1.641      6.777
REMARK INTER + INTRA:          -7.877
REMARK INTER:                  -7.782
REMARK INTRA:                  -0.095
REMARK UNBOUND:                -0.213
REMARK SMILES O=c1c(O)c(-c2ccc(O)c(O)c2)oc2cc(O)cc(O)c12
REMARK SMILES IDX 5 1 3 2 2 3 1 4 22 5 20 6 19 7 17 8 16 9 15 10 14 11 6 12
REMARK SMILES IDX 7 13 8 14 9 15 13 16 11 17 10 18 12 20 4 22 21 24 18 26
REMARK H PARENT 10 19 12 21 4 23 21 25 18 27
REMARK Flexibility Score: inf
ROOT
ATOM      1  C   UNL     1      32.351  -4.445   4.605  1.00  0.00     0.180 A 
ATOM      2  C   UNL     1      31.675  -4.354   5.835  1.00  0.00     0.208 A 
ATOM      3  C   UNL     1      32.042  -3.345   6.739  1.00  0.00     0.238 A 
ATOM      4  O   UNL     1      31.472  -3.302   7.861  1.00  0.00    -0.285 OA
ATOM      5  C   UNL     1      33.068  -2.431   6.399  1.00  0.00     0.111 A 
ATOM      6  C   UNL     1      33.494  -1.346   7.223  1.00  0.00     0.134 A 
ATOM      7  C   UNL     1      34.607  -0.585   6.842  1.00  0.00     0.093 A 
ATOM      8  C   UNL     1      35.267  -0.829   5.635  1.00  0.00     0.123 A 
ATOM      9  C   UNL     1      34.822  -1.848   4.797  1.00  0.00     0.094 A 
ATOM     10  C   UNL     1      33.737  -2.647   5.166  1.00  0.00     0.146 A 
ATOM     11  O   UNL     1      33.352  -3.615   4.342  1.00  0.00    -0.452 OA
ENDROOT
BRANCH   1  12
ATOM     12  C   UNL     1      32.002  -5.465   3.589  1.00  0.00     0.025 A 
ATOM     13  C   UNL     1      31.542  -5.053   2.328  1.00  0.00     0.016 A 
ATOM     14  C   UNL     1      31.189  -5.998   1.362  1.00  0.00     0.051 A 
ATOM     15  C   UNL     1      31.273  -7.367   1.646  1.00  0.00     0.157 A 
ATOM     16  C   UNL     1      32.067  -6.840   3.879  1.00  0.00     0.062 A 
ATOM     17  C   UNL     1      31.711  -7.788   2.913  1.00  0.00     0.158 A 
BRANCH  15  18
ATOM     18  O   UNL     1      30.922  -8.307   0.680  1.00  0.00    -0.504 OA
ATOM     19  H   UNL     1      30.860  -9.295   0.898  1.00  0.00     0.293 HD
ENDBRANCH  15  18
BRANCH  17  20
ATOM     20  O   UNL     1      31.793  -9.143   3.233  1.00  0.00    -0.504 OA
ATOM     21  H   UNL     1      31.226  -9.842   2.767  1.00  0.00     0.293 HD
ENDBRANCH  17  20
ENDBRANCH   1  12
BRANCH   2  22
ATOM     22  O   UNL     1      30.680  -5.279   6.160  1.00  0.00    -0.502 OA
ATOM     23  H   UNL     1      30.886  -6.249   6.371  1.00  0.00     0.293 HD
ENDBRANCH   2  22
BRANCH   6  24
ATOM     24  O   UNL     1      32.848  -0.961   8.401  1.00  0.00    -0.507 OA
ATOM     25  H   UNL     1      32.628  -0.009   8.651  1.00  0.00     0.293 HD
ENDBRANCH   6  24
BRANCH   8  26
ATOM     26  O   UNL     1      36.363  -0.057   5.256  1.00  0.00    -0.508 OA
ATOM     27  H   UNL     1      36.796  -0.161   4.346  1.00  0.00     0.293 HD
ENDBRANCH   8  26
TORSDOF 6
ENDMDL
MODEL 5
REMARK VINA RESULT:    -6.190      1.560      2.164
REMARK INTER + INTRA:          -7.669
REMARK INTER:                  -7.351
REMARK INTRA:                  -0.318
REMARK UNBOUND:                -0.213
REMARK SMILES O=c1c(O)c(-c2ccc(O)c(O)c2)oc2cc(O)cc(O)c12
REMARK SMILES IDX 5 1 3 2 2 3 1 4 22 5 20 6 19 7 17 8 16 9 15 10 14 11 6 12
REMARK SMILES IDX 7 13 8 14 9 15 13 16 11 17 10 18 12 20 4 22 21 24 18 26
REMARK H PARENT 10 19 12 21 4 23 21 25 18 27
REMARK Flexibility Score: inf
ROOT
ATOM      1  C   UNL     1      31.995  -3.453   3.993  1.00  0.00     0.180 A 
ATOM      2  C   UNL     1      31.822  -4.720   4.578  1.00  0.00     0.208 A 
ATOM      3  C   UNL     1      31.574  -5.825   3.748  1.00  0.00     0.238 A 
ATOM      4  O   UNL     1      31.365  -6.946   4.280  1.00  0.00    -0.285 OA
ATOM      5  C   UNL     1      31.518  -5.654   2.344  1.00  0.00     0.111 A 
ATOM      6  C   UNL     1      31.312  -6.711   1.406  1.00  0.00     0.134 A 
ATOM      7  C   UNL     1      31.144  -6.406   0.049  1.00  0.00     0.093 A 
ATOM      8  C   UNL     1      31.240  -5.090  -0.411  1.00  0.00     0.123 A 
ATOM      9  C   UNL     1      31.499  -4.060   0.488  1.00  0.00     0.094 A 
ATOM     10  C   UNL     1      31.636  -4.328   1.853  1.00  0.00     0.146 A 
ATOM     11  O   UNL     1      31.872  -3.314   2.678  1.00  0.00    -0.452 OA
ENDROOT
BRANCH   1  12
ATOM     12  C   UNL     1      32.286  -2.247   4.799  1.00  0.00     0.025 A 
ATOM     13  C   UNL     1      33.611  -1.965   5.167  1.00  0.00     0.016 A 
ATOM     14  C   UNL     1      33.906  -0.842   5.945  1.00  0.00     0.051 A 
ATOM     15  C   UNL     1      32.880   0.005   6.381  1.00  0.00     0.157 A 
ATOM     16  C   UNL     1      31.255  -1.405   5.256  1.00  0.00     0.062 A 
ATOM     17  C   UNL     1      31.548  -0.281   6.038  1.00  0.00     0.158 A 
BRANCH  15  18
ATOM     18  O   UNL     1      33.177   1.125   7.156  1.00  0.00    -0.504 OA
ATOM     19  H   UNL     1      33.657   1.928   6.765  1.00  0.00     0.293 HD
ENDBRANCH  15  18
BRANCH  17  20
ATOM     20  O   UNL     1      30.502   0.535   6.468  1.00  0.00    -0.504 OA
ATOM     21  H   UNL     1      29.817   0.219   7.145  1.00  0.00     0.293 HD
ENDBRANCH  17  20
ENDBRANCH   1  12
BRANCH   2  22
ATOM     22  O   UNL     1      31.860  -4.863   5.968  1.00  0.00    -0.502 OA
ATOM     23  H   UNL     1      32.116  -5.734   6.418  1.00  0.00     0.293 HD
ENDBRANCH   2  22
BRANCH   6  24
ATOM     24  O   UNL     1      31.292  -8.065   1.749  1.00  0.00    -0.507 OA
ATOM     25  H   UNL     1      30.876  -8.794   1.190  1.00  0.00     0.293 HD
ENDBRANCH   6  24
BRANCH   8  26
ATOM     26  O   UNL     1      31.087  -4.799  -1.765  1.00  0.00    -0.508 OA
ATOM     27  H   UNL     1      31.796  -5.047  -2.444  1.00  0.00     0.293 HD
ENDBRANCH   8  26
TORSDOF 6
ENDMDL
MODEL 6
REMARK VINA RESULT:    -6.142      2.550      2.956
REMARK INTER + INTRA:          -7.612
REMARK INTER:                  -7.301
REMARK INTRA:                  -0.311
REMARK UNBOUND:                -0.213
REMARK SMILES O=c1c(O)c(-c2ccc(O)c(O)c2)oc2cc(O)cc(O)c12
REMARK SMILES IDX 5 1 3 2 2 3 1 4 22 5 20 6 19 7 17 8 16 9 15 10 14 11 6 12
REMARK SMILES IDX 7 13 8 14 9 15 13 16 11 17 10 18 12 20 4 22 21 24 18 26
REMARK H PARENT 10 19 12 21 4 23 21 25 18 27
REMARK Flexibility Score: inf
ROOT
ATOM      1  C   UNL     1      31.036  -4.740   4.561  1.00  0.00     0.180 A 
ATOM      2  C   UNL     1      30.867  -6.132   4.659  1.00  0.00     0.208 A 
ATOM      3  C   UNL     1      30.905  -6.906   3.488  1.00  0.00     0.238 A 
ATOM      4  O   UNL     1      30.698  -8.145   3.575  1.00  0.00    -0.285 OA
ATOM      5  C   UNL     1      31.128  -6.282   2.237  1.00  0.00     0.111 A 
ATOM      6  C   UNL     1      31.226  -6.974   0.992  1.00  0.00     0.134 A 
ATOM      7  C   UNL     1      31.318  -6.242  -0.199  1.00  0.00     0.093 A 
ATOM      8  C   UNL     1      31.382  -4.847  -0.183  1.00  0.00     0.123 A 
ATOM      9  C   UNL     1      31.346  -4.166   1.030  1.00  0.00     0.094 A 
ATOM     10  C   UNL     1      31.219  -4.866   2.232  1.00  0.00     0.146 A 
ATOM     11  O   UNL     1      31.178  -4.177   3.367  1.00  0.00    -0.452 OA
ENDROOT
BRANCH   1  12
ATOM     12  C   UNL     1      31.034  -3.861   5.752  1.00  0.00     0.025 A 
ATOM     13  C   UNL     1      29.892  -3.098   6.045  1.00  0.00     0.016 A 
ATOM     14  C   UNL     1      29.875  -2.247   7.153  1.00  0.00     0.051 A 
ATOM     15  C   UNL     1      31.004  -2.132   7.974  1.00  0.00     0.157 A 
ATOM     16  C   UNL     1      32.173  -3.729   6.568  1.00  0.00     0.062 A 
ATOM     17  C   UNL     1      32.159  -2.874   7.677  1.00  0.00     0.158 A 
BRANCH  15  18
ATOM     18  O   UNL     1      30.983  -1.284   9.080  1.00  0.00    -0.504 OA
ATOM     19  H   UNL     1      31.667  -1.365   9.823  1.00  0.00     0.293 HD
ENDBRANCH  15  18
BRANCH  17  20
ATOM     20  O   UNL     1      33.304  -2.773   8.466  1.00  0.00    -0.504 OA
ATOM     21  H   UNL     1      33.870  -1.933   8.487  1.00  0.00     0.293 HD
ENDBRANCH  17  20
ENDBRANCH   1  12
BRANCH   2  22
ATOM     22  O   UNL     1      30.626  -6.726   5.901  1.00  0.00    -0.502 OA
ATOM     23  H   UNL     1      29.919  -7.438   6.036  1.00  0.00     0.293 HD
ENDBRANCH   2  22
BRANCH   6  24
ATOM     24  O   UNL     1      31.265  -8.366   0.874  1.00  0.00    -0.507 OA
ATOM     25  H   UNL     1      30.744  -8.901   0.196  1.00  0.00     0.293 HD
ENDBRANCH   6  24
BRANCH   8  26
ATOM     26  O   UNL     1      31.489  -4.127  -1.372  1.00  0.00    -0.508 OA
ATOM     27  H   UNL     1      32.388  -3.833  -1.735  1.00  0.00     0.293 HD
ENDBRANCH   8  26
TORSDOF 6
ENDMDL
MODEL 7
REMARK VINA RESULT:    -5.986      2.237      3.717
REMARK INTER + INTRA:          -7.425
REMARK INTER:                  -7.193
REMARK INTRA:                  -0.231
REMARK UNBOUND:                -0.213
REMARK SMILES O=c1c(O)c(-c2ccc(O)c(O)c2)oc2cc(O)cc(O)c12
REMARK SMILES IDX 5 1 3 2 2 3 1 4 22 5 20 6 19 7 17 8 16 9 15 10 14 11 6 12
REMARK SMILES IDX 7 13 8 14 9 15 13 16 11 17 10 18 12 20 4 22 21 24 18 26
REMARK H PARENT 10 19 12 21 4 23 21 25 18 27
REMARK Flexibility Score: inf
ROOT
ATOM      1  C   UNL     1      32.189  -4.353   4.192  1.00  0.00     0.180 A 
ATOM      2  C   UNL     1      31.933  -3.664   2.993  1.00  0.00     0.208 A 
ATOM      3  C   UNL     1      31.683  -4.401   1.825  1.00  0.00     0.238 A 
ATOM      4  O   UNL     1      31.510  -3.780   0.744  1.00  0.00    -0.285 OA
ATOM      5  C   UNL     1      31.675  -5.816   1.872  1.00  0.00     0.111 A 
ATOM      6  C   UNL     1      31.393  -6.662   0.757  1.00  0.00     0.134 A 
ATOM      7  C   UNL     1      31.541  -8.049   0.889  1.00  0.00     0.093 A 
ATOM      8  C   UNL     1      31.897  -8.622   2.112  1.00  0.00     0.123 A 
ATOM      9  C   UNL     1      32.116  -7.809   3.220  1.00  0.00     0.094 A 
ATOM     10  C   UNL     1      32.011  -6.420   3.111  1.00  0.00     0.146 A 
ATOM     11  O   UNL     1      32.239  -5.680   4.190  1.00  0.00    -0.452 OA
ENDROOT
BRANCH   1  12
ATOM     12  C   UNL     1      32.436  -3.646   5.469  1.00  0.00     0.025 A 
ATOM     13  C   UNL     1      33.662  -2.993   5.670  1.00  0.00     0.016 A 
ATOM     14  C   UNL     1      33.925  -2.337   6.876  1.00  0.00     0.051 A 
ATOM     15  C   UNL     1      32.973  -2.338   7.903  1.00  0.00     0.157 A 
ATOM     16  C   UNL     1      31.490  -3.662   6.511  1.00  0.00     0.062 A 
ATOM     17  C   UNL     1      31.752  -3.008   7.720  1.00  0.00     0.158 A 
BRANCH  15  18
ATOM     18  O   UNL     1      33.237  -1.681   9.104  1.00  0.00    -0.504 OA
ATOM     19  H   UNL     1      34.168  -1.658   9.502  1.00  0.00     0.293 HD
ENDBRANCH  15  18
BRANCH  17  20
ATOM     20  O   UNL     1      30.789  -3.040   8.728  1.00  0.00    -0.504 OA
ATOM     21  H   UNL     1      30.749  -2.335   9.456  1.00  0.00     0.293 HD
ENDBRANCH  17  20
ENDBRANCH   1  12
BRANCH   2  22
ATOM     22  O   UNL     1      31.968  -2.267   2.964  1.00  0.00    -0.502 OA
ATOM     23  H   UNL     1      32.833  -1.746   2.892  1.00  0.00     0.293 HD
ENDBRANCH   2  22
BRANCH   6  24
ATOM     24  O   UNL     1      30.942  -6.197  -0.482  1.00  0.00    -0.507 OA
ATOM     25  H   UNL     1      31.025  -6.702  -1.350  1.00  0.00     0.293 HD
ENDBRANCH   6  24
BRANCH   8  26
ATOM     26  O   UNL     1      32.027 -10.004   2.237  1.00  0.00    -0.508 OA
ATOM     27  H   UNL     1      31.466 -10.642   1.685  1.00  0.00     0.293 HD
ENDBRANCH   8  26
TORSDOF 6
ENDMDL
