MODEL 1
REMARK VINA RESULT:    -4.811      0.000      0.000
REMARK INTER + INTRA:          -5.657
REMARK INTER:                  -5.514
REMARK INTRA:                  -0.143
REMARK UNBOUND:                -0.143
REMARK SMILES O=C([O-])C=Cc1ccc(O)cc1
REMARK SMILES IDX 6 1 7 2 12 3 8 4 11 5 9 6 5 7 4 8 2 9 1 10 3 11 10 12
REMARK H PARENT 10 13
REMARK Flexibility Score: inf
ROOT
ATOM      1  C   UNL     1      20.343  -0.649 -19.691  1.00  0.00    -0.025 A 
ATOM      2  C   UNL     1      20.927   0.627 -19.589  1.00  0.00     0.012 A 
ATOM      3  C   UNL     1      20.418  -1.327 -20.927  1.00  0.00     0.012 A 
ATOM      4  C   UNL     1      21.567   1.210 -20.685  1.00  0.00     0.047 A 
ATOM      5  C   UNL     1      21.058  -0.738 -22.021  1.00  0.00     0.047 A 
ATOM      6  C   UNL     1      21.635   0.532 -21.903  1.00  0.00     0.115 A 
ENDROOT
BRANCH   1   7
ATOM      7  C   UNL     1      19.677  -1.215 -18.486  1.00  0.00     0.010 C 
ATOM      8  C   UNL     1      18.850  -0.534 -17.677  1.00  0.00     0.025 C 
BRANCH   8   9
ATOM      9  C   UNL     1      18.222  -1.153 -16.498  1.00  0.00     0.064 C 
ATOM     10  O   UNL     1      17.680  -0.450 -15.603  1.00  0.00    -0.545 OA
ATOM     11  O   UNL     1      18.226  -2.535 -16.370  1.00  0.00    -0.545 OA
ENDBRANCH   8   9
ENDBRANCH   1   7
BRANCH   6  12
ATOM     12  O   UNL     1      22.275   1.126 -22.988  1.00  0.00    -0.508 OA
ATOM     13  H   UNL     1      22.013   2.048 -23.318  1.00  0.00     0.293 HD
ENDBRANCH   6  12
TORSDOF 3
ENDMDL
MODEL 2
REMARK VINA RESULT:    -4.771      0.143      1.404
REMARK INTER + INTRA:          -5.611
REMARK INTER:                  -5.476
REMARK INTRA:                  -0.135
REMARK UNBOUND:                -0.143
REMARK SMILES O=C([O-])C=Cc1ccc(O)cc1
REMARK SMILES IDX 6 1 7 2 12 3 8 4 11 5 9 6 5 7 4 8 2 9 1 10 3 11 10 12
REMARK H PARENT 10 13
REMARK Flexibility Score: inf
ROOT
ATOM      1  C   UNL     1      20.200  -0.602 -19.692  1.00  0.00    -0.025 A 
ATOM      2  C   UNL     1      20.278  -1.320 -20.900  1.00  0.00     0.012 A 
ATOM      3  C   UNL     1      20.847   0.649 -19.610  1.00  0.00     0.012 A 
ATOM      4  C   UNL     1      20.979  -0.806 -21.994  1.00  0.00     0.047 A 
ATOM      5  C   UNL     1      21.548   1.159 -20.707  1.00  0.00     0.047 A 
ATOM      6  C   UNL     1      21.615   0.433 -21.901  1.00  0.00     0.115 A 
ENDROOT
BRANCH   1   7
ATOM      7  C   UNL     1      19.437  -1.206 -18.566  1.00  0.00     0.010 C 
ATOM      8  C   UNL     1      18.907  -0.517 -17.544  1.00  0.00     0.025 C 
BRANCH   8   9
ATOM      9  C   UNL     1      18.162  -1.176 -16.458  1.00  0.00     0.064 C 
ATOM     10  O   UNL     1      17.500  -0.506 -15.620  1.00  0.00    -0.545 OA
ATOM     11  O   UNL     1      18.189  -2.560 -16.353  1.00  0.00    -0.545 OA
ENDBRANCH   8   9
ENDBRANCH   1   7
BRANCH   6  12
ATOM     12  O   UNL     1      22.312   0.933 -22.999  1.00  0.00    -0.508 OA
ATOM     13  H   UNL     1      22.816   1.811 -22.951  1.00  0.00     0.293 HD
ENDBRANCH   6  12
TORSDOF 3
ENDMDL
MODEL 3
REMARK VINA RESULT:    -4.696     14.653     15.873
REMARK INTER + INTRA:          -5.525
REMARK INTER:                  -5.395
REMARK INTRA:                  -0.131
REMARK UNBOUND:                -0.143
REMARK SMILES O=C([O-])C=Cc1ccc(O)cc1
REMARK SMILES IDX 6 1 7 2 12 3 8 4 11 5 9 6 5 7 4 8 2 9 1 10 3 11 10 12
REMARK H PARENT 10 13
REMARK Flexibility Score: inf
ROOT
ATOM      1  C   UNL     1       8.643  -5.307 -10.651  1.00  0.00    -0.025 A 
ATOM      2  C   UNL     1       9.990  -5.716 -10.635  1.00  0.00     0.012 A 
ATOM      3  C   UNL     1       7.951  -5.218  -9.424  1.00  0.00     0.012 A 
ATOM      4  C   UNL     1      10.628  -6.026  -9.431  1.00  0.00     0.047 A 
ATOM      5  C   UNL     1       8.595  -5.530  -8.223  1.00  0.00     0.047 A 
ATOM      6  C   UNL     1       9.935  -5.934  -8.223  1.00  0.00     0.115 A 
ENDROOT
BRANCH   1   7
ATOM      7  C   UNL     1       8.022  -4.992 -11.967  1.00  0.00     0.010 C 
ATOM      8  C   UNL     1       7.737  -3.755 -12.403  1.00  0.00     0.025 C 
BRANCH   8   9
ATOM      9  C   UNL     1       7.121  -3.510 -13.717  1.00  0.00     0.064 C 
ATOM     10  O   UNL     1       7.103  -4.403 -14.607  1.00  0.00    -0.545 OA
ATOM     11  O   UNL     1       6.550  -2.273 -13.983  1.00  0.00    -0.545 OA
ENDBRANCH   8   9
ENDBRANCH   1   7
BRANCH   6  12
ATOM     12  O   UNL     1      10.584  -6.246  -7.031  1.00  0.00    -0.508 OA
ATOM     13  H   UNL     1      10.973  -7.167  -6.865  1.00  0.00     0.293 HD
ENDBRANCH   6  12
TORSDOF 3
ENDMDL
MODEL 4
REMARK VINA RESULT:    -4.645     18.411     19.917
REMARK INTER + INTRA:          -5.467
REMARK INTER:                  -5.335
REMARK INTRA:                  -0.132
REMARK UNBOUND:                -0.143
REMARK SMILES O=C([O-])C=Cc1ccc(O)cc1
REMARK SMILES IDX 6 1 7 2 12 3 8 4 11 5 9 6 5 7 4 8 2 9 1 10 3 11 10 12
REMARK H PARENT 10 13
REMARK Flexibility Score: inf
ROOT
ATOM      1  C   UNL     1       4.957   5.349  -9.016  1.00  0.00    -0.025 A 
ATOM      2  C   UNL     1       6.179   4.668  -9.175  1.00  0.00     0.012 A 
ATOM      3  C   UNL     1       4.119   4.986  -7.940  1.00  0.00     0.012 A 
ATOM      4  C   UNL     1       6.554   3.657  -8.287  1.00  0.00     0.047 A 
ATOM      5  C   UNL     1       4.499   3.973  -7.055  1.00  0.00     0.047 A 
ATOM      6  C   UNL     1       5.718   3.306  -7.226  1.00  0.00     0.115 A 
ENDROOT
BRANCH   1   7
ATOM      7  C   UNL     1       4.617   6.416  -9.996  1.00  0.00     0.010 C 
ATOM      8  C   UNL     1       4.991   7.700  -9.892  1.00  0.00     0.025 C 
BRANCH   8   9
ATOM      9  C   UNL     1       4.621   8.709 -10.898  1.00  0.00     0.064 C 
ATOM     10  O   UNL     1       3.907   8.409 -11.892  1.00  0.00    -0.545 OA
ATOM     11  O   UNL     1       5.066  10.016 -10.750  1.00  0.00    -0.545 OA
ENDBRANCH   8   9
ENDBRANCH   1   7
BRANCH   6  12
ATOM     12  O   UNL     1       6.104   2.295  -6.349  1.00  0.00    -0.508 OA
ATOM     13  H   UNL     1       7.076   2.022  -6.250  1.00  0.00     0.293 HD
ENDBRANCH   6  12
TORSDOF 3
ENDMDL
MODEL 5
REMARK VINA RESULT:    -4.538      1.099      5.677
REMARK INTER + INTRA:          -5.344
REMARK INTER:                  -5.194
REMARK INTRA:                  -0.150
REMARK UNBOUND:                -0.143
REMARK SMILES O=C([O-])C=Cc1ccc(O)cc1
REMARK SMILES IDX 6 1 7 2 12 3 8 4 11 5 9 6 5 7 4 8 2 9 1 10 3 11 10 12
REMARK H PARENT 10 13
REMARK Flexibility Score: inf
ROOT
ATOM      1  C   UNL     1      19.930  -1.192 -19.474  1.00  0.00    -0.025 A 
ATOM      2  C   UNL     1      19.861  -0.110 -18.575  1.00  0.00     0.012 A 
ATOM      3  C   UNL     1      19.283  -2.397 -19.126  1.00  0.00     0.012 A 
ATOM      4  C   UNL     1      19.168  -0.226 -17.368  1.00  0.00     0.047 A 
ATOM      5  C   UNL     1      18.591  -2.508 -17.917  1.00  0.00     0.047 A 
ATOM      6  C   UNL     1      18.532  -1.423 -17.035  1.00  0.00     0.115 A 
ENDROOT
BRANCH   1   7
ATOM      7  C   UNL     1      20.684  -1.003 -20.743  1.00  0.00     0.010 C 
ATOM      8  C   UNL     1      21.065   0.185 -21.238  1.00  0.00     0.025 C 
BRANCH   8   9
ATOM      9  C   UNL     1      21.810   0.304 -22.502  1.00  0.00     0.064 C 
ATOM     10  O   UNL     1      22.026   1.428 -23.030  1.00  0.00    -0.545 OA
ATOM     11  O   UNL     1      22.285  -0.843 -23.125  1.00  0.00    -0.545 OA
ENDBRANCH   8   9
ENDBRANCH   1   7
BRANCH   6  12
ATOM     12  O   UNL     1      17.845  -1.525 -15.827  1.00  0.00    -0.508 OA
ATOM     13  H   UNL     1      17.751  -0.732 -15.203  1.00  0.00     0.293 HD
ENDBRANCH   6  12
TORSDOF 3
ENDMDL
MODEL 6
REMARK VINA RESULT:    -4.474      1.305      2.170
REMARK INTER + INTRA:          -5.270
REMARK INTER:                  -5.140
REMARK INTRA:                  -0.130
REMARK UNBOUND:                -0.143
REMARK SMILES O=C([O-])C=Cc1ccc(O)cc1
REMARK SMILES IDX 6 1 7 2 12 3 8 4 11 5 9 6 5 7 4 8 2 9 1 10 3 11 10 12
REMARK H PARENT 10 13
REMARK Flexibility Score: inf
ROOT
ATOM      1  C   UNL     1      19.561  -0.805 -18.512  1.00  0.00    -0.025 A 
ATOM      2  C   UNL     1      19.038  -0.695 -19.814  1.00  0.00     0.012 A 
ATOM      3  C   UNL     1      20.795  -0.184 -18.227  1.00  0.00     0.012 A 
ATOM      4  C   UNL     1      19.725   0.015 -20.802  1.00  0.00     0.047 A 
ATOM      5  C   UNL     1      21.479   0.524 -19.220  1.00  0.00     0.047 A 
ATOM      6  C   UNL     1      20.945   0.626 -20.510  1.00  0.00     0.115 A 
ENDROOT
BRANCH   1   7
ATOM      7  C   UNL     1      18.780  -1.575 -17.506  1.00  0.00     0.010 C 
ATOM      8  C   UNL     1      18.294  -1.068 -16.362  1.00  0.00     0.025 C 
BRANCH   8   9
ATOM      9  C   UNL     1      17.527  -1.885 -15.407  1.00  0.00     0.064 C 
ATOM     10  O   UNL     1      17.854  -3.076 -15.155  1.00  0.00    -0.545 OA
ATOM     11  O   UNL     1      16.423  -1.333 -14.770  1.00  0.00    -0.545 OA
ENDBRANCH   8   9
ENDBRANCH   1   7
BRANCH   6  12
ATOM     12  O   UNL     1      21.620   1.330 -21.505  1.00  0.00    -0.508 OA
ATOM     13  H   UNL     1      21.384   1.219 -22.485  1.00  0.00     0.293 HD
ENDBRANCH   6  12
TORSDOF 3
ENDMDL
MODEL 7
REMARK VINA RESULT:    -4.432     15.083     16.152
REMARK INTER + INTRA:          -5.223
REMARK INTER:                  -5.085
REMARK INTRA:                  -0.138
REMARK UNBOUND:                -0.143
REMARK SMILES O=C([O-])C=Cc1ccc(O)cc1
REMARK SMILES IDX 6 1 7 2 12 3 8 4 11 5 9 6 5 7 4 8 2 9 1 10 3 11 10 12
REMARK H PARENT 10 13
REMARK Flexibility Score: inf
ROOT
ATOM      1  C   UNL     1       8.407  -5.706 -10.363  1.00  0.00    -0.025 A 
ATOM      2  C   UNL     1       8.020  -4.452 -10.874  1.00  0.00     0.012 A 
ATOM      3  C   UNL     1       8.387  -6.820 -11.229  1.00  0.00     0.012 A 
ATOM      4  C   UNL     1       7.627  -4.314 -12.207  1.00  0.00     0.047 A 
ATOM      5  C   UNL     1       7.992  -6.676 -12.562  1.00  0.00     0.047 A 
ATOM      6  C   UNL     1       7.611  -5.423 -13.055  1.00  0.00     0.115 A 
ENDROOT
BRANCH   1   7
ATOM      7  C   UNL     1       8.814  -5.786  -8.934  1.00  0.00     0.010 C 
ATOM      8  C   UNL     1       8.019  -5.498  -7.893  1.00  0.00     0.025 C 
BRANCH   8   9
ATOM      9  C   UNL     1       8.484  -5.598  -6.500  1.00  0.00     0.064 C 
ATOM     10  O   UNL     1       7.678  -5.818  -5.556  1.00  0.00    -0.545 OA
ATOM     11  O   UNL     1       9.836  -5.446  -6.219  1.00  0.00    -0.545 OA
ENDBRANCH   8   9
ENDBRANCH   1   7
BRANCH   6  12
ATOM     12  O   UNL     1       7.217  -5.270 -14.382  1.00  0.00    -0.508 OA
ATOM     13  H   UNL     1       7.119  -6.067 -15.000  1.00  0.00     0.293 HD
ENDBRANCH   6  12
TORSDOF 3
ENDMDL
MODEL 8
REMARK VINA RESULT:    -4.321     14.877     18.321
REMARK INTER + INTRA:          -5.095
REMARK INTER:                  -4.962
REMARK INTRA:                  -0.133
REMARK UNBOUND:                -0.143
REMARK SMILES O=C([O-])C=Cc1ccc(O)cc1
REMARK SMILES IDX 6 1 7 2 12 3 8 4 11 5 9 6 5 7 4 8 2 9 1 10 3 11 10 12
REMARK H PARENT 10 13
REMARK Flexibility Score: inf
ROOT
ATOM      1  C   UNL     1       8.397  -6.572  -7.745  1.00  0.00    -0.025 A 
ATOM      2  C   UNL     1       8.369  -5.724  -6.622  1.00  0.00     0.012 A 
ATOM      3  C   UNL     1       8.033  -7.926  -7.576  1.00  0.00     0.012 A 
ATOM      4  C   UNL     1       7.989  -6.210  -5.369  1.00  0.00     0.047 A 
ATOM      5  C   UNL     1       7.655  -8.407  -6.319  1.00  0.00     0.047 A 
ATOM      6  C   UNL     1       7.632  -7.550  -5.212  1.00  0.00     0.115 A 
ENDROOT
BRANCH   1   7
ATOM      7  C   UNL     1       8.810  -5.993  -9.052  1.00  0.00     0.010 C 
ATOM      8  C   UNL     1       8.009  -5.288  -9.866  1.00  0.00     0.025 C 
BRANCH   8   9
ATOM      9  C   UNL     1       8.480  -4.740 -11.149  1.00  0.00     0.064 C 
ATOM     10  O   UNL     1       7.677  -4.492 -12.088  1.00  0.00    -0.545 OA
ATOM     11  O   UNL     1       9.835  -4.493 -11.328  1.00  0.00    -0.545 OA
ENDBRANCH   8   9
ENDBRANCH   1   7
BRANCH   6  12
ATOM     12  O   UNL     1       7.256  -8.021  -3.956  1.00  0.00    -0.508 OA
ATOM     13  H   UNL     1       6.885  -8.956  -3.831  1.00  0.00     0.293 HD
ENDBRANCH   6  12
TORSDOF 3
ENDMDL
MODEL 9
REMARK VINA RESULT:    -4.318     15.344     17.146
REMARK INTER + INTRA:          -5.092
REMARK INTER:                  -4.941
REMARK INTRA:                  -0.151
REMARK UNBOUND:                -0.143
REMARK SMILES O=C([O-])C=Cc1ccc(O)cc1
REMARK SMILES IDX 6 1 7 2 12 3 8 4 11 5 9 6 5 7 4 8 2 9 1 10 3 11 10 12
REMARK H PARENT 10 13
REMARK Flexibility Score: inf
ROOT
ATOM      1  C   UNL     1       8.067  -6.010  -9.296  1.00  0.00    -0.025 A 
ATOM      2  C   UNL     1       8.108  -7.338  -9.760  1.00  0.00     0.012 A 
ATOM      3  C   UNL     1       8.042  -4.966 -10.245  1.00  0.00     0.012 A 
ATOM      4  C   UNL     1       8.123  -7.617 -11.129  1.00  0.00     0.047 A 
ATOM      5  C   UNL     1       8.057  -5.250 -11.614  1.00  0.00     0.047 A 
ATOM      6  C   UNL     1       8.097  -6.577 -12.059  1.00  0.00     0.115 A 
ENDROOT
BRANCH   1   7
ATOM      7  C   UNL     1       8.054  -5.781  -7.825  1.00  0.00     0.010 C 
ATOM      8  C   UNL     1       7.934  -6.746  -6.901  1.00  0.00     0.025 C 
BRANCH   8   9
ATOM      9  C   UNL     1       7.928  -6.453  -5.458  1.00  0.00     0.064 C 
ATOM     10  O   UNL     1       8.180  -5.296  -5.025  1.00  0.00    -0.545 OA
ATOM     11  O   UNL     1       7.640  -7.469  -4.556  1.00  0.00    -0.545 OA
ENDBRANCH   8   9
ENDBRANCH   1   7
BRANCH   6  12
ATOM     12  O   UNL     1       8.113  -6.869 -13.421  1.00  0.00    -0.508 OA
ATOM     13  H   UNL     1       8.468  -6.207 -14.101  1.00  0.00     0.293 HD
ENDBRANCH   6  12
TORSDOF 3
ENDMDL
