MODEL 1
REMARK VINA RESULT:    -0.116      0.000      0.000
REMARK INTER + INTRA:           0.255
REMARK INTER:                  -0.137
REMARK INTRA:                   0.391
REMARK UNBOUND:                 0.391
REMARK SMILES O=c1c(O)c(-c2ccc(O)cc2)oc2cc(O)cc(O)c12
REMARK SMILES IDX 5 1 3 2 2 3 1 4 21 5 19 6 18 7 16 8 15 9 14 10 13 11 6 12
REMARK SMILES IDX 7 13 8 14 9 15 12 16 11 17 10 18 4 20 20 22 17 24
REMARK H PARENT 10 19 4 21 20 23 17 25
REMARK Flexibility Score: inf
ROOT
ATOM      1  C   UNL     1      74.570  41.376  21.019  1.00  0.00     0.180 A 
ATOM      2  C   UNL     1      74.007  40.177  20.550  1.00  0.00     0.208 A 
ATOM      3  C   UNL     1      72.736  39.795  21.006  1.00  0.00     0.238 A 
ATOM      4  O   UNL     1      72.262  38.694  20.624  1.00  0.00    -0.285 OA
ATOM      5  C   UNL     1      72.035  40.626  21.913  1.00  0.00     0.111 A 
ATOM      6  C   UNL     1      70.724  40.359  22.410  1.00  0.00     0.134 A 
ATOM      7  C   UNL     1      70.180  41.182  23.404  1.00  0.00     0.093 A 
ATOM      8  C   UNL     1      70.875  42.302  23.871  1.00  0.00     0.123 A 
ATOM      9  C   UNL     1      72.130  42.604  23.349  1.00  0.00     0.094 A 
ATOM     10  C   UNL     1      72.713  41.782  22.383  1.00  0.00     0.146 A 
ATOM     11  O   UNL     1      73.916  42.101  21.920  1.00  0.00    -0.452 OA
ENDROOT
BRANCH   1  12
ATOM     12  C   UNL     1      75.895  41.857  20.565  1.00  0.00     0.021 A 
ATOM     13  C   UNL     1      76.702  42.665  21.387  1.00  0.00     0.016 A 
ATOM     14  C   UNL     1      77.961  43.086  20.947  1.00  0.00     0.047 A 
ATOM     15  C   UNL     1      78.434  42.696  19.690  1.00  0.00     0.115 A 
ATOM     16  C   UNL     1      76.386  41.452  19.313  1.00  0.00     0.016 A 
ATOM     17  C   UNL     1      77.645  41.875  18.875  1.00  0.00     0.047 A 
BRANCH  15  18
ATOM     18  O   UNL     1      79.689  43.125  19.264  1.00  0.00    -0.508 OA
ATOM     19  H   UNL     1      80.535  42.864  19.759  1.00  0.00     0.293 HD
ENDBRANCH  15  18
ENDBRANCH   1  12
BRANCH   2  20
ATOM     20  O   UNL     1      74.726  39.360  19.671  1.00  0.00    -0.502 OA
ATOM     21  H   UNL     1      74.760  38.353  19.769  1.00  0.00     0.293 HD
ENDBRANCH   2  20
BRANCH   6  22
ATOM     22  O   UNL     1      69.910  39.322  21.945  1.00  0.00    -0.507 OA
ATOM     23  H   UNL     1      70.241  38.412  21.664  1.00  0.00     0.293 HD
ENDBRANCH   6  22
BRANCH   8  24
ATOM     24  O   UNL     1      70.320  43.125  24.849  1.00  0.00    -0.508 OA
ATOM     25  H   UNL     1      70.066  44.085  24.652  1.00  0.00     0.293 HD
ENDBRANCH   8  24
TORSDOF 5
ENDMDL
MODEL 2
REMARK VINA RESULT:     0.036      2.637      6.758
REMARK INTER + INTRA:           0.434
REMARK INTER:                   0.100
REMARK INTRA:                   0.334
REMARK UNBOUND:                 0.391
REMARK SMILES O=c1c(O)c(-c2ccc(O)cc2)oc2cc(O)cc(O)c12
REMARK SMILES IDX 5 1 3 2 2 3 1 4 21 5 19 6 18 7 16 8 15 9 14 10 13 11 6 12
REMARK SMILES IDX 7 13 8 14 9 15 12 16 11 17 10 18 4 20 20 22 17 24
REMARK H PARENT 10 19 4 21 20 23 17 25
REMARK Flexibility Score: inf
ROOT
ATOM      1  C   UNL     1      72.322  42.447  21.226  1.00  0.00     0.180 A 
ATOM      2  C   UNL     1      72.594  41.943  22.509  1.00  0.00     0.208 A 
ATOM      3  C   UNL     1      73.930  41.809  22.920  1.00  0.00     0.238 A 
ATOM      4  O   UNL     1      74.168  41.306  24.048  1.00  0.00    -0.285 OA
ATOM      5  C   UNL     1      74.976  42.197  22.049  1.00  0.00     0.111 A 
ATOM      6  C   UNL     1      76.365  42.143  22.375  1.00  0.00     0.134 A 
ATOM      7  C   UNL     1      77.318  42.427  21.390  1.00  0.00     0.093 A 
ATOM      8  C   UNL     1      76.931  42.828  20.108  1.00  0.00     0.123 A 
ATOM      9  C   UNL     1      75.578  42.941  19.798  1.00  0.00     0.094 A 
ATOM     10  C   UNL     1      74.605  42.629  20.748  1.00  0.00     0.146 A 
ATOM     11  O   UNL     1      73.326  42.740  20.408  1.00  0.00    -0.452 OA
ENDROOT
BRANCH   1  12
ATOM     12  C   UNL     1      70.939  42.640  20.732  1.00  0.00     0.021 A 
ATOM     13  C   UNL     1      70.618  42.481  19.371  1.00  0.00     0.016 A 
ATOM     14  C   UNL     1      69.301  42.644  18.931  1.00  0.00     0.047 A 
ATOM     15  C   UNL     1      68.287  42.954  19.843  1.00  0.00     0.115 A 
ATOM     16  C   UNL     1      69.912  42.931  21.645  1.00  0.00     0.016 A 
ATOM     17  C   UNL     1      68.595  43.094  21.202  1.00  0.00     0.047 A 
BRANCH  15  18
ATOM     18  O   UNL     1      66.980  43.115  19.391  1.00  0.00    -0.508 OA
ATOM     19  H   UNL     1      66.247  42.463  19.646  1.00  0.00     0.293 HD
ENDBRANCH  15  18
ENDBRANCH   1  12
BRANCH   2  20
ATOM     20  O   UNL     1      71.547  41.545  23.345  1.00  0.00    -0.502 OA
ATOM     21  H   UNL     1      70.757  42.144  23.551  1.00  0.00     0.293 HD
ENDBRANCH   2  20
BRANCH   6  22
ATOM     22  O   UNL     1      76.855  41.844  23.650  1.00  0.00    -0.507 OA
ATOM     23  H   UNL     1      76.294  41.801  24.486  1.00  0.00     0.293 HD
ENDBRANCH   6  22
BRANCH   8  24
ATOM     24  O   UNL     1      77.886  43.125  19.138  1.00  0.00    -0.508 OA
ATOM     25  H   UNL     1      77.746  43.869  18.466  1.00  0.00     0.293 HD
ENDBRANCH   8  24
TORSDOF 5
ENDMDL
MODEL 3
REMARK VINA RESULT:     0.136      2.813      6.593
REMARK INTER + INTRA:           0.551
REMARK INTER:                   0.057
REMARK INTRA:                   0.494
REMARK UNBOUND:                 0.391
REMARK SMILES O=c1c(O)c(-c2ccc(O)cc2)oc2cc(O)cc(O)c12
REMARK SMILES IDX 5 1 3 2 2 3 1 4 21 5 19 6 18 7 16 8 15 9 14 10 13 11 6 12
REMARK SMILES IDX 7 13 8 14 9 15 12 16 11 17 10 18 4 20 20 22 17 24
REMARK H PARENT 10 19 4 21 20 23 17 25
REMARK Flexibility Score: inf
ROOT
ATOM      1  C   UNL     1      72.078  42.532  21.233  1.00  0.00     0.180 A 
ATOM      2  C   UNL     1      72.824  42.706  20.055  1.00  0.00     0.208 A 
ATOM      3  C   UNL     1      74.212  42.497  20.090  1.00  0.00     0.238 A 
ATOM      4  O   UNL     1      74.882  42.707  19.045  1.00  0.00    -0.285 OA
ATOM      5  C   UNL     1      74.834  42.100  21.298  1.00  0.00     0.111 A 
ATOM      6  C   UNL     1      76.227  41.820  21.440  1.00  0.00     0.134 A 
ATOM      7  C   UNL     1      76.755  41.564  22.710  1.00  0.00     0.093 A 
ATOM      8  C   UNL     1      75.928  41.511  23.836  1.00  0.00     0.123 A 
ATOM      9  C   UNL     1      74.558  41.723  23.699  1.00  0.00     0.094 A 
ATOM     10  C   UNL     1      74.009  42.018  22.450  1.00  0.00     0.146 A 
ATOM     11  O   UNL     1      72.699  42.224  22.365  1.00  0.00    -0.452 OA
ENDROOT
BRANCH   1  12
ATOM     12  C   UNL     1      70.608  42.711  21.269  1.00  0.00     0.021 A 
ATOM     13  C   UNL     1      69.875  42.984  20.100  1.00  0.00     0.016 A 
ATOM     14  C   UNL     1      68.485  43.125  20.154  1.00  0.00     0.047 A 
ATOM     15  C   UNL     1      67.809  42.981  21.370  1.00  0.00     0.115 A 
ATOM     16  C   UNL     1      69.921  42.547  22.483  1.00  0.00     0.016 A 
ATOM     17  C   UNL     1      68.530  42.688  22.535  1.00  0.00     0.047 A 
BRANCH  15  18
ATOM     18  O   UNL     1      66.425  43.125  21.410  1.00  0.00    -0.508 OA
ATOM     19  H   UNL     1      65.810  42.468  20.942  1.00  0.00     0.293 HD
ENDBRANCH  15  18
ENDBRANCH   1  12
BRANCH   2  20
ATOM     20  O   UNL     1      72.194  43.120  18.878  1.00  0.00    -0.502 OA
ATOM     21  H   UNL     1      71.393  42.637  18.490  1.00  0.00     0.293 HD
ENDBRANCH   2  20
BRANCH   6  22
ATOM     22  O   UNL     1      77.122  41.757  20.367  1.00  0.00    -0.507 OA
ATOM     23  H   UNL     1      77.489  42.558  19.876  1.00  0.00     0.293 HD
ENDBRANCH   6  22
BRANCH   8  24
ATOM     24  O   UNL     1      76.459  41.239  25.095  1.00  0.00    -0.508 OA
ATOM     25  H   UNL     1      77.382  40.837  25.206  1.00  0.00     0.293 HD
ENDBRANCH   8  24
TORSDOF 5
ENDMDL
MODEL 4
REMARK VINA RESULT:     1.246      2.557      4.299
REMARK INTER + INTRA:           1.855
REMARK INTER:                   2.016
REMARK INTRA:                  -0.161
REMARK UNBOUND:                 0.391
REMARK SMILES O=c1c(O)c(-c2ccc(O)cc2)oc2cc(O)cc(O)c12
REMARK SMILES IDX 5 1 3 2 2 3 1 4 21 5 19 6 18 7 16 8 15 9 14 10 13 11 6 12
REMARK SMILES IDX 7 13 8 14 9 15 12 16 11 17 10 18 4 20 20 22 17 24
REMARK H PARENT 10 19 4 21 20 23 17 25
REMARK Flexibility Score: inf
ROOT
ATOM      1  C   UNL     1      73.843  40.875  21.178  1.00  0.00     0.180 A 
ATOM      2  C   UNL     1      72.730  41.635  20.780  1.00  0.00     0.208 A 
ATOM      3  C   UNL     1      71.680  40.999  20.099  1.00  0.00     0.238 A 
ATOM      4  O   UNL     1      70.712  41.695  19.697  1.00  0.00    -0.285 OA
ATOM      5  C   UNL     1      71.747  39.609  19.841  1.00  0.00     0.111 A 
ATOM      6  C   UNL     1      70.723  38.853  19.196  1.00  0.00     0.134 A 
ATOM      7  C   UNL     1      70.952  37.510  18.875  1.00  0.00     0.093 A 
ATOM      8  C   UNL     1      72.145  36.878  19.237  1.00  0.00     0.123 A 
ATOM      9  C   UNL     1      73.127  37.591  19.920  1.00  0.00     0.094 A 
ATOM     10  C   UNL     1      72.941  38.941  20.221  1.00  0.00     0.146 A 
ATOM     11  O   UNL     1      73.907  39.587  20.864  1.00  0.00    -0.452 OA
ENDROOT
BRANCH   1  12
ATOM     12  C   UNL     1      74.979  41.470  21.921  1.00  0.00     0.021 A 
ATOM     13  C   UNL     1      75.248  41.114  23.256  1.00  0.00     0.016 A 
ATOM     14  C   UNL     1      76.340  41.670  23.928  1.00  0.00     0.047 A 
ATOM     15  C   UNL     1      77.183  42.575  23.276  1.00  0.00     0.115 A 
ATOM     16  C   UNL     1      75.842  42.364  21.265  1.00  0.00     0.016 A 
ATOM     17  C   UNL     1      76.934  42.919  21.941  1.00  0.00     0.047 A 
BRANCH  15  18
ATOM     18  O   UNL     1      78.267  43.122  23.959  1.00  0.00    -0.508 OA
ATOM     19  H   UNL     1      79.100  43.432  23.471  1.00  0.00     0.293 HD
ENDBRANCH  15  18
ENDBRANCH   1  12
BRANCH   2  20
ATOM     20  O   UNL     1      72.694  43.011  21.024  1.00  0.00    -0.502 OA
ATOM     21  H   UNL     1      72.356  43.677  20.341  1.00  0.00     0.293 HD
ENDBRANCH   2  20
BRANCH   6  22
ATOM     22  O   UNL     1      69.461  39.365  18.875  1.00  0.00    -0.507 OA
ATOM     23  H   UNL     1      68.999  39.241  17.988  1.00  0.00     0.293 HD
ENDBRANCH   6  22
BRANCH   8  24
ATOM     24  O   UNL     1      72.359  35.535  18.928  1.00  0.00    -0.508 OA
ATOM     25  H   UNL     1      73.294  35.154  18.842  1.00  0.00     0.293 HD
ENDBRANCH   8  24
TORSDOF 5
ENDMDL
MODEL 5
REMARK VINA RESULT:     1.551      4.178      5.935
REMARK INTER + INTRA:           2.214
REMARK INTER:                   2.507
REMARK INTRA:                  -0.293
REMARK UNBOUND:                 0.391
REMARK SMILES O=c1c(O)c(-c2ccc(O)cc2)oc2cc(O)cc(O)c12
REMARK SMILES IDX 5 1 3 2 2 3 1 4 21 5 19 6 18 7 16 8 15 9 14 10 13 11 6 12
REMARK SMILES IDX 7 13 8 14 9 15 12 16 11 17 10 18 4 20 20 22 17 24
REMARK H PARENT 10 19 4 21 20 23 17 25
REMARK Flexibility Score: inf
ROOT
ATOM      1  C   UNL     1      75.487  40.648  24.209  1.00  0.00     0.180 A 
ATOM      2  C   UNL     1      76.212  41.671  23.573  1.00  0.00     0.208 A 
ATOM      3  C   UNL     1      75.779  42.137  22.322  1.00  0.00     0.238 A 
ATOM      4  O   UNL     1      76.463  43.014  21.734  1.00  0.00    -0.285 OA
ATOM      5  C   UNL     1      74.617  41.587  21.730  1.00  0.00     0.111 A 
ATOM      6  C   UNL     1      74.063  42.011  20.484  1.00  0.00     0.134 A 
ATOM      7  C   UNL     1      72.986  41.307  19.931  1.00  0.00     0.093 A 
ATOM      8  C   UNL     1      72.401  40.236  20.612  1.00  0.00     0.123 A 
ATOM      9  C   UNL     1      72.897  39.852  21.855  1.00  0.00     0.094 A 
ATOM     10  C   UNL     1      73.993  40.511  22.415  1.00  0.00     0.146 A 
ATOM     11  O   UNL     1      74.440  40.107  23.598  1.00  0.00    -0.452 OA
ENDROOT
BRANCH   1  12
ATOM     12  C   UNL     1      75.869  40.122  25.540  1.00  0.00     0.021 A 
ATOM     13  C   UNL     1      75.453  40.756  26.725  1.00  0.00     0.016 A 
ATOM     14  C   UNL     1      75.804  40.227  27.971  1.00  0.00     0.047 A 
ATOM     15  C   UNL     1      76.561  39.054  28.050  1.00  0.00     0.115 A 
ATOM     16  C   UNL     1      76.611  38.932  25.627  1.00  0.00     0.016 A 
ATOM     17  C   UNL     1      76.961  38.406  26.874  1.00  0.00     0.047 A 
BRANCH  15  18
ATOM     18  O   UNL     1      76.905  38.539  29.297  1.00  0.00    -0.508 OA
ATOM     19  H   UNL     1      76.289  37.909  29.799  1.00  0.00     0.293 HD
ENDBRANCH  15  18
ENDBRANCH   1  12
BRANCH   2  20
ATOM     20  O   UNL     1      77.370  42.185  24.165  1.00  0.00    -0.502 OA
ATOM     21  H   UNL     1      77.369  42.611  25.083  1.00  0.00     0.293 HD
ENDBRANCH   2  20
BRANCH   6  22
ATOM     22  O   UNL     1      74.514  43.125  19.770  1.00  0.00    -0.507 OA
ATOM     23  H   UNL     1      74.049  43.520  18.967  1.00  0.00     0.293 HD
ENDBRANCH   6  22
BRANCH   8  24
ATOM     24  O   UNL     1      71.320  39.551  20.061  1.00  0.00    -0.508 OA
ATOM     25  H   UNL     1      70.644  39.071  20.643  1.00  0.00     0.293 HD
ENDBRANCH   8  24
TORSDOF 5
ENDMDL
