MODEL 1
REMARK VINA RESULT:     7.082      0.000      0.000
REMARK INTER + INTRA:          17.765
REMARK INTER:                  18.674
REMARK INTRA:                  -0.909
REMARK UNBOUND:                -0.909
REMARK SMILES CCCCCCCCCCCCCCCCCCCCCCCCCCCCCC(=O)[O-]
REMARK SMILES IDX 16 1 17 2 18 3 19 4 20 5 21 6 22 7 23 8 24 9 25 10 26 11
REMARK SMILES IDX 27 12 28 13 29 14 30 15 31 16 32 17 15 18 14 19 13 20 12 21
REMARK SMILES IDX 11 22 10 23 9 24 8 25 7 26 6 27 5 28 4 29 3 30 2 31 1 32
REMARK H PARENT
REMARK Flexibility Score: inf
ROOT
ATOM      1  C   UNL     1      10.705  12.111 -13.001  1.00  0.00     0.000 C 
ENDROOT
BRANCH   1   2
ATOM      2  C   UNL     1       9.359  11.832 -13.702  1.00  0.00     0.000 C 
BRANCH   2   3
ATOM      3  C   UNL     1       8.233  11.374 -12.753  1.00  0.00     0.000 C 
BRANCH   3   4
ATOM      4  C   UNL     1       7.165  10.468 -13.388  1.00  0.00     0.000 C 
BRANCH   4   5
ATOM      5  C   UNL     1       7.118   9.069 -12.756  1.00  0.00     0.000 C 
BRANCH   5   6
ATOM      6  C   UNL     1       5.700   8.483 -12.816  1.00  0.00     0.000 C 
BRANCH   6   7
ATOM      7  C   UNL     1       4.624   9.530 -12.486  1.00  0.00     0.000 C 
BRANCH   7   8
ATOM      8  C   UNL     1       3.360   9.362 -13.349  1.00  0.00     0.000 C 
BRANCH   8   9
ATOM      9  C   UNL     1       3.306   8.005 -14.067  1.00  0.00     0.000 C 
BRANCH   9  10
ATOM     10  C   UNL     1       3.348   8.137 -15.597  1.00  0.00     0.000 C 
BRANCH  10  11
ATOM     11  C   UNL     1       2.185   9.003 -16.105  1.00  0.00     0.000 C 
BRANCH  11  12
ATOM     12  C   UNL     1       1.960  10.264 -15.251  1.00  0.00     0.000 C 
BRANCH  12  13
ATOM     13  C   UNL     1       2.106  11.598 -16.009  1.00  0.00     0.006 C 
BRANCH  13  14
ATOM     14  C   UNL     1       3.391  12.377 -15.687  1.00  0.00     0.053 C 
BRANCH  14  15
ATOM     15  C   UNL     1       3.103  13.791 -15.284  1.00  0.00     0.041 C 
ATOM     16  O   UNL     1       3.216  14.724 -16.122  1.00  0.00    -0.550 OA
ATOM     17  O   UNL     1       2.668  14.072 -13.998  1.00  0.00    -0.550 OA
ENDBRANCH  14  15
ENDBRANCH  13  14
ENDBRANCH  12  13
ENDBRANCH  11  12
ENDBRANCH  10  11
ENDBRANCH   9  10
ENDBRANCH   8   9
ENDBRANCH   7   8
ENDBRANCH   6   7
ENDBRANCH   5   6
ENDBRANCH   4   5
ENDBRANCH   3   4
ENDBRANCH   2   3
ENDBRANCH   1   2
BRANCH   1  18
ATOM     18  C   UNL     1      11.922  11.761 -13.880  1.00  0.00     0.000 C 
BRANCH  18  19
ATOM     19  C   UNL     1      13.190  12.522 -13.464  1.00  0.00     0.000 C 
BRANCH  19  20
ATOM     20  C   UNL     1      14.175  11.651 -12.666  1.00  0.00     0.000 C 
BRANCH  20  21
ATOM     21  C   UNL     1      15.455  11.325 -13.452  1.00  0.00     0.000 C 
BRANCH  21  22
ATOM     22  C   UNL     1      16.731  11.611 -12.647  1.00  0.00     0.000 C 
BRANCH  22  23
ATOM     23  C   UNL     1      17.984  11.159 -13.408  1.00  0.00     0.000 C 
BRANCH  23  24
ATOM     24  C   UNL     1      17.606  10.549 -14.767  1.00  0.00    -0.000 C 
BRANCH  24  25
ATOM     25  C   UNL     1      18.114   9.106 -14.923  1.00  0.00    -0.000 C 
BRANCH  25  26
ATOM     26  C   UNL     1      19.325   9.014 -15.863  1.00  0.00    -0.000 C 
BRANCH  26  27
ATOM     27  C   UNL     1      20.635   9.244 -15.094  1.00  0.00    -0.000 C 
BRANCH  27  28
ATOM     28  C   UNL     1      21.432  10.454 -15.616  1.00  0.00    -0.000 C 
BRANCH  28  29
ATOM     29  C   UNL     1      21.908  11.436 -14.531  1.00  0.00    -0.000 C 
BRANCH  29  30
ATOM     30  C   UNL     1      21.594  12.903 -14.874  1.00  0.00    -0.000 C 
BRANCH  30  31
ATOM     31  C   UNL     1      20.125  13.266 -14.610  1.00  0.00    -0.003 C 
ATOM     32  C   UNL     1      19.465  13.957 -15.804  1.00  0.00     0.004 C 
ENDBRANCH  30  31
ENDBRANCH  29  30
ENDBRANCH  28  29
ENDBRANCH  27  28
ENDBRANCH  26  27
ENDBRANCH  25  26
ENDBRANCH  24  25
ENDBRANCH  23  24
ENDBRANCH  22  23
ENDBRANCH  21  22
ENDBRANCH  20  21
ENDBRANCH  19  20
ENDBRANCH  18  19
ENDBRANCH   1  18
TORSDOF 28
ENDMDL
MODEL 2
REMARK VINA RESULT:     9.026      1.336      2.949
REMARK INTER + INTRA:          22.891
REMARK INTER:                  23.005
REMARK INTRA:                  -0.114
REMARK UNBOUND:                -0.909
REMARK SMILES CCCCCCCCCCCCCCCCCCCCCCCCCCCCCC(=O)[O-]
REMARK SMILES IDX 16 1 17 2 18 3 19 4 20 5 21 6 22 7 23 8 24 9 25 10 26 11
REMARK SMILES IDX 27 12 28 13 29 14 30 15 31 16 32 17 15 18 14 19 13 20 12 21
REMARK SMILES IDX 11 22 10 23 9 24 8 25 7 26 6 27 5 28 4 29 3 30 2 31 1 32
REMARK H PARENT
REMARK Flexibility Score: inf
ROOT
ATOM      1  C   UNL     1      13.047  12.174 -13.355  1.00  0.00     0.000 C 
ENDROOT
BRANCH   1   2
ATOM      2  C   UNL     1      11.718  11.447 -13.066  1.00  0.00     0.000 C 
BRANCH   2   3
ATOM      3  C   UNL     1      10.522  12.388 -12.817  1.00  0.00     0.000 C 
BRANCH   3   4
ATOM      4  C   UNL     1       9.319  12.185 -13.754  1.00  0.00     0.000 C 
BRANCH   4   5
ATOM      5  C   UNL     1       8.239  11.277 -13.148  1.00  0.00     0.000 C 
BRANCH   5   6
ATOM      6  C   UNL     1       7.246  10.807 -14.221  1.00  0.00     0.000 C 
BRANCH   6   7
ATOM      7  C   UNL     1       6.316   9.697 -13.707  1.00  0.00     0.000 C 
BRANCH   7   8
ATOM      8  C   UNL     1       6.556   9.372 -12.222  1.00  0.00     0.000 C 
BRANCH   8   9
ATOM      9  C   UNL     1       5.253   9.106 -11.452  1.00  0.00     0.000 C 
BRANCH   9  10
ATOM     10  C   UNL     1       4.366   8.049 -12.127  1.00  0.00     0.000 C 
BRANCH  10  11
ATOM     11  C   UNL     1       4.667   7.959 -13.630  1.00  0.00     0.000 C 
BRANCH  11  12
ATOM     12  C   UNL     1       3.394   7.880 -14.493  1.00  0.00     0.000 C 
BRANCH  12  13
ATOM     13  C   UNL     1       2.640   9.214 -14.664  1.00  0.00     0.006 C 
BRANCH  13  14
ATOM     14  C   UNL     1       3.294  10.194 -15.650  1.00  0.00     0.053 C 
BRANCH  14  15
ATOM     15  C   UNL     1       3.476  11.555 -15.050  1.00  0.00     0.041 C 
ATOM     16  O   UNL     1       3.244  11.744 -13.827  1.00  0.00    -0.550 OA
ATOM     17  O   UNL     1       3.941  12.602 -15.831  1.00  0.00    -0.550 OA
ENDBRANCH  14  15
ENDBRANCH  13  14
ENDBRANCH  12  13
ENDBRANCH  11  12
ENDBRANCH  10  11
ENDBRANCH   9  10
ENDBRANCH   8   9
ENDBRANCH   7   8
ENDBRANCH   6   7
ENDBRANCH   5   6
ENDBRANCH   4   5
ENDBRANCH   3   4
ENDBRANCH   2   3
ENDBRANCH   1   2
BRANCH   1  18
ATOM     18  C   UNL     1      14.280  11.269 -13.164  1.00  0.00     0.000 C 
BRANCH  18  19
ATOM     19  C   UNL     1      14.319  10.103 -14.164  1.00  0.00     0.000 C 
BRANCH  19  20
ATOM     20  C   UNL     1      15.415   9.074 -13.839  1.00  0.00     0.000 C 
BRANCH  20  21
ATOM     21  C   UNL     1      15.429   7.889 -14.819  1.00  0.00     0.000 C 
BRANCH  21  22
ATOM     22  C   UNL     1      16.537   8.010 -15.876  1.00  0.00     0.000 C 
BRANCH  22  23
ATOM     23  C   UNL     1      17.784   8.691 -15.300  1.00  0.00     0.000 C 
BRANCH  23  24
ATOM     24  C   UNL     1      19.062   7.980 -15.772  1.00  0.00    -0.000 C 
BRANCH  24  25
ATOM     25  C   UNL     1      20.279   8.918 -15.805  1.00  0.00    -0.000 C 
BRANCH  25  26
ATOM     26  C   UNL     1      20.386   9.776 -14.535  1.00  0.00    -0.000 C 
BRANCH  26  27
ATOM     27  C   UNL     1      21.562  10.760 -14.635  1.00  0.00    -0.000 C 
BRANCH  27  28
ATOM     28  C   UNL     1      21.166  12.104 -15.273  1.00  0.00    -0.000 C 
BRANCH  28  29
ATOM     29  C   UNL     1      20.247  12.988 -14.410  1.00  0.00    -0.000 C 
BRANCH  29  30
ATOM     30  C   UNL     1      18.782  12.517 -14.422  1.00  0.00    -0.000 C 
BRANCH  30  31
ATOM     31  C   UNL     1      18.385  11.798 -13.124  1.00  0.00    -0.003 C 
ATOM     32  C   UNL     1      17.127  12.386 -12.486  1.00  0.00     0.004 C 
ENDBRANCH  30  31
ENDBRANCH  29  30
ENDBRANCH  28  29
ENDBRANCH  27  28
ENDBRANCH  26  27
ENDBRANCH  25  26
ENDBRANCH  24  25
ENDBRANCH  23  24
ENDBRANCH  22  23
ENDBRANCH  21  22
ENDBRANCH  20  21
ENDBRANCH  19  20
ENDBRANCH  18  19
ENDBRANCH   1  18
TORSDOF 28
ENDMDL
MODEL 3
REMARK VINA RESULT:     9.695      2.486      4.034
REMARK INTER + INTRA:          24.655
REMARK INTER:                  24.756
REMARK INTRA:                  -0.102
REMARK UNBOUND:                -0.909
REMARK SMILES CCCCCCCCCCCCCCCCCCCCCCCCCCCCCC(=O)[O-]
REMARK SMILES IDX 16 1 17 2 18 3 19 4 20 5 21 6 22 7 23 8 24 9 25 10 26 11
REMARK SMILES IDX 27 12 28 13 29 14 30 15 31 16 32 17 15 18 14 19 13 20 12 21
REMARK SMILES IDX 11 22 10 23 9 24 8 25 7 26 6 27 5 28 4 29 3 30 2 31 1 32
REMARK H PARENT
REMARK Flexibility Score: inf
ROOT
ATOM      1  C   UNL     1      13.712  11.423 -13.081  1.00  0.00     0.000 C 
ENDROOT
BRANCH   1   2
ATOM      2  C   UNL     1      12.526  11.999 -13.882  1.00  0.00     0.000 C 
BRANCH   2   3
ATOM      3  C   UNL     1      11.159  11.384 -13.520  1.00  0.00     0.000 C 
BRANCH   3   4
ATOM      4  C   UNL     1      10.006  12.391 -13.361  1.00  0.00     0.000 C 
BRANCH   4   5
ATOM      5  C   UNL     1       8.663  11.843 -13.868  1.00  0.00     0.000 C 
BRANCH   5   6
ATOM      6  C   UNL     1       7.930  11.071 -12.763  1.00  0.00     0.000 C 
BRANCH   6   7
ATOM      7  C   UNL     1       6.911  10.070 -13.330  1.00  0.00     0.000 C 
BRANCH   7   8
ATOM      8  C   UNL     1       5.728  10.768 -14.025  1.00  0.00     0.000 C 
BRANCH   8   9
ATOM      9  C   UNL     1       4.561   9.813 -14.317  1.00  0.00     0.000 C 
BRANCH   9  10
ATOM     10  C   UNL     1       3.188  10.442 -14.033  1.00  0.00     0.000 C 
BRANCH  10  11
ATOM     11  C   UNL     1       2.066   9.406 -14.194  1.00  0.00     0.000 C 
BRANCH  11  12
ATOM     12  C   UNL     1       2.075   8.335 -13.088  1.00  0.00     0.000 C 
BRANCH  12  13
ATOM     13  C   UNL     1       3.317   8.353 -12.174  1.00  0.00     0.006 C 
BRANCH  13  14
ATOM     14  C   UNL     1       3.037   8.788 -10.727  1.00  0.00     0.053 C 
BRANCH  14  15
ATOM     15  C   UNL     1       4.227   8.582  -9.840  1.00  0.00     0.041 C 
ATOM     16  O   UNL     1       4.073   8.437  -8.599  1.00  0.00    -0.550 OA
ATOM     17  O   UNL     1       5.498   8.509 -10.389  1.00  0.00    -0.550 OA
ENDBRANCH  14  15
ENDBRANCH  13  14
ENDBRANCH  12  13
ENDBRANCH  11  12
ENDBRANCH  10  11
ENDBRANCH   9  10
ENDBRANCH   8   9
ENDBRANCH   7   8
ENDBRANCH   6   7
ENDBRANCH   5   6
ENDBRANCH   4   5
ENDBRANCH   3   4
ENDBRANCH   2   3
ENDBRANCH   1   2
BRANCH   1  18
ATOM     18  C   UNL     1      14.579  10.454 -13.908  1.00  0.00     0.000 C 
BRANCH  18  19
ATOM     19  C   UNL     1      14.109   8.996 -13.794  1.00  0.00     0.000 C 
BRANCH  19  20
ATOM     20  C   UNL     1      14.648   8.104 -14.926  1.00  0.00     0.000 C 
BRANCH  20  21
ATOM     21  C   UNL     1      16.177   7.952 -14.889  1.00  0.00     0.000 C 
BRANCH  21  22
ATOM     22  C   UNL     1      16.887   9.238 -14.442  1.00  0.00     0.000 C 
BRANCH  22  23
ATOM     23  C   UNL     1      18.307   8.946 -13.941  1.00  0.00     0.000 C 
BRANCH  23  24
ATOM     24  C   UNL     1      19.352   9.353 -14.991  1.00  0.00    -0.000 C 
BRANCH  24  25
ATOM     25  C   UNL     1      20.770   9.444 -14.404  1.00  0.00    -0.000 C 
BRANCH  25  26
ATOM     26  C   UNL     1      21.772  10.053 -15.396  1.00  0.00    -0.000 C 
BRANCH  26  27
ATOM     27  C   UNL     1      21.158  11.258 -16.125  1.00  0.00    -0.000 C 
BRANCH  27  28
ATOM     28  C   UNL     1      20.670  12.357 -15.162  1.00  0.00    -0.000 C 
BRANCH  28  29
ATOM     29  C   UNL     1      19.163  12.661 -15.233  1.00  0.00    -0.000 C 
BRANCH  29  30
ATOM     30  C   UNL     1      18.588  13.150 -13.893  1.00  0.00    -0.000 C 
BRANCH  30  31
ATOM     31  C   UNL     1      18.446  12.017 -12.866  1.00  0.00    -0.003 C 
ATOM     32  C   UNL     1      17.081  12.011 -12.178  1.00  0.00     0.004 C 
ENDBRANCH  30  31
ENDBRANCH  29  30
ENDBRANCH  28  29
ENDBRANCH  27  28
ENDBRANCH  26  27
ENDBRANCH  25  26
ENDBRANCH  24  25
ENDBRANCH  23  24
ENDBRANCH  22  23
ENDBRANCH  21  22
ENDBRANCH  20  21
ENDBRANCH  19  20
ENDBRANCH  18  19
ENDBRANCH   1  18
TORSDOF 28
ENDMDL
