MODEL 1
REMARK VINA RESULT:    -3.282      0.000      0.000
REMARK INTER + INTRA:         -10.762
REMARK INTER:                  -7.119
REMARK INTRA:                  -3.643
REMARK UNBOUND:                -3.643
REMARK SMILES CCCCCCCCCCCCCCCCCCCCCC(=O)[O-]
REMARK SMILES IDX 12 1 11 2 10 3 9 4 8 5 7 6 6 7 5 8 4 9 3 10 2 11 1 12 13 13
REMARK SMILES IDX 14 14 15 15 16 16 17 17 18 18 19 19 20 20 21 21 22 22 23 23
REMARK SMILES IDX 24 24
REMARK H PARENT
REMARK Flexibility Score: inf
ROOT
ATOM      1  C   UNL     1      33.490  44.068  21.461  1.00  0.00     0.000 C 
ENDROOT
BRANCH   1   2
ATOM      2  C   UNL     1      34.026  44.051  22.904  1.00  0.00     0.000 C 
BRANCH   2   3
ATOM      3  C   UNL     1      34.732  42.732  23.254  1.00  0.00     0.000 C 
BRANCH   3   4
ATOM      4  C   UNL     1      34.620  42.375  24.746  1.00  0.00    -0.000 C 
BRANCH   4   5
ATOM      5  C   UNL     1      35.420  43.333  25.644  1.00  0.00    -0.000 C 
BRANCH   5   6
ATOM      6  C   UNL     1      35.857  42.678  26.963  1.00  0.00    -0.000 C 
BRANCH   6   7
ATOM      7  C   UNL     1      35.610  41.165  26.937  1.00  0.00    -0.000 C 
BRANCH   7   8
ATOM      8  C   UNL     1      36.934  40.393  26.926  1.00  0.00    -0.000 C 
BRANCH   8   9
ATOM      9  C   UNL     1      37.270  39.889  25.518  1.00  0.00    -0.000 C 
BRANCH   9  10
ATOM     10  C   UNL     1      38.725  40.205  25.154  1.00  0.00    -0.000 C 
BRANCH  10  11
ATOM     11  C   UNL     1      38.956  41.718  25.067  1.00  0.00    -0.003 C 
ATOM     12  C   UNL     1      38.359  42.294  23.788  1.00  0.00     0.004 C 
ENDBRANCH  10  11
ENDBRANCH   9  10
ENDBRANCH   8   9
ENDBRANCH   7   8
ENDBRANCH   6   7
ENDBRANCH   5   6
ENDBRANCH   4   5
ENDBRANCH   3   4
ENDBRANCH   2   3
ENDBRANCH   1   2
BRANCH   1  13
ATOM     13  C   UNL     1      32.736  42.777  21.100  1.00  0.00     0.000 C 
BRANCH  13  14
ATOM     14  C   UNL     1      31.215  42.996  21.011  1.00  0.00     0.000 C 
BRANCH  14  15
ATOM     15  C   UNL     1      30.423  42.039  21.915  1.00  0.00     0.000 C 
BRANCH  15  16
ATOM     16  C   UNL     1      31.254  41.518  23.101  1.00  0.00     0.000 C 
BRANCH  16  17
ATOM     17  C   UNL     1      30.935  42.255  24.412  1.00  0.00     0.000 C 
BRANCH  17  18
ATOM     18  C   UNL     1      30.636  41.288  25.571  1.00  0.00     0.000 C 
BRANCH  18  19
ATOM     19  C   UNL     1      31.877  40.983  26.424  1.00  0.00     0.000 C 
BRANCH  19  20
ATOM     20  C   UNL     1      32.243  39.491  26.431  1.00  0.00     0.006 C 
BRANCH  20  21
ATOM     21  C   UNL     1      33.141  39.141  25.240  1.00  0.00     0.053 C 
BRANCH  21  22
ATOM     22  C   UNL     1      33.917  37.892  25.517  1.00  0.00     0.041 C 
ATOM     23  O   UNL     1      34.088  37.037  24.607  1.00  0.00    -0.550 OA
ATOM     24  O   UNL     1      34.408  37.646  26.793  1.00  0.00    -0.550 OA
ENDBRANCH  21  22
ENDBRANCH  20  21
ENDBRANCH  19  20
ENDBRANCH  18  19
ENDBRANCH  17  18
ENDBRANCH  16  17
ENDBRANCH  15  16
ENDBRANCH  14  15
ENDBRANCH  13  14
ENDBRANCH   1  13
TORSDOF 20
ENDMDL
MODEL 2
REMARK VINA RESULT:    -3.241      2.584      6.643
REMARK INTER + INTRA:         -10.673
REMARK INTER:                  -6.635
REMARK INTRA:                  -4.038
REMARK UNBOUND:                -3.643
REMARK SMILES CCCCCCCCCCCCCCCCCCCCCC(=O)[O-]
REMARK SMILES IDX 12 1 11 2 10 3 9 4 8 5 7 6 6 7 5 8 4 9 3 10 2 11 1 12 13 13
REMARK SMILES IDX 14 14 15 15 16 16 17 17 18 18 19 19 20 20 21 21 22 22 23 23
REMARK SMILES IDX 24 24
REMARK H PARENT
REMARK Flexibility Score: inf
ROOT
ATOM      1  C   UNL     1      33.097  38.907  25.503  1.00  0.00     0.000 C 
ENDROOT
BRANCH   1   2
ATOM      2  C   UNL     1      32.142  39.089  26.696  1.00  0.00     0.000 C 
BRANCH   2   3
ATOM      3  C   UNL     1      31.521  40.494  26.743  1.00  0.00     0.000 C 
BRANCH   3   4
ATOM      4  C   UNL     1      32.263  41.441  27.702  1.00  0.00    -0.000 C 
BRANCH   4   5
ATOM      5  C   UNL     1      32.615  42.786  27.047  1.00  0.00    -0.000 C 
BRANCH   5   6
ATOM      6  C   UNL     1      34.038  42.806  26.470  1.00  0.00    -0.000 C 
BRANCH   6   7
ATOM      7  C   UNL     1      34.032  43.238  24.999  1.00  0.00    -0.000 C 
BRANCH   7   8
ATOM      8  C   UNL     1      33.929  42.021  24.071  1.00  0.00    -0.000 C 
BRANCH   8   9
ATOM      9  C   UNL     1      32.891  42.254  22.967  1.00  0.00    -0.000 C 
BRANCH   9  10
ATOM     10  C   UNL     1      31.661  41.362  23.174  1.00  0.00    -0.000 C 
BRANCH  10  11
ATOM     11  C   UNL     1      30.368  42.183  23.116  1.00  0.00    -0.003 C 
ATOM     12  C   UNL     1      30.292  43.173  24.274  1.00  0.00     0.004 C 
ENDBRANCH  10  11
ENDBRANCH   9  10
ENDBRANCH   8   9
ENDBRANCH   7   8
ENDBRANCH   6   7
ENDBRANCH   5   6
ENDBRANCH   4   5
ENDBRANCH   3   4
ENDBRANCH   2   3
ENDBRANCH   1   2
BRANCH   1  13
ATOM     13  C   UNL     1      34.471  38.362  25.929  1.00  0.00     0.000 C 
BRANCH  13  14
ATOM     14  C   UNL     1      34.884  38.852  27.329  1.00  0.00     0.000 C 
BRANCH  14  15
ATOM     15  C   UNL     1      36.072  39.827  27.291  1.00  0.00     0.000 C 
BRANCH  15  16
ATOM     16  C   UNL     1      36.503  40.181  25.857  1.00  0.00     0.000 C 
BRANCH  16  17
ATOM     17  C   UNL     1      38.027  40.096  25.663  1.00  0.00     0.000 C 
BRANCH  17  18
ATOM     18  C   UNL     1      38.637  41.435  25.214  1.00  0.00     0.000 C 
BRANCH  18  19
ATOM     19  C   UNL     1      37.683  42.622  25.425  1.00  0.00     0.000 C 
BRANCH  19  20
ATOM     20  C   UNL     1      37.695  43.610  24.249  1.00  0.00     0.006 C 
BRANCH  20  21
ATOM     21  C   UNL     1      38.394  43.003  23.029  1.00  0.00     0.053 C 
BRANCH  21  22
ATOM     22  C   UNL     1      37.525  43.117  21.816  1.00  0.00     0.041 C 
ATOM     23  O   UNL     1      37.971  42.790  20.684  1.00  0.00    -0.550 OA
ATOM     24  O   UNL     1      36.240  43.632  21.926  1.00  0.00    -0.550 OA
ENDBRANCH  21  22
ENDBRANCH  20  21
ENDBRANCH  19  20
ENDBRANCH  18  19
ENDBRANCH  17  18
ENDBRANCH  16  17
ENDBRANCH  15  16
ENDBRANCH  14  15
ENDBRANCH  13  14
ENDBRANCH   1  13
TORSDOF 20
ENDMDL
MODEL 3
REMARK VINA RESULT:    -3.101     17.753     19.651
REMARK INTER + INTRA:         -10.369
REMARK INTER:                  -6.534
REMARK INTRA:                  -3.835
REMARK UNBOUND:                -3.643
REMARK SMILES CCCCCCCCCCCCCCCCCCCCCC(=O)[O-]
REMARK SMILES IDX 12 1 11 2 10 3 9 4 8 5 7 6 6 7 5 8 4 9 3 10 2 11 1 12 13 13
REMARK SMILES IDX 14 14 15 15 16 16 17 17 18 18 19 19 20 20 21 21 22 22 23 23
REMARK SMILES IDX 24 24
REMARK H PARENT
REMARK Flexibility Score: inf
ROOT
ATOM      1  C   UNL     1      33.768  27.745  13.252  1.00  0.00     0.000 C 
ENDROOT
BRANCH   1   2
ATOM      2  C   UNL     1      34.152  27.062  11.928  1.00  0.00     0.000 C 
BRANCH   2   3
ATOM      3  C   UNL     1      33.418  25.728  11.720  1.00  0.00     0.000 C 
BRANCH   3   4
ATOM      4  C   UNL     1      32.402  25.781  10.565  1.00  0.00    -0.000 C 
BRANCH   4   5
ATOM      5  C   UNL     1      30.947  25.703  11.056  1.00  0.00    -0.000 C 
BRANCH   5   6
ATOM      6  C   UNL     1      30.146  26.974  10.732  1.00  0.00    -0.000 C 
BRANCH   6   7
ATOM      7  C   UNL     1      30.486  28.105  11.710  1.00  0.00    -0.000 C 
BRANCH   7   8
ATOM      8  C   UNL     1      31.169  29.270  10.985  1.00  0.00    -0.000 C 
BRANCH   8   9
ATOM      9  C   UNL     1      31.092  29.097   9.464  1.00  0.00    -0.000 C 
BRANCH   9  10
ATOM     10  C   UNL     1      32.487  29.166   8.832  1.00  0.00    -0.000 C 
BRANCH  10  11
ATOM     11  C   UNL     1      33.470  29.908   9.744  1.00  0.00    -0.003 C 
ATOM     12  C   UNL     1      34.104  31.094   9.023  1.00  0.00     0.004 C 
ENDBRANCH  10  11
ENDBRANCH   9  10
ENDBRANCH   8   9
ENDBRANCH   7   8
ENDBRANCH   6   7
ENDBRANCH   5   6
ENDBRANCH   4   5
ENDBRANCH   3   4
ENDBRANCH   2   3
ENDBRANCH   1   2
BRANCH   1  13
ATOM     13  C   UNL     1      34.376  27.036  14.475  1.00  0.00     0.000 C 
BRANCH  13  14
ATOM     14  C   UNL     1      33.298  26.525  15.448  1.00  0.00     0.000 C 
BRANCH  14  15
ATOM     15  C   UNL     1      33.241  24.990  15.519  1.00  0.00     0.000 C 
BRANCH  15  16
ATOM     16  C   UNL     1      31.876  24.426  15.087  1.00  0.00     0.000 C 
BRANCH  16  17
ATOM     17  C   UNL     1      30.967  25.499  14.463  1.00  0.00     0.000 C 
BRANCH  17  18
ATOM     18  C   UNL     1      29.509  25.384  14.941  1.00  0.00     0.000 C 
BRANCH  18  19
ATOM     19  C   UNL     1      28.602  24.685  13.914  1.00  0.00     0.000 C 
BRANCH  19  20
ATOM     20  C   UNL     1      27.525  25.617  13.341  1.00  0.00     0.006 C 
BRANCH  20  21
ATOM     21  C   UNL     1      27.598  27.004  13.988  1.00  0.00     0.053 C 
BRANCH  21  22
ATOM     22  C   UNL     1      27.011  28.038  13.080  1.00  0.00     0.041 C 
ATOM     23  O   UNL     1      27.242  29.261  13.279  1.00  0.00    -0.550 OA
ATOM     24  O   UNL     1      26.169  27.657  12.043  1.00  0.00    -0.550 OA
ENDBRANCH  21  22
ENDBRANCH  20  21
ENDBRANCH  19  20
ENDBRANCH  18  19
ENDBRANCH  17  18
ENDBRANCH  16  17
ENDBRANCH  15  16
ENDBRANCH  14  15
ENDBRANCH  13  14
ENDBRANCH   1  13
TORSDOF 20
ENDMDL
MODEL 4
REMARK VINA RESULT:    -3.084      2.482      5.178
REMARK INTER + INTRA:         -10.334
REMARK INTER:                  -7.097
REMARK INTRA:                  -3.237
REMARK UNBOUND:                -3.643
REMARK SMILES CCCCCCCCCCCCCCCCCCCCCC(=O)[O-]
REMARK SMILES IDX 12 1 11 2 10 3 9 4 8 5 7 6 6 7 5 8 4 9 3 10 2 11 1 12 13 13
REMARK SMILES IDX 14 14 15 15 16 16 17 17 18 18 19 19 20 20 21 21 22 22 23 23
REMARK SMILES IDX 24 24
REMARK H PARENT
REMARK Flexibility Score: inf
ROOT
ATOM      1  C   UNL     1      35.224  38.805  27.254  1.00  0.00     0.000 C 
ENDROOT
BRANCH   1   2
ATOM      2  C   UNL     1      36.125  40.049  27.157  1.00  0.00     0.000 C 
BRANCH   2   3
ATOM      3  C   UNL     1      36.548  40.358  25.713  1.00  0.00     0.000 C 
BRANCH   3   4
ATOM      4  C   UNL     1      37.998  39.937  25.415  1.00  0.00    -0.000 C 
BRANCH   4   5
ATOM      5  C   UNL     1      39.029  40.891  26.041  1.00  0.00    -0.000 C 
BRANCH   5   6
ATOM      6  C   UNL     1      39.545  41.938  25.042  1.00  0.00    -0.000 C 
BRANCH   6   7
ATOM      7  C   UNL     1      39.146  43.355  25.472  1.00  0.00    -0.000 C 
BRANCH   7   8
ATOM      8  C   UNL     1      37.925  43.844  24.684  1.00  0.00    -0.000 C 
BRANCH   8   9
ATOM      9  C   UNL     1      38.196  43.822  23.175  1.00  0.00    -0.000 C 
BRANCH   9  10
ATOM     10  C   UNL     1      37.226  42.876  22.457  1.00  0.00    -0.000 C 
BRANCH  10  11
ATOM     11  C   UNL     1      35.847  42.888  23.125  1.00  0.00    -0.003 C 
ATOM     12  C   UNL     1      34.873  43.780  22.362  1.00  0.00     0.004 C 
ENDBRANCH  10  11
ENDBRANCH   9  10
ENDBRANCH   8   9
ENDBRANCH   7   8
ENDBRANCH   6   7
ENDBRANCH   5   6
ENDBRANCH   4   5
ENDBRANCH   3   4
ENDBRANCH   2   3
ENDBRANCH   1   2
BRANCH   1  13
ATOM     13  C   UNL     1      34.737  38.325  25.876  1.00  0.00     0.000 C 
BRANCH  13  14
ATOM     14  C   UNL     1      33.216  38.087  25.845  1.00  0.00     0.000 C 
BRANCH  14  15
ATOM     15  C   UNL     1      32.481  38.785  27.000  1.00  0.00     0.000 C 
BRANCH  15  16
ATOM     16  C   UNL     1      31.730  40.050  26.548  1.00  0.00     0.000 C 
BRANCH  16  17
ATOM     17  C   UNL     1      32.604  41.313  26.624  1.00  0.00     0.000 C 
BRANCH  17  18
ATOM     18  C   UNL     1      33.202  41.697  25.259  1.00  0.00     0.000 C 
BRANCH  18  19
ATOM     19  C   UNL     1      32.281  41.328  24.084  1.00  0.00     0.000 C 
BRANCH  19  20
ATOM     20  C   UNL     1      31.541  42.543  23.505  1.00  0.00     0.006 C 
BRANCH  20  21
ATOM     21  C   UNL     1      30.461  42.105  22.512  1.00  0.00     0.053 C 
BRANCH  21  22
ATOM     22  C   UNL     1      31.083  41.615  21.242  1.00  0.00     0.041 C 
ATOM     23  O   UNL     1      32.082  42.208  20.756  1.00  0.00    -0.550 OA
ATOM     24  O   UNL     1      30.529  40.534  20.567  1.00  0.00    -0.550 OA
ENDBRANCH  21  22
ENDBRANCH  20  21
ENDBRANCH  19  20
ENDBRANCH  18  19
ENDBRANCH  17  18
ENDBRANCH  16  17
ENDBRANCH  15  16
ENDBRANCH  14  15
ENDBRANCH  13  14
ENDBRANCH   1  13
TORSDOF 20
ENDMDL
MODEL 5
REMARK VINA RESULT:    -3.082      2.252      6.436
REMARK INTER + INTRA:         -10.328
REMARK INTER:                  -6.895
REMARK INTRA:                  -3.433
REMARK UNBOUND:                -3.643
REMARK SMILES CCCCCCCCCCCCCCCCCCCCCC(=O)[O-]
REMARK SMILES IDX 12 1 11 2 10 3 9 4 8 5 7 6 6 7 5 8 4 9 3 10 2 11 1 12 13 13
REMARK SMILES IDX 14 14 15 15 16 16 17 17 18 18 19 19 20 20 21 21 22 22 23 23
REMARK SMILES IDX 24 24
REMARK H PARENT
REMARK Flexibility Score: inf
ROOT
ATOM      1  C   UNL     1      32.501  39.306  25.820  1.00  0.00     0.000 C 
ENDROOT
BRANCH   1   2
ATOM      2  C   UNL     1      32.071  39.153  27.289  1.00  0.00     0.000 C 
BRANCH   2   3
ATOM      3  C   UNL     1      30.788  39.936  27.611  1.00  0.00     0.000 C 
BRANCH   3   4
ATOM      4  C   UNL     1      31.060  41.416  27.931  1.00  0.00    -0.000 C 
BRANCH   4   5
ATOM      5  C   UNL     1      30.243  42.371  27.045  1.00  0.00    -0.000 C 
BRANCH   5   6
ATOM      6  C   UNL     1      29.494  41.636  25.922  1.00  0.00    -0.000 C 
BRANCH   6   7
ATOM      7  C   UNL     1      29.703  42.332  24.572  1.00  0.00    -0.000 C 
BRANCH   7   8
ATOM      8  C   UNL     1      31.188  42.362  24.194  1.00  0.00    -0.000 C 
BRANCH   8   9
ATOM      9  C   UNL     1      31.474  41.441  23.002  1.00  0.00    -0.000 C 
BRANCH   9  10
ATOM     10  C   UNL     1      30.653  41.859  21.776  1.00  0.00    -0.000 C 
BRANCH  10  11
ATOM     11  C   UNL     1      31.275  43.078  21.085  1.00  0.00    -0.003 C 
ATOM     12  C   UNL     1      32.753  42.847  20.787  1.00  0.00     0.004 C 
ENDBRANCH  10  11
ENDBRANCH   9  10
ENDBRANCH   8   9
ENDBRANCH   7   8
ENDBRANCH   6   7
ENDBRANCH   5   6
ENDBRANCH   4   5
ENDBRANCH   3   4
ENDBRANCH   2   3
ENDBRANCH   1   2
BRANCH   1  13
ATOM     13  C   UNL     1      33.494  38.215  25.383  1.00  0.00     0.000 C 
BRANCH  13  14
ATOM     14  C   UNL     1      34.716  38.131  26.315  1.00  0.00     0.000 C 
BRANCH  14  15
ATOM     15  C   UNL     1      35.653  39.341  26.178  1.00  0.00     0.000 C 
BRANCH  15  16
ATOM     16  C   UNL     1      35.819  40.115  27.498  1.00  0.00     0.000 C 
BRANCH  16  17
ATOM     17  C   UNL     1      35.700  41.637  27.306  1.00  0.00     0.000 C 
BRANCH  17  18
ATOM     18  C   UNL     1      34.425  42.034  26.542  1.00  0.00     0.000 C 
BRANCH  18  19
ATOM     19  C   UNL     1      34.703  43.020  25.395  1.00  0.00     0.000 C 
BRANCH  19  20
ATOM     20  C   UNL     1      34.964  42.316  24.055  1.00  0.00     0.006 C 
BRANCH  20  21
ATOM     21  C   UNL     1      35.770  43.214  23.112  1.00  0.00     0.053 C 
BRANCH  21  22
ATOM     22  C   UNL     1      37.151  42.670  22.923  1.00  0.00     0.041 C 
ATOM     23  O   UNL     1      37.745  42.817  21.821  1.00  0.00    -0.550 OA
ATOM     24  O   UNL     1      37.764  41.958  23.945  1.00  0.00    -0.550 OA
ENDBRANCH  21  22
ENDBRANCH  20  21
ENDBRANCH  19  20
ENDBRANCH  18  19
ENDBRANCH  17  18
ENDBRANCH  16  17
ENDBRANCH  15  16
ENDBRANCH  14  15
ENDBRANCH  13  14
ENDBRANCH   1  13
TORSDOF 20
ENDMDL
MODEL 6
REMARK VINA RESULT:    -3.062     17.652     19.446
REMARK INTER + INTRA:         -10.285
REMARK INTER:                  -6.755
REMARK INTRA:                  -3.530
REMARK UNBOUND:                -3.643
REMARK SMILES CCCCCCCCCCCCCCCCCCCCCC(=O)[O-]
REMARK SMILES IDX 12 1 11 2 10 3 9 4 8 5 7 6 6 7 5 8 4 9 3 10 2 11 1 12 13 13
REMARK SMILES IDX 14 14 15 15 16 16 17 17 18 18 19 19 20 20 21 21 22 22 23 23
REMARK SMILES IDX 24 24
REMARK H PARENT
REMARK Flexibility Score: inf
ROOT
ATOM      1  C   UNL     1      30.266  26.333  11.366  1.00  0.00     0.000 C 
ENDROOT
BRANCH   1   2
ATOM      2  C   UNL     1      30.773  27.578  12.116  1.00  0.00     0.000 C 
BRANCH   2   3
ATOM      3  C   UNL     1      30.961  28.788  11.187  1.00  0.00     0.000 C 
BRANCH   3   4
ATOM      4  C   UNL     1      32.351  29.434  11.327  1.00  0.00    -0.000 C 
BRANCH   4   5
ATOM      5  C   UNL     1      33.014  29.704   9.966  1.00  0.00    -0.000 C 
BRANCH   5   6
ATOM      6  C   UNL     1      33.906  28.540   9.505  1.00  0.00    -0.000 C 
BRANCH   6   7
ATOM      7  C   UNL     1      34.755  28.002  10.663  1.00  0.00    -0.000 C 
BRANCH   7   8
ATOM      8  C   UNL     1      34.663  26.474  10.746  1.00  0.00    -0.000 C 
BRANCH   8   9
ATOM      9  C   UNL     1      34.160  26.024  12.122  1.00  0.00    -0.000 C 
BRANCH   9  10
ATOM     10  C   UNL     1      34.404  27.110  13.177  1.00  0.00    -0.000 C 
BRANCH  10  11
ATOM     11  C   UNL     1      34.612  26.493  14.565  1.00  0.00    -0.003 C 
ATOM     12  C   UNL     1      33.500  26.905  15.524  1.00  0.00     0.004 C 
ENDBRANCH  10  11
ENDBRANCH   9  10
ENDBRANCH   8   9
ENDBRANCH   7   8
ENDBRANCH   6   7
ENDBRANCH   5   6
ENDBRANCH   4   5
ENDBRANCH   3   4
ENDBRANCH   2   3
ENDBRANCH   1   2
BRANCH   1  13
ATOM     13  C   UNL     1      30.160  25.101  12.280  1.00  0.00     0.000 C 
BRANCH  13  14
ATOM     14  C   UNL     1      30.813  25.335  13.654  1.00  0.00     0.000 C 
BRANCH  14  15
ATOM     15  C   UNL     1      30.027  24.685  14.804  1.00  0.00     0.000 C 
BRANCH  15  16
ATOM     16  C   UNL     1      29.067  25.668  15.497  1.00  0.00     0.000 C 
BRANCH  16  17
ATOM     17  C   UNL     1      27.617  25.156  15.520  1.00  0.00     0.000 C 
BRANCH  17  18
ATOM     18  C   UNL     1      26.689  25.977  14.607  1.00  0.00     0.000 C 
BRANCH  18  19
ATOM     19  C   UNL     1      27.411  27.158  13.937  1.00  0.00     0.000 C 
BRANCH  19  20
ATOM     20  C   UNL     1      26.526  27.898  12.923  1.00  0.00     0.006 C 
BRANCH  20  21
ATOM     21  C   UNL     1      27.312  29.004  12.212  1.00  0.00     0.053 C 
BRANCH  21  22
ATOM     22  C   UNL     1      27.149  28.894  10.729  1.00  0.00     0.041 C 
ATOM     23  O   UNL     1      27.841  29.613   9.960  1.00  0.00    -0.550 OA
ATOM     24  O   UNL     1      26.197  28.034  10.195  1.00  0.00    -0.550 OA
ENDBRANCH  21  22
ENDBRANCH  20  21
ENDBRANCH  19  20
ENDBRANCH  18  19
ENDBRANCH  17  18
ENDBRANCH  16  17
ENDBRANCH  15  16
ENDBRANCH  14  15
ENDBRANCH  13  14
ENDBRANCH   1  13
TORSDOF 20
ENDMDL
MODEL 7
REMARK VINA RESULT:    -3.052     17.542     19.799
REMARK INTER + INTRA:         -10.264
REMARK INTER:                  -6.398
REMARK INTRA:                  -3.866
REMARK UNBOUND:                -3.643
REMARK SMILES CCCCCCCCCCCCCCCCCCCCCC(=O)[O-]
REMARK SMILES IDX 12 1 11 2 10 3 9 4 8 5 7 6 6 7 5 8 4 9 3 10 2 11 1 12 13 13
REMARK SMILES IDX 14 14 15 15 16 16 17 17 18 18 19 19 20 20 21 21 22 22 23 23
REMARK SMILES IDX 24 24
REMARK H PARENT
REMARK Flexibility Score: inf
ROOT
ATOM      1  C   UNL     1      30.701  26.853  12.327  1.00  0.00     0.000 C 
ENDROOT
BRANCH   1   2
ATOM      2  C   UNL     1      30.055  25.480  12.074  1.00  0.00     0.000 C 
BRANCH   2   3
ATOM      3  C   UNL     1      30.343  24.478  13.203  1.00  0.00     0.000 C 
BRANCH   3   4
ATOM      4  C   UNL     1      30.591  25.164  14.558  1.00  0.00    -0.000 C 
BRANCH   4   5
ATOM      5  C   UNL     1      29.294  25.375  15.357  1.00  0.00    -0.000 C 
BRANCH   5   6
ATOM      6  C   UNL     1      28.269  24.254  15.124  1.00  0.00    -0.000 C 
BRANCH   6   7
ATOM      7  C   UNL     1      26.835  24.781  15.256  1.00  0.00    -0.000 C 
BRANCH   7   8
ATOM      8  C   UNL     1      26.697  26.162  14.607  1.00  0.00    -0.000 C 
BRANCH   8   9
ATOM      9  C   UNL     1      26.423  26.042  13.103  1.00  0.00    -0.000 C 
BRANCH   9  10
ATOM     10  C   UNL     1      26.875  27.305  12.360  1.00  0.00    -0.000 C 
BRANCH  10  11
ATOM     11  C   UNL     1      27.491  28.323  13.326  1.00  0.00    -0.003 C 
ATOM     12  C   UNL     1      27.909  29.594  12.594  1.00  0.00     0.004 C 
ENDBRANCH  10  11
ENDBRANCH   9  10
ENDBRANCH   8   9
ENDBRANCH   7   8
ENDBRANCH   6   7
ENDBRANCH   5   6
ENDBRANCH   4   5
ENDBRANCH   3   4
ENDBRANCH   2   3
ENDBRANCH   1   2
BRANCH   1  13
ATOM     13  C   UNL     1      30.921  27.646  11.027  1.00  0.00     0.000 C 
BRANCH  13  14
ATOM     14  C   UNL     1      31.381  29.090  11.295  1.00  0.00     0.000 C 
BRANCH  14  15
ATOM     15  C   UNL     1      32.517  29.535  10.360  1.00  0.00     0.000 C 
BRANCH  15  16
ATOM     16  C   UNL     1      33.436  28.372   9.947  1.00  0.00     0.000 C 
BRANCH  16  17
ATOM     17  C   UNL     1      34.799  28.417  10.658  1.00  0.00     0.000 C 
BRANCH  17  18
ATOM     18  C   UNL     1      35.313  27.016  11.033  1.00  0.00     0.000 C 
BRANCH  18  19
ATOM     19  C   UNL     1      34.184  25.977  11.128  1.00  0.00     0.000 C 
BRANCH  19  20
ATOM     20  C   UNL     1      34.018  25.406  12.544  1.00  0.00     0.006 C 
BRANCH  20  21
ATOM     21  C   UNL     1      34.887  26.169  13.548  1.00  0.00     0.053 C 
BRANCH  21  22
ATOM     22  C   UNL     1      34.040  27.045  14.416  1.00  0.00     0.041 C 
ATOM     23  O   UNL     1      33.686  26.653  15.560  1.00  0.00    -0.550 OA
ATOM     24  O   UNL     1      33.599  28.275  13.943  1.00  0.00    -0.550 OA
ENDBRANCH  21  22
ENDBRANCH  20  21
ENDBRANCH  19  20
ENDBRANCH  18  19
ENDBRANCH  17  18
ENDBRANCH  16  17
ENDBRANCH  15  16
ENDBRANCH  14  15
ENDBRANCH  13  14
ENDBRANCH   1  13
TORSDOF 20
ENDMDL
MODEL 8
REMARK VINA RESULT:    -3.045     17.824     19.540
REMARK INTER + INTRA:         -10.248
REMARK INTER:                  -6.294
REMARK INTRA:                  -3.955
REMARK UNBOUND:                -3.643
REMARK SMILES CCCCCCCCCCCCCCCCCCCCCC(=O)[O-]
REMARK SMILES IDX 12 1 11 2 10 3 9 4 8 5 7 6 6 7 5 8 4 9 3 10 2 11 1 12 13 13
REMARK SMILES IDX 14 14 15 15 16 16 17 17 18 18 19 19 20 20 21 21 22 22 23 23
REMARK SMILES IDX 24 24
REMARK H PARENT
REMARK Flexibility Score: inf
ROOT
ATOM      1  C   UNL     1      32.104  29.138  11.625  1.00  0.00     0.000 C 
ENDROOT
BRANCH   1   2
ATOM      2  C   UNL     1      32.989  29.525  10.427  1.00  0.00     0.000 C 
BRANCH   2   3
ATOM      3  C   UNL     1      32.425  29.015   9.091  1.00  0.00     0.000 C 
BRANCH   3   4
ATOM      4  C   UNL     1      33.398  28.077   8.355  1.00  0.00    -0.000 C 
BRANCH   4   5
ATOM      5  C   UNL     1      34.290  27.278   9.319  1.00  0.00    -0.000 C 
BRANCH   5   6
ATOM      6  C   UNL     1      33.577  26.048   9.901  1.00  0.00    -0.000 C 
BRANCH   6   7
ATOM      7  C   UNL     1      34.277  25.553  11.172  1.00  0.00    -0.000 C 
BRANCH   7   8
ATOM      8  C   UNL     1      34.917  26.718  11.935  1.00  0.00    -0.000 C 
BRANCH   8   9
ATOM      9  C   UNL     1      34.988  26.423  13.438  1.00  0.00    -0.000 C 
BRANCH   9  10
ATOM     10  C   UNL     1      34.097  27.387  14.229  1.00  0.00    -0.000 C 
BRANCH  10  11
ATOM     11  C   UNL     1      33.389  26.664  15.381  1.00  0.00    -0.003 C 
ATOM     12  C   UNL     1      33.649  25.161  15.331  1.00  0.00     0.004 C 
ENDBRANCH  10  11
ENDBRANCH   9  10
ENDBRANCH   8   9
ENDBRANCH   7   8
ENDBRANCH   6   7
ENDBRANCH   5   6
ENDBRANCH   4   5
ENDBRANCH   3   4
ENDBRANCH   2   3
ENDBRANCH   1   2
BRANCH   1  13
ATOM     13  C   UNL     1      30.614  29.056  11.252  1.00  0.00     0.000 C 
BRANCH  13  14
ATOM     14  C   UNL     1      29.995  27.695  11.620  1.00  0.00     0.000 C 
BRANCH  14  15
ATOM     15  C   UNL     1      30.966  26.790  12.394  1.00  0.00     0.000 C 
BRANCH  15  16
ATOM     16  C   UNL     1      30.668  25.293  12.195  1.00  0.00     0.000 C 
BRANCH  16  17
ATOM     17  C   UNL     1      30.531  24.538  13.528  1.00  0.00     0.000 C 
BRANCH  17  18
ATOM     18  C   UNL     1      29.966  25.427  14.650  1.00  0.00     0.000 C 
BRANCH  18  19
ATOM     19  C   UNL     1      28.827  24.749  15.428  1.00  0.00     0.000 C 
BRANCH  19  20
ATOM     20  C   UNL     1      27.473  25.448  15.230  1.00  0.00     0.006 C 
BRANCH  20  21
ATOM     21  C   UNL     1      27.612  26.662  14.306  1.00  0.00     0.053 C 
BRANCH  21  22
ATOM     22  C   UNL     1      26.735  26.510  13.104  1.00  0.00     0.041 C 
ATOM     23  O   UNL     1      25.600  27.056  13.075  1.00  0.00    -0.550 OA
ATOM     24  O   UNL     1      27.147  25.725  12.035  1.00  0.00    -0.550 OA
ENDBRANCH  21  22
ENDBRANCH  20  21
ENDBRANCH  19  20
ENDBRANCH  18  19
ENDBRANCH  17  18
ENDBRANCH  16  17
ENDBRANCH  15  16
ENDBRANCH  14  15
ENDBRANCH  13  14
ENDBRANCH   1  13
TORSDOF 20
ENDMDL
MODEL 9
REMARK VINA RESULT:    -3.041     17.836     19.714
REMARK INTER + INTRA:         -10.240
REMARK INTER:                  -6.427
REMARK INTRA:                  -3.813
REMARK UNBOUND:                -3.643
REMARK SMILES CCCCCCCCCCCCCCCCCCCCCC(=O)[O-]
REMARK SMILES IDX 12 1 11 2 10 3 9 4 8 5 7 6 6 7 5 8 4 9 3 10 2 11 1 12 13 13
REMARK SMILES IDX 14 14 15 15 16 16 17 17 18 18 19 19 20 20 21 21 22 22 23 23
REMARK SMILES IDX 24 24
REMARK H PARENT
REMARK Flexibility Score: inf
ROOT
ATOM      1  C   UNL     1      34.710  26.835  14.439  1.00  0.00     0.000 C 
ENDROOT
BRANCH   1   2
ATOM      2  C   UNL     1      35.123  25.958  13.243  1.00  0.00     0.000 C 
BRANCH   2   3
ATOM      3  C   UNL     1      34.161  26.098  12.052  1.00  0.00     0.000 C 
BRANCH   3   4
ATOM      4  C   UNL     1      34.755  26.931  10.903  1.00  0.00    -0.000 C 
BRANCH   4   5
ATOM      5  C   UNL     1      34.295  28.398  10.940  1.00  0.00    -0.000 C 
BRANCH   5   6
ATOM      6  C   UNL     1      32.988  28.586  11.727  1.00  0.00    -0.000 C 
BRANCH   6   7
ATOM      7  C   UNL     1      32.075  29.611  11.044  1.00  0.00    -0.000 C 
BRANCH   7   8
ATOM      8  C   UNL     1      30.623  29.121  11.019  1.00  0.00    -0.000 C 
BRANCH   8   9
ATOM      9  C   UNL     1      30.492  27.745  11.683  1.00  0.00    -0.000 C 
BRANCH   9  10
ATOM     10  C   UNL     1      29.912  26.717  10.704  1.00  0.00    -0.000 C 
BRANCH  10  11
ATOM     11  C   UNL     1      30.997  25.752  10.211  1.00  0.00    -0.003 C 
ATOM     12  C   UNL     1      31.633  26.253   8.918  1.00  0.00     0.004 C 
ENDBRANCH  10  11
ENDBRANCH   9  10
ENDBRANCH   8   9
ENDBRANCH   7   8
ENDBRANCH   6   7
ENDBRANCH   5   6
ENDBRANCH   4   5
ENDBRANCH   3   4
ENDBRANCH   2   3
ENDBRANCH   1   2
BRANCH   1  13
ATOM     13  C   UNL     1      33.301  26.497  14.955  1.00  0.00     0.000 C 
BRANCH  13  14
ATOM     14  C   UNL     1      33.216  25.070  15.528  1.00  0.00     0.000 C 
BRANCH  14  15
ATOM     15  C   UNL     1      31.912  24.353  15.146  1.00  0.00     0.000 C 
BRANCH  15  16
ATOM     16  C   UNL     1      31.186  25.028  13.969  1.00  0.00     0.000 C 
BRANCH  16  17
ATOM     17  C   UNL     1      29.663  24.819  14.019  1.00  0.00     0.000 C 
BRANCH  17  18
ATOM     18  C   UNL     1      29.016  25.500  15.238  1.00  0.00     0.000 C 
BRANCH  18  19
ATOM     19  C   UNL     1      27.649  26.123  14.913  1.00  0.00     0.000 C 
BRANCH  19  20
ATOM     20  C   UNL     1      27.466  26.408  13.415  1.00  0.00     0.006 C 
BRANCH  20  21
ATOM     21  C   UNL     1      26.401  27.485  13.187  1.00  0.00     0.053 C 
BRANCH  21  22
ATOM     22  C   UNL     1      27.008  28.699  12.557  1.00  0.00     0.041 C 
ATOM     23  O   UNL     1      27.554  29.580  13.274  1.00  0.00    -0.550 OA
ATOM     24  O   UNL     1      26.929  28.882  11.182  1.00  0.00    -0.550 OA
ENDBRANCH  21  22
ENDBRANCH  20  21
ENDBRANCH  19  20
ENDBRANCH  18  19
ENDBRANCH  17  18
ENDBRANCH  16  17
ENDBRANCH  15  16
ENDBRANCH  14  15
ENDBRANCH  13  14
ENDBRANCH   1  13
TORSDOF 20
ENDMDL
