MODEL 1
REMARK VINA RESULT:     4.020      0.000      0.000
REMARK INTER + INTRA:           4.753
REMARK INTER:                   4.842
REMARK INTRA:                  -0.089
REMARK UNBOUND:                -0.089
REMARK SMILES O=c1c(O)c(-c2ccc(O)c(O)c2)oc2cc(O)cc(O)c12
REMARK SMILES IDX 5 1 3 2 2 3 1 4 22 5 20 6 19 7 17 8 16 9 15 10 14 11 6 12
REMARK SMILES IDX 7 13 8 14 9 15 13 16 11 17 10 18 12 20 4 22 21 24 18 26
REMARK H PARENT 10 19 12 21 4 23 21 25 18 27
REMARK Flexibility Score: inf
ROOT
ATOM      1  C   UNL     1    -116.975 -99.402  37.070  1.00  0.00     0.180 A 
ATOM      2  C   UNL     1    -115.646 -99.743  36.752  1.00  0.00     0.208 A 
ATOM      3  C   UNL     1    -115.244 -99.722  35.408  1.00  0.00     0.238 A 
ATOM      4  O   UNL     1    -114.053-100.016  35.112  1.00  0.00    -0.285 OA
ATOM      5  C   UNL     1    -116.176 -99.382  34.406  1.00  0.00     0.111 A 
ATOM      6  C   UNL     1    -115.853 -99.341  33.028  1.00  0.00     0.134 A 
ATOM      7  C   UNL     1    -116.840 -99.002  32.091  1.00  0.00     0.093 A 
ATOM      8  C   UNL     1    -118.144 -98.703  32.506  1.00  0.00     0.123 A 
ATOM      9  C   UNL     1    -118.467 -98.742  33.864  1.00  0.00     0.094 A 
ATOM     10  C   UNL     1    -117.496 -99.077  34.813  1.00  0.00     0.146 A 
ATOM     11  O   UNL     1    -117.830 -99.100  36.098  1.00  0.00    -0.452 OA
ENDROOT
BRANCH   1  12
ATOM     12  C   UNL     1    -117.469 -99.381  38.465  1.00  0.00     0.025 A 
ATOM     13  C   UNL     1    -118.628-100.102  38.799  1.00  0.00     0.016 A 
ATOM     14  C   UNL     1    -119.125-100.081  40.104  1.00  0.00     0.051 A 
ATOM     15  C   UNL     1    -118.478 -99.327  41.093  1.00  0.00     0.157 A 
ATOM     16  C   UNL     1    -116.836 -98.610  39.456  1.00  0.00     0.062 A 
ATOM     17  C   UNL     1    -117.336 -98.587  40.767  1.00  0.00     0.158 A 
BRANCH  15  18
ATOM     18  O   UNL     1    -118.969 -99.305  42.397  1.00  0.00    -0.504 OA
ATOM     19  H   UNL     1    -118.680 -98.596  43.060  1.00  0.00     0.293 HD
ENDBRANCH  15  18
BRANCH  17  20
ATOM     20  O   UNL     1    -116.703 -97.826  41.749  1.00  0.00    -0.504 OA
ATOM     21  H   UNL     1    -116.824 -96.822  41.803  1.00  0.00     0.293 HD
ENDBRANCH  17  20
ENDBRANCH   1  12
BRANCH   2  22
ATOM     22  O   UNL     1    -114.755-100.125  37.759  1.00  0.00    -0.502 OA
ATOM     23  H   UNL     1    -113.913-100.654  37.565  1.00  0.00     0.293 HD
ENDBRANCH   2  22
BRANCH   6  24
ATOM     24  O   UNL     1    -114.563 -99.634  32.585  1.00  0.00    -0.507 OA
ATOM     25  H   UNL     1    -114.307-100.562  32.268  1.00  0.00     0.293 HD
ENDBRANCH   6  24
BRANCH   8  26
ATOM     26  O   UNL     1    -119.125 -98.368  31.576  1.00  0.00    -0.508 OA
ATOM     27  H   UNL     1    -120.081 -98.685  31.677  1.00  0.00     0.293 HD
ENDBRANCH   8  26
TORSDOF 6
ENDMDL
MODEL 2
REMARK VINA RESULT:     4.305      1.845      2.815
REMARK INTER + INTRA:           5.096
REMARK INTER:                   5.416
REMARK INTRA:                  -0.320
REMARK UNBOUND:                -0.089
REMARK SMILES O=c1c(O)c(-c2ccc(O)c(O)c2)oc2cc(O)cc(O)c12
REMARK SMILES IDX 5 1 3 2 2 3 1 4 22 5 20 6 19 7 17 8 16 9 15 10 14 11 6 12
REMARK SMILES IDX 7 13 8 14 9 15 13 16 11 17 10 18 12 20 4 22 21 24 18 26
REMARK H PARENT 10 19 12 21 4 23 21 25 18 27
REMARK Flexibility Score: inf
ROOT
ATOM      1  C   UNL     1    -117.058 -98.839  37.456  1.00  0.00     0.180 A 
ATOM      2  C   UNL     1    -118.124 -99.472  36.786  1.00  0.00     0.208 A 
ATOM      3  C   UNL     1    -118.178 -99.408  35.386  1.00  0.00     0.238 A 
ATOM      4  O   UNL     1    -119.123 -99.980  34.775  1.00  0.00    -0.285 OA
ATOM      5  C   UNL     1    -117.184 -98.700  34.680  1.00  0.00     0.111 A 
ATOM      6  C   UNL     1    -117.167 -98.585  33.269  1.00  0.00     0.134 A 
ATOM      7  C   UNL     1    -116.147 -97.855  32.642  1.00  0.00     0.093 A 
ATOM      8  C   UNL     1    -115.143 -97.239  33.399  1.00  0.00     0.123 A 
ATOM      9  C   UNL     1    -115.155 -97.350  34.791  1.00  0.00     0.094 A 
ATOM     10  C   UNL     1    -116.163 -98.074  35.434  1.00  0.00     0.146 A 
ATOM     11  O   UNL     1    -116.146 -98.169  36.758  1.00  0.00    -0.452 OA
ENDROOT
BRANCH   1  12
ATOM     12  C   UNL     1    -116.920 -98.878  38.929  1.00  0.00     0.025 A 
ATOM     13  C   UNL     1    -116.160 -99.897  39.525  1.00  0.00     0.016 A 
ATOM     14  C   UNL     1    -116.032 -99.966  40.915  1.00  0.00     0.051 A 
ATOM     15  C   UNL     1    -116.676 -99.025  41.730  1.00  0.00     0.157 A 
ATOM     16  C   UNL     1    -117.581 -97.948  39.752  1.00  0.00     0.062 A 
ATOM     17  C   UNL     1    -117.455 -98.018  41.148  1.00  0.00     0.158 A 
BRANCH  15  18
ATOM     18  O   UNL     1    -116.550 -99.089  43.116  1.00  0.00    -0.504 OA
ATOM     19  H   UNL     1    -115.834 -98.569  43.608  1.00  0.00     0.293 HD
ENDBRANCH  15  18
BRANCH  17  20
ATOM     20  O   UNL     1    -118.106 -97.092  41.961  1.00  0.00    -0.504 OA
ATOM     21  H   UNL     1    -117.629 -96.273  42.318  1.00  0.00     0.293 HD
ENDBRANCH  17  20
ENDBRANCH   1  12
BRANCH   2  22
ATOM     22  O   UNL     1    -119.125-100.124  37.512  1.00  0.00    -0.502 OA
ATOM     23  H   UNL     1    -119.759 -99.629  38.127  1.00  0.00     0.293 HD
ENDBRANCH   2  22
BRANCH   6  24
ATOM     24  O   UNL     1    -118.154 -99.188  32.489  1.00  0.00    -0.507 OA
ATOM     25  H   UNL     1    -119.074 -99.396  32.860  1.00  0.00     0.293 HD
ENDBRANCH   6  24
BRANCH   8  26
ATOM     26  O   UNL     1    -114.131 -96.512  32.777  1.00  0.00    -0.508 OA
ATOM     27  H   UNL     1    -113.520 -95.898  33.301  1.00  0.00     0.293 HD
ENDBRANCH   8  26
TORSDOF 6
ENDMDL
