MODEL 1
REMARK VINA RESULT:    -9.031      0.000      0.000
REMARK INTER + INTRA:         -10.536
REMARK INTER:                 -10.879
REMARK INTRA:                   0.343
REMARK UNBOUND:                 0.343
REMARK SMILES O=c1c(O)c(-c2ccc(O)c(O)c2)oc2cc(O)cc(O)c12
REMARK SMILES IDX 5 1 3 2 2 3 1 4 22 5 20 6 19 7 17 8 16 9 15 10 14 11 6 12
REMARK SMILES IDX 7 13 8 14 9 15 13 16 11 17 10 18 12 20 4 22 21 24 18 26
REMARK H PARENT 10 19 12 21 4 23 21 25 18 27
REMARK Flexibility Score: inf
ROOT
ATOM      1  C   UNL     1     139.978 -18.604  80.760  1.00  0.00     0.180 A 
ATOM      2  C   UNL     1     139.544 -17.270  80.687  1.00  0.00     0.208 A 
ATOM      3  C   UNL     1     139.427 -16.659  79.428  1.00  0.00     0.238 A 
ATOM      4  O   UNL     1     139.110 -15.443  79.375  1.00  0.00    -0.285 OA
ATOM      5  C   UNL     1     139.689 -17.407  78.255  1.00  0.00     0.111 A 
ATOM      6  C   UNL     1     139.559 -16.904  76.925  1.00  0.00     0.134 A 
ATOM      7  C   UNL     1     139.949 -17.703  75.842  1.00  0.00     0.093 A 
ATOM      8  C   UNL     1     140.403 -19.009  76.038  1.00  0.00     0.123 A 
ATOM      9  C   UNL     1     140.483 -19.528  77.328  1.00  0.00     0.094 A 
ATOM     10  C   UNL     1     140.138 -18.742  78.431  1.00  0.00     0.146 A 
ATOM     11  O   UNL     1     140.249 -19.271  79.643  1.00  0.00    -0.452 OA
ENDROOT
BRANCH   1  12
ATOM     12  C   UNL     1     140.142 -19.312  82.050  1.00  0.00     0.025 A 
ATOM     13  C   UNL     1     140.431 -18.576  83.210  1.00  0.00     0.016 A 
ATOM     14  C   UNL     1     140.568 -19.220  84.441  1.00  0.00     0.051 A 
ATOM     15  C   UNL     1     140.404 -20.609  84.535  1.00  0.00     0.157 A 
ATOM     16  C   UNL     1     139.957 -20.702  82.152  1.00  0.00     0.062 A 
ATOM     17  C   UNL     1     140.093 -21.351  83.384  1.00  0.00     0.158 A 
BRANCH  15  18
ATOM     18  O   UNL     1     140.545 -21.249  85.766  1.00  0.00    -0.504 OA
ATOM     19  H   UNL     1     140.004 -22.073  86.000  1.00  0.00     0.293 HD
ENDBRANCH  15  18
BRANCH  17  20
ATOM     20  O   UNL     1     139.908 -22.733  83.447  1.00  0.00    -0.504 OA
ATOM     21  H   UNL     1     139.909 -23.236  84.327  1.00  0.00     0.293 HD
ENDBRANCH  17  20
ENDBRANCH   1  12
BRANCH   2  22
ATOM     22  O   UNL     1     139.216 -16.572  81.853  1.00  0.00    -0.502 OA
ATOM     23  H   UNL     1     139.726 -15.754  82.159  1.00  0.00     0.293 HD
ENDBRANCH   2  22
BRANCH   6  24
ATOM     24  O   UNL     1     139.033 -15.647  76.611  1.00  0.00    -0.507 OA
ATOM     25  H   UNL     1     138.265 -15.205  77.094  1.00  0.00     0.293 HD
ENDBRANCH   6  24
BRANCH   8  26
ATOM     26  O   UNL     1     140.774 -19.803  74.955  1.00  0.00    -0.508 OA
ATOM     27  H   UNL     1     140.138 -19.979  74.186  1.00  0.00     0.293 HD
ENDBRANCH   8  26
TORSDOF 6
ENDMDL
MODEL 2
REMARK VINA RESULT:    -8.769      0.605      1.415
REMARK INTER + INTRA:         -10.220
REMARK INTER:                 -10.290
REMARK INTRA:                   0.070
REMARK UNBOUND:                 0.343
REMARK SMILES O=c1c(O)c(-c2ccc(O)c(O)c2)oc2cc(O)cc(O)c12
REMARK SMILES IDX 5 1 3 2 2 3 1 4 22 5 20 6 19 7 17 8 16 9 15 10 14 11 6 12
REMARK SMILES IDX 7 13 8 14 9 15 13 16 11 17 10 18 12 20 4 22 21 24 18 26
REMARK H PARENT 10 19 12 21 4 23 21 25 18 27
REMARK Flexibility Score: inf
ROOT
ATOM      1  C   UNL     1     139.909 -18.686  80.675  1.00  0.00     0.180 A 
ATOM      2  C   UNL     1     139.622 -17.313  80.612  1.00  0.00     0.208 A 
ATOM      3  C   UNL     1     139.549 -16.689  79.356  1.00  0.00     0.238 A 
ATOM      4  O   UNL     1     139.366 -15.446  79.309  1.00  0.00    -0.285 OA
ATOM      5  C   UNL     1     139.707 -17.458  78.177  1.00  0.00     0.111 A 
ATOM      6  C   UNL     1     139.607 -16.940  76.850  1.00  0.00     0.134 A 
ATOM      7  C   UNL     1     139.888 -17.774  75.760  1.00  0.00     0.093 A 
ATOM      8  C   UNL     1     140.201 -19.122  75.947  1.00  0.00     0.123 A 
ATOM      9  C   UNL     1     140.247 -19.650  77.234  1.00  0.00     0.094 A 
ATOM     10  C   UNL     1     140.011 -18.835  78.344  1.00  0.00     0.146 A 
ATOM     11  O   UNL     1     140.086 -19.375  79.553  1.00  0.00    -0.452 OA
ENDROOT
BRANCH   1  12
ATOM     12  C   UNL     1     140.018 -19.411  81.962  1.00  0.00     0.025 A 
ATOM     13  C   UNL     1     139.468 -20.697  82.079  1.00  0.00     0.016 A 
ATOM     14  C   UNL     1     139.578 -21.408  83.276  1.00  0.00     0.051 A 
ATOM     15  C   UNL     1     140.251 -20.849  84.371  1.00  0.00     0.157 A 
ATOM     16  C   UNL     1     140.711 -18.862  83.056  1.00  0.00     0.062 A 
ATOM     17  C   UNL     1     140.824 -19.571  84.257  1.00  0.00     0.158 A 
BRANCH  15  18
ATOM     18  O   UNL     1     140.356 -21.559  85.566  1.00  0.00    -0.504 OA
ATOM     19  H   UNL     1     140.489 -22.564  85.577  1.00  0.00     0.293 HD
ENDBRANCH  15  18
BRANCH  17  20
ATOM     20  O   UNL     1     141.514 -18.994  85.323  1.00  0.00    -0.504 OA
ATOM     21  H   UNL     1     141.904 -18.060  85.269  1.00  0.00     0.293 HD
ENDBRANCH  17  20
ENDBRANCH   1  12
BRANCH   2  22
ATOM     22  O   UNL     1     139.393 -16.586  81.784  1.00  0.00    -0.502 OA
ATOM     23  H   UNL     1     138.963 -15.670  81.781  1.00  0.00     0.293 HD
ENDBRANCH   2  22
BRANCH   6  24
ATOM     24  O   UNL     1     139.215 -15.633  76.547  1.00  0.00    -0.507 OA
ATOM     25  H   UNL     1     139.222 -14.862  77.197  1.00  0.00     0.293 HD
ENDBRANCH   6  24
BRANCH   8  26
ATOM     26  O   UNL     1     140.463 -19.949  74.856  1.00  0.00    -0.508 OA
ATOM     27  H   UNL     1     141.360 -20.406  74.741  1.00  0.00     0.293 HD
ENDBRANCH   8  26
TORSDOF 6
ENDMDL
MODEL 3
REMARK VINA RESULT:    -8.605      2.105      7.041
REMARK INTER + INTRA:         -10.023
REMARK INTER:                  -9.931
REMARK INTRA:                  -0.092
REMARK UNBOUND:                 0.343
REMARK SMILES O=c1c(O)c(-c2ccc(O)c(O)c2)oc2cc(O)cc(O)c12
REMARK SMILES IDX 5 1 3 2 2 3 1 4 22 5 20 6 19 7 17 8 16 9 15 10 14 11 6 12
REMARK SMILES IDX 7 13 8 14 9 15 13 16 11 17 10 18 12 20 4 22 21 24 18 26
REMARK H PARENT 10 19 12 21 4 23 21 25 18 27
REMARK Flexibility Score: inf
ROOT
ATOM      1  C   UNL     1     139.842 -17.772  80.251  1.00  0.00     0.180 A 
ATOM      2  C   UNL     1     139.325 -18.955  79.698  1.00  0.00     0.208 A 
ATOM      3  C   UNL     1     139.241 -20.103  80.503  1.00  0.00     0.238 A 
ATOM      4  O   UNL     1     138.848 -21.178  79.982  1.00  0.00    -0.285 OA
ATOM      5  C   UNL     1     139.623 -20.038  81.865  1.00  0.00     0.111 A 
ATOM      6  C   UNL     1     139.539 -21.127  82.785  1.00  0.00     0.134 A 
ATOM      7  C   UNL     1     140.046 -20.975  84.083  1.00  0.00     0.093 A 
ATOM      8  C   UNL     1     140.575 -19.756  84.512  1.00  0.00     0.123 A 
ATOM      9  C   UNL     1     140.611 -18.673  83.639  1.00  0.00     0.094 A 
ATOM     10  C   UNL     1     140.149 -18.803  82.326  1.00  0.00     0.146 A 
ATOM     11  O   UNL     1     140.223 -17.750  81.523  1.00  0.00    -0.452 OA
ENDROOT
BRANCH   1  12
ATOM     12  C   UNL     1     139.975 -16.525  79.462  1.00  0.00     0.025 A 
ATOM     13  C   UNL     1     138.829 -15.934  78.906  1.00  0.00     0.016 A 
ATOM     14  C   UNL     1     138.928 -14.748  78.176  1.00  0.00     0.051 A 
ATOM     15  C   UNL     1     140.172 -14.126  78.003  1.00  0.00     0.157 A 
ATOM     16  C   UNL     1     141.218 -15.888  79.304  1.00  0.00     0.062 A 
ATOM     17  C   UNL     1     141.321 -14.698  78.574  1.00  0.00     0.158 A 
BRANCH  15  18
ATOM     18  O   UNL     1     140.268 -12.943  77.272  1.00  0.00    -0.504 OA
ATOM     19  H   UNL     1     139.565 -12.217  77.341  1.00  0.00     0.293 HD
ENDBRANCH  15  18
BRANCH  17  20
ATOM     20  O   UNL     1     142.572 -14.095  78.433  1.00  0.00    -0.504 OA
ATOM     21  H   UNL     1     143.181 -13.928  79.225  1.00  0.00     0.293 HD
ENDBRANCH  17  20
ENDBRANCH   1  12
BRANCH   2  22
ATOM     22  O   UNL     1     138.881 -18.979  78.373  1.00  0.00    -0.502 OA
ATOM     23  H   UNL     1     139.386 -18.526  77.622  1.00  0.00     0.293 HD
ENDBRANCH   2  22
BRANCH   6  24
ATOM     24  O   UNL     1     138.949 -22.359  82.489  1.00  0.00    -0.507 OA
ATOM     25  H   UNL     1     138.550 -22.609  81.597  1.00  0.00     0.293 HD
ENDBRANCH   6  24
BRANCH   8  26
ATOM     26  O   UNL     1     141.061 -19.610  85.809  1.00  0.00    -0.508 OA
ATOM     27  H   UNL     1     141.717 -20.272  86.207  1.00  0.00     0.293 HD
ENDBRANCH   8  26
TORSDOF 6
ENDMDL
MODEL 4
REMARK VINA RESULT:    -8.474      1.508      2.798
REMARK INTER + INTRA:          -9.865
REMARK INTER:                 -10.234
REMARK INTRA:                   0.369
REMARK UNBOUND:                 0.343
REMARK SMILES O=c1c(O)c(-c2ccc(O)c(O)c2)oc2cc(O)cc(O)c12
REMARK SMILES IDX 5 1 3 2 2 3 1 4 22 5 20 6 19 7 17 8 16 9 15 10 14 11 6 12
REMARK SMILES IDX 7 13 8 14 9 15 13 16 11 17 10 18 12 20 4 22 21 24 18 26
REMARK H PARENT 10 19 12 21 4 23 21 25 18 27
REMARK Flexibility Score: inf
ROOT
ATOM      1  C   UNL     1     139.907 -18.546  80.724  1.00  0.00     0.180 A 
ATOM      2  C   UNL     1     139.222 -19.100  79.631  1.00  0.00     0.208 A 
ATOM      3  C   UNL     1     139.083 -18.341  78.457  1.00  0.00     0.238 A 
ATOM      4  O   UNL     1     138.405 -18.814  77.510  1.00  0.00    -0.285 OA
ATOM      5  C   UNL     1     139.680 -17.059  78.372  1.00  0.00     0.111 A 
ATOM      6  C   UNL     1     139.642 -16.221  77.218  1.00  0.00     0.134 A 
ATOM      7  C   UNL     1     140.177 -14.927  77.285  1.00  0.00     0.093 A 
ATOM      8  C   UNL     1     140.805 -14.467  78.445  1.00  0.00     0.123 A 
ATOM      9  C   UNL     1     140.895 -15.298  79.559  1.00  0.00     0.094 A 
ATOM     10  C   UNL     1     140.337 -16.579  79.536  1.00  0.00     0.146 A 
ATOM     11  O   UNL     1     140.428 -17.328  80.627  1.00  0.00    -0.452 OA
ENDROOT
BRANCH   1  12
ATOM     12  C   UNL     1     140.081 -19.278  82.000  1.00  0.00     0.025 A 
ATOM     13  C   UNL     1     140.304 -18.558  83.184  1.00  0.00     0.016 A 
ATOM     14  C   UNL     1     140.450 -19.227  84.402  1.00  0.00     0.051 A 
ATOM     15  C   UNL     1     140.361 -20.624  84.456  1.00  0.00     0.157 A 
ATOM     16  C   UNL     1     139.971 -20.679  82.062  1.00  0.00     0.062 A 
ATOM     17  C   UNL     1     140.116 -21.352  83.280  1.00  0.00     0.158 A 
BRANCH  15  18
ATOM     18  O   UNL     1     140.510 -21.289  85.673  1.00  0.00    -0.504 OA
ATOM     19  H   UNL     1     140.149 -20.902  86.537  1.00  0.00     0.293 HD
ENDBRANCH  15  18
BRANCH  17  20
ATOM     20  O   UNL     1     140.006 -22.743  83.303  1.00  0.00    -0.504 OA
ATOM     21  H   UNL     1     139.148 -23.219  83.052  1.00  0.00     0.293 HD
ENDBRANCH  17  20
ENDBRANCH   1  12
BRANCH   2  22
ATOM     22  O   UNL     1     138.706 -20.397  79.707  1.00  0.00    -0.502 OA
ATOM     23  H   UNL     1     139.283 -21.220  79.585  1.00  0.00     0.293 HD
ENDBRANCH   2  22
BRANCH   6  24
ATOM     24  O   UNL     1     139.119 -16.613  75.982  1.00  0.00    -0.507 OA
ATOM     25  H   UNL     1     139.078 -16.028  75.161  1.00  0.00     0.293 HD
ENDBRANCH   6  24
BRANCH   8  26
ATOM     26  O   UNL     1     141.348 -13.186  78.498  1.00  0.00    -0.508 OA
ATOM     27  H   UNL     1     140.808 -12.370  78.234  1.00  0.00     0.293 HD
ENDBRANCH   8  26
TORSDOF 6
ENDMDL
MODEL 5
REMARK VINA RESULT:    -8.327      3.240      6.047
REMARK INTER + INTRA:          -9.688
REMARK INTER:                  -9.364
REMARK INTRA:                  -0.323
REMARK UNBOUND:                 0.343
REMARK SMILES O=c1c(O)c(-c2ccc(O)c(O)c2)oc2cc(O)cc(O)c12
REMARK SMILES IDX 5 1 3 2 2 3 1 4 22 5 20 6 19 7 17 8 16 9 15 10 14 11 6 12
REMARK SMILES IDX 7 13 8 14 9 15 13 16 11 17 10 18 12 20 4 22 21 24 18 26
REMARK H PARENT 10 19 12 21 4 23 21 25 18 27
REMARK Flexibility Score: inf
ROOT
ATOM      1  C   UNL     1     139.879 -17.343  77.825  1.00  0.00     0.180 A 
ATOM      2  C   UNL     1     139.003 -17.281  76.729  1.00  0.00     0.208 A 
ATOM      3  C   UNL     1     138.062 -18.307  76.549  1.00  0.00     0.238 A 
ATOM      4  O   UNL     1     137.332 -18.284  75.526  1.00  0.00    -0.285 OA
ATOM      5  C   UNL     1     137.970 -19.353  77.500  1.00  0.00     0.111 A 
ATOM      6  C   UNL     1     137.023 -20.421  77.443  1.00  0.00     0.134 A 
ATOM      7  C   UNL     1     137.096 -21.458  78.382  1.00  0.00     0.093 A 
ATOM      8  C   UNL     1     138.038 -21.433  79.412  1.00  0.00     0.123 A 
ATOM      9  C   UNL     1     138.930 -20.368  79.507  1.00  0.00     0.094 A 
ATOM     10  C   UNL     1     138.909 -19.338  78.564  1.00  0.00     0.146 A 
ATOM     11  O   UNL     1     139.792 -18.354  78.682  1.00  0.00    -0.452 OA
ENDROOT
BRANCH   1  12
ATOM     12  C   UNL     1     140.909 -16.308  78.072  1.00  0.00     0.025 A 
ATOM     13  C   UNL     1     140.578 -15.173  78.829  1.00  0.00     0.016 A 
ATOM     14  C   UNL     1     141.539 -14.194  79.093  1.00  0.00     0.051 A 
ATOM     15  C   UNL     1     142.849 -14.341  78.616  1.00  0.00     0.157 A 
ATOM     16  C   UNL     1     142.229 -16.463  77.614  1.00  0.00     0.062 A 
ATOM     17  C   UNL     1     143.194 -15.484  77.877  1.00  0.00     0.158 A 
BRANCH  15  18
ATOM     18  O   UNL     1     143.804 -13.361  78.879  1.00  0.00    -0.504 OA
ATOM     19  H   UNL     1     144.120 -12.722  78.159  1.00  0.00     0.293 HD
ENDBRANCH  15  18
BRANCH  17  20
ATOM     20  O   UNL     1     144.493 -15.669  77.402  1.00  0.00    -0.504 OA
ATOM     21  H   UNL     1     145.131 -16.334  77.823  1.00  0.00     0.293 HD
ENDBRANCH  17  20
ENDBRANCH   1  12
BRANCH   2  22
ATOM     22  O   UNL     1     139.059 -16.200  75.844  1.00  0.00    -0.502 OA
ATOM     23  H   UNL     1     138.594 -16.209  74.945  1.00  0.00     0.293 HD
ENDBRANCH   2  22
BRANCH   6  24
ATOM     24  O   UNL     1     135.985 -20.498  76.511  1.00  0.00    -0.507 OA
ATOM     25  H   UNL     1     135.577 -19.709  76.032  1.00  0.00     0.293 HD
ENDBRANCH   6  24
BRANCH   8  26
ATOM     26  O   UNL     1     138.093 -22.461  80.351  1.00  0.00    -0.508 OA
ATOM     27  H   UNL     1     137.883 -22.296  81.329  1.00  0.00     0.293 HD
ENDBRANCH   8  26
TORSDOF 6
ENDMDL
MODEL 6
REMARK VINA RESULT:    -8.293      2.577      7.191
REMARK INTER + INTRA:          -9.648
REMARK INTER:                  -9.339
REMARK INTRA:                  -0.308
REMARK UNBOUND:                 0.343
REMARK SMILES O=c1c(O)c(-c2ccc(O)c(O)c2)oc2cc(O)cc(O)c12
REMARK SMILES IDX 5 1 3 2 2 3 1 4 22 5 20 6 19 7 17 8 16 9 15 10 14 11 6 12
REMARK SMILES IDX 7 13 8 14 9 15 13 16 11 17 10 18 12 20 4 22 21 24 18 26
REMARK H PARENT 10 19 12 21 4 23 21 25 18 27
REMARK Flexibility Score: inf
ROOT
ATOM      1  C   UNL     1     138.990 -20.116  78.927  1.00  0.00     0.180 A 
ATOM      2  C   UNL     1     138.037 -20.980  78.362  1.00  0.00     0.208 A 
ATOM      3  C   UNL     1     137.452 -21.970  79.168  1.00  0.00     0.238 A 
ATOM      4  O   UNL     1     136.656 -22.787  78.638  1.00  0.00    -0.285 OA
ATOM      5  C   UNL     1     137.785 -22.047  80.543  1.00  0.00     0.111 A 
ATOM      6  C   UNL     1     137.220 -22.981  81.463  1.00  0.00     0.134 A 
ATOM      7  C   UNL     1     137.705 -23.034  82.778  1.00  0.00     0.093 A 
ATOM      8  C   UNL     1     138.687 -22.144  83.220  1.00  0.00     0.123 A 
ATOM      9  C   UNL     1     139.205 -21.195  82.343  1.00  0.00     0.094 A 
ATOM     10  C   UNL     1     138.770 -21.142  81.016  1.00  0.00     0.146 A 
ATOM     11  O   UNL     1     139.307 -20.234  80.211  1.00  0.00    -0.452 OA
ENDROOT
BRANCH   1  12
ATOM     12  C   UNL     1     139.661 -19.058  78.137  1.00  0.00     0.025 A 
ATOM     13  C   UNL     1     140.911 -19.320  77.555  1.00  0.00     0.016 A 
ATOM     14  C   UNL     1     141.553 -18.344  76.789  1.00  0.00     0.051 A 
ATOM     15  C   UNL     1     140.948 -17.096  76.582  1.00  0.00     0.157 A 
ATOM     16  C   UNL     1     139.048 -17.813  77.910  1.00  0.00     0.062 A 
ATOM     17  C   UNL     1     139.688 -16.833  77.143  1.00  0.00     0.158 A 
BRANCH  15  18
ATOM     18  O   UNL     1     141.593 -16.123  75.819  1.00  0.00    -0.504 OA
ATOM     19  H   UNL     1     142.599 -16.123  75.699  1.00  0.00     0.293 HD
ENDBRANCH  15  18
BRANCH  17  20
ATOM     20  O   UNL     1     139.052 -15.607  76.943  1.00  0.00    -0.504 OA
ATOM     21  H   UNL     1     138.919 -14.941  77.694  1.00  0.00     0.293 HD
ENDBRANCH  17  20
ENDBRANCH   1  12
BRANCH   2  22
ATOM     22  O   UNL     1     137.664 -20.839  77.022  1.00  0.00    -0.502 OA
ATOM     23  H   UNL     1     136.830 -20.340  76.739  1.00  0.00     0.293 HD
ENDBRANCH   2  22
BRANCH   6  24
ATOM     24  O   UNL     1     136.174 -23.853  81.152  1.00  0.00    -0.507 OA
ATOM     25  H   UNL     1     136.068 -24.340  80.275  1.00  0.00     0.293 HD
ENDBRANCH   6  24
BRANCH   8  26
ATOM     26  O   UNL     1     139.151 -22.194  84.532  1.00  0.00    -0.508 OA
ATOM     27  H   UNL     1     139.790 -21.495  84.895  1.00  0.00     0.293 HD
ENDBRANCH   8  26
TORSDOF 6
ENDMDL
MODEL 7
REMARK VINA RESULT:    -8.273      1.507      7.271
REMARK INTER + INTRA:          -9.623
REMARK INTER:                  -9.400
REMARK INTRA:                  -0.223
REMARK UNBOUND:                 0.343
REMARK SMILES O=c1c(O)c(-c2ccc(O)c(O)c2)oc2cc(O)cc(O)c12
REMARK SMILES IDX 5 1 3 2 2 3 1 4 22 5 20 6 19 7 17 8 16 9 15 10 14 11 6 12
REMARK SMILES IDX 7 13 8 14 9 15 13 16 11 17 10 18 12 20 4 22 21 24 18 26
REMARK H PARENT 10 19 12 21 4 23 21 25 18 27
REMARK Flexibility Score: inf
ROOT
ATOM      1  C   UNL     1     139.786 -19.463  80.628  1.00  0.00     0.180 A 
ATOM      2  C   UNL     1     139.022 -20.638  80.715  1.00  0.00     0.208 A 
ATOM      3  C   UNL     1     138.950 -21.315  81.944  1.00  0.00     0.238 A 
ATOM      4  O   UNL     1     138.326 -22.405  81.996  1.00  0.00    -0.285 OA
ATOM      5  C   UNL     1     139.596 -20.777  83.083  1.00  0.00     0.111 A 
ATOM      6  C   UNL     1     139.553 -21.353  84.389  1.00  0.00     0.134 A 
ATOM      7  C   UNL     1     140.319 -20.789  85.418  1.00  0.00     0.093 A 
ATOM      8  C   UNL     1     141.075 -19.635  85.204  1.00  0.00     0.123 A 
ATOM      9  C   UNL     1     141.080 -19.034  83.948  1.00  0.00     0.094 A 
ATOM     10  C   UNL     1     140.358 -19.594  82.891  1.00  0.00     0.146 A 
ATOM     11  O   UNL     1     140.408 -19.000  81.706  1.00  0.00    -0.452 OA
ENDROOT
BRANCH   1  12
ATOM     12  C   UNL     1     139.922 -18.702  79.364  1.00  0.00     0.025 A 
ATOM     13  C   UNL     1     140.670 -19.246  78.309  1.00  0.00     0.016 A 
ATOM     14  C   UNL     1     140.795 -18.556  77.100  1.00  0.00     0.051 A 
ATOM     15  C   UNL     1     140.161 -17.319  76.924  1.00  0.00     0.157 A 
ATOM     16  C   UNL     1     139.271 -17.470  79.177  1.00  0.00     0.062 A 
ATOM     17  C   UNL     1     139.393 -16.777  77.967  1.00  0.00     0.158 A 
BRANCH  15  18
ATOM     18  O   UNL     1     140.290 -16.631  75.718  1.00  0.00    -0.504 OA
ATOM     19  H   UNL     1     141.167 -16.611  75.210  1.00  0.00     0.293 HD
ENDBRANCH  15  18
BRANCH  17  20
ATOM     20  O   UNL     1     138.737 -15.554  77.818  1.00  0.00    -0.504 OA
ATOM     21  H   UNL     1     137.830 -15.481  77.372  1.00  0.00     0.293 HD
ENDBRANCH  17  20
ENDBRANCH   1  12
BRANCH   2  22
ATOM     22  O   UNL     1     138.328 -21.112  79.598  1.00  0.00    -0.502 OA
ATOM     23  H   UNL     1     138.314 -20.616  78.716  1.00  0.00     0.293 HD
ENDBRANCH   2  22
BRANCH   6  24
ATOM     24  O   UNL     1     138.762 -22.453  84.734  1.00  0.00    -0.507 OA
ATOM     25  H   UNL     1     139.098 -23.281  85.202  1.00  0.00     0.293 HD
ENDBRANCH   6  24
BRANCH   8  26
ATOM     26  O   UNL     1     141.821 -19.072  86.238  1.00  0.00    -0.508 OA
ATOM     27  H   UNL     1     141.772 -19.433  87.183  1.00  0.00     0.293 HD
ENDBRANCH   8  26
TORSDOF 6
ENDMDL
MODEL 8
REMARK VINA RESULT:    -8.180      1.641      2.646
REMARK INTER + INTRA:          -9.511
REMARK INTER:                  -9.824
REMARK INTRA:                   0.313
REMARK UNBOUND:                 0.343
REMARK SMILES O=c1c(O)c(-c2ccc(O)c(O)c2)oc2cc(O)cc(O)c12
REMARK SMILES IDX 5 1 3 2 2 3 1 4 22 5 20 6 19 7 17 8 16 9 15 10 14 11 6 12
REMARK SMILES IDX 7 13 8 14 9 15 13 16 11 17 10 18 12 20 4 22 21 24 18 26
REMARK H PARENT 10 19 12 21 4 23 21 25 18 27
REMARK Flexibility Score: inf
ROOT
ATOM      1  C   UNL     1     139.869 -19.515  80.017  1.00  0.00     0.180 A 
ATOM      2  C   UNL     1     139.041 -20.361  79.260  1.00  0.00     0.208 A 
ATOM      3  C   UNL     1     138.940 -20.155  77.875  1.00  0.00     0.238 A 
ATOM      4  O   UNL     1     138.140 -20.867  77.216  1.00  0.00    -0.285 OA
ATOM      5  C   UNL     1     139.710 -19.141  77.255  1.00  0.00     0.111 A 
ATOM      6  C   UNL     1     139.721 -18.872  75.853  1.00  0.00     0.134 A 
ATOM      7  C   UNL     1     140.443 -17.774  75.366  1.00  0.00     0.093 A 
ATOM      8  C   UNL     1     141.205 -16.976  76.222  1.00  0.00     0.123 A 
ATOM      9  C   UNL     1     141.243 -17.263  77.584  1.00  0.00     0.094 A 
ATOM     10  C   UNL     1     140.504 -18.327  78.106  1.00  0.00     0.146 A 
ATOM     11  O   UNL     1     140.555 -18.552  79.413  1.00  0.00    -0.452 OA
ENDROOT
BRANCH   1  12
ATOM     12  C   UNL     1     140.016 -19.660  81.484  1.00  0.00     0.025 A 
ATOM     13  C   UNL     1     140.292 -18.527  82.265  1.00  0.00     0.016 A 
ATOM     14  C   UNL     1     140.414 -18.637  83.652  1.00  0.00     0.051 A 
ATOM     15  C   UNL     1     140.247 -19.879  84.281  1.00  0.00     0.157 A 
ATOM     16  C   UNL     1     139.829 -20.900  82.119  1.00  0.00     0.062 A 
ATOM     17  C   UNL     1     139.949 -21.014  83.509  1.00  0.00     0.158 A 
BRANCH  15  18
ATOM     18  O   UNL     1     140.372 -19.985  85.665  1.00  0.00    -0.504 OA
ATOM     19  H   UNL     1     140.979 -19.369  86.192  1.00  0.00     0.293 HD
ENDBRANCH  15  18
BRANCH  17  20
ATOM     20  O   UNL     1     139.762 -22.261  84.106  1.00  0.00    -0.504 OA
ATOM     21  H   UNL     1     140.302 -23.074  83.834  1.00  0.00     0.293 HD
ENDBRANCH  17  20
ENDBRANCH   1  12
BRANCH   2  22
ATOM     22  O   UNL     1     138.347 -21.405  79.879  1.00  0.00    -0.502 OA
ATOM     23  H   UNL     1     138.787 -22.285  80.117  1.00  0.00     0.293 HD
ENDBRANCH   2  22
BRANCH   6  24
ATOM     24  O   UNL     1     139.069 -19.659  74.899  1.00  0.00    -0.507 OA
ATOM     25  H   UNL     1     138.972 -20.662  74.946  1.00  0.00     0.293 HD
ENDBRANCH   6  24
BRANCH   8  26
ATOM     26  O   UNL     1     141.932 -15.896  75.727  1.00  0.00    -0.508 OA
ATOM     27  H   UNL     1     142.791 -15.588  76.168  1.00  0.00     0.293 HD
ENDBRANCH   8  26
TORSDOF 6
ENDMDL
MODEL 9
REMARK VINA RESULT:    -8.121      2.606      6.750
REMARK INTER + INTRA:          -9.441
REMARK INTER:                  -9.110
REMARK INTRA:                  -0.330
REMARK UNBOUND:                 0.343
REMARK SMILES O=c1c(O)c(-c2ccc(O)c(O)c2)oc2cc(O)cc(O)c12
REMARK SMILES IDX 5 1 3 2 2 3 1 4 22 5 20 6 19 7 17 8 16 9 15 10 14 11 6 12
REMARK SMILES IDX 7 13 8 14 9 15 13 16 11 17 10 18 12 20 4 22 21 24 18 26
REMARK H PARENT 10 19 12 21 4 23 21 25 18 27
REMARK Flexibility Score: inf
ROOT
ATOM      1  C   UNL     1     139.410 -19.740  79.432  1.00  0.00     0.180 A 
ATOM      2  C   UNL     1     139.722 -19.587  80.792  1.00  0.00     0.208 A 
ATOM      3  C   UNL     1     139.177 -20.487  81.722  1.00  0.00     0.238 A 
ATOM      4  O   UNL     1     139.400 -20.299  82.946  1.00  0.00    -0.285 OA
ATOM      5  C   UNL     1     138.372 -21.562  81.274  1.00  0.00     0.111 A 
ATOM      6  C   UNL     1     137.804 -22.560  82.122  1.00  0.00     0.134 A 
ATOM      7  C   UNL     1     136.936 -23.517  81.578  1.00  0.00     0.093 A 
ATOM      8  C   UNL     1     136.668 -23.549  80.207  1.00  0.00     0.123 A 
ATOM      9  C   UNL     1     137.261 -22.613  79.364  1.00  0.00     0.094 A 
ATOM     10  C   UNL     1     138.100 -21.623  79.881  1.00  0.00     0.146 A 
ATOM     11  O   UNL     1     138.625 -20.739  79.044  1.00  0.00    -0.452 OA
ENDROOT
BRANCH   1  12
ATOM     12  C   UNL     1     139.934 -18.822  78.394  1.00  0.00     0.025 A 
ATOM     13  C   UNL     1     141.080 -19.183  77.668  1.00  0.00     0.016 A 
ATOM     14  C   UNL     1     141.580 -18.343  76.670  1.00  0.00     0.051 A 
ATOM     15  C   UNL     1     140.933 -17.136  76.372  1.00  0.00     0.157 A 
ATOM     16  C   UNL     1     139.275 -17.620  78.078  1.00  0.00     0.062 A 
ATOM     17  C   UNL     1     139.773 -16.777  77.078  1.00  0.00     0.158 A 
BRANCH  15  18
ATOM     18  O   UNL     1     141.436 -16.298  75.378  1.00  0.00    -0.504 OA
ATOM     19  H   UNL     1     142.217 -15.677  75.552  1.00  0.00     0.293 HD
ENDBRANCH  15  18
BRANCH  17  20
ATOM     20  O   UNL     1     139.096 -15.590  76.795  1.00  0.00    -0.504 OA
ATOM     21  H   UNL     1     139.170 -14.773  77.390  1.00  0.00     0.293 HD
ENDBRANCH  17  20
ENDBRANCH   1  12
BRANCH   2  22
ATOM     22  O   UNL     1     140.581 -18.564  81.207  1.00  0.00    -0.502 OA
ATOM     23  H   UNL     1     141.166 -18.050  80.562  1.00  0.00     0.293 HD
ENDBRANCH   2  22
BRANCH   6  24
ATOM     24  O   UNL     1     138.076 -22.674  83.488  1.00  0.00    -0.507 OA
ATOM     25  H   UNL     1     138.935 -23.029  83.879  1.00  0.00     0.293 HD
ENDBRANCH   6  24
BRANCH   8  26
ATOM     26  O   UNL     1     135.817 -24.514  79.673  1.00  0.00    -0.508 OA
ATOM     27  H   UNL     1     134.873 -24.286  79.384  1.00  0.00     0.293 HD
ENDBRANCH   8  26
TORSDOF 6
ENDMDL
