MODEL 1
REMARK VINA RESULT:    -5.338      0.000      0.000
REMARK INTER + INTRA:         -17.972
REMARK INTER:                 -13.452
REMARK INTRA:                  -4.520
REMARK UNBOUND:                -4.520
REMARK SMILES CCCCCCCCCCCCCCCCCCCCCCCCCCCC(=O)[O-]
REMARK SMILES IDX 15 1 16 2 17 3 18 4 19 5 20 6 21 7 22 8 23 9 24 10 25 11
REMARK SMILES IDX 26 12 27 13 28 14 29 15 30 16 14 17 13 18 12 19 11 20 10 21
REMARK SMILES IDX 9 22 8 23 7 24 6 25 5 26 4 27 3 28 2 29 1 30
REMARK H PARENT
REMARK Flexibility Score: inf
ROOT
ATOM      1  C   UNL     1      18.093  -0.448 -22.673  1.00  0.00     0.000 C 
ENDROOT
BRANCH   1   2
ATOM      2  C   UNL     1      16.796   0.117 -23.281  1.00  0.00     0.000 C 
BRANCH   2   3
ATOM      3  C   UNL     1      16.355  -0.546 -24.600  1.00  0.00     0.000 C 
BRANCH   3   4
ATOM      4  C   UNL     1      15.656   0.430 -25.558  1.00  0.00     0.000 C 
BRANCH   4   5
ATOM      5  C   UNL     1      15.987   1.889 -25.205  1.00  0.00     0.000 C 
BRANCH   5   6
ATOM      6  C   UNL     1      17.077   2.481 -26.114  1.00  0.00     0.000 C 
BRANCH   6   7
ATOM      7  C   UNL     1      18.322   2.929 -25.327  1.00  0.00     0.000 C 
BRANCH   7   8
ATOM      8  C   UNL     1      19.537   2.021 -25.576  1.00  0.00     0.000 C 
BRANCH   8   9
ATOM      9  C   UNL     1      19.175   0.768 -26.394  1.00  0.00     0.000 C 
BRANCH   9  10
ATOM     10  C   UNL     1      20.294  -0.285 -26.395  1.00  0.00     0.000 C 
BRANCH  10  11
ATOM     11  C   UNL     1      19.767  -1.710 -26.619  1.00  0.00     0.000 C 
BRANCH  11  12
ATOM     12  C   UNL     1      19.649  -2.464 -25.285  1.00  0.00     0.006 C 
BRANCH  12  13
ATOM     13  C   UNL     1      19.790  -3.982 -25.461  1.00  0.00     0.053 C 
BRANCH  13  14
ATOM     14  C   UNL     1      18.612  -4.721 -24.904  1.00  0.00     0.041 C 
ATOM     15  O   UNL     1      17.707  -4.099 -24.289  1.00  0.00    -0.550 OA
ATOM     16  O   UNL     1      18.514  -6.099 -25.067  1.00  0.00    -0.550 OA
ENDBRANCH  13  14
ENDBRANCH  12  13
ENDBRANCH  11  12
ENDBRANCH  10  11
ENDBRANCH   9  10
ENDBRANCH   8   9
ENDBRANCH   7   8
ENDBRANCH   6   7
ENDBRANCH   5   6
ENDBRANCH   4   5
ENDBRANCH   3   4
ENDBRANCH   2   3
ENDBRANCH   1   2
BRANCH   1  17
ATOM     17  C   UNL     1      19.103   0.646 -22.296  1.00  0.00     0.000 C 
BRANCH  17  18
ATOM     18  C   UNL     1      20.523   0.248 -22.717  1.00  0.00     0.000 C 
BRANCH  18  19
ATOM     19  C   UNL     1      21.515   1.395 -22.470  1.00  0.00     0.000 C 
BRANCH  19  20
ATOM     20  C   UNL     1      21.290   2.091 -21.111  1.00  0.00     0.000 C 
BRANCH  20  21
ATOM     21  C   UNL     1      21.691   1.237 -19.896  1.00  0.00     0.000 C 
BRANCH  21  22
ATOM     22  C   UNL     1      20.762   1.432 -18.691  1.00  0.00    -0.000 C 
BRANCH  22  23
ATOM     23  C   UNL     1      19.590   0.440 -18.729  1.00  0.00    -0.000 C 
BRANCH  23  24
ATOM     24  C   UNL     1      20.048  -1.012 -18.960  1.00  0.00    -0.000 C 
BRANCH  24  25
ATOM     25  C   UNL     1      19.582  -2.022 -17.893  1.00  0.00    -0.000 C 
BRANCH  25  26
ATOM     26  C   UNL     1      20.479  -2.116 -16.646  1.00  0.00    -0.000 C 
BRANCH  26  27
ATOM     27  C   UNL     1      20.018  -1.191 -15.509  1.00  0.00    -0.000 C 
BRANCH  27  28
ATOM     28  C   UNL     1      21.065  -0.102 -15.228  1.00  0.00    -0.000 C 
BRANCH  28  29
ATOM     29  C   UNL     1      22.426  -0.411 -15.873  1.00  0.00    -0.003 C 
ATOM     30  C   UNL     1      23.467  -0.887 -14.859  1.00  0.00     0.004 C 
ENDBRANCH  28  29
ENDBRANCH  27  28
ENDBRANCH  26  27
ENDBRANCH  25  26
ENDBRANCH  24  25
ENDBRANCH  23  24
ENDBRANCH  22  23
ENDBRANCH  21  22
ENDBRANCH  20  21
ENDBRANCH  19  20
ENDBRANCH  18  19
ENDBRANCH  17  18
ENDBRANCH   1  17
TORSDOF 26
ENDMDL
MODEL 2
REMARK VINA RESULT:    -5.140      1.484      2.906
REMARK INTER + INTRA:         -17.472
REMARK INTER:                 -13.980
REMARK INTRA:                  -3.493
REMARK UNBOUND:                -4.520
REMARK SMILES CCCCCCCCCCCCCCCCCCCCCCCCCCCC(=O)[O-]
REMARK SMILES IDX 15 1 16 2 17 3 18 4 19 5 20 6 21 7 22 8 23 9 24 10 25 11
REMARK SMILES IDX 26 12 27 13 28 14 29 15 30 16 14 17 13 18 12 19 11 20 10 21
REMARK SMILES IDX 9 22 8 23 7 24 6 25 5 26 4 27 3 28 2 29 1 30
REMARK H PARENT
REMARK Flexibility Score: inf
ROOT
ATOM      1  C   UNL     1      19.290   0.026 -22.808  1.00  0.00     0.000 C 
ENDROOT
BRANCH   1   2
ATOM      2  C   UNL     1      17.879  -0.546 -23.041  1.00  0.00     0.000 C 
BRANCH   2   3
ATOM      3  C   UNL     1      16.757   0.507 -23.120  1.00  0.00     0.000 C 
BRANCH   3   4
ATOM      4  C   UNL     1      17.126   1.710 -24.000  1.00  0.00     0.000 C 
BRANCH   4   5
ATOM      5  C   UNL     1      15.990   2.055 -24.976  1.00  0.00     0.000 C 
BRANCH   5   6
ATOM      6  C   UNL     1      16.147   1.351 -26.334  1.00  0.00     0.000 C 
BRANCH   6   7
ATOM      7  C   UNL     1      17.618   1.061 -26.681  1.00  0.00     0.000 C 
BRANCH   7   8
ATOM      8  C   UNL     1      17.910  -0.442 -26.810  1.00  0.00     0.000 C 
BRANCH   8   9
ATOM      9  C   UNL     1      19.359  -0.724 -27.246  1.00  0.00     0.000 C 
BRANCH   9  10
ATOM     10  C   UNL     1      19.747  -2.202 -27.102  1.00  0.00     0.000 C 
BRANCH  10  11
ATOM     11  C   UNL     1      20.153  -2.572 -25.668  1.00  0.00     0.000 C 
BRANCH  11  12
ATOM     12  C   UNL     1      19.721  -4.008 -25.331  1.00  0.00     0.006 C 
BRANCH  12  13
ATOM     13  C   UNL     1      18.634  -4.050 -24.250  1.00  0.00     0.053 C 
BRANCH  13  14
ATOM     14  C   UNL     1      17.653  -5.157 -24.486  1.00  0.00     0.041 C 
ATOM     15  O   UNL     1      16.440  -5.005 -24.182  1.00  0.00    -0.550 OA
ATOM     16  O   UNL     1      18.079  -6.358 -25.044  1.00  0.00    -0.550 OA
ENDBRANCH  13  14
ENDBRANCH  12  13
ENDBRANCH  11  12
ENDBRANCH  10  11
ENDBRANCH   9  10
ENDBRANCH   8   9
ENDBRANCH   7   8
ENDBRANCH   6   7
ENDBRANCH   5   6
ENDBRANCH   4   5
ENDBRANCH   3   4
ENDBRANCH   2   3
ENDBRANCH   1   2
BRANCH   1  17
ATOM     17  C   UNL     1      19.456   0.664 -21.421  1.00  0.00     0.000 C 
BRANCH  17  18
ATOM     18  C   UNL     1      20.932   0.703 -21.009  1.00  0.00     0.000 C 
BRANCH  18  19
ATOM     19  C   UNL     1      21.084   0.599 -19.484  1.00  0.00     0.000 C 
BRANCH  19  20
ATOM     20  C   UNL     1      20.074  -0.382 -18.853  1.00  0.00     0.000 C 
BRANCH  20  21
ATOM     21  C   UNL     1      20.724  -1.606 -18.185  1.00  0.00     0.000 C 
BRANCH  21  22
ATOM     22  C   UNL     1      20.013  -2.035 -16.895  1.00  0.00    -0.000 C 
BRANCH  22  23
ATOM     23  C   UNL     1      20.556  -1.267 -15.681  1.00  0.00    -0.000 C 
BRANCH  23  24
ATOM     24  C   UNL     1      22.076  -1.036 -15.756  1.00  0.00    -0.000 C 
BRANCH  24  25
ATOM     25  C   UNL     1      22.519   0.438 -15.674  1.00  0.00    -0.000 C 
BRANCH  25  26
ATOM     26  C   UNL     1      21.418   1.428 -15.256  1.00  0.00    -0.000 C 
BRANCH  26  27
ATOM     27  C   UNL     1      21.230   2.572 -16.264  1.00  0.00    -0.000 C 
BRANCH  27  28
ATOM     28  C   UNL     1      19.765   2.674 -16.713  1.00  0.00    -0.000 C 
BRANCH  28  29
ATOM     29  C   UNL     1      18.780   2.593 -15.536  1.00  0.00    -0.003 C 
ATOM     30  C   UNL     1      17.901   1.342 -15.584  1.00  0.00     0.004 C 
ENDBRANCH  28  29
ENDBRANCH  27  28
ENDBRANCH  26  27
ENDBRANCH  25  26
ENDBRANCH  24  25
ENDBRANCH  23  24
ENDBRANCH  22  23
ENDBRANCH  21  22
ENDBRANCH  20  21
ENDBRANCH  19  20
ENDBRANCH  18  19
ENDBRANCH  17  18
ENDBRANCH   1  17
TORSDOF 26
ENDMDL
MODEL 3
REMARK VINA RESULT:    -5.120      3.044      8.949
REMARK INTER + INTRA:         -17.421
REMARK INTER:                 -13.390
REMARK INTRA:                  -4.031
REMARK UNBOUND:                -4.520
REMARK SMILES CCCCCCCCCCCCCCCCCCCCCCCCCCCC(=O)[O-]
REMARK SMILES IDX 15 1 16 2 17 3 18 4 19 5 20 6 21 7 22 8 23 9 24 10 25 11
REMARK SMILES IDX 26 12 27 13 28 14 29 15 30 16 14 17 13 18 12 19 11 20 10 21
REMARK SMILES IDX 9 22 8 23 7 24 6 25 5 26 4 27 3 28 2 29 1 30
REMARK H PARENT
REMARK Flexibility Score: inf
ROOT
ATOM      1  C   UNL     1      20.586   0.520 -21.404  1.00  0.00     0.000 C 
ENDROOT
BRANCH   1   2
ATOM      2  C   UNL     1      20.393   1.111 -19.996  1.00  0.00     0.000 C 
BRANCH   2   3
ATOM      3  C   UNL     1      19.727   0.163 -18.980  1.00  0.00     0.000 C 
BRANCH   3   4
ATOM      4  C   UNL     1      20.048  -1.316 -19.241  1.00  0.00     0.000 C 
BRANCH   4   5
ATOM      5  C   UNL     1      19.964  -2.140 -17.946  1.00  0.00     0.000 C 
BRANCH   5   6
ATOM      6  C   UNL     1      19.826  -1.258 -16.695  1.00  0.00     0.000 C 
BRANCH   6   7
ATOM      7  C   UNL     1      20.735  -1.721 -15.543  1.00  0.00     0.000 C 
BRANCH   7   8
ATOM      8  C   UNL     1      21.822  -0.691 -15.197  1.00  0.00     0.000 C 
BRANCH   8   9
ATOM      9  C   UNL     1      22.225   0.167 -16.410  1.00  0.00     0.000 C 
BRANCH   9  10
ATOM     10  C   UNL     1      21.710   1.610 -16.314  1.00  0.00     0.000 C 
BRANCH  10  11
ATOM     11  C   UNL     1      21.391   2.032 -14.872  1.00  0.00     0.000 C 
BRANCH  11  12
ATOM     12  C   UNL     1      19.877   2.223 -14.682  1.00  0.00     0.006 C 
BRANCH  12  13
ATOM     13  C   UNL     1      19.146   2.433 -16.014  1.00  0.00     0.053 C 
BRANCH  13  14
ATOM     14  C   UNL     1      17.851   1.683 -16.066  1.00  0.00     0.041 C 
ATOM     15  O   UNL     1      17.084   1.810 -17.056  1.00  0.00    -0.550 OA
ATOM     16  O   UNL     1      17.493   0.840 -15.020  1.00  0.00    -0.550 OA
ENDBRANCH  13  14
ENDBRANCH  12  13
ENDBRANCH  11  12
ENDBRANCH  10  11
ENDBRANCH   9  10
ENDBRANCH   8   9
ENDBRANCH   7   8
ENDBRANCH   6   7
ENDBRANCH   5   6
ENDBRANCH   4   5
ENDBRANCH   3   4
ENDBRANCH   2   3
ENDBRANCH   1   2
BRANCH   1  17
ATOM     17  C   UNL     1      21.516   1.367 -22.287  1.00  0.00     0.000 C 
BRANCH  17  18
ATOM     18  C   UNL     1      20.761   1.925 -23.499  1.00  0.00     0.000 C 
BRANCH  18  19
ATOM     19  C   UNL     1      21.395   1.444 -24.814  1.00  0.00     0.000 C 
BRANCH  19  20
ATOM     20  C   UNL     1      22.119   0.090 -24.663  1.00  0.00     0.000 C 
BRANCH  20  21
ATOM     21  C   UNL     1      21.279  -1.121 -25.103  1.00  0.00     0.000 C 
BRANCH  21  22
ATOM     22  C   UNL     1      20.330  -0.804 -26.267  1.00  0.00    -0.000 C 
BRANCH  22  23
ATOM     23  C   UNL     1      18.871  -1.098 -25.888  1.00  0.00    -0.000 C 
BRANCH  23  24
ATOM     24  C   UNL     1      17.866  -0.269 -26.708  1.00  0.00    -0.000 C 
BRANCH  24  25
ATOM     25  C   UNL     1      18.134   1.249 -26.732  1.00  0.00    -0.000 C 
BRANCH  25  26
ATOM     26  C   UNL     1      17.030   2.117 -26.103  1.00  0.00    -0.000 C 
BRANCH  26  27
ATOM     27  C   UNL     1      16.394   1.467 -24.864  1.00  0.00    -0.000 C 
BRANCH  27  28
ATOM     28  C   UNL     1      17.040   1.994 -23.574  1.00  0.00    -0.000 C 
BRANCH  28  29
ATOM     29  C   UNL     1      17.068   0.941 -22.455  1.00  0.00    -0.003 C 
ATOM     30  C   UNL     1      17.481  -0.444 -22.954  1.00  0.00     0.004 C 
ENDBRANCH  28  29
ENDBRANCH  27  28
ENDBRANCH  26  27
ENDBRANCH  25  26
ENDBRANCH  24  25
ENDBRANCH  23  24
ENDBRANCH  22  23
ENDBRANCH  21  22
ENDBRANCH  20  21
ENDBRANCH  19  20
ENDBRANCH  18  19
ENDBRANCH  17  18
ENDBRANCH   1  17
TORSDOF 26
ENDMDL
MODEL 4
REMARK VINA RESULT:    -5.106      2.218      4.981
REMARK INTER + INTRA:         -17.387
REMARK INTER:                 -14.689
REMARK INTRA:                  -2.697
REMARK UNBOUND:                -4.520
REMARK SMILES CCCCCCCCCCCCCCCCCCCCCCCCCCCC(=O)[O-]
REMARK SMILES IDX 15 1 16 2 17 3 18 4 19 5 20 6 21 7 22 8 23 9 24 10 25 11
REMARK SMILES IDX 26 12 27 13 28 14 29 15 30 16 14 17 13 18 12 19 11 20 10 21
REMARK SMILES IDX 9 22 8 23 7 24 6 25 5 26 4 27 3 28 2 29 1 30
REMARK H PARENT
REMARK Flexibility Score: inf
ROOT
ATOM      1  C   UNL     1      19.943  -0.666 -19.324  1.00  0.00     0.000 C 
ENDROOT
BRANCH   1   2
ATOM      2  C   UNL     1      20.925   0.434 -19.768  1.00  0.00     0.000 C 
BRANCH   2   3
ATOM      3  C   UNL     1      20.790   0.868 -21.240  1.00  0.00     0.000 C 
BRANCH   3   4
ATOM      4  C   UNL     1      19.377   0.653 -21.801  1.00  0.00     0.000 C 
BRANCH   4   5
ATOM      5  C   UNL     1      18.877   1.903 -22.543  1.00  0.00     0.000 C 
BRANCH   5   6
ATOM      6  C   UNL     1      17.359   1.875 -22.784  1.00  0.00     0.000 C 
BRANCH   6   7
ATOM      7  C   UNL     1      16.797   0.443 -22.840  1.00  0.00     0.000 C 
BRANCH   7   8
ATOM      8  C   UNL     1      16.269   0.070 -24.235  1.00  0.00     0.000 C 
BRANCH   8   9
ATOM      9  C   UNL     1      16.061   1.303 -25.133  1.00  0.00     0.000 C 
BRANCH   9  10
ATOM     10  C   UNL     1      17.152   1.448 -26.204  1.00  0.00     0.000 C 
BRANCH  10  11
ATOM     11  C   UNL     1      17.566   0.101 -26.815  1.00  0.00     0.000 C 
BRANCH  11  12
ATOM     12  C   UNL     1      19.095  -0.053 -26.812  1.00  0.00     0.006 C 
BRANCH  12  13
ATOM     13  C   UNL     1      19.607  -0.755 -25.548  1.00  0.00     0.053 C 
BRANCH  13  14
ATOM     14  C   UNL     1      19.146  -2.178 -25.473  1.00  0.00     0.041 C 
ATOM     15  O   UNL     1      18.407  -2.556 -24.526  1.00  0.00    -0.550 OA
ATOM     16  O   UNL     1      19.531  -3.088 -26.453  1.00  0.00    -0.550 OA
ENDBRANCH  13  14
ENDBRANCH  12  13
ENDBRANCH  11  12
ENDBRANCH  10  11
ENDBRANCH   9  10
ENDBRANCH   8   9
ENDBRANCH   7   8
ENDBRANCH   6   7
ENDBRANCH   5   6
ENDBRANCH   4   5
ENDBRANCH   3   4
ENDBRANCH   2   3
ENDBRANCH   1   2
BRANCH   1  17
ATOM     17  C   UNL     1      20.640  -1.845 -18.629  1.00  0.00     0.000 C 
BRANCH  17  18
ATOM     18  C   UNL     1      19.767  -2.411 -17.503  1.00  0.00     0.000 C 
BRANCH  18  19
ATOM     19  C   UNL     1      20.282  -1.964 -16.126  1.00  0.00     0.000 C 
BRANCH  19  20
ATOM     20  C   UNL     1      19.676  -0.618 -15.675  1.00  0.00     0.000 C 
BRANCH  20  21
ATOM     21  C   UNL     1      20.723   0.453 -15.323  1.00  0.00     0.000 C 
BRANCH  21  22
ATOM     22  C   UNL     1      22.025   0.306 -16.121  1.00  0.00    -0.000 C 
BRANCH  22  23
ATOM     23  C   UNL     1      23.253   0.469 -15.213  1.00  0.00    -0.000 C 
BRANCH  23  24
ATOM     24  C   UNL     1      23.845  -0.880 -14.766  1.00  0.00    -0.000 C 
BRANCH  24  25
ATOM     25  C   UNL     1      24.993  -0.784 -13.741  1.00  0.00    -0.000 C 
BRANCH  25  26
ATOM     26  C   UNL     1      25.928  -2.006 -13.693  1.00  0.00    -0.000 C 
BRANCH  26  27
ATOM     27  C   UNL     1      26.957  -1.923 -12.555  1.00  0.00    -0.000 C 
BRANCH  27  28
ATOM     28  C   UNL     1      26.262  -1.739 -11.198  1.00  0.00    -0.000 C 
BRANCH  28  29
ATOM     29  C   UNL     1      26.898  -0.621 -10.356  1.00  0.00    -0.003 C 
ATOM     30  C   UNL     1      26.441   0.775 -10.783  1.00  0.00     0.004 C 
ENDBRANCH  28  29
ENDBRANCH  27  28
ENDBRANCH  26  27
ENDBRANCH  25  26
ENDBRANCH  24  25
ENDBRANCH  23  24
ENDBRANCH  22  23
ENDBRANCH  21  22
ENDBRANCH  20  21
ENDBRANCH  19  20
ENDBRANCH  18  19
ENDBRANCH  17  18
ENDBRANCH   1  17
TORSDOF 26
ENDMDL
MODEL 5
REMARK VINA RESULT:    -5.090      1.278      2.316
REMARK INTER + INTRA:         -17.347
REMARK INTER:                 -12.678
REMARK INTRA:                  -4.669
REMARK UNBOUND:                -4.520
REMARK SMILES CCCCCCCCCCCCCCCCCCCCCCCCCCCC(=O)[O-]
REMARK SMILES IDX 15 1 16 2 17 3 18 4 19 5 20 6 21 7 22 8 23 9 24 10 25 11
REMARK SMILES IDX 26 12 27 13 28 14 29 15 30 16 14 17 13 18 12 19 11 20 10 21
REMARK SMILES IDX 9 22 8 23 7 24 6 25 5 26 4 27 3 28 2 29 1 30
REMARK H PARENT
REMARK Flexibility Score: inf
ROOT
ATOM      1  C   UNL     1      20.257   0.050 -23.528  1.00  0.00     0.000 C 
ENDROOT
BRANCH   1   2
ATOM      2  C   UNL     1      19.576   1.429 -23.598  1.00  0.00     0.000 C 
BRANCH   2   3
ATOM      3  C   UNL     1      18.553   1.704 -22.479  1.00  0.00     0.000 C 
BRANCH   3   4
ATOM      4  C   UNL     1      17.098   1.641 -22.967  1.00  0.00     0.000 C 
BRANCH   4   5
ATOM      5  C   UNL     1      16.660   0.190 -23.223  1.00  0.00     0.000 C 
BRANCH   5   6
ATOM      6  C   UNL     1      16.314  -0.068 -24.698  1.00  0.00     0.000 C 
BRANCH   6   7
ATOM      7  C   UNL     1      16.136   1.235 -25.499  1.00  0.00     0.000 C 
BRANCH   7   8
ATOM      8  C   UNL     1      17.132   1.354 -26.664  1.00  0.00     0.000 C 
BRANCH   8   9
ATOM      9  C   UNL     1      17.962   0.072 -26.858  1.00  0.00     0.000 C 
BRANCH   9  10
ATOM     10  C   UNL     1      19.463   0.356 -27.016  1.00  0.00     0.000 C 
BRANCH  10  11
ATOM     11  C   UNL     1      20.304  -0.927 -27.095  1.00  0.00     0.000 C 
BRANCH  11  12
ATOM     12  C   UNL     1      19.440  -2.165 -26.806  1.00  0.00     0.006 C 
BRANCH  12  13
ATOM     13  C   UNL     1      20.031  -3.040 -25.694  1.00  0.00     0.053 C 
BRANCH  13  14
ATOM     14  C   UNL     1      18.965  -3.702 -24.876  1.00  0.00     0.041 C 
ATOM     15  O   UNL     1      18.067  -3.010 -24.327  1.00  0.00    -0.550 OA
ATOM     16  O   UNL     1      18.962  -5.084 -24.722  1.00  0.00    -0.550 OA
ENDBRANCH  13  14
ENDBRANCH  12  13
ENDBRANCH  11  12
ENDBRANCH  10  11
ENDBRANCH   9  10
ENDBRANCH   8   9
ENDBRANCH   7   8
ENDBRANCH   6   7
ENDBRANCH   5   6
ENDBRANCH   4   5
ENDBRANCH   3   4
ENDBRANCH   2   3
ENDBRANCH   1   2
BRANCH   1  17
ATOM     17  C   UNL     1      21.763   0.111 -23.822  1.00  0.00     0.000 C 
BRANCH  17  18
ATOM     18  C   UNL     1      22.255   1.563 -23.862  1.00  0.00     0.000 C 
BRANCH  18  19
ATOM     19  C   UNL     1      23.582   1.718 -23.104  1.00  0.00     0.000 C 
BRANCH  19  20
ATOM     20  C   UNL     1      23.378   2.033 -21.608  1.00  0.00     0.000 C 
BRANCH  20  21
ATOM     21  C   UNL     1      22.098   2.832 -21.306  1.00  0.00     0.000 C 
BRANCH  21  22
ATOM     22  C   UNL     1      21.353   2.326 -20.063  1.00  0.00    -0.000 C 
BRANCH  22  23
ATOM     23  C   UNL     1      21.371   0.792 -19.992  1.00  0.00    -0.000 C 
BRANCH  23  24
ATOM     24  C   UNL     1      20.035   0.204 -19.502  1.00  0.00    -0.000 C 
BRANCH  24  25
ATOM     25  C   UNL     1      20.112  -1.238 -18.964  1.00  0.00    -0.000 C 
BRANCH  25  26
ATOM     26  C   UNL     1      20.974  -1.420 -17.702  1.00  0.00    -0.000 C 
BRANCH  26  27
ATOM     27  C   UNL     1      20.151  -1.839 -16.474  1.00  0.00    -0.000 C 
BRANCH  27  28
ATOM     28  C   UNL     1      20.646  -1.120 -15.210  1.00  0.00    -0.000 C 
BRANCH  28  29
ATOM     29  C   UNL     1      20.136   0.327 -15.116  1.00  0.00    -0.003 C 
ATOM     30  C   UNL     1      18.683   0.474 -15.568  1.00  0.00     0.004 C 
ENDBRANCH  28  29
ENDBRANCH  27  28
ENDBRANCH  26  27
ENDBRANCH  25  26
ENDBRANCH  24  25
ENDBRANCH  23  24
ENDBRANCH  22  23
ENDBRANCH  21  22
ENDBRANCH  20  21
ENDBRANCH  19  20
ENDBRANCH  18  19
ENDBRANCH  17  18
ENDBRANCH   1  17
TORSDOF 26
ENDMDL
MODEL 6
REMARK VINA RESULT:    -5.032      3.075      9.125
REMARK INTER + INTRA:         -17.201
REMARK INTER:                 -13.203
REMARK INTRA:                  -3.998
REMARK UNBOUND:                -4.520
REMARK SMILES CCCCCCCCCCCCCCCCCCCCCCCCCCCC(=O)[O-]
REMARK SMILES IDX 15 1 16 2 17 3 18 4 19 5 20 6 21 7 22 8 23 9 24 10 25 11
REMARK SMILES IDX 26 12 27 13 28 14 29 15 30 16 14 17 13 18 12 19 11 20 10 21
REMARK SMILES IDX 9 22 8 23 7 24 6 25 5 26 4 27 3 28 2 29 1 30
REMARK H PARENT
REMARK Flexibility Score: inf
ROOT
ATOM      1  C   UNL     1      20.841   0.129 -19.141  1.00  0.00     0.000 C 
ENDROOT
BRANCH   1   2
ATOM      2  C   UNL     1      20.250  -1.278 -19.350  1.00  0.00     0.000 C 
BRANCH   2   3
ATOM      3  C   UNL     1      19.714  -1.953 -18.073  1.00  0.00     0.000 C 
BRANCH   3   4
ATOM      4  C   UNL     1      19.926  -1.103 -16.811  1.00  0.00     0.000 C 
BRANCH   4   5
ATOM      5  C   UNL     1      20.584  -1.924 -15.691  1.00  0.00     0.000 C 
BRANCH   5   6
ATOM      6  C   UNL     1      21.634  -1.117 -14.909  1.00  0.00     0.000 C 
BRANCH   6   7
ATOM      7  C   UNL     1      22.839  -0.717 -15.780  1.00  0.00     0.000 C 
BRANCH   7   8
ATOM      8  C   UNL     1      23.755   0.305 -15.088  1.00  0.00     0.000 C 
BRANCH   8   9
ATOM      9  C   UNL     1      23.569   1.729 -15.643  1.00  0.00     0.000 C 
BRANCH   9  10
ATOM     10  C   UNL     1      22.517   2.536 -14.869  1.00  0.00     0.000 C 
BRANCH  10  11
ATOM     11  C   UNL     1      21.268   2.842 -15.707  1.00  0.00     0.000 C 
BRANCH  11  12
ATOM     12  C   UNL     1      20.010   2.252 -15.050  1.00  0.00     0.006 C 
BRANCH  12  13
ATOM     13  C   UNL     1      18.719   2.843 -15.629  1.00  0.00     0.053 C 
BRANCH  13  14
ATOM     14  C   UNL     1      17.698   1.786 -15.915  1.00  0.00     0.041 C 
ATOM     15  O   UNL     1      17.063   1.795 -17.002  1.00  0.00    -0.550 OA
ATOM     16  O   UNL     1      17.449   0.787 -14.980  1.00  0.00    -0.550 OA
ENDBRANCH  13  14
ENDBRANCH  12  13
ENDBRANCH  11  12
ENDBRANCH  10  11
ENDBRANCH   9  10
ENDBRANCH   8   9
ENDBRANCH   7   8
ENDBRANCH   6   7
ENDBRANCH   5   6
ENDBRANCH   4   5
ENDBRANCH   3   4
ENDBRANCH   2   3
ENDBRANCH   1   2
BRANCH   1  17
ATOM     17  C   UNL     1      19.882   1.251 -19.566  1.00  0.00     0.000 C 
BRANCH  17  18
ATOM     18  C   UNL     1      20.285   1.829 -20.928  1.00  0.00     0.000 C 
BRANCH  18  19
ATOM     19  C   UNL     1      21.693   1.363 -21.331  1.00  0.00     0.000 C 
BRANCH  19  20
ATOM     20  C   UNL     1      21.784   0.973 -22.821  1.00  0.00     0.000 C 
BRANCH  20  21
ATOM     21  C   UNL     1      21.024   1.922 -23.764  1.00  0.00     0.000 C 
BRANCH  21  22
ATOM     22  C   UNL     1      20.673   1.276 -25.111  1.00  0.00    -0.000 C 
BRANCH  22  23
ATOM     23  C   UNL     1      20.769  -0.255 -25.034  1.00  0.00    -0.000 C 
BRANCH  23  24
ATOM     24  C   UNL     1      19.389  -0.934 -24.956  1.00  0.00    -0.000 C 
BRANCH  24  25
ATOM     25  C   UNL     1      18.739  -0.937 -23.558  1.00  0.00    -0.000 C 
BRANCH  25  26
ATOM     26  C   UNL     1      17.216  -0.716 -23.546  1.00  0.00    -0.000 C 
BRANCH  26  27
ATOM     27  C   UNL     1      16.799   0.521 -22.736  1.00  0.00    -0.000 C 
BRANCH  27  28
ATOM     28  C   UNL     1      17.138   1.813 -23.495  1.00  0.00    -0.000 C 
BRANCH  28  29
ATOM     29  C   UNL     1      16.447   1.892 -24.866  1.00  0.00    -0.003 C 
ATOM     30  C   UNL     1      17.281   2.639 -25.907  1.00  0.00     0.004 C 
ENDBRANCH  28  29
ENDBRANCH  27  28
ENDBRANCH  26  27
ENDBRANCH  25  26
ENDBRANCH  24  25
ENDBRANCH  23  24
ENDBRANCH  22  23
ENDBRANCH  21  22
ENDBRANCH  20  21
ENDBRANCH  19  20
ENDBRANCH  18  19
ENDBRANCH  17  18
ENDBRANCH   1  17
TORSDOF 26
ENDMDL
MODEL 7
REMARK VINA RESULT:    -5.010      2.985      8.424
REMARK INTER + INTRA:         -17.145
REMARK INTER:                 -12.799
REMARK INTRA:                  -4.346
REMARK UNBOUND:                -4.520
REMARK SMILES CCCCCCCCCCCCCCCCCCCCCCCCCCCC(=O)[O-]
REMARK SMILES IDX 15 1 16 2 17 3 18 4 19 5 20 6 21 7 22 8 23 9 24 10 25 11
REMARK SMILES IDX 26 12 27 13 28 14 29 15 30 16 14 17 13 18 12 19 11 20 10 21
REMARK SMILES IDX 9 22 8 23 7 24 6 25 5 26 4 27 3 28 2 29 1 30
REMARK H PARENT
REMARK Flexibility Score: inf
ROOT
ATOM      1  C   UNL     1      21.997   0.870 -23.125  1.00  0.00     0.000 C 
ENDROOT
BRANCH   1   2
ATOM      2  C   UNL     1      21.341   2.260 -23.225  1.00  0.00     0.000 C 
BRANCH   2   3
ATOM      3  C   UNL     1      20.589   2.715 -21.959  1.00  0.00     0.000 C 
BRANCH   3   4
ATOM      4  C   UNL     1      21.364   2.424 -20.665  1.00  0.00     0.000 C 
BRANCH   4   5
ATOM      5  C   UNL     1      20.530   1.571 -19.697  1.00  0.00     0.000 C 
BRANCH   5   6
ATOM      6  C   UNL     1      20.808   0.066 -19.850  1.00  0.00     0.000 C 
BRANCH   6   7
ATOM      7  C   UNL     1      19.677  -0.805 -19.275  1.00  0.00     0.000 C 
BRANCH   7   8
ATOM      8  C   UNL     1      20.194  -2.115 -18.661  1.00  0.00     0.000 C 
BRANCH   8   9
ATOM      9  C   UNL     1      19.937  -2.194 -17.145  1.00  0.00     0.000 C 
BRANCH   9  10
ATOM     10  C   UNL     1      20.861  -1.272 -16.337  1.00  0.00     0.000 C 
BRANCH  10  11
ATOM     11  C   UNL     1      20.240  -0.829 -15.004  1.00  0.00     0.000 C 
BRANCH  11  12
ATOM     12  C   UNL     1      20.229   0.704 -14.890  1.00  0.00     0.006 C 
BRANCH  12  13
ATOM     13  C   UNL     1      19.604   1.374 -16.120  1.00  0.00     0.053 C 
BRANCH  13  14
ATOM     14  C   UNL     1      18.116   1.210 -16.151  1.00  0.00     0.041 C 
ATOM     15  O   UNL     1      17.483   1.370 -17.228  1.00  0.00    -0.550 OA
ATOM     16  O   UNL     1      17.427   0.877 -14.989  1.00  0.00    -0.550 OA
ENDBRANCH  13  14
ENDBRANCH  12  13
ENDBRANCH  11  12
ENDBRANCH  10  11
ENDBRANCH   9  10
ENDBRANCH   8   9
ENDBRANCH   7   8
ENDBRANCH   6   7
ENDBRANCH   5   6
ENDBRANCH   4   5
ENDBRANCH   3   4
ENDBRANCH   2   3
ENDBRANCH   1   2
BRANCH   1  17
ATOM     17  C   UNL     1      23.166   0.689 -24.104  1.00  0.00     0.000 C 
BRANCH  17  18
ATOM     18  C   UNL     1      22.666   0.648 -25.553  1.00  0.00     0.000 C 
BRANCH  18  19
ATOM     19  C   UNL     1      21.637  -0.476 -25.751  1.00  0.00     0.000 C 
BRANCH  19  20
ATOM     20  C   UNL     1      20.785  -0.284 -27.023  1.00  0.00     0.000 C 
BRANCH  20  21
ATOM     21  C   UNL     1      19.431   0.402 -26.772  1.00  0.00     0.000 C 
BRANCH  21  22
ATOM     22  C   UNL     1      18.246  -0.373 -27.364  1.00  0.00    -0.000 C 
BRANCH  22  23
ATOM     23  C   UNL     1      16.911   0.150 -26.814  1.00  0.00    -0.000 C 
BRANCH  23  24
ATOM     24  C   UNL     1      16.947   1.658 -26.503  1.00  0.00    -0.000 C 
BRANCH  24  25
ATOM     25  C   UNL     1      16.431   2.050 -25.104  1.00  0.00    -0.000 C 
BRANCH  25  26
ATOM     26  C   UNL     1      17.521   2.234 -24.034  1.00  0.00    -0.000 C 
BRANCH  26  27
ATOM     27  C   UNL     1      17.146   1.601 -22.686  1.00  0.00    -0.000 C 
BRANCH  27  28
ATOM     28  C   UNL     1      17.168   0.067 -22.773  1.00  0.00    -0.000 C 
BRANCH  28  29
ATOM     29  C   UNL     1      18.518  -0.476 -23.268  1.00  0.00    -0.003 C 
ATOM     30  C   UNL     1      18.393  -1.836 -23.956  1.00  0.00     0.004 C 
ENDBRANCH  28  29
ENDBRANCH  27  28
ENDBRANCH  26  27
ENDBRANCH  25  26
ENDBRANCH  24  25
ENDBRANCH  23  24
ENDBRANCH  22  23
ENDBRANCH  21  22
ENDBRANCH  20  21
ENDBRANCH  19  20
ENDBRANCH  18  19
ENDBRANCH  17  18
ENDBRANCH   1  17
TORSDOF 26
ENDMDL
MODEL 8
REMARK VINA RESULT:    -4.973      1.441      2.706
REMARK INTER + INTRA:         -17.052
REMARK INTER:                 -12.845
REMARK INTRA:                  -4.207
REMARK UNBOUND:                -4.520
REMARK SMILES CCCCCCCCCCCCCCCCCCCCCCCCCCCC(=O)[O-]
REMARK SMILES IDX 15 1 16 2 17 3 18 4 19 5 20 6 21 7 22 8 23 9 24 10 25 11
REMARK SMILES IDX 26 12 27 13 28 14 29 15 30 16 14 17 13 18 12 19 11 20 10 21
REMARK SMILES IDX 9 22 8 23 7 24 6 25 5 26 4 27 3 28 2 29 1 30
REMARK H PARENT
REMARK Flexibility Score: inf
ROOT
ATOM      1  C   UNL     1      19.630   1.024 -23.143  1.00  0.00     0.000 C 
ENDROOT
BRANCH   1   2
ATOM      2  C   UNL     1      18.590   1.987 -22.541  1.00  0.00     0.000 C 
BRANCH   2   3
ATOM      3  C   UNL     1      17.147   1.448 -22.512  1.00  0.00     0.000 C 
BRANCH   3   4
ATOM      4  C   UNL     1      17.014   0.058 -23.151  1.00  0.00     0.000 C 
BRANCH   4   5
ATOM      5  C   UNL     1      16.084   0.095 -24.374  1.00  0.00     0.000 C 
BRANCH   5   6
ATOM      6  C   UNL     1      15.967   1.502 -24.982  1.00  0.00     0.000 C 
BRANCH   6   7
ATOM      7  C   UNL     1      16.526   1.575 -26.414  1.00  0.00     0.000 C 
BRANCH   7   8
ATOM      8  C   UNL     1      18.036   1.294 -26.474  1.00  0.00     0.000 C 
BRANCH   8   9
ATOM      9  C   UNL     1      18.370   0.069 -27.344  1.00  0.00     0.000 C 
BRANCH   9  10
ATOM     10  C   UNL     1      19.861  -0.297 -27.308  1.00  0.00     0.000 C 
BRANCH  10  11
ATOM     11  C   UNL     1      20.113  -1.708 -26.757  1.00  0.00     0.000 C 
BRANCH  11  12
ATOM     12  C   UNL     1      19.898  -1.746 -25.235  1.00  0.00     0.006 C 
BRANCH  12  13
ATOM     13  C   UNL     1      18.703  -2.622 -24.839  1.00  0.00     0.053 C 
BRANCH  13  14
ATOM     14  C   UNL     1      19.089  -4.063 -24.697  1.00  0.00     0.041 C 
ATOM     15  O   UNL     1      20.251  -4.441 -25.003  1.00  0.00    -0.550 OA
ATOM     16  O   UNL     1      18.165  -4.988 -24.224  1.00  0.00    -0.550 OA
ENDBRANCH  13  14
ENDBRANCH  12  13
ENDBRANCH  11  12
ENDBRANCH  10  11
ENDBRANCH   9  10
ENDBRANCH   8   9
ENDBRANCH   7   8
ENDBRANCH   6   7
ENDBRANCH   5   6
ENDBRANCH   4   5
ENDBRANCH   3   4
ENDBRANCH   2   3
ENDBRANCH   1   2
BRANCH   1  17
ATOM     17  C   UNL     1      20.726   0.625 -22.143  1.00  0.00     0.000 C 
BRANCH  17  18
ATOM     18  C   UNL     1      20.145   0.453 -20.734  1.00  0.00     0.000 C 
BRANCH  18  19
ATOM     19  C   UNL     1      20.966   1.236 -19.698  1.00  0.00     0.000 C 
BRANCH  19  20
ATOM     20  C   UNL     1      20.154   1.575 -18.431  1.00  0.00     0.000 C 
BRANCH  20  21
ATOM     21  C   UNL     1      18.699   1.077 -18.468  1.00  0.00     0.000 C 
BRANCH  21  22
ATOM     22  C   UNL     1      17.879   1.525 -17.251  1.00  0.00    -0.000 C 
BRANCH  22  23
ATOM     23  C   UNL     1      18.626   2.598 -16.444  1.00  0.00    -0.000 C 
BRANCH  23  24
ATOM     24  C   UNL     1      18.883   2.173 -14.986  1.00  0.00    -0.000 C 
BRANCH  24  25
ATOM     25  C   UNL     1      20.237   1.480 -14.735  1.00  0.00    -0.000 C 
BRANCH  25  26
ATOM     26  C   UNL     1      20.225  -0.051 -14.893  1.00  0.00    -0.000 C 
BRANCH  26  27
ATOM     27  C   UNL     1      21.578  -0.612 -15.357  1.00  0.00    -0.000 C 
BRANCH  27  28
ATOM     28  C   UNL     1      21.444  -1.317 -16.715  1.00  0.00    -0.000 C 
BRANCH  28  29
ATOM     29  C   UNL     1      20.060  -1.955 -16.915  1.00  0.00    -0.003 C 
ATOM     30  C   UNL     1      19.831  -2.436 -18.348  1.00  0.00     0.004 C 
ENDBRANCH  28  29
ENDBRANCH  27  28
ENDBRANCH  26  27
ENDBRANCH  25  26
ENDBRANCH  24  25
ENDBRANCH  23  24
ENDBRANCH  22  23
ENDBRANCH  21  22
ENDBRANCH  20  21
ENDBRANCH  19  20
ENDBRANCH  18  19
ENDBRANCH  17  18
ENDBRANCH   1  17
TORSDOF 26
ENDMDL
MODEL 9
REMARK VINA RESULT:    -4.927      1.665      4.439
REMARK INTER + INTRA:         -16.936
REMARK INTER:                 -13.163
REMARK INTRA:                  -3.773
REMARK UNBOUND:                -4.520
REMARK SMILES CCCCCCCCCCCCCCCCCCCCCCCCCCCC(=O)[O-]
REMARK SMILES IDX 15 1 16 2 17 3 18 4 19 5 20 6 21 7 22 8 23 9 24 10 25 11
REMARK SMILES IDX 26 12 27 13 28 14 29 15 30 16 14 17 13 18 12 19 11 20 10 21
REMARK SMILES IDX 9 22 8 23 7 24 6 25 5 26 4 27 3 28 2 29 1 30
REMARK H PARENT
REMARK Flexibility Score: inf
ROOT
ATOM      1  C   UNL     1      20.710  -0.784 -18.703  1.00  0.00     0.000 C 
ENDROOT
BRANCH   1   2
ATOM      2  C   UNL     1      20.149   0.104 -19.830  1.00  0.00     0.000 C 
BRANCH   2   3
ATOM      3  C   UNL     1      21.212   0.842 -20.665  1.00  0.00     0.000 C 
BRANCH   3   4
ATOM      4  C   UNL     1      20.641   1.463 -21.948  1.00  0.00     0.000 C 
BRANCH   4   5
ATOM      5  C   UNL     1      19.115   1.295 -22.017  1.00  0.00     0.000 C 
BRANCH   5   6
ATOM      6  C   UNL     1      18.452   2.323 -22.949  1.00  0.00     0.000 C 
BRANCH   6   7
ATOM      7  C   UNL     1      16.987   1.973 -23.265  1.00  0.00     0.000 C 
BRANCH   7   8
ATOM      8  C   UNL     1      16.708   0.464 -23.181  1.00  0.00     0.000 C 
BRANCH   8   9
ATOM      9  C   UNL     1      16.182  -0.111 -24.509  1.00  0.00     0.000 C 
BRANCH   9  10
ATOM     10  C   UNL     1      16.749   0.616 -25.737  1.00  0.00     0.000 C 
BRANCH  10  11
ATOM     11  C   UNL     1      17.854  -0.184 -26.442  1.00  0.00     0.000 C 
BRANCH  11  12
ATOM     12  C   UNL     1      19.237   0.180 -25.877  1.00  0.00     0.006 C 
BRANCH  12  13
ATOM     13  C   UNL     1      19.839  -0.954 -25.038  1.00  0.00     0.053 C 
BRANCH  13  14
ATOM     14  C   UNL     1      19.200  -2.274 -25.342  1.00  0.00     0.041 C 
ATOM     15  O   UNL     1      19.507  -2.902 -26.389  1.00  0.00    -0.550 OA
ATOM     16  O   UNL     1      18.264  -2.813 -24.465  1.00  0.00    -0.550 OA
ENDBRANCH  13  14
ENDBRANCH  12  13
ENDBRANCH  11  12
ENDBRANCH  10  11
ENDBRANCH   9  10
ENDBRANCH   8   9
ENDBRANCH   7   8
ENDBRANCH   6   7
ENDBRANCH   5   6
ENDBRANCH   4   5
ENDBRANCH   3   4
ENDBRANCH   2   3
ENDBRANCH   1   2
BRANCH   1  17
ATOM     17  C   UNL     1      19.783  -1.954 -18.344  1.00  0.00     0.000 C 
BRANCH  17  18
ATOM     18  C   UNL     1      20.078  -2.472 -16.931  1.00  0.00     0.000 C 
BRANCH  18  19
ATOM     19  C   UNL     1      21.005  -1.511 -16.172  1.00  0.00     0.000 C 
BRANCH  19  20
ATOM     20  C   UNL     1      20.316  -0.862 -14.954  1.00  0.00     0.000 C 
BRANCH  20  21
ATOM     21  C   UNL     1      19.302   0.236 -15.318  1.00  0.00     0.000 C 
BRANCH  21  22
ATOM     22  C   UNL     1      19.497   1.526 -14.511  1.00  0.00    -0.000 C 
BRANCH  22  23
ATOM     23  C   UNL     1      19.849   2.707 -15.428  1.00  0.00    -0.000 C 
BRANCH  23  24
ATOM     24  C   UNL     1      20.243   2.258 -16.848  1.00  0.00    -0.000 C 
BRANCH  24  25
ATOM     25  C   UNL     1      21.709   2.535 -17.238  1.00  0.00    -0.000 C 
BRANCH  25  26
ATOM     26  C   UNL     1      22.685   2.670 -16.056  1.00  0.00    -0.000 C 
BRANCH  26  27
ATOM     27  C   UNL     1      23.280   1.322 -15.618  1.00  0.00    -0.000 C 
BRANCH  27  28
ATOM     28  C   UNL     1      24.349   1.521 -14.533  1.00  0.00    -0.000 C 
BRANCH  28  29
ATOM     29  C   UNL     1      24.845   0.191 -13.943  1.00  0.00    -0.003 C 
ATOM     30  C   UNL     1      24.188  -1.028 -14.592  1.00  0.00     0.004 C 
ENDBRANCH  28  29
ENDBRANCH  27  28
ENDBRANCH  26  27
ENDBRANCH  25  26
ENDBRANCH  24  25
ENDBRANCH  23  24
ENDBRANCH  22  23
ENDBRANCH  21  22
ENDBRANCH  20  21
ENDBRANCH  19  20
ENDBRANCH  18  19
ENDBRANCH  17  18
ENDBRANCH   1  17
TORSDOF 26
ENDMDL
