MODEL 1
REMARK VINA RESULT:    -4.688      0.000      0.000
REMARK INTER + INTRA:          -6.164
REMARK INTER:                  -5.785
REMARK INTRA:                  -0.379
REMARK UNBOUND:                -0.379
REMARK SMILES Oc1cc(O)c2cc(O)c(-c3cc(O)c(O)c(O)c3)[o+]c2c1
REMARK SMILES IDX 10 1 20 2 21 3 22 4 2 5 3 6 4 7 6 8 7 9 8 10 11 11 12 12
REMARK SMILES IDX 13 13 19 14 15 15 17 16 14 17 16 19 18 21 9 23 1 25 5 27
REMARK H PARENT 14 18 16 20 18 22 9 24 1 26 5 28
REMARK Flexibility Score: inf
ROOT
ATOM      1  C   UNL     1     125.469  16.225 151.046  1.00  0.00     0.402 A 
ATOM      2  O   UNL     1     125.141  17.479 150.738  1.00  0.00    -0.202 OA
ATOM      3  C   UNL     1     126.015  18.480 150.744  1.00  0.00     0.368 A 
ATOM      4  C   UNL     1     125.590  19.771 150.413  1.00  0.00     0.162 A 
ATOM      5  C   UNL     1     126.500  20.836 150.419  1.00  0.00     0.128 A 
ATOM      6  C   UNL     1     127.838  20.607 150.756  1.00  0.00     0.093 A 
ATOM      7  C   UNL     1     128.280  19.319 151.089  1.00  0.00     0.136 A 
ATOM      8  C   UNL     1     127.365  18.249 151.084  1.00  0.00     0.125 A 
ATOM      9  C   UNL     1     127.751  16.941 151.400  1.00  0.00     0.078 A 
ATOM     10  C   UNL     1     126.804  15.912 151.373  1.00  0.00     0.223 A 
ENDROOT
BRANCH   1  11
ATOM     11  C   UNL     1     124.405  15.194 151.013  1.00  0.00     0.091 A 
ATOM     12  C   UNL     1     124.011  14.648 149.782  1.00  0.00     0.068 A 
ATOM     13  C   UNL     1     122.993  13.688 149.721  1.00  0.00     0.162 A 
ATOM     14  C   UNL     1     123.742  14.791 152.184  1.00  0.00     0.068 A 
ATOM     15  C   UNL     1     122.348  13.273 150.898  1.00  0.00     0.200 A 
ATOM     16  C   UNL     1     122.724  13.833 152.131  1.00  0.00     0.162 A 
BRANCH  13  17
ATOM     17  O   UNL     1     122.620  13.143 148.492  1.00  0.00    -0.504 OA
ATOM     18  H   UNL     1     121.711  12.716 148.355  1.00  0.00     0.293 HD
ENDBRANCH  13  17
BRANCH  15  19
ATOM     19  O   UNL     1     121.335  12.316 150.855  1.00  0.00    -0.502 OA
ATOM     20  H   UNL     1     121.295  11.542 151.509  1.00  0.00     0.293 HD
ENDBRANCH  15  19
BRANCH  16  21
ATOM     21  O   UNL     1     122.091  13.454 153.316  1.00  0.00    -0.504 OA
ATOM     22  H   UNL     1     122.580  13.420 154.201  1.00  0.00     0.293 HD
ENDBRANCH  16  21
ENDBRANCH   1  11
BRANCH  10  23
ATOM     23  O   UNL     1     127.191  14.598 151.638  1.00  0.00    -0.500 OA
ATOM     24  H   UNL     1     126.794  13.816 151.130  1.00  0.00     0.294 HD
ENDBRANCH  10  23
BRANCH   5  25
ATOM     25  O   UNL     1     126.085  22.125 150.090  1.00  0.00    -0.507 OA
ATOM     26  H   UNL     1     126.563  22.670 149.382  1.00  0.00     0.293 HD
ENDBRANCH   5  25
BRANCH   7  27
ATOM     27  O   UNL     1     129.618  19.104 151.422  1.00  0.00    -0.507 OA
ATOM     28  H   UNL     1     129.898  18.349 152.037  1.00  0.00     0.293 HD
ENDBRANCH   7  27
TORSDOF 7
ENDMDL
MODEL 2
REMARK VINA RESULT:    -4.471     11.628     14.013
REMARK INTER + INTRA:          -5.896
REMARK INTER:                  -5.710
REMARK INTRA:                  -0.186
REMARK UNBOUND:                -0.379
REMARK SMILES Oc1cc(O)c2cc(O)c(-c3cc(O)c(O)c(O)c3)[o+]c2c1
REMARK SMILES IDX 10 1 20 2 21 3 22 4 2 5 3 6 4 7 6 8 7 9 8 10 11 11 12 12
REMARK SMILES IDX 13 13 19 14 15 15 17 16 14 17 16 19 18 21 9 23 1 25 5 27
REMARK H PARENT 14 18 16 20 18 22 9 24 1 26 5 28
REMARK Flexibility Score: inf
ROOT
ATOM      1  C   UNL     1     116.312  16.275 141.207  1.00  0.00     0.402 A 
ATOM      2  O   UNL     1     116.137  17.462 140.629  1.00  0.00    -0.202 OA
ATOM      3  C   UNL     1     116.333  17.674 139.331  1.00  0.00     0.368 A 
ATOM      4  C   UNL     1     116.132  18.952 138.801  1.00  0.00     0.162 A 
ATOM      5  C   UNL     1     116.339  19.190 137.436  1.00  0.00     0.128 A 
ATOM      6  C   UNL     1     116.748  18.145 136.601  1.00  0.00     0.093 A 
ATOM      7  C   UNL     1     116.953  16.858 137.117  1.00  0.00     0.136 A 
ATOM      8  C   UNL     1     116.745  16.619 138.489  1.00  0.00     0.125 A 
ATOM      9  C   UNL     1     116.926  15.353 139.058  1.00  0.00     0.078 A 
ATOM     10  C   UNL     1     116.700  15.167 140.425  1.00  0.00     0.223 A 
ENDROOT
BRANCH   1  11
ATOM     11  C   UNL     1     116.071  16.163 142.665  1.00  0.00     0.091 A 
ATOM     12  C   UNL     1     116.888  16.877 143.555  1.00  0.00     0.068 A 
ATOM     13  C   UNL     1     116.695  16.774 144.939  1.00  0.00     0.162 A 
ATOM     14  C   UNL     1     115.076  15.315 143.179  1.00  0.00     0.068 A 
ATOM     15  C   UNL     1     115.685  15.939 145.446  1.00  0.00     0.200 A 
ATOM     16  C   UNL     1     114.878  15.206 144.559  1.00  0.00     0.162 A 
BRANCH  13  17
ATOM     17  O   UNL     1     117.505  17.498 145.813  1.00  0.00    -0.504 OA
ATOM     18  H   UNL     1     118.237  18.112 145.474  1.00  0.00     0.293 HD
ENDBRANCH  13  17
BRANCH  15  19
ATOM     19  O   UNL     1     115.477  15.827 146.821  1.00  0.00    -0.502 OA
ATOM     20  H   UNL     1     116.127  16.207 147.498  1.00  0.00     0.293 HD
ENDBRANCH  15  19
BRANCH  16  21
ATOM     21  O   UNL     1     113.877  14.357 145.032  1.00  0.00    -0.504 OA
ATOM     22  H   UNL     1     114.078  13.569 145.635  1.00  0.00     0.293 HD
ENDBRANCH  16  21
ENDBRANCH   1  11
BRANCH  10  23
ATOM     23  O   UNL     1     116.830  13.898 140.990  1.00  0.00    -0.500 OA
ATOM     24  H   UNL     1     117.500  13.226 140.636  1.00  0.00     0.294 HD
ENDBRANCH  10  23
BRANCH   5  25
ATOM     25  O   UNL     1     116.141  20.461 136.900  1.00  0.00    -0.507 OA
ATOM     26  H   UNL     1     116.135  20.617 135.899  1.00  0.00     0.293 HD
ENDBRANCH   5  25
BRANCH   7  27
ATOM     27  O   UNL     1     117.358  15.823 136.273  1.00  0.00    -0.507 OA
ATOM     28  H   UNL     1     117.998  15.986 135.504  1.00  0.00     0.293 HD
ENDBRANCH   7  27
TORSDOF 7
ENDMDL
MODEL 3
REMARK VINA RESULT:    -4.277     14.397     15.966
REMARK INTER + INTRA:          -5.657
REMARK INTER:                  -5.272
REMARK INTRA:                  -0.384
REMARK UNBOUND:                -0.379
REMARK SMILES Oc1cc(O)c2cc(O)c(-c3cc(O)c(O)c(O)c3)[o+]c2c1
REMARK SMILES IDX 10 1 20 2 21 3 22 4 2 5 3 6 4 7 6 8 7 9 8 10 11 11 12 12
REMARK SMILES IDX 13 13 19 14 15 15 17 16 14 17 16 19 18 21 9 23 1 25 5 27
REMARK H PARENT 14 18 16 20 18 22 9 24 1 26 5 28
REMARK Flexibility Score: inf
ROOT
ATOM      1  C   UNL     1     129.921   5.981 140.203  1.00  0.00     0.402 A 
ATOM      2  O   UNL     1     130.559   6.827 141.011  1.00  0.00    -0.202 OA
ATOM      3  C   UNL     1     131.698   6.526 141.626  1.00  0.00     0.368 A 
ATOM      4  C   UNL     1     132.303   7.469 142.462  1.00  0.00     0.162 A 
ATOM      5  C   UNL     1     133.502   7.162 143.118  1.00  0.00     0.128 A 
ATOM      6  C   UNL     1     134.096   5.908 142.936  1.00  0.00     0.093 A 
ATOM      7  C   UNL     1     133.501   4.953 142.100  1.00  0.00     0.136 A 
ATOM      8  C   UNL     1     132.296   5.261 141.441  1.00  0.00     0.125 A 
ATOM      9  C   UNL     1     131.663   4.350 140.588  1.00  0.00     0.078 A 
ATOM     10  C   UNL     1     130.470   4.707 139.952  1.00  0.00     0.223 A 
ENDROOT
BRANCH   1  11
ATOM     11  C   UNL     1     128.652   6.428 139.582  1.00  0.00     0.091 A 
ATOM     12  C   UNL     1     128.688   7.114 138.358  1.00  0.00     0.068 A 
ATOM     13  C   UNL     1     127.505   7.565 137.759  1.00  0.00     0.162 A 
ATOM     14  C   UNL     1     127.416   6.227 140.218  1.00  0.00     0.068 A 
ATOM     15  C   UNL     1     126.270   7.344 138.390  1.00  0.00     0.200 A 
ATOM     16  C   UNL     1     126.230   6.676 139.627  1.00  0.00     0.162 A 
BRANCH  13  17
ATOM     17  O   UNL     1     127.553   8.234 136.536  1.00  0.00    -0.504 OA
ATOM     18  H   UNL     1     127.351   9.225 136.465  1.00  0.00     0.293 HD
ENDBRANCH  13  17
BRANCH  15  19
ATOM     19  O   UNL     1     125.082   7.784 137.806  1.00  0.00    -0.502 OA
ATOM     20  H   UNL     1     125.068   8.476 137.066  1.00  0.00     0.293 HD
ENDBRANCH  15  19
BRANCH  16  21
ATOM     21  O   UNL     1     125.021   6.455 140.286  1.00  0.00    -0.504 OA
ATOM     22  H   UNL     1     124.331   7.186 140.408  1.00  0.00     0.293 HD
ENDBRANCH  16  21
ENDBRANCH   1  11
BRANCH  10  23
ATOM     23  O   UNL     1     129.860   3.823 139.062  1.00  0.00    -0.500 OA
ATOM     24  H   UNL     1     129.813   2.829 139.250  1.00  0.00     0.294 HD
ENDBRANCH  10  23
BRANCH   5  25
ATOM     25  O   UNL     1     134.112   8.096 143.954  1.00  0.00    -0.507 OA
ATOM     26  H   UNL     1     133.606   8.535 144.714  1.00  0.00     0.293 HD
ENDBRANCH   5  25
BRANCH   7  27
ATOM     27  O   UNL     1     134.105   3.707 141.926  1.00  0.00    -0.507 OA
ATOM     28  H   UNL     1     134.978   3.471 142.384  1.00  0.00     0.293 HD
ENDBRANCH   7  27
TORSDOF 7
ENDMDL
MODEL 4
REMARK VINA RESULT:    -4.259     14.494     16.633
REMARK INTER + INTRA:          -5.634
REMARK INTER:                  -5.288
REMARK INTRA:                  -0.345
REMARK UNBOUND:                -0.379
REMARK SMILES Oc1cc(O)c2cc(O)c(-c3cc(O)c(O)c(O)c3)[o+]c2c1
REMARK SMILES IDX 10 1 20 2 21 3 22 4 2 5 3 6 4 7 6 8 7 9 8 10 11 11 12 12
REMARK SMILES IDX 13 13 19 14 15 15 17 16 14 17 16 19 18 21 9 23 1 25 5 27
REMARK H PARENT 14 18 16 20 18 22 9 24 1 26 5 28
REMARK Flexibility Score: inf
ROOT
ATOM      1  C   UNL     1     126.860   8.102 137.238  1.00  0.00     0.402 A 
ATOM      2  O   UNL     1     126.862   7.877 138.551  1.00  0.00    -0.202 OA
ATOM      3  C   UNL     1     127.890   7.334 139.194  1.00  0.00     0.368 A 
ATOM      4  C   UNL     1     127.812   7.126 140.575  1.00  0.00     0.162 A 
ATOM      5  C   UNL     1     128.887   6.550 141.263  1.00  0.00     0.128 A 
ATOM      6  C   UNL     1     130.044   6.183 140.568  1.00  0.00     0.093 A 
ATOM      7  C   UNL     1     130.138   6.386 139.184  1.00  0.00     0.136 A 
ATOM      8  C   UNL     1     129.057   6.964 138.491  1.00  0.00     0.125 A 
ATOM      9  C   UNL     1     129.098   7.198 137.112  1.00  0.00     0.078 A 
ATOM     10  C   UNL     1     128.000   7.780 136.473  1.00  0.00     0.223 A 
ENDROOT
BRANCH   1  11
ATOM     11  C   UNL     1     125.650   8.706 136.633  1.00  0.00     0.091 A 
ATOM     12  C   UNL     1     125.369  10.062 136.859  1.00  0.00     0.068 A 
ATOM     13  C   UNL     1     124.221  10.653 136.315  1.00  0.00     0.162 A 
ATOM     14  C   UNL     1     124.747   7.936 135.881  1.00  0.00     0.068 A 
ATOM     15  C   UNL     1     123.332   9.882 135.547  1.00  0.00     0.200 A 
ATOM     16  C   UNL     1     123.598   8.518 135.336  1.00  0.00     0.162 A 
BRANCH  13  17
ATOM     17  O   UNL     1     123.960  12.005 136.535  1.00  0.00    -0.504 OA
ATOM     18  H   UNL     1     123.183  12.309 137.111  1.00  0.00     0.293 HD
ENDBRANCH  13  17
BRANCH  15  19
ATOM     19  O   UNL     1     122.186  10.455 134.995  1.00  0.00    -0.502 OA
ATOM     20  H   UNL     1     121.887  11.394 135.228  1.00  0.00     0.293 HD
ENDBRANCH  15  19
BRANCH  16  21
ATOM     21  O   UNL     1     122.727   7.722 134.591  1.00  0.00    -0.504 OA
ATOM     22  H   UNL     1     122.924   6.750 134.389  1.00  0.00     0.293 HD
ENDBRANCH  16  21
ENDBRANCH   1  11
BRANCH  10  23
ATOM     23  O   UNL     1     128.053   8.063 135.108  1.00  0.00    -0.500 OA
ATOM     24  H   UNL     1     128.586   8.846 134.749  1.00  0.00     0.294 HD
ENDBRANCH  10  23
BRANCH   5  25
ATOM     25  O   UNL     1     128.817   6.339 142.639  1.00  0.00    -0.507 OA
ATOM     26  H   UNL     1     128.897   7.106 143.296  1.00  0.00     0.293 HD
ENDBRANCH   5  25
BRANCH   7  27
ATOM     27  O   UNL     1     131.299   6.016 138.502  1.00  0.00    -0.507 OA
ATOM     28  H   UNL     1     132.116   5.673 138.993  1.00  0.00     0.293 HD
ENDBRANCH   7  27
TORSDOF 7
ENDMDL
MODEL 5
REMARK VINA RESULT:    -4.251     11.371     13.899
REMARK INTER + INTRA:          -5.625
REMARK INTER:                  -5.351
REMARK INTRA:                  -0.273
REMARK UNBOUND:                -0.379
REMARK SMILES Oc1cc(O)c2cc(O)c(-c3cc(O)c(O)c(O)c3)[o+]c2c1
REMARK SMILES IDX 10 1 20 2 21 3 22 4 2 5 3 6 4 7 6 8 7 9 8 10 11 11 12 12
REMARK SMILES IDX 13 13 19 14 15 15 17 16 14 17 16 19 18 21 9 23 1 25 5 27
REMARK H PARENT 14 18 16 20 18 22 9 24 1 26 5 28
REMARK Flexibility Score: inf
ROOT
ATOM      1  C   UNL     1     116.011  16.834 141.855  1.00  0.00     0.402 A 
ATOM      2  O   UNL     1     116.386  16.128 140.789  1.00  0.00    -0.202 OA
ATOM      3  C   UNL     1     116.447  16.639 139.564  1.00  0.00     0.368 A 
ATOM      4  C   UNL     1     116.846  15.829 138.496  1.00  0.00     0.162 A 
ATOM      5  C   UNL     1     116.911  16.355 137.199  1.00  0.00     0.128 A 
ATOM      6  C   UNL     1     116.576  17.695 136.972  1.00  0.00     0.093 A 
ATOM      7  C   UNL     1     116.175  18.519 138.033  1.00  0.00     0.136 A 
ATOM      8  C   UNL     1     116.109  17.990 139.336  1.00  0.00     0.125 A 
ATOM      9  C   UNL     1     115.724  18.768 140.434  1.00  0.00     0.078 A 
ATOM     10  C   UNL     1     115.681  18.197 141.709  1.00  0.00     0.223 A 
ENDROOT
BRANCH   1  11
ATOM     11  C   UNL     1     115.973  16.151 143.169  1.00  0.00     0.091 A 
ATOM     12  C   UNL     1     114.958  15.218 143.432  1.00  0.00     0.068 A 
ATOM     13  C   UNL     1     114.887  14.573 144.674  1.00  0.00     0.162 A 
ATOM     14  C   UNL     1     116.899  16.458 144.180  1.00  0.00     0.068 A 
ATOM     15  C   UNL     1     115.829  14.869 145.674  1.00  0.00     0.200 A 
ATOM     16  C   UNL     1     116.835  15.819 145.422  1.00  0.00     0.162 A 
BRANCH  13  17
ATOM     17  O   UNL     1     113.882  13.638 144.919  1.00  0.00    -0.504 OA
ATOM     18  H   UNL     1     112.936  13.922 145.145  1.00  0.00     0.293 HD
ENDBRANCH  13  17
BRANCH  15  19
ATOM     19  O   UNL     1     115.775  14.234 146.914  1.00  0.00    -0.502 OA
ATOM     20  H   UNL     1     115.414  14.695 147.741  1.00  0.00     0.293 HD
ENDBRANCH  15  19
BRANCH  16  21
ATOM     21  O   UNL     1     117.775  16.146 146.400  1.00  0.00    -0.504 OA
ATOM     22  H   UNL     1     118.171  15.452 147.021  1.00  0.00     0.293 HD
ENDBRANCH  16  21
ENDBRANCH   1  11
BRANCH  10  23
ATOM     23  O   UNL     1     115.347  18.978 142.815  1.00  0.00    -0.500 OA
ATOM     24  H   UNL     1     115.180  19.974 142.731  1.00  0.00     0.294 HD
ENDBRANCH  10  23
BRANCH   5  25
ATOM     25  O   UNL     1     117.308  15.556 136.129  1.00  0.00    -0.507 OA
ATOM     26  H   UNL     1     117.322  14.546 136.201  1.00  0.00     0.293 HD
ENDBRANCH   5  25
BRANCH   7  27
ATOM     27  O   UNL     1     115.846  19.854 137.793  1.00  0.00    -0.507 OA
ATOM     28  H   UNL     1     115.018  20.277 138.196  1.00  0.00     0.293 HD
ENDBRANCH   7  27
TORSDOF 7
ENDMDL
MODEL 6
REMARK VINA RESULT:    -4.196     11.331     14.340
REMARK INTER + INTRA:          -5.556
REMARK INTER:                  -5.268
REMARK INTRA:                  -0.288
REMARK UNBOUND:                -0.379
REMARK SMILES Oc1cc(O)c2cc(O)c(-c3cc(O)c(O)c(O)c3)[o+]c2c1
REMARK SMILES IDX 10 1 20 2 21 3 22 4 2 5 3 6 4 7 6 8 7 9 8 10 11 11 12 12
REMARK SMILES IDX 13 13 19 14 15 15 17 16 14 17 16 19 18 21 9 23 1 25 5 27
REMARK H PARENT 14 18 16 20 18 22 9 24 1 26 5 28
REMARK Flexibility Score: inf
ROOT
ATOM      1  C   UNL     1     115.875  16.396 141.387  1.00  0.00     0.402 A 
ATOM      2  O   UNL     1     116.574  16.818 142.440  1.00  0.00    -0.202 OA
ATOM      3  C   UNL     1     116.391  16.349 143.670  1.00  0.00     0.368 A 
ATOM      4  C   UNL     1     117.163  16.848 144.723  1.00  0.00     0.162 A 
ATOM      5  C   UNL     1     116.976  16.364 146.025  1.00  0.00     0.128 A 
ATOM      6  C   UNL     1     116.015  15.378 146.271  1.00  0.00     0.093 A 
ATOM      7  C   UNL     1     115.234  14.867 145.224  1.00  0.00     0.136 A 
ATOM      8  C   UNL     1     115.421  15.353 143.916  1.00  0.00     0.125 A 
ATOM      9  C   UNL     1     114.676  14.874 142.833  1.00  0.00     0.078 A 
ATOM     10  C   UNL     1     114.905  15.387 141.552  1.00  0.00     0.223 A 
ENDROOT
BRANCH   1  11
ATOM     11  C   UNL     1     116.164  17.002 140.066  1.00  0.00     0.091 A 
ATOM     12  C   UNL     1     116.858  16.256 139.102  1.00  0.00     0.068 A 
ATOM     13  C   UNL     1     117.162  16.811 137.852  1.00  0.00     0.162 A 
ATOM     14  C   UNL     1     115.805  18.329 139.776  1.00  0.00     0.068 A 
ATOM     15  C   UNL     1     116.783  18.133 137.561  1.00  0.00     0.200 A 
ATOM     16  C   UNL     1     116.106  18.892 138.532  1.00  0.00     0.162 A 
BRANCH  13  17
ATOM     17  O   UNL     1     117.841  16.055 136.898  1.00  0.00    -0.504 OA
ATOM     18  H   UNL     1     118.787  16.282 136.615  1.00  0.00     0.293 HD
ENDBRANCH  13  17
BRANCH  15  19
ATOM     19  O   UNL     1     117.074  18.701 136.321  1.00  0.00    -0.502 OA
ATOM     20  H   UNL     1     117.328  19.676 136.220  1.00  0.00     0.293 HD
ENDBRANCH  15  19
BRANCH  16  21
ATOM     21  O   UNL     1     115.730  20.211 138.279  1.00  0.00    -0.504 OA
ATOM     22  H   UNL     1     115.267  20.783 138.974  1.00  0.00     0.293 HD
ENDBRANCH  16  21
ENDBRANCH   1  11
BRANCH  10  23
ATOM     23  O   UNL     1     114.203  14.879 140.459  1.00  0.00    -0.500 OA
ATOM     24  H   UNL     1     113.624  15.474 139.878  1.00  0.00     0.294 HD
ENDBRANCH  10  23
BRANCH   5  25
ATOM     25  O   UNL     1     117.742  16.856 147.080  1.00  0.00    -0.507 OA
ATOM     26  H   UNL     1     117.519  16.634 148.043  1.00  0.00     0.293 HD
ENDBRANCH   5  25
BRANCH   7  27
ATOM     27  O   UNL     1     114.281  13.881 145.483  1.00  0.00    -0.507 OA
ATOM     28  H   UNL     1     113.942  13.704 146.422  1.00  0.00     0.293 HD
ENDBRANCH   7  27
TORSDOF 7
ENDMDL
MODEL 7
REMARK VINA RESULT:    -4.166     14.725     16.154
REMARK INTER + INTRA:          -5.519
REMARK INTER:                  -5.142
REMARK INTRA:                  -0.377
REMARK UNBOUND:                -0.379
REMARK SMILES Oc1cc(O)c2cc(O)c(-c3cc(O)c(O)c(O)c3)[o+]c2c1
REMARK SMILES IDX 10 1 20 2 21 3 22 4 2 5 3 6 4 7 6 8 7 9 8 10 11 11 12 12
REMARK SMILES IDX 13 13 19 14 15 15 17 16 14 17 16 19 18 21 9 23 1 25 5 27
REMARK H PARENT 14 18 16 20 18 22 9 24 1 26 5 28
REMARK Flexibility Score: inf
ROOT
ATOM      1  C   UNL     1     116.871   7.103 141.881  1.00  0.00     0.402 A 
ATOM      2  O   UNL     1     117.326   7.067 140.629  1.00  0.00    -0.202 OA
ATOM      3  C   UNL     1     117.476   8.154 139.879  1.00  0.00     0.368 A 
ATOM      4  C   UNL     1     117.956   8.032 138.572  1.00  0.00     0.162 A 
ATOM      5  C   UNL     1     118.115   9.170 137.770  1.00  0.00     0.128 A 
ATOM      6  C   UNL     1     117.793  10.432 138.279  1.00  0.00     0.093 A 
ATOM      7  C   UNL     1     117.312  10.571 139.589  1.00  0.00     0.136 A 
ATOM      8  C   UNL     1     117.151   9.428 140.395  1.00  0.00     0.125 A 
ATOM      9  C   UNL     1     116.683   9.507 141.711  1.00  0.00     0.078 A 
ATOM     10  C   UNL     1     116.548   8.342 142.472  1.00  0.00     0.223 A 
ENDROOT
BRANCH   1  11
ATOM     11  C   UNL     1     116.738   5.823 142.615  1.00  0.00     0.091 A 
ATOM     12  C   UNL     1     117.878   5.229 143.178  1.00  0.00     0.068 A 
ATOM     13  C   UNL     1     117.784   4.008 143.859  1.00  0.00     0.162 A 
ATOM     14  C   UNL     1     115.503   5.160 142.712  1.00  0.00     0.068 A 
ATOM     15  C   UNL     1     116.542   3.361 143.971  1.00  0.00     0.200 A 
ATOM     16  C   UNL     1     115.401   3.941 143.390  1.00  0.00     0.162 A 
BRANCH  13  17
ATOM     17  O   UNL     1     118.922   3.435 144.425  1.00  0.00    -0.504 OA
ATOM     18  H   UNL     1     119.849   3.617 144.057  1.00  0.00     0.293 HD
ENDBRANCH  13  17
BRANCH  15  19
ATOM     19  O   UNL     1     116.430   2.147 144.648  1.00  0.00    -0.502 OA
ATOM     20  H   UNL     1     115.543   1.668 144.755  1.00  0.00     0.293 HD
ENDBRANCH  15  19
BRANCH  16  21
ATOM     21  O   UNL     1     114.156   3.315 143.470  1.00  0.00    -0.504 OA
ATOM     22  H   UNL     1     113.795   2.944 144.339  1.00  0.00     0.293 HD
ENDBRANCH  16  21
ENDBRANCH   1  11
BRANCH  10  23
ATOM     23  O   UNL     1     116.130   8.418 143.800  1.00  0.00    -0.500 OA
ATOM     24  H   UNL     1     116.734   8.132 144.564  1.00  0.00     0.294 HD
ENDBRANCH  10  23
BRANCH   5  25
ATOM     25  O   UNL     1     118.592   9.057 136.465  1.00  0.00    -0.507 OA
ATOM     26  H   UNL     1     119.017   8.200 136.131  1.00  0.00     0.293 HD
ENDBRANCH   5  25
BRANCH   7  27
ATOM     27  O   UNL     1     116.997  11.836 140.085  1.00  0.00    -0.507 OA
ATOM     28  H   UNL     1     116.540  12.534 139.510  1.00  0.00     0.293 HD
ENDBRANCH   7  27
TORSDOF 7
ENDMDL
MODEL 8
REMARK VINA RESULT:    -4.132     14.740     16.634
REMARK INTER + INTRA:          -5.477
REMARK INTER:                  -5.219
REMARK INTRA:                  -0.258
REMARK UNBOUND:                -0.379
REMARK SMILES Oc1cc(O)c2cc(O)c(-c3cc(O)c(O)c(O)c3)[o+]c2c1
REMARK SMILES IDX 10 1 20 2 21 3 22 4 2 5 3 6 4 7 6 8 7 9 8 10 11 11 12 12
REMARK SMILES IDX 13 13 19 14 15 15 17 16 14 17 16 19 18 21 9 23 1 25 5 27
REMARK H PARENT 14 18 16 20 18 22 9 24 1 26 5 28
REMARK Flexibility Score: inf
ROOT
ATOM      1  C   UNL     1     125.794   7.276 138.011  1.00  0.00     0.402 A 
ATOM      2  O   UNL     1     126.740   7.580 138.899  1.00  0.00    -0.202 OA
ATOM      3  C   UNL     1     127.331   6.674 139.671  1.00  0.00     0.368 A 
ATOM      4  C   UNL     1     128.313   7.076 140.582  1.00  0.00     0.162 A 
ATOM      5  C   UNL     1     128.941   6.132 141.405  1.00  0.00     0.128 A 
ATOM      6  C   UNL     1     128.584   4.782 141.314  1.00  0.00     0.093 A 
ATOM      7  C   UNL     1     127.602   4.363 140.405  1.00  0.00     0.136 A 
ATOM      8  C   UNL     1     126.971   5.313 139.578  1.00  0.00     0.125 A 
ATOM      9  C   UNL     1     125.991   4.952 138.647  1.00  0.00     0.078 A 
ATOM     10  C   UNL     1     125.399   5.932 137.846  1.00  0.00     0.223 A 
ENDROOT
BRANCH   1  11
ATOM     11  C   UNL     1     125.203   8.374 137.213  1.00  0.00     0.091 A 
ATOM     12  C   UNL     1     126.023   9.123 136.355  1.00  0.00     0.068 A 
ATOM     13  C   UNL     1     125.494  10.180 135.605  1.00  0.00     0.162 A 
ATOM     14  C   UNL     1     123.847   8.720 137.337  1.00  0.00     0.068 A 
ATOM     15  C   UNL     1     124.132  10.508 135.718  1.00  0.00     0.200 A 
ATOM     16  C   UNL     1     123.310   9.775 136.592  1.00  0.00     0.162 A 
BRANCH  13  17
ATOM     17  O   UNL     1     126.317  10.908 134.746  1.00  0.00    -0.504 OA
ATOM     18  H   UNL     1     127.236  10.574 134.482  1.00  0.00     0.293 HD
ENDBRANCH  13  17
BRANCH  15  19
ATOM     19  O   UNL     1     123.587  11.556 134.975  1.00  0.00    -0.502 OA
ATOM     20  H   UNL     1     122.719  11.460 134.463  1.00  0.00     0.293 HD
ENDBRANCH  15  19
BRANCH  16  21
ATOM     21  O   UNL     1     121.958  10.086 136.738  1.00  0.00    -0.504 OA
ATOM     22  H   UNL     1     121.333   9.523 137.301  1.00  0.00     0.293 HD
ENDBRANCH  16  21
ENDBRANCH   1  11
BRANCH  10  23
ATOM     23  O   UNL     1     124.458   5.574 136.881  1.00  0.00    -0.500 OA
ATOM     24  H   UNL     1     123.569   5.158 137.135  1.00  0.00     0.294 HD
ENDBRANCH  10  23
BRANCH   5  25
ATOM     25  O   UNL     1     129.920   6.524 142.315  1.00  0.00    -0.507 OA
ATOM     26  H   UNL     1     130.577   7.264 142.099  1.00  0.00     0.293 HD
ENDBRANCH   5  25
BRANCH   7  27
ATOM     27  O   UNL     1     127.258   3.014 140.323  1.00  0.00    -0.507 OA
ATOM     28  H   UNL     1     126.547   2.610 140.922  1.00  0.00     0.293 HD
ENDBRANCH   7  27
TORSDOF 7
ENDMDL
MODEL 9
REMARK VINA RESULT:    -4.112      5.976      9.393
REMARK INTER + INTRA:          -5.453
REMARK INTER:                  -5.075
REMARK INTRA:                  -0.377
REMARK UNBOUND:                -0.379
REMARK SMILES Oc1cc(O)c2cc(O)c(-c3cc(O)c(O)c(O)c3)[o+]c2c1
REMARK SMILES IDX 10 1 20 2 21 3 22 4 2 5 3 6 4 7 6 8 7 9 8 10 11 11 12 12
REMARK SMILES IDX 13 13 19 14 15 15 17 16 14 17 16 19 18 21 9 23 1 25 5 27
REMARK H PARENT 14 18 16 20 18 22 9 24 1 26 5 28
REMARK Flexibility Score: inf
ROOT
ATOM      1  C   UNL     1     129.831  12.155 152.273  1.00  0.00     0.402 A 
ATOM      2  O   UNL     1     130.851  11.659 151.574  1.00  0.00    -0.202 OA
ATOM      3  C   UNL     1     131.147  10.364 151.540  1.00  0.00     0.368 A 
ATOM      4  C   UNL     1     132.237   9.922 150.784  1.00  0.00     0.162 A 
ATOM      5  C   UNL     1     132.562   8.560 150.744  1.00  0.00     0.128 A 
ATOM      6  C   UNL     1     131.792   7.638 151.460  1.00  0.00     0.093 A 
ATOM      7  C   UNL     1     130.694   8.065 152.222  1.00  0.00     0.136 A 
ATOM      8  C   UNL     1     130.369   9.434 152.263  1.00  0.00     0.125 A 
ATOM      9  C   UNL     1     129.280   9.917 152.999  1.00  0.00     0.078 A 
ATOM     10  C   UNL     1     128.995  11.285 153.001  1.00  0.00     0.223 A 
ENDROOT
BRANCH   1  11
ATOM     11  C   UNL     1     129.606  13.619 152.240  1.00  0.00     0.091 A 
ATOM     12  C   UNL     1     130.245  14.437 153.185  1.00  0.00     0.068 A 
ATOM     13  C   UNL     1     130.034  15.821 153.189  1.00  0.00     0.162 A 
ATOM     14  C   UNL     1     128.723  14.203 151.316  1.00  0.00     0.068 A 
ATOM     15  C   UNL     1     129.165  16.402 152.250  1.00  0.00     0.200 A 
ATOM     16  C   UNL     1     128.506  15.584 151.314  1.00  0.00     0.162 A 
BRANCH  13  17
ATOM     17  O   UNL     1     130.685  16.624 154.125  1.00  0.00    -0.504 OA
ATOM     18  H   UNL     1     130.557  17.630 154.142  1.00  0.00     0.293 HD
ENDBRANCH  13  17
BRANCH  15  19
ATOM     19  O   UNL     1     128.946  17.779 152.237  1.00  0.00    -0.502 OA
ATOM     20  H   UNL     1     129.599  18.426 151.812  1.00  0.00     0.293 HD
ENDBRANCH  15  19
BRANCH  16  21
ATOM     21  O   UNL     1     127.625  16.128 150.379  1.00  0.00    -0.504 OA
ATOM     22  H   UNL     1     127.895  16.881 149.758  1.00  0.00     0.293 HD
ENDBRANCH  16  21
ENDBRANCH   1  11
BRANCH  10  23
ATOM     23  O   UNL     1     127.882  11.767 153.691  1.00  0.00    -0.500 OA
ATOM     24  H   UNL     1     127.965  12.504 154.382  1.00  0.00     0.294 HD
ENDBRANCH  10  23
BRANCH   5  25
ATOM     25  O   UNL     1     133.648   8.112 149.993  1.00  0.00    -0.507 OA
ATOM     26  H   UNL     1     134.331   7.473 150.382  1.00  0.00     0.293 HD
ENDBRANCH   5  25
BRANCH   7  27
ATOM     27  O   UNL     1     129.933   7.135 152.930  1.00  0.00    -0.507 OA
ATOM     28  H   UNL     1     129.983   6.143 152.727  1.00  0.00     0.293 HD
ENDBRANCH   7  27
TORSDOF 7
ENDMDL
