MODEL 1
REMARK VINA RESULT:    -4.920      0.000      0.000
REMARK INTER + INTRA:          -5.405
REMARK INTER:                  -5.207
REMARK INTRA:                  -0.198
REMARK UNBOUND:                -0.198
REMARK SMILES CC1=CC[C@@H](C(C)C)C=C1
REMARK SMILES IDX 1 1 2 2 3 3 4 4 5 5 9 6 10 7 6 8 7 9 8 10
REMARK H PARENT
REMARK Flexibility Score: inf
ROOT
ATOM      1  C   UNL     1      -1.586  -1.256  14.116  1.00  0.00     0.044 C 
ATOM      2  C   UNL     1      -1.391   0.013  13.342  1.00  0.00    -0.055 C 
ATOM      3  C   UNL     1      -1.287  -0.016  12.005  1.00  0.00    -0.023 C 
ATOM      4  C   UNL     1      -1.231   1.262  11.208  1.00  0.00     0.035 C 
ATOM      5  C   UNL     1      -0.497   2.382  11.990  1.00  0.00     0.018 C 
ATOM      6  C   UNL     1      -1.040   2.435  13.408  1.00  0.00    -0.023 C 
ATOM      7  C   UNL     1      -1.396   1.313  14.045  1.00  0.00    -0.001 C 
ENDROOT
BRANCH   5   8
ATOM      8  C   UNL     1      -0.591   3.777  11.292  1.00  0.00    -0.010 C 
ATOM      9  C   UNL     1      -0.253   4.937  12.246  1.00  0.00     0.008 C 
ATOM     10  C   UNL     1      -1.999   4.016  10.712  1.00  0.00     0.008 C 
ENDBRANCH   5   8
TORSDOF 1
ENDMDL
MODEL 2
REMARK VINA RESULT:    -4.629      1.577      4.483
REMARK INTER + INTRA:          -5.097
REMARK INTER:                  -4.954
REMARK INTRA:                  -0.143
REMARK UNBOUND:                -0.198
REMARK SMILES CC1=CC[C@@H](C(C)C)C=C1
REMARK SMILES IDX 1 1 2 2 3 3 4 4 5 5 9 6 10 7 6 8 7 9 8 10
REMARK H PARENT
REMARK Flexibility Score: inf
ROOT
ATOM      1  C   UNL     1       0.180   5.494  14.899  1.00  0.00     0.044 C 
ATOM      2  C   UNL     1      -0.407   4.165  14.525  1.00  0.00    -0.055 C 
ATOM      3  C   UNL     1      -1.449   3.667  15.207  1.00  0.00    -0.023 C 
ATOM      4  C   UNL     1      -2.134   2.404  14.754  1.00  0.00     0.035 C 
ATOM      5  C   UNL     1      -1.127   1.419  14.105  1.00  0.00     0.018 C 
ATOM      6  C   UNL     1      -0.266   2.175  13.107  1.00  0.00    -0.023 C 
ATOM      7  C   UNL     1       0.110   3.436  13.348  1.00  0.00    -0.001 C 
ENDROOT
BRANCH   5   8
ATOM      8  C   UNL     1      -1.820   0.186  13.440  1.00  0.00    -0.010 C 
ATOM      9  C   UNL     1      -1.579  -1.118  14.221  1.00  0.00     0.008 C 
ATOM     10  C   UNL     1      -1.331  -0.014  11.993  1.00  0.00     0.008 C 
ENDBRANCH   5   8
TORSDOF 1
ENDMDL
MODEL 3
REMARK VINA RESULT:    -4.585      0.464      1.625
REMARK INTER + INTRA:          -5.051
REMARK INTER:                  -4.922
REMARK INTRA:                  -0.129
REMARK UNBOUND:                -0.198
REMARK SMILES CC1=CC[C@@H](C(C)C)C=C1
REMARK SMILES IDX 1 1 2 2 3 3 4 4 5 5 9 6 10 7 6 8 7 9 8 10
REMARK H PARENT
REMARK Flexibility Score: inf
ROOT
ATOM      1  C   UNL     1      -1.720  -1.135  14.083  1.00  0.00     0.044 C 
ATOM      2  C   UNL     1      -1.436   0.195  13.450  1.00  0.00    -0.055 C 
ATOM      3  C   UNL     1      -1.325   1.297  14.206  1.00  0.00    -0.023 C 
ATOM      4  C   UNL     1      -0.903   2.609  13.598  1.00  0.00     0.035 C 
ATOM      5  C   UNL     1      -1.424   2.751  12.144  1.00  0.00     0.018 C 
ATOM      6  C   UNL     1      -1.125   1.469  11.383  1.00  0.00    -0.023 C 
ATOM      7  C   UNL     1      -1.194   0.281  11.995  1.00  0.00    -0.001 C 
ENDROOT
BRANCH   5   8
ATOM      8  C   UNL     1      -0.843   3.999  11.405  1.00  0.00    -0.010 C 
ATOM      9  C   UNL     1      -0.103   4.956  12.358  1.00  0.00     0.008 C 
ATOM     10  C   UNL     1      -1.955   4.788  10.687  1.00  0.00     0.008 C 
ENDBRANCH   5   8
TORSDOF 1
ENDMDL
MODEL 4
REMARK VINA RESULT:    -4.450      1.429      2.519
REMARK INTER + INTRA:          -4.908
REMARK INTER:                  -4.708
REMARK INTRA:                  -0.199
REMARK UNBOUND:                -0.198
REMARK SMILES CC1=CC[C@@H](C(C)C)C=C1
REMARK SMILES IDX 1 1 2 2 3 3 4 4 5 5 9 6 10 7 6 8 7 9 8 10
REMARK H PARENT
REMARK Flexibility Score: inf
ROOT
ATOM      1  C   UNL     1      -1.749  -0.916  14.045  1.00  0.00     0.044 C 
ATOM      2  C   UNL     1      -1.646   0.579  13.988  1.00  0.00    -0.055 C 
ATOM      3  C   UNL     1      -2.320   1.341  14.863  1.00  0.00    -0.023 C 
ATOM      4  C   UNL     1      -2.115   2.833  14.904  1.00  0.00     0.035 C 
ATOM      5  C   UNL     1      -1.821   3.401  13.492  1.00  0.00     0.018 C 
ATOM      6  C   UNL     1      -0.761   2.541  12.822  1.00  0.00    -0.023 C 
ATOM      7  C   UNL     1      -0.732   1.218  13.019  1.00  0.00    -0.001 C 
ENDROOT
BRANCH   5   8
ATOM      8  C   UNL     1      -1.402   4.906  13.513  1.00  0.00    -0.010 C 
ATOM      9  C   UNL     1      -0.300   5.226  12.487  1.00  0.00     0.008 C 
ATOM     10  C   UNL     1      -0.907   5.327  14.909  1.00  0.00     0.008 C 
ENDBRANCH   5   8
TORSDOF 1
ENDMDL
MODEL 5
REMARK VINA RESULT:    -4.429      1.193      1.592
REMARK INTER + INTRA:          -4.886
REMARK INTER:                  -4.687
REMARK INTRA:                  -0.198
REMARK UNBOUND:                -0.198
REMARK SMILES CC1=CC[C@@H](C(C)C)C=C1
REMARK SMILES IDX 1 1 2 2 3 3 4 4 5 5 9 6 10 7 6 8 7 9 8 10
REMARK H PARENT
REMARK Flexibility Score: inf
ROOT
ATOM      1  C   UNL     1      -1.955  -0.957  14.094  1.00  0.00     0.044 C 
ATOM      2  C   UNL     1      -1.395   0.404  13.807  1.00  0.00    -0.055 C 
ATOM      3  C   UNL     1      -1.001   0.728  12.566  1.00  0.00    -0.023 C 
ATOM      4  C   UNL     1      -0.569   2.134  12.237  1.00  0.00     0.035 C 
ATOM      5  C   UNL     1       0.138   2.803  13.444  1.00  0.00     0.018 C 
ATOM      6  C   UNL     1      -0.693   2.573  14.696  1.00  0.00    -0.023 C 
ATOM      7  C   UNL     1      -1.354   1.424  14.875  1.00  0.00    -0.001 C 
ENDROOT
BRANCH   5   8
ATOM      8  C   UNL     1       0.422   4.324  13.221  1.00  0.00    -0.010 C 
ATOM      9  C   UNL     1       0.530   5.104  14.544  1.00  0.00     0.008 C 
ATOM     10  C   UNL     1      -0.677   4.974  12.358  1.00  0.00     0.008 C 
ENDBRANCH   5   8
TORSDOF 1
ENDMDL
MODEL 6
REMARK VINA RESULT:    -4.365      1.617      4.334
REMARK INTER + INTRA:          -4.817
REMARK INTER:                  -4.696
REMARK INTRA:                  -0.121
REMARK UNBOUND:                -0.198
REMARK SMILES CC1=CC[C@@H](C(C)C)C=C1
REMARK SMILES IDX 1 1 2 2 3 3 4 4 5 5 9 6 10 7 6 8 7 9 8 10
REMARK H PARENT
REMARK Flexibility Score: inf
ROOT
ATOM      1  C   UNL     1       0.109   5.871  14.880  1.00  0.00     0.044 C 
ATOM      2  C   UNL     1      -0.169   4.455  14.474  1.00  0.00    -0.055 C 
ATOM      3  C   UNL     1       0.203   4.010  13.264  1.00  0.00    -0.023 C 
ATOM      4  C   UNL     1       0.055   2.555  12.899  1.00  0.00     0.035 C 
ATOM      5  C   UNL     1      -1.193   1.929  13.573  1.00  0.00     0.018 C 
ATOM      6  C   UNL     1      -1.208   2.313  15.043  1.00  0.00    -0.023 C 
ATOM      7  C   UNL     1      -0.782   3.518  15.439  1.00  0.00    -0.001 C 
ENDROOT
BRANCH   5   8
ATOM      8  C   UNL     1      -1.275   0.380  13.388  1.00  0.00    -0.010 C 
ATOM      9  C   UNL     1      -1.306  -0.036  11.906  1.00  0.00     0.008 C 
ATOM     10  C   UNL     1      -2.522  -0.199  14.084  1.00  0.00     0.008 C 
ENDBRANCH   5   8
TORSDOF 1
ENDMDL
MODEL 7
REMARK VINA RESULT:    -4.335      1.069      4.503
REMARK INTER + INTRA:          -4.786
REMARK INTER:                  -4.586
REMARK INTRA:                  -0.200
REMARK UNBOUND:                -0.198
REMARK SMILES CC1=CC[C@@H](C(C)C)C=C1
REMARK SMILES IDX 1 1 2 2 3 3 4 4 5 5 9 6 10 7 6 8 7 9 8 10
REMARK H PARENT
REMARK Flexibility Score: inf
ROOT
ATOM      1  C   UNL     1      -0.946   5.417  10.364  1.00  0.00     0.044 C 
ATOM      2  C   UNL     1      -1.123   4.283  11.329  1.00  0.00    -0.055 C 
ATOM      3  C   UNL     1      -1.376   4.527  12.624  1.00  0.00    -0.023 C 
ATOM      4  C   UNL     1      -1.692   3.400  13.573  1.00  0.00     0.035 C 
ATOM      5  C   UNL     1      -0.921   2.110  13.193  1.00  0.00     0.018 C 
ATOM      6  C   UNL     1      -1.068   1.865  11.700  1.00  0.00    -0.023 C 
ATOM      7  C   UNL     1      -1.101   2.889  10.840  1.00  0.00    -0.001 C 
ENDROOT
BRANCH   5   8
ATOM      8  C   UNL     1      -1.369   0.863  14.022  1.00  0.00    -0.010 C 
ATOM      9  C   UNL     1      -1.421  -0.421  13.173  1.00  0.00     0.008 C 
ATOM     10  C   UNL     1      -2.754   1.086  14.658  1.00  0.00     0.008 C 
ENDBRANCH   5   8
TORSDOF 1
ENDMDL
MODEL 8
REMARK VINA RESULT:    -4.196      9.167      9.801
REMARK INTER + INTRA:          -4.639
REMARK INTER:                  -4.518
REMARK INTRA:                  -0.120
REMARK UNBOUND:                -0.198
REMARK SMILES CC1=CC[C@@H](C(C)C)C=C1
REMARK SMILES IDX 1 1 2 2 3 3 4 4 5 5 9 6 10 7 6 8 7 9 8 10
REMARK H PARENT
REMARK Flexibility Score: inf
ROOT
ATOM      1  C   UNL     1      -9.251  -1.274  10.103  1.00  0.00     0.044 C 
ATOM      2  C   UNL     1      -9.783   0.091   9.781  1.00  0.00    -0.055 C 
ATOM      3  C   UNL     1     -10.044   0.436   8.511  1.00  0.00    -0.023 C 
ATOM      4  C   UNL     1     -10.708   1.749   8.190  1.00  0.00     0.035 C 
ATOM      5  C   UNL     1     -10.286   2.855   9.192  1.00  0.00     0.018 C 
ATOM      6  C   UNL     1     -10.399   2.311  10.607  1.00  0.00    -0.023 C 
ATOM      7  C   UNL     1     -10.103   1.034  10.873  1.00  0.00    -0.001 C 
ENDROOT
BRANCH   5   8
ATOM      8  C   UNL     1     -11.101   4.177   9.024  1.00  0.00    -0.010 C 
ATOM      9  C   UNL     1     -10.976   4.771   7.609  1.00  0.00     0.008 C 
ATOM     10  C   UNL     1     -10.652   5.242  10.043  1.00  0.00     0.008 C 
ENDBRANCH   5   8
TORSDOF 1
ENDMDL
