MODEL 1
REMARK VINA RESULT:    -5.164      0.000      0.000
REMARK INTER + INTRA:          -8.735
REMARK INTER:                  -8.183
REMARK INTRA:                  -0.552
REMARK UNBOUND:                -0.552
REMARK SMILES CCCCCCCCCCCC(=O)[O-]
REMARK SMILES IDX 7 1 8 2 9 3 10 4 11 5 12 6 13 7 14 8 6 9 5 10 4 11 3 12 2 13
REMARK SMILES IDX 1 14
REMARK H PARENT
REMARK Flexibility Score: inf
ROOT
ATOM      1  C   UNL     1     -11.845  10.718   5.956  1.00  0.00     0.000 C 
ENDROOT
BRANCH   1   2
ATOM      2  C   UNL     1     -10.976  11.660   5.109  1.00  0.00     0.000 C 
BRANCH   2   3
ATOM      3  C   UNL     1     -10.804  11.114   3.685  1.00  0.00     0.000 C 
BRANCH   3   4
ATOM      4  C   UNL     1     -10.367  12.195   2.679  1.00  0.00     0.006 C 
BRANCH   4   5
ATOM      5  C   UNL     1      -9.720  13.433   3.323  1.00  0.00     0.053 C 
BRANCH   5   6
ATOM      6  C   UNL     1      -8.232  13.444   3.145  1.00  0.00     0.041 C 
ATOM      7  O   UNL     1      -7.480  13.035   4.069  1.00  0.00    -0.550 OA
ATOM      8  O   UNL     1      -7.676  13.937   1.973  1.00  0.00    -0.550 OA
ENDBRANCH   5   6
ENDBRANCH   4   5
ENDBRANCH   3   4
ENDBRANCH   2   3
ENDBRANCH   1   2
BRANCH   1   9
ATOM      9  C   UNL     1     -11.798  11.059   7.455  1.00  0.00     0.000 C 
BRANCH   9  10
ATOM     10  C   UNL     1     -10.846  12.226   7.766  1.00  0.00    -0.000 C 
BRANCH  10  11
ATOM     11  C   UNL     1     -10.862  12.618   9.252  1.00  0.00    -0.000 C 
BRANCH  11  12
ATOM     12  C   UNL     1     -10.369  14.056   9.488  1.00  0.00    -0.000 C 
BRANCH  12  13
ATOM     13  C   UNL     1      -9.023  14.103  10.230  1.00  0.00    -0.003 C 
ATOM     14  C   UNL     1      -7.872  14.559   9.335  1.00  0.00     0.004 C 
ENDBRANCH  12  13
ENDBRANCH  11  12
ENDBRANCH  10  11
ENDBRANCH   9  10
ENDBRANCH   1   9
TORSDOF 10
ENDMDL
MODEL 2
REMARK VINA RESULT:    -5.083      1.397      2.508
REMARK INTER + INTRA:          -8.607
REMARK INTER:                  -7.831
REMARK INTRA:                  -0.776
REMARK UNBOUND:                -0.552
REMARK SMILES CCCCCCCCCCCC(=O)[O-]
REMARK SMILES IDX 7 1 8 2 9 3 10 4 11 5 12 6 13 7 14 8 6 9 5 10 4 11 3 12 2 13
REMARK SMILES IDX 1 14
REMARK H PARENT
REMARK Flexibility Score: inf
ROOT
ATOM      1  C   UNL     1     -13.079  11.941   7.886  1.00  0.00     0.000 C 
ENDROOT
BRANCH   1   2
ATOM      2  C   UNL     1     -12.343  10.599   7.755  1.00  0.00     0.000 C 
BRANCH   2   3
ATOM      3  C   UNL     1     -12.030  10.288   6.284  1.00  0.00     0.000 C 
BRANCH   3   4
ATOM      4  C   UNL     1     -11.317  11.449   5.566  1.00  0.00     0.006 C 
BRANCH   4   5
ATOM      5  C   UNL     1     -10.975  11.167   4.094  1.00  0.00     0.053 C 
BRANCH   5   6
ATOM      6  C   UNL     1      -9.762  11.925   3.645  1.00  0.00     0.041 C 
ATOM      7  O   UNL     1      -9.038  11.471   2.720  1.00  0.00    -0.550 OA
ATOM      8  O   UNL     1      -9.414  13.113   4.272  1.00  0.00    -0.550 OA
ENDBRANCH   5   6
ENDBRANCH   4   5
ENDBRANCH   3   4
ENDBRANCH   2   3
ENDBRANCH   1   2
BRANCH   1   9
ATOM      9  C   UNL     1     -12.401  12.892   8.885  1.00  0.00     0.000 C 
BRANCH   9  10
ATOM     10  C   UNL     1     -10.909  12.575   9.084  1.00  0.00    -0.000 C 
BRANCH  10  11
ATOM     11  C   UNL     1      -9.995  13.710   8.596  1.00  0.00    -0.000 C 
BRANCH  11  12
ATOM     12  C   UNL     1      -9.052  14.223   9.697  1.00  0.00    -0.000 C 
BRANCH  12  13
ATOM     13  C   UNL     1      -9.385  15.657  10.138  1.00  0.00    -0.003 C 
ATOM     14  C   UNL     1     -10.634  16.209   9.453  1.00  0.00     0.004 C 
ENDBRANCH  12  13
ENDBRANCH  11  12
ENDBRANCH  10  11
ENDBRANCH   9  10
ENDBRANCH   1   9
TORSDOF 10
ENDMDL
MODEL 3
REMARK VINA RESULT:    -5.030      3.205      5.935
REMARK INTER + INTRA:          -8.523
REMARK INTER:                  -7.963
REMARK INTRA:                  -0.561
REMARK UNBOUND:                -0.552
REMARK SMILES CCCCCCCCCCCC(=O)[O-]
REMARK SMILES IDX 7 1 8 2 9 3 10 4 11 5 12 6 13 7 14 8 6 9 5 10 4 11 3 12 2 13
REMARK SMILES IDX 1 14
REMARK H PARENT
REMARK Flexibility Score: inf
ROOT
ATOM      1  C   UNL     1     -10.898  12.134   7.621  1.00  0.00     0.000 C 
ENDROOT
BRANCH   1   2
ATOM      2  C   UNL     1     -11.192  12.618   9.048  1.00  0.00     0.000 C 
BRANCH   2   3
ATOM      3  C   UNL     1     -10.401  13.895   9.368  1.00  0.00     0.000 C 
BRANCH   3   4
ATOM      4  C   UNL     1      -9.195  14.100   8.432  1.00  0.00     0.006 C 
BRANCH   4   5
ATOM      5  C   UNL     1      -7.931  14.622   9.134  1.00  0.00     0.053 C 
BRANCH   5   6
ATOM      6  C   UNL     1      -8.012  14.464  10.623  1.00  0.00     0.041 C 
ATOM      7  O   UNL     1      -8.283  15.454  11.351  1.00  0.00    -0.550 OA
ATOM      8  O   UNL     1      -7.754  13.230  11.206  1.00  0.00    -0.550 OA
ENDBRANCH   5   6
ENDBRANCH   4   5
ENDBRANCH   3   4
ENDBRANCH   2   3
ENDBRANCH   1   2
BRANCH   1   9
ATOM      9  C   UNL     1     -11.769  10.935   7.212  1.00  0.00     0.000 C 
BRANCH   9  10
ATOM     10  C   UNL     1     -11.766  10.693   5.692  1.00  0.00    -0.000 C 
BRANCH  10  11
ATOM     11  C   UNL     1     -10.962  11.758   4.929  1.00  0.00    -0.000 C 
BRANCH  11  12
ATOM     12  C   UNL     1     -10.267  11.189   3.680  1.00  0.00    -0.000 C 
BRANCH  12  13
ATOM     13  C   UNL     1      -9.134  12.095   3.171  1.00  0.00    -0.003 C 
ATOM     14  C   UNL     1      -8.747  13.176   4.180  1.00  0.00     0.004 C 
ENDBRANCH  12  13
ENDBRANCH  11  12
ENDBRANCH  10  11
ENDBRANCH   9  10
ENDBRANCH   1   9
TORSDOF 10
ENDMDL
MODEL 4
REMARK VINA RESULT:    -4.951      3.765      6.798
REMARK INTER + INTRA:          -8.398
REMARK INTER:                  -7.840
REMARK INTRA:                  -0.558
REMARK UNBOUND:                -0.552
REMARK SMILES CCCCCCCCCCCC(=O)[O-]
REMARK SMILES IDX 7 1 8 2 9 3 10 4 11 5 12 6 13 7 14 8 6 9 5 10 4 11 3 12 2 13
REMARK SMILES IDX 1 14
REMARK H PARENT
REMARK Flexibility Score: inf
ROOT
ATOM      1  C   UNL     1     -10.788  13.633   9.267  1.00  0.00     0.000 C 
ENDROOT
BRANCH   1   2
ATOM      2  C   UNL     1      -9.592  14.112   8.430  1.00  0.00     0.000 C 
BRANCH   2   3
ATOM      3  C   UNL     1      -8.433  14.555   9.334  1.00  0.00     0.000 C 
BRANCH   3   4
ATOM      4  C   UNL     1      -8.860  15.595  10.386  1.00  0.00     0.006 C 
BRANCH   4   5
ATOM      5  C   UNL     1      -7.722  16.066  11.307  1.00  0.00     0.053 C 
BRANCH   5   6
ATOM      6  C   UNL     1      -7.500  15.123  12.450  1.00  0.00     0.041 C 
ATOM      7  O   UNL     1      -8.110  15.292  13.539  1.00  0.00    -0.550 OA
ATOM      8  O   UNL     1      -6.596  14.077  12.323  1.00  0.00    -0.550 OA
ENDBRANCH   5   6
ENDBRANCH   4   5
ENDBRANCH   3   4
ENDBRANCH   2   3
ENDBRANCH   1   2
BRANCH   1   9
ATOM      9  C   UNL     1     -11.154  12.166   8.990  1.00  0.00     0.000 C 
BRANCH   9  10
ATOM     10  C   UNL     1     -12.603  12.001   8.500  1.00  0.00    -0.000 C 
BRANCH  10  11
ATOM     11  C   UNL     1     -12.681  11.449   7.068  1.00  0.00    -0.000 C 
BRANCH  11  12
ATOM     12  C   UNL     1     -11.302  11.371   6.390  1.00  0.00    -0.000 C 
BRANCH  12  13
ATOM     13  C   UNL     1     -11.403  11.249   4.861  1.00  0.00    -0.003 C 
ATOM     14  C   UNL     1     -10.316  12.040   4.134  1.00  0.00     0.004 C 
ENDBRANCH  12  13
ENDBRANCH  11  12
ENDBRANCH  10  11
ENDBRANCH   9  10
ENDBRANCH   1   9
TORSDOF 10
ENDMDL
MODEL 5
REMARK VINA RESULT:    -4.946      4.500      7.227
REMARK INTER + INTRA:          -8.390
REMARK INTER:                  -7.586
REMARK INTRA:                  -0.805
REMARK UNBOUND:                -0.552
REMARK SMILES CCCCCCCCCCCC(=O)[O-]
REMARK SMILES IDX 7 1 8 2 9 3 10 4 11 5 12 6 13 7 14 8 6 9 5 10 4 11 3 12 2 13
REMARK SMILES IDX 1 14
REMARK H PARENT
REMARK Flexibility Score: inf
ROOT
ATOM      1  C   UNL     1      -9.165  14.331   8.458  1.00  0.00     0.000 C 
ENDROOT
BRANCH   1   2
ATOM      2  C   UNL     1      -7.863  14.502   9.254  1.00  0.00     0.000 C 
BRANCH   2   3
ATOM      3  C   UNL     1      -8.065  15.466  10.433  1.00  0.00     0.000 C 
BRANCH   3   4
ATOM      4  C   UNL     1      -7.771  14.811  11.796  1.00  0.00     0.006 C 
BRANCH   4   5
ATOM      5  C   UNL     1      -7.494  13.300  11.725  1.00  0.00     0.053 C 
BRANCH   5   6
ATOM      6  C   UNL     1      -8.301  12.535  12.729  1.00  0.00     0.041 C 
ATOM      7  O   UNL     1      -8.300  12.882  13.940  1.00  0.00    -0.550 OA
ATOM      8  O   UNL     1      -9.026  11.419  12.334  1.00  0.00    -0.550 OA
ENDBRANCH   5   6
ENDBRANCH   4   5
ENDBRANCH   3   4
ENDBRANCH   2   3
ENDBRANCH   1   2
BRANCH   1   9
ATOM      9  C   UNL     1     -10.379  14.059   9.361  1.00  0.00     0.000 C 
BRANCH   9  10
ATOM     10  C   UNL     1     -10.723  12.562   9.452  1.00  0.00    -0.000 C 
BRANCH  10  11
ATOM     11  C   UNL     1     -11.855  12.159   8.494  1.00  0.00    -0.000 C 
BRANCH  11  12
ATOM     12  C   UNL     1     -11.330  11.508   7.202  1.00  0.00    -0.000 C 
BRANCH  12  13
ATOM     13  C   UNL     1     -12.167  10.292   6.773  1.00  0.00    -0.003 C 
ATOM     14  C   UNL     1     -12.718   9.506   7.961  1.00  0.00     0.004 C 
ENDBRANCH  12  13
ENDBRANCH  11  12
ENDBRANCH  10  11
ENDBRANCH   9  10
ENDBRANCH   1   9
TORSDOF 10
ENDMDL
MODEL 6
REMARK VINA RESULT:    -4.921      5.227      7.718
REMARK INTER + INTRA:          -8.351
REMARK INTER:                  -7.868
REMARK INTRA:                  -0.483
REMARK UNBOUND:                -0.552
REMARK SMILES CCCCCCCCCCCC(=O)[O-]
REMARK SMILES IDX 7 1 8 2 9 3 10 4 11 5 12 6 13 7 14 8 6 9 5 10 4 11 3 12 2 13
REMARK SMILES IDX 1 14
REMARK H PARENT
REMARK Flexibility Score: inf
ROOT
ATOM      1  C   UNL     1     -12.286  10.112   7.627  1.00  0.00     0.000 C 
ENDROOT
BRANCH   1   2
ATOM      2  C   UNL     1     -12.887   9.177   6.567  1.00  0.00     0.000 C 
BRANCH   2   3
ATOM      3  C   UNL     1     -13.897   8.209   7.200  1.00  0.00     0.000 C 
BRANCH   3   4
ATOM      4  C   UNL     1     -13.332   7.479   8.433  1.00  0.00     0.006 C 
BRANCH   4   5
ATOM      5  C   UNL     1     -13.452   5.947   8.370  1.00  0.00     0.053 C 
BRANCH   5   6
ATOM      6  C   UNL     1     -14.827   5.509   7.967  1.00  0.00     0.041 C 
ATOM      7  O   UNL     1     -14.996   4.844   6.911  1.00  0.00    -0.550 OA
ATOM      8  O   UNL     1     -15.924   5.862   8.741  1.00  0.00    -0.550 OA
ENDBRANCH   5   6
ENDBRANCH   4   5
ENDBRANCH   3   4
ENDBRANCH   2   3
ENDBRANCH   1   2
BRANCH   1   9
ATOM      9  C   UNL     1     -11.494  11.276   7.009  1.00  0.00     0.000 C 
BRANCH   9  10
ATOM     10  C   UNL     1     -11.699  11.388   5.489  1.00  0.00    -0.000 C 
BRANCH  10  11
ATOM     11  C   UNL     1     -10.440  11.883   4.760  1.00  0.00    -0.000 C 
BRANCH  11  12
ATOM     12  C   UNL     1     -10.311  11.298   3.342  1.00  0.00    -0.000 C 
BRANCH  12  13
ATOM     13  C   UNL     1      -9.499  12.204   2.403  1.00  0.00    -0.003 C 
ATOM     14  C   UNL     1      -9.810  13.687   2.599  1.00  0.00     0.004 C 
ENDBRANCH  12  13
ENDBRANCH  11  12
ENDBRANCH  10  11
ENDBRANCH   9  10
ENDBRANCH   1   9
TORSDOF 10
ENDMDL
MODEL 7
REMARK VINA RESULT:    -4.917      5.149      6.144
REMARK INTER + INTRA:          -8.344
REMARK INTER:                  -7.946
REMARK INTRA:                  -0.397
REMARK UNBOUND:                -0.552
REMARK SMILES CCCCCCCCCCCC(=O)[O-]
REMARK SMILES IDX 7 1 8 2 9 3 10 4 11 5 12 6 13 7 14 8 6 9 5 10 4 11 3 12 2 13
REMARK SMILES IDX 1 14
REMARK H PARENT
REMARK Flexibility Score: inf
ROOT
ATOM      1  C   UNL     1     -11.346  11.544   7.651  1.00  0.00     0.000 C 
ENDROOT
BRANCH   1   2
ATOM      2  C   UNL     1     -12.619  11.093   6.919  1.00  0.00     0.000 C 
BRANCH   2   3
ATOM      3  C   UNL     1     -12.465   9.662   6.383  1.00  0.00     0.000 C 
BRANCH   3   4
ATOM      4  C   UNL     1     -13.462   8.676   7.019  1.00  0.00     0.006 C 
BRANCH   4   5
ATOM      5  C   UNL     1     -13.359   8.572   8.549  1.00  0.00     0.053 C 
BRANCH   5   6
ATOM      6  C   UNL     1     -14.604   8.000   9.157  1.00  0.00     0.041 C 
ATOM      7  O   UNL     1     -15.227   7.074   8.573  1.00  0.00    -0.550 OA
ATOM      8  O   UNL     1     -15.094   8.513  10.351  1.00  0.00    -0.550 OA
ENDBRANCH   5   6
ENDBRANCH   4   5
ENDBRANCH   3   4
ENDBRANCH   2   3
ENDBRANCH   1   2
BRANCH   1   9
ATOM      9  C   UNL     1     -11.639  12.524   8.799  1.00  0.00     0.000 C 
BRANCH   9  10
ATOM     10  C   UNL     1     -10.372  12.919   9.577  1.00  0.00    -0.000 C 
BRANCH  10  11
ATOM     11  C   UNL     1      -9.694  14.172   9.000  1.00  0.00    -0.000 C 
BRANCH  11  12
ATOM     12  C   UNL     1      -8.862  14.928  10.050  1.00  0.00    -0.000 C 
BRANCH  12  13
ATOM     13  C   UNL     1      -7.671  14.104  10.564  1.00  0.00    -0.003 C 
ATOM     14  C   UNL     1      -7.213  14.535  11.956  1.00  0.00     0.004 C 
ENDBRANCH  12  13
ENDBRANCH  11  12
ENDBRANCH  10  11
ENDBRANCH   9  10
ENDBRANCH   1   9
TORSDOF 10
ENDMDL
MODEL 8
REMARK VINA RESULT:    -4.903      4.491      5.547
REMARK INTER + INTRA:          -8.321
REMARK INTER:                  -8.023
REMARK INTRA:                  -0.298
REMARK UNBOUND:                -0.552
REMARK SMILES CCCCCCCCCCCC(=O)[O-]
REMARK SMILES IDX 7 1 8 2 9 3 10 4 11 5 12 6 13 7 14 8 6 9 5 10 4 11 3 12 2 13
REMARK SMILES IDX 1 14
REMARK H PARENT
REMARK Flexibility Score: inf
ROOT
ATOM      1  C   UNL     1     -10.399  13.446   9.268  1.00  0.00     0.000 C 
ENDROOT
BRANCH   1   2
ATOM      2  C   UNL     1     -10.931  12.242   8.476  1.00  0.00     0.000 C 
BRANCH   2   3
ATOM      3  C   UNL     1     -12.467  12.226   8.471  1.00  0.00     0.000 C 
BRANCH   3   4
ATOM      4  C   UNL     1     -13.052  11.461   7.270  1.00  0.00     0.006 C 
BRANCH   4   5
ATOM      5  C   UNL     1     -12.380  10.106   6.994  1.00  0.00     0.053 C 
BRANCH   5   6
ATOM      6  C   UNL     1     -13.101   8.977   7.665  1.00  0.00     0.041 C 
ATOM      7  O   UNL     1     -12.970   8.788   8.904  1.00  0.00    -0.550 OA
ATOM      8  O   UNL     1     -13.890   8.113   6.917  1.00  0.00    -0.550 OA
ENDBRANCH   5   6
ENDBRANCH   4   5
ENDBRANCH   3   4
ENDBRANCH   2   3
ENDBRANCH   1   2
BRANCH   1   9
ATOM      9  C   UNL     1      -9.279  14.194   8.526  1.00  0.00     0.000 C 
BRANCH   9  10
ATOM     10  C   UNL     1      -8.065  14.483   9.425  1.00  0.00    -0.000 C 
BRANCH  10  11
ATOM     11  C   UNL     1      -8.241  13.931  10.848  1.00  0.00    -0.000 C 
BRANCH  11  12
ATOM     12  C   UNL     1      -7.359  14.659  11.877  1.00  0.00    -0.000 C 
BRANCH  12  13
ATOM     13  C   UNL     1      -7.882  16.064  12.212  1.00  0.00    -0.003 C 
ATOM     14  C   UNL     1      -7.403  17.124  11.222  1.00  0.00     0.004 C 
ENDBRANCH  12  13
ENDBRANCH  11  12
ENDBRANCH  10  11
ENDBRANCH   9  10
ENDBRANCH   1   9
TORSDOF 10
ENDMDL
MODEL 9
REMARK VINA RESULT:    -4.881      4.374      6.627
REMARK INTER + INTRA:          -8.286
REMARK INTER:                  -7.759
REMARK INTRA:                  -0.527
REMARK UNBOUND:                -0.552
REMARK SMILES CCCCCCCCCCCC(=O)[O-]
REMARK SMILES IDX 7 1 8 2 9 3 10 4 11 5 12 6 13 7 14 8 6 9 5 10 4 11 3 12 2 13
REMARK SMILES IDX 1 14
REMARK H PARENT
REMARK Flexibility Score: inf
ROOT
ATOM      1  C   UNL     1     -10.330  12.420   3.552  1.00  0.00     0.000 C 
ENDROOT
BRANCH   1   2
ATOM      2  C   UNL     1     -10.900  11.154   4.210  1.00  0.00     0.000 C 
BRANCH   2   3
ATOM      3  C   UNL     1     -11.200  11.397   5.697  1.00  0.00     0.000 C 
BRANCH   3   4
ATOM      4  C   UNL     1     -12.422  10.604   6.196  1.00  0.00     0.006 C 
BRANCH   4   5
ATOM      5  C   UNL     1     -12.295  10.090   7.639  1.00  0.00     0.053 C 
BRANCH   5   6
ATOM      6  C   UNL     1     -13.054   8.815   7.849  1.00  0.00     0.041 C 
ATOM      7  O   UNL     1     -13.828   8.384   6.954  1.00  0.00    -0.550 OA
ATOM      8  O   UNL     1     -12.930   8.121   9.045  1.00  0.00    -0.550 OA
ENDBRANCH   5   6
ENDBRANCH   4   5
ENDBRANCH   3   4
ENDBRANCH   2   3
ENDBRANCH   1   2
BRANCH   1   9
ATOM      9  C   UNL     1      -9.257  13.103   4.416  1.00  0.00     0.000 C 
BRANCH   9  10
ATOM     10  C   UNL     1      -7.932  13.306   3.661  1.00  0.00    -0.000 C 
BRANCH  10  11
ATOM     11  C   UNL     1      -7.758  12.313   2.501  1.00  0.00    -0.000 C 
BRANCH  11  12
ATOM     12  C   UNL     1      -7.004  11.039   2.923  1.00  0.00    -0.000 C 
BRANCH  12  13
ATOM     13  C   UNL     1      -5.534  11.314   3.276  1.00  0.00    -0.003 C 
ATOM     14  C   UNL     1      -4.796  10.061   3.745  1.00  0.00     0.004 C 
ENDBRANCH  12  13
ENDBRANCH  11  12
ENDBRANCH  10  11
ENDBRANCH   9  10
ENDBRANCH   1   9
TORSDOF 10
ENDMDL
