MODEL 1
REMARK VINA RESULT:    -3.144      0.000      0.000
REMARK INTER + INTRA:         -11.114
REMARK INTER:                  -7.188
REMARK INTRA:                  -3.925
REMARK UNBOUND:                -3.925
REMARK SMILES CCCCCCCCCCCCCCCCCCCCCCCC(=O)[O-]
REMARK SMILES IDX 13 1 14 2 15 3 16 4 17 5 18 6 19 7 20 8 21 9 22 10 23 11
REMARK SMILES IDX 24 12 25 13 26 14 12 15 11 16 10 17 9 18 8 19 7 20 6 21 5 22
REMARK SMILES IDX 4 23 3 24 2 25 1 26
REMARK H PARENT
REMARK Flexibility Score: inf
ROOT
ATOM      1  C   UNL     1      -2.752  12.502  -3.436  1.00  0.00     0.000 C 
ENDROOT
BRANCH   1   2
ATOM      2  C   UNL     1      -3.659  11.294  -3.136  1.00  0.00     0.000 C 
BRANCH   2   3
ATOM      3  C   UNL     1      -3.539  10.120  -4.130  1.00  0.00     0.000 C 
BRANCH   3   4
ATOM      4  C   UNL     1      -4.881   9.539  -4.617  1.00  0.00     0.000 C 
BRANCH   4   5
ATOM      5  C   UNL     1      -4.755   8.354  -5.596  1.00  0.00     0.000 C 
BRANCH   5   6
ATOM      6  C   UNL     1      -3.341   7.750  -5.712  1.00  0.00     0.000 C 
BRANCH   6   7
ATOM      7  C   UNL     1      -2.855   7.486  -7.149  1.00  0.00     0.000 C 
BRANCH   7   8
ATOM      8  C   UNL     1      -1.692   8.404  -7.567  1.00  0.00     0.000 C 
BRANCH   8   9
ATOM      9  C   UNL     1      -2.108   9.881  -7.686  1.00  0.00     0.000 C 
BRANCH   9  10
ATOM     10  C   UNL     1      -1.230  10.879  -6.902  1.00  0.00     0.006 C 
BRANCH  10  11
ATOM     11  C   UNL     1      -0.547  10.290  -5.659  1.00  0.00     0.053 C 
BRANCH  11  12
ATOM     12  C   UNL     1       0.946  10.388  -5.741  1.00  0.00     0.041 C 
ATOM     13  O   UNL     1       1.585  11.067  -4.895  1.00  0.00    -0.550 OA
ATOM     14  O   UNL     1       1.630   9.751  -6.769  1.00  0.00    -0.550 OA
ENDBRANCH  11  12
ENDBRANCH  10  11
ENDBRANCH   9  10
ENDBRANCH   8   9
ENDBRANCH   7   8
ENDBRANCH   6   7
ENDBRANCH   5   6
ENDBRANCH   4   5
ENDBRANCH   3   4
ENDBRANCH   2   3
ENDBRANCH   1   2
BRANCH   1  15
ATOM     15  C   UNL     1      -2.651  13.481  -2.254  1.00  0.00     0.000 C 
BRANCH  15  16
ATOM     16  C   UNL     1      -3.121  12.856  -0.930  1.00  0.00     0.000 C 
BRANCH  16  17
ATOM     17  C   UNL     1      -3.933  13.836  -0.065  1.00  0.00     0.000 C 
BRANCH  17  18
ATOM     18  C   UNL     1      -5.344  13.297   0.256  1.00  0.00    -0.000 C 
BRANCH  18  19
ATOM     19  C   UNL     1      -6.481  14.074  -0.438  1.00  0.00    -0.000 C 
BRANCH  19  20
ATOM     20  C   UNL     1      -6.056  14.879  -1.678  1.00  0.00    -0.000 C 
BRANCH  20  21
ATOM     21  C   UNL     1      -6.921  14.572  -2.914  1.00  0.00    -0.000 C 
BRANCH  21  22
ATOM     22  C   UNL     1      -6.361  13.408  -3.750  1.00  0.00    -0.000 C 
BRANCH  22  23
ATOM     23  C   UNL     1      -5.846  13.865  -5.126  1.00  0.00    -0.000 C 
BRANCH  23  24
ATOM     24  C   UNL     1      -5.733  12.709  -6.136  1.00  0.00    -0.000 C 
BRANCH  24  25
ATOM     25  C   UNL     1      -4.550  12.814  -7.115  1.00  0.00    -0.003 C 
ATOM     26  C   UNL     1      -3.498  13.831  -6.676  1.00  0.00     0.004 C 
ENDBRANCH  24  25
ENDBRANCH  23  24
ENDBRANCH  22  23
ENDBRANCH  21  22
ENDBRANCH  20  21
ENDBRANCH  19  20
ENDBRANCH  18  19
ENDBRANCH  17  18
ENDBRANCH  16  17
ENDBRANCH  15  16
ENDBRANCH   1  15
TORSDOF 22
ENDMDL
MODEL 2
REMARK VINA RESULT:    -2.945      2.121      3.804
REMARK INTER + INTRA:         -10.658
REMARK INTER:                  -6.888
REMARK INTRA:                  -3.770
REMARK UNBOUND:                -3.925
REMARK SMILES CCCCCCCCCCCCCCCCCCCCCCCC(=O)[O-]
REMARK SMILES IDX 13 1 14 2 15 3 16 4 17 5 18 6 19 7 20 8 21 9 22 10 23 11
REMARK SMILES IDX 24 12 25 13 26 14 12 15 11 16 10 17 9 18 8 19 7 20 6 21 5 22
REMARK SMILES IDX 4 23 3 24 2 25 1 26
REMARK H PARENT
REMARK Flexibility Score: inf
ROOT
ATOM      1  C   UNL     1      -3.553  12.375  -0.725  1.00  0.00     0.000 C 
ENDROOT
BRANCH   1   2
ATOM      2  C   UNL     1      -2.872  13.219  -1.818  1.00  0.00     0.000 C 
BRANCH   2   3
ATOM      3  C   UNL     1      -2.796  12.555  -3.209  1.00  0.00     0.000 C 
BRANCH   3   4
ATOM      4  C   UNL     1      -3.781  11.390  -3.429  1.00  0.00     0.000 C 
BRANCH   4   5
ATOM      5  C   UNL     1      -3.161  10.132  -4.069  1.00  0.00     0.000 C 
BRANCH   5   6
ATOM      6  C   UNL     1      -4.150   9.238  -4.844  1.00  0.00     0.000 C 
BRANCH   6   7
ATOM      7  C   UNL     1      -3.519   8.036  -5.573  1.00  0.00     0.000 C 
BRANCH   7   8
ATOM      8  C   UNL     1      -2.845   8.426  -6.899  1.00  0.00     0.000 C 
BRANCH   8   9
ATOM      9  C   UNL     1      -3.841   8.962  -7.943  1.00  0.00     0.000 C 
BRANCH   9  10
ATOM     10  C   UNL     1      -3.543  10.381  -8.473  1.00  0.00     0.006 C 
BRANCH  10  11
ATOM     11  C   UNL     1      -4.132  11.517  -7.623  1.00  0.00     0.053 C 
BRANCH  11  12
ATOM     12  C   UNL     1      -3.063  12.358  -6.994  1.00  0.00     0.041 C 
ATOM     13  O   UNL     1      -1.900  11.900  -6.848  1.00  0.00    -0.550 OA
ATOM     14  O   UNL     1      -3.360  13.639  -6.545  1.00  0.00    -0.550 OA
ENDBRANCH  11  12
ENDBRANCH  10  11
ENDBRANCH   9  10
ENDBRANCH   8   9
ENDBRANCH   7   8
ENDBRANCH   6   7
ENDBRANCH   5   6
ENDBRANCH   4   5
ENDBRANCH   3   4
ENDBRANCH   2   3
ENDBRANCH   1   2
BRANCH   1  15
ATOM     15  C   UNL     1      -4.840  13.023  -0.185  1.00  0.00     0.000 C 
BRANCH  15  16
ATOM     16  C   UNL     1      -5.309  14.207  -1.046  1.00  0.00     0.000 C 
BRANCH  16  17
ATOM     17  C   UNL     1      -6.840  14.350  -1.077  1.00  0.00     0.000 C 
BRANCH  17  18
ATOM     18  C   UNL     1      -7.394  14.371  -2.518  1.00  0.00    -0.000 C 
BRANCH  18  19
ATOM     19  C   UNL     1      -6.476  13.684  -3.549  1.00  0.00    -0.000 C 
BRANCH  19  20
ATOM     20  C   UNL     1      -7.144  13.348  -4.893  1.00  0.00    -0.000 C 
BRANCH  20  21
ATOM     21  C   UNL     1      -6.821  11.924  -5.380  1.00  0.00    -0.000 C 
BRANCH  21  22
ATOM     22  C   UNL     1      -8.065  11.185  -5.903  1.00  0.00    -0.000 C 
BRANCH  22  23
ATOM     23  C   UNL     1      -7.723  10.142  -6.981  1.00  0.00    -0.000 C 
BRANCH  23  24
ATOM     24  C   UNL     1      -7.223   8.812  -6.388  1.00  0.00    -0.000 C 
BRANCH  24  25
ATOM     25  C   UNL     1      -7.933   8.369  -5.096  1.00  0.00    -0.003 C 
ATOM     26  C   UNL     1      -7.188   7.260  -4.354  1.00  0.00     0.004 C 
ENDBRANCH  24  25
ENDBRANCH  23  24
ENDBRANCH  22  23
ENDBRANCH  21  22
ENDBRANCH  20  21
ENDBRANCH  19  20
ENDBRANCH  18  19
ENDBRANCH  17  18
ENDBRANCH  16  17
ENDBRANCH  15  16
ENDBRANCH   1  15
TORSDOF 22
ENDMDL
MODEL 3
REMARK VINA RESULT:    -2.904      1.834      4.402
REMARK INTER + INTRA:         -10.565
REMARK INTER:                  -6.173
REMARK INTRA:                  -4.393
REMARK UNBOUND:                -3.925
REMARK SMILES CCCCCCCCCCCCCCCCCCCCCCCC(=O)[O-]
REMARK SMILES IDX 13 1 14 2 15 3 16 4 17 5 18 6 19 7 20 8 21 9 22 10 23 11
REMARK SMILES IDX 24 12 25 13 26 14 12 15 11 16 10 17 9 18 8 19 7 20 6 21 5 22
REMARK SMILES IDX 4 23 3 24 2 25 1 26
REMARK H PARENT
REMARK Flexibility Score: inf
ROOT
ATOM      1  C   UNL     1      -2.199  10.599  -4.736  1.00  0.00     0.000 C 
ENDROOT
BRANCH   1   2
ATOM      2  C   UNL     1      -1.522  11.971  -4.557  1.00  0.00     0.000 C 
BRANCH   2   3
ATOM      3  C   UNL     1      -1.226  12.732  -5.866  1.00  0.00     0.000 C 
BRANCH   3   4
ATOM      4  C   UNL     1      -2.467  13.095  -6.705  1.00  0.00     0.000 C 
BRANCH   4   5
ATOM      5  C   UNL     1      -2.537  12.409  -8.084  1.00  0.00     0.000 C 
BRANCH   5   6
ATOM      6  C   UNL     1      -1.372  11.449  -8.397  1.00  0.00     0.000 C 
BRANCH   6   7
ATOM      7  C   UNL     1      -1.714   9.950  -8.315  1.00  0.00     0.000 C 
BRANCH   7   8
ATOM      8  C   UNL     1      -0.598   9.116  -7.662  1.00  0.00     0.000 C 
BRANCH   8   9
ATOM      9  C   UNL     1       0.732   9.882  -7.542  1.00  0.00     0.000 C 
BRANCH   9  10
ATOM     10  C   UNL     1       1.358   9.901  -6.131  1.00  0.00     0.006 C 
BRANCH  10  11
ATOM     11  C   UNL     1       2.882   9.715  -6.106  1.00  0.00     0.053 C 
BRANCH  11  12
ATOM     12  C   UNL     1       3.270   8.269  -6.059  1.00  0.00     0.041 C 
ATOM     13  O   UNL     1       3.394   7.611  -7.125  1.00  0.00    -0.550 OA
ATOM     14  O   UNL     1       3.466   7.640  -4.836  1.00  0.00    -0.550 OA
ENDBRANCH  11  12
ENDBRANCH  10  11
ENDBRANCH   9  10
ENDBRANCH   8   9
ENDBRANCH   7   8
ENDBRANCH   6   7
ENDBRANCH   5   6
ENDBRANCH   4   5
ENDBRANCH   3   4
ENDBRANCH   2   3
ENDBRANCH   1   2
BRANCH   1  15
ATOM     15  C   UNL     1      -3.450  10.431  -3.857  1.00  0.00     0.000 C 
BRANCH  15  16
ATOM     16  C   UNL     1      -4.590   9.703  -4.587  1.00  0.00     0.000 C 
BRANCH  16  17
ATOM     17  C   UNL     1      -4.549   9.911  -6.111  1.00  0.00     0.000 C 
BRANCH  17  18
ATOM     18  C   UNL     1      -5.539  11.001  -6.576  1.00  0.00    -0.000 C 
BRANCH  18  19
ATOM     19  C   UNL     1      -6.649  11.312  -5.553  1.00  0.00    -0.000 C 
BRANCH  19  20
ATOM     20  C   UNL     1      -6.804  12.800  -5.193  1.00  0.00    -0.000 C 
BRANCH  20  21
ATOM     21  C   UNL     1      -6.151  13.159  -3.846  1.00  0.00    -0.000 C 
BRANCH  21  22
ATOM     22  C   UNL     1      -4.836  13.938  -4.019  1.00  0.00    -0.000 C 
BRANCH  22  23
ATOM     23  C   UNL     1      -3.991  13.961  -2.734  1.00  0.00    -0.000 C 
BRANCH  23  24
ATOM     24  C   UNL     1      -4.595  13.105  -1.606  1.00  0.00    -0.000 C 
BRANCH  24  25
ATOM     25  C   UNL     1      -3.568  12.370  -0.726  1.00  0.00    -0.003 C 
ATOM     26  C   UNL     1      -2.735  13.316   0.138  1.00  0.00     0.004 C 
ENDBRANCH  24  25
ENDBRANCH  23  24
ENDBRANCH  22  23
ENDBRANCH  21  22
ENDBRANCH  20  21
ENDBRANCH  19  20
ENDBRANCH  18  19
ENDBRANCH  17  18
ENDBRANCH  16  17
ENDBRANCH  15  16
ENDBRANCH   1  15
TORSDOF 22
ENDMDL
MODEL 4
REMARK VINA RESULT:    -2.875      1.402      4.155
REMARK INTER + INTRA:         -10.497
REMARK INTER:                  -7.593
REMARK INTRA:                  -2.904
REMARK UNBOUND:                -3.925
REMARK SMILES CCCCCCCCCCCCCCCCCCCCCCCC(=O)[O-]
REMARK SMILES IDX 13 1 14 2 15 3 16 4 17 5 18 6 19 7 20 8 21 9 22 10 23 11
REMARK SMILES IDX 24 12 25 13 26 14 12 15 11 16 10 17 9 18 8 19 7 20 6 21 5 22
REMARK SMILES IDX 4 23 3 24 2 25 1 26
REMARK H PARENT
REMARK Flexibility Score: inf
ROOT
ATOM      1  C   UNL     1      -4.296  12.679  -0.357  1.00  0.00     0.000 C 
ENDROOT
BRANCH   1   2
ATOM      2  C   UNL     1      -2.857  13.220  -0.270  1.00  0.00     0.000 C 
BRANCH   2   3
ATOM      3  C   UNL     1      -2.416  14.110  -1.451  1.00  0.00     0.000 C 
BRANCH   3   4
ATOM      4  C   UNL     1      -2.605  13.482  -2.845  1.00  0.00     0.000 C 
BRANCH   4   5
ATOM      5  C   UNL     1      -1.568  13.922  -3.898  1.00  0.00     0.000 C 
BRANCH   5   6
ATOM      6  C   UNL     1      -1.992  13.706  -5.364  1.00  0.00     0.000 C 
BRANCH   6   7
ATOM      7  C   UNL     1      -1.776  12.282  -5.910  1.00  0.00     0.000 C 
BRANCH   7   8
ATOM      8  C   UNL     1      -0.901  11.415  -4.988  1.00  0.00     0.000 C 
BRANCH   8   9
ATOM      9  C   UNL     1      -0.194  10.270  -5.736  1.00  0.00     0.000 C 
BRANCH   9  10
ATOM     10  C   UNL     1       1.237  10.584  -6.220  1.00  0.00     0.006 C 
BRANCH  10  11
ATOM     11  C   UNL     1       2.353  10.028  -5.322  1.00  0.00     0.053 C 
BRANCH  11  12
ATOM     12  C   UNL     1       2.856   8.703  -5.809  1.00  0.00     0.041 C 
ATOM     13  O   UNL     1       3.551   7.973  -5.055  1.00  0.00    -0.550 OA
ATOM     14  O   UNL     1       2.581   8.288  -7.106  1.00  0.00    -0.550 OA
ENDBRANCH  11  12
ENDBRANCH  10  11
ENDBRANCH   9  10
ENDBRANCH   8   9
ENDBRANCH   7   8
ENDBRANCH   6   7
ENDBRANCH   5   6
ENDBRANCH   4   5
ENDBRANCH   3   4
ENDBRANCH   2   3
ENDBRANCH   1   2
BRANCH   1  15
ATOM     15  C   UNL     1      -5.287  13.473   0.511  1.00  0.00     0.000 C 
BRANCH  15  16
ATOM     16  C   UNL     1      -6.488  13.996  -0.294  1.00  0.00     0.000 C 
BRANCH  16  17
ATOM     17  C   UNL     1      -6.068  14.735  -1.576  1.00  0.00     0.000 C 
BRANCH  17  18
ATOM     18  C   UNL     1      -6.913  14.309  -2.797  1.00  0.00    -0.000 C 
BRANCH  18  19
ATOM     19  C   UNL     1      -6.109  14.211  -4.108  1.00  0.00    -0.000 C 
BRANCH  19  20
ATOM     20  C   UNL     1      -6.204  12.856  -4.830  1.00  0.00    -0.000 C 
BRANCH  20  21
ATOM     21  C   UNL     1      -5.146  11.847  -4.349  1.00  0.00    -0.000 C 
BRANCH  21  22
ATOM     22  C   UNL     1      -5.006  10.644  -5.297  1.00  0.00    -0.000 C 
BRANCH  22  23
ATOM     23  C   UNL     1      -4.146   9.517  -4.699  1.00  0.00    -0.000 C 
BRANCH  23  24
ATOM     24  C   UNL     1      -4.370   8.161  -5.393  1.00  0.00    -0.000 C 
BRANCH  24  25
ATOM     25  C   UNL     1      -3.139   7.594  -6.123  1.00  0.00    -0.003 C 
ATOM     26  C   UNL     1      -2.813   8.340  -7.416  1.00  0.00     0.004 C 
ENDBRANCH  24  25
ENDBRANCH  23  24
ENDBRANCH  22  23
ENDBRANCH  21  22
ENDBRANCH  20  21
ENDBRANCH  19  20
ENDBRANCH  18  19
ENDBRANCH  17  18
ENDBRANCH  16  17
ENDBRANCH  15  16
ENDBRANCH   1  15
TORSDOF 22
ENDMDL
MODEL 5
REMARK VINA RESULT:    -2.871      1.567      4.778
REMARK INTER + INTRA:         -10.489
REMARK INTER:                  -6.380
REMARK INTRA:                  -4.109
REMARK UNBOUND:                -3.925
REMARK SMILES CCCCCCCCCCCCCCCCCCCCCCCC(=O)[O-]
REMARK SMILES IDX 13 1 14 2 15 3 16 4 17 5 18 6 19 7 20 8 21 9 22 10 23 11
REMARK SMILES IDX 24 12 25 13 26 14 12 15 11 16 10 17 9 18 8 19 7 20 6 21 5 22
REMARK SMILES IDX 4 23 3 24 2 25 1 26
REMARK H PARENT
REMARK Flexibility Score: inf
ROOT
ATOM      1  C   UNL     1      -2.551   9.430  -5.658  1.00  0.00     0.000 C 
ENDROOT
BRANCH   1   2
ATOM      2  C   UNL     1      -2.701  10.688  -4.782  1.00  0.00     0.000 C 
BRANCH   2   3
ATOM      3  C   UNL     1      -1.432  11.556  -4.656  1.00  0.00     0.000 C 
BRANCH   3   4
ATOM      4  C   UNL     1      -1.689  13.054  -4.400  1.00  0.00     0.000 C 
BRANCH   4   5
ATOM      5  C   UNL     1      -1.415  13.972  -5.608  1.00  0.00     0.000 C 
BRANCH   5   6
ATOM      6  C   UNL     1      -2.505  13.959  -6.699  1.00  0.00     0.000 C 
BRANCH   6   7
ATOM      7  C   UNL     1      -2.237  13.014  -7.885  1.00  0.00     0.000 C 
BRANCH   7   8
ATOM      8  C   UNL     1      -0.740  12.867  -8.208  1.00  0.00     0.000 C 
BRANCH   8   9
ATOM      9  C   UNL     1      -0.265  11.403  -8.199  1.00  0.00     0.000 C 
BRANCH   9  10
ATOM     10  C   UNL     1       1.060  11.144  -7.451  1.00  0.00     0.006 C 
BRANCH  10  11
ATOM     11  C   UNL     1       1.107   9.820  -6.673  1.00  0.00     0.053 C 
BRANCH  11  12
ATOM     12  C   UNL     1       2.074   9.876  -5.531  1.00  0.00     0.041 C 
ATOM     13  O   UNL     1       2.866   8.920  -5.322  1.00  0.00    -0.550 OA
ATOM     14  O   UNL     1       2.081  10.973  -4.678  1.00  0.00    -0.550 OA
ENDBRANCH  11  12
ENDBRANCH  10  11
ENDBRANCH   9  10
ENDBRANCH   8   9
ENDBRANCH   7   8
ENDBRANCH   6   7
ENDBRANCH   5   6
ENDBRANCH   4   5
ENDBRANCH   3   4
ENDBRANCH   2   3
ENDBRANCH   1   2
BRANCH   1  15
ATOM     15  C   UNL     1      -3.669   8.400  -5.421  1.00  0.00     0.000 C 
BRANCH  15  16
ATOM     16  C   UNL     1      -4.865   8.995  -4.660  1.00  0.00     0.000 C 
BRANCH  16  17
ATOM     17  C   UNL     1      -6.209   8.729  -5.361  1.00  0.00     0.000 C 
BRANCH  17  18
ATOM     18  C   UNL     1      -6.860  10.028  -5.883  1.00  0.00    -0.000 C 
BRANCH  18  19
ATOM     19  C   UNL     1      -5.942  10.861  -6.798  1.00  0.00    -0.000 C 
BRANCH  19  20
ATOM     20  C   UNL     1      -5.615  12.273  -6.280  1.00  0.00    -0.000 C 
BRANCH  20  21
ATOM     21  C   UNL     1      -6.179  12.537  -4.873  1.00  0.00    -0.000 C 
BRANCH  21  22
ATOM     22  C   UNL     1      -5.386  13.616  -4.114  1.00  0.00    -0.000 C 
BRANCH  22  23
ATOM     23  C   UNL     1      -5.446  13.429  -2.589  1.00  0.00    -0.000 C 
BRANCH  23  24
ATOM     24  C   UNL     1      -4.350  12.486  -2.059  1.00  0.00    -0.000 C 
BRANCH  24  25
ATOM     25  C   UNL     1      -4.132  12.535  -0.536  1.00  0.00    -0.003 C 
ATOM     26  C   UNL     1      -2.738  13.027  -0.146  1.00  0.00     0.004 C 
ENDBRANCH  24  25
ENDBRANCH  23  24
ENDBRANCH  22  23
ENDBRANCH  21  22
ENDBRANCH  20  21
ENDBRANCH  19  20
ENDBRANCH  18  19
ENDBRANCH  17  18
ENDBRANCH  16  17
ENDBRANCH  15  16
ENDBRANCH   1  15
TORSDOF 22
ENDMDL
MODEL 6
REMARK VINA RESULT:    -2.866      7.809     12.067
REMARK INTER + INTRA:         -10.477
REMARK INTER:                  -5.853
REMARK INTRA:                  -4.624
REMARK UNBOUND:                -3.925
REMARK SMILES CCCCCCCCCCCCCCCCCCCCCCCC(=O)[O-]
REMARK SMILES IDX 13 1 14 2 15 3 16 4 17 5 18 6 19 7 20 8 21 9 22 10 23 11
REMARK SMILES IDX 24 12 25 13 26 14 12 15 11 16 10 17 9 18 8 19 7 20 6 21 5 22
REMARK SMILES IDX 4 23 3 24 2 25 1 26
REMARK H PARENT
REMARK Flexibility Score: inf
ROOT
ATOM      1  C   UNL     1       6.050  11.105  -2.649  1.00  0.00     0.000 C 
ENDROOT
BRANCH   1   2
ATOM      2  C   UNL     1       7.246  11.556  -3.508  1.00  0.00     0.000 C 
BRANCH   2   3
ATOM      3  C   UNL     1       6.951  11.716  -5.014  1.00  0.00     0.000 C 
BRANCH   3   4
ATOM      4  C   UNL     1       7.838  10.866  -5.945  1.00  0.00     0.000 C 
BRANCH   4   5
ATOM      5  C   UNL     1       8.810   9.914  -5.220  1.00  0.00     0.000 C 
BRANCH   5   6
ATOM      6  C   UNL     1       8.507   8.412  -5.395  1.00  0.00     0.000 C 
BRANCH   6   7
ATOM      7  C   UNL     1       7.053   8.074  -5.774  1.00  0.00     0.000 C 
BRANCH   7   8
ATOM      8  C   UNL     1       6.163   7.797  -4.549  1.00  0.00     0.000 C 
BRANCH   8   9
ATOM      9  C   UNL     1       4.712   8.272  -4.744  1.00  0.00     0.000 C 
BRANCH   9  10
ATOM     10  C   UNL     1       4.375   8.806  -6.152  1.00  0.00     0.006 C 
BRANCH  10  11
ATOM     11  C   UNL     1       3.904  10.268  -6.185  1.00  0.00     0.053 C 
BRANCH  11  12
ATOM     12  C   UNL     1       2.718  10.495  -5.298  1.00  0.00     0.041 C 
ATOM     13  O   UNL     1       1.641   9.879  -5.510  1.00  0.00    -0.550 OA
ATOM     14  O   UNL     1       2.794  11.408  -4.254  1.00  0.00    -0.550 OA
ENDBRANCH  11  12
ENDBRANCH  10  11
ENDBRANCH   9  10
ENDBRANCH   8   9
ENDBRANCH   7   8
ENDBRANCH   6   7
ENDBRANCH   5   6
ENDBRANCH   4   5
ENDBRANCH   3   4
ENDBRANCH   2   3
ENDBRANCH   1   2
BRANCH   1  15
ATOM     15  C   UNL     1       6.393   9.933  -1.714  1.00  0.00     0.000 C 
BRANCH  15  16
ATOM     16  C   UNL     1       7.894   9.600  -1.715  1.00  0.00     0.000 C 
BRANCH  16  17
ATOM     17  C   UNL     1       8.169   8.091  -1.604  1.00  0.00     0.000 C 
BRANCH  17  18
ATOM     18  C   UNL     1       9.307   7.778  -0.608  1.00  0.00    -0.000 C 
BRANCH  18  19
ATOM     19  C   UNL     1       8.862   6.932   0.601  1.00  0.00    -0.000 C 
BRANCH  19  20
ATOM     20  C   UNL     1       8.383   7.740   1.819  1.00  0.00    -0.000 C 
BRANCH  20  21
ATOM     21  C   UNL     1       6.852   7.894   1.869  1.00  0.00    -0.000 C 
BRANCH  21  22
ATOM     22  C   UNL     1       6.404   9.361   1.751  1.00  0.00    -0.000 C 
BRANCH  22  23
ATOM     23  C   UNL     1       7.440  10.341   2.328  1.00  0.00    -0.000 C 
BRANCH  23  24
ATOM     24  C   UNL     1       7.755  11.507   1.374  1.00  0.00    -0.000 C 
BRANCH  24  25
ATOM     25  C   UNL     1       9.211  12.006   1.415  1.00  0.00    -0.003 C 
ATOM     26  C   UNL     1      10.200  11.017   0.799  1.00  0.00     0.004 C 
ENDBRANCH  24  25
ENDBRANCH  23  24
ENDBRANCH  22  23
ENDBRANCH  21  22
ENDBRANCH  20  21
ENDBRANCH  19  20
ENDBRANCH  18  19
ENDBRANCH  17  18
ENDBRANCH  16  17
ENDBRANCH  15  16
ENDBRANCH   1  15
TORSDOF 22
ENDMDL
MODEL 7
REMARK VINA RESULT:    -2.811      9.271     12.437
REMARK INTER + INTRA:         -10.352
REMARK INTER:                  -5.832
REMARK INTRA:                  -4.520
REMARK UNBOUND:                -3.925
REMARK SMILES CCCCCCCCCCCCCCCCCCCCCCCC(=O)[O-]
REMARK SMILES IDX 13 1 14 2 15 3 16 4 17 5 18 6 19 7 20 8 21 9 22 10 23 11
REMARK SMILES IDX 24 12 25 13 26 14 12 15 11 16 10 17 9 18 8 19 7 20 6 21 5 22
REMARK SMILES IDX 4 23 3 24 2 25 1 26
REMARK H PARENT
REMARK Flexibility Score: inf
ROOT
ATOM      1  C   UNL     1       7.146   9.856   2.052  1.00  0.00     0.000 C 
ENDROOT
BRANCH   1   2
ATOM      2  C   UNL     1       6.913   8.708   1.053  1.00  0.00     0.000 C 
BRANCH   2   3
ATOM      3  C   UNL     1       6.934   9.116  -0.435  1.00  0.00     0.000 C 
BRANCH   3   4
ATOM      4  C   UNL     1       7.925   8.327  -1.314  1.00  0.00     0.000 C 
BRANCH   4   5
ATOM      5  C   UNL     1       9.124   9.147  -1.831  1.00  0.00     0.000 C 
BRANCH   5   6
ATOM      6  C   UNL     1       9.229  10.578  -1.267  1.00  0.00     0.000 C 
BRANCH   6   7
ATOM      7  C   UNL     1      10.355  10.800  -0.240  1.00  0.00     0.000 C 
BRANCH   7   8
ATOM      8  C   UNL     1      11.006   9.487   0.229  1.00  0.00     0.000 C 
BRANCH   8   9
ATOM      9  C   UNL     1      10.604   9.099   1.664  1.00  0.00     0.000 C 
BRANCH   9  10
ATOM     10  C   UNL     1      10.327   7.597   1.888  1.00  0.00     0.006 C 
BRANCH  10  11
ATOM     11  C   UNL     1      10.705   6.694   0.704  1.00  0.00     0.053 C 
BRANCH  11  12
ATOM     12  C   UNL     1       9.637   5.686   0.406  1.00  0.00     0.041 C 
ATOM     13  O   UNL     1       8.668   5.537   1.195  1.00  0.00    -0.550 OA
ATOM     14  O   UNL     1       9.728   4.890  -0.730  1.00  0.00    -0.550 OA
ENDBRANCH  11  12
ENDBRANCH  10  11
ENDBRANCH   9  10
ENDBRANCH   8   9
ENDBRANCH   7   8
ENDBRANCH   6   7
ENDBRANCH   5   6
ENDBRANCH   4   5
ENDBRANCH   3   4
ENDBRANCH   2   3
ENDBRANCH   1   2
BRANCH   1  15
ATOM     15  C   UNL     1       6.706  11.224   1.503  1.00  0.00     0.000 C 
BRANCH  15  16
ATOM     16  C   UNL     1       7.677  12.353   1.884  1.00  0.00     0.000 C 
BRANCH  16  17
ATOM     17  C   UNL     1       7.163  13.744   1.476  1.00  0.00     0.000 C 
BRANCH  17  18
ATOM     18  C   UNL     1       6.596  13.756   0.039  1.00  0.00    -0.000 C 
BRANCH  18  19
ATOM     19  C   UNL     1       5.098  14.112  -0.036  1.00  0.00    -0.000 C 
BRANCH  19  20
ATOM     20  C   UNL     1       4.332  13.458  -1.199  1.00  0.00    -0.000 C 
BRANCH  20  21
ATOM     21  C   UNL     1       4.824  12.034  -1.512  1.00  0.00    -0.000 C 
BRANCH  21  22
ATOM     22  C   UNL     1       4.979  11.783  -3.022  1.00  0.00    -0.000 C 
BRANCH  22  23
ATOM     23  C   UNL     1       6.416  11.397  -3.411  1.00  0.00    -0.000 C 
BRANCH  23  24
ATOM     24  C   UNL     1       6.468  10.312  -4.503  1.00  0.00    -0.000 C 
BRANCH  24  25
ATOM     25  C   UNL     1       5.835   8.965  -4.111  1.00  0.00    -0.003 C 
ATOM     26  C   UNL     1       4.754   8.505  -5.088  1.00  0.00     0.004 C 
ENDBRANCH  24  25
ENDBRANCH  23  24
ENDBRANCH  22  23
ENDBRANCH  21  22
ENDBRANCH  20  21
ENDBRANCH  19  20
ENDBRANCH  18  19
ENDBRANCH  17  18
ENDBRANCH  16  17
ENDBRANCH  15  16
ENDBRANCH   1  15
TORSDOF 22
ENDMDL
MODEL 8
REMARK VINA RESULT:    -2.784      2.003      5.292
REMARK INTER + INTRA:         -10.290
REMARK INTER:                  -6.117
REMARK INTRA:                  -4.173
REMARK UNBOUND:                -3.925
REMARK SMILES CCCCCCCCCCCCCCCCCCCCCCCC(=O)[O-]
REMARK SMILES IDX 13 1 14 2 15 3 16 4 17 5 18 6 19 7 20 8 21 9 22 10 23 11
REMARK SMILES IDX 24 12 25 13 26 14 12 15 11 16 10 17 9 18 8 19 7 20 6 21 5 22
REMARK SMILES IDX 4 23 3 24 2 25 1 26
REMARK H PARENT
REMARK Flexibility Score: inf
ROOT
ATOM      1  C   UNL     1      -3.844  12.131  -2.613  1.00  0.00     0.000 C 
ENDROOT
BRANCH   1   2
ATOM      2  C   UNL     1      -2.710  13.161  -2.767  1.00  0.00     0.000 C 
BRANCH   2   3
ATOM      3  C   UNL     1      -3.004  14.321  -3.740  1.00  0.00     0.000 C 
BRANCH   3   4
ATOM      4  C   UNL     1      -2.048  14.418  -4.945  1.00  0.00     0.000 C 
BRANCH   4   5
ATOM      5  C   UNL     1      -1.831  13.096  -5.707  1.00  0.00     0.000 C 
BRANCH   5   6
ATOM      6  C   UNL     1      -2.738  12.893  -6.937  1.00  0.00     0.000 C 
BRANCH   6   7
ATOM      7  C   UNL     1      -2.144  12.019  -8.057  1.00  0.00     0.000 C 
BRANCH   7   8
ATOM      8  C   UNL     1      -0.644  11.735  -7.863  1.00  0.00     0.000 C 
BRANCH   8   9
ATOM      9  C   UNL     1      -0.264  10.278  -8.182  1.00  0.00     0.000 C 
BRANCH   9  10
ATOM     10  C   UNL     1       0.610   9.576  -7.121  1.00  0.00     0.006 C 
BRANCH  10  11
ATOM     11  C   UNL     1       0.661  10.290  -5.762  1.00  0.00     0.053 C 
BRANCH  11  12
ATOM     12  C   UNL     1       2.068  10.547  -5.316  1.00  0.00     0.041 C 
ATOM     13  O   UNL     1       2.999   9.785  -5.685  1.00  0.00    -0.550 OA
ATOM     14  O   UNL     1       2.346  11.613  -4.470  1.00  0.00    -0.550 OA
ENDBRANCH  11  12
ENDBRANCH  10  11
ENDBRANCH   9  10
ENDBRANCH   8   9
ENDBRANCH   7   8
ENDBRANCH   6   7
ENDBRANCH   5   6
ENDBRANCH   4   5
ENDBRANCH   3   4
ENDBRANCH   2   3
ENDBRANCH   1   2
BRANCH   1  15
ATOM     15  C   UNL     1      -4.894  12.226  -3.734  1.00  0.00     0.000 C 
BRANCH  15  16
ATOM     16  C   UNL     1      -4.846  11.023  -4.690  1.00  0.00     0.000 C 
BRANCH  16  17
ATOM     17  C   UNL     1      -3.876   9.926  -4.218  1.00  0.00     0.000 C 
BRANCH  17  18
ATOM     18  C   UNL     1      -2.845   9.553  -5.305  1.00  0.00    -0.000 C 
BRANCH  18  19
ATOM     19  C   UNL     1      -3.074   8.163  -5.930  1.00  0.00    -0.000 C 
BRANCH  19  20
ATOM     20  C   UNL     1      -3.233   8.155  -7.460  1.00  0.00    -0.000 C 
BRANCH  20  21
ATOM     21  C   UNL     1      -4.680   7.881  -7.908  1.00  0.00    -0.000 C 
BRANCH  21  22
ATOM     22  C   UNL     1      -5.549   9.150  -7.899  1.00  0.00    -0.000 C 
BRANCH  22  23
ATOM     23  C   UNL     1      -6.811   8.995  -7.034  1.00  0.00    -0.000 C 
BRANCH  23  24
ATOM     24  C   UNL     1      -6.645   7.949  -5.916  1.00  0.00    -0.000 C 
BRANCH  24  25
ATOM     25  C   UNL     1      -7.812   7.875  -4.916  1.00  0.00    -0.003 C 
ATOM     26  C   UNL     1      -7.597   6.831  -3.821  1.00  0.00     0.004 C 
ENDBRANCH  24  25
ENDBRANCH  23  24
ENDBRANCH  22  23
ENDBRANCH  21  22
ENDBRANCH  20  21
ENDBRANCH  19  20
ENDBRANCH  18  19
ENDBRANCH  17  18
ENDBRANCH  16  17
ENDBRANCH  15  16
ENDBRANCH   1  15
TORSDOF 22
ENDMDL
MODEL 9
REMARK VINA RESULT:    -2.780      2.222      4.333
REMARK INTER + INTRA:         -10.281
REMARK INTER:                  -6.297
REMARK INTRA:                  -3.984
REMARK UNBOUND:                -3.925
REMARK SMILES CCCCCCCCCCCCCCCCCCCCCCCC(=O)[O-]
REMARK SMILES IDX 13 1 14 2 15 3 16 4 17 5 18 6 19 7 20 8 21 9 22 10 23 11
REMARK SMILES IDX 24 12 25 13 26 14 12 15 11 16 10 17 9 18 8 19 7 20 6 21 5 22
REMARK SMILES IDX 4 23 3 24 2 25 1 26
REMARK H PARENT
REMARK Flexibility Score: inf
ROOT
ATOM      1  C   UNL     1      -3.803   8.343  -5.378  1.00  0.00     0.000 C 
ENDROOT
BRANCH   1   2
ATOM      2  C   UNL     1      -3.504   8.649  -6.858  1.00  0.00     0.000 C 
BRANCH   2   3
ATOM      3  C   UNL     1      -4.213   9.895  -7.428  1.00  0.00     0.000 C 
BRANCH   3   4
ATOM      4  C   UNL     1      -3.290  10.901  -8.141  1.00  0.00     0.000 C 
BRANCH   4   5
ATOM      5  C   UNL     1      -2.733  12.020  -7.238  1.00  0.00     0.000 C 
BRANCH   5   6
ATOM      6  C   UNL     1      -1.195  12.118  -7.192  1.00  0.00     0.000 C 
BRANCH   6   7
ATOM      7  C   UNL     1      -0.549  11.716  -5.853  1.00  0.00     0.000 C 
BRANCH   7   8
ATOM      8  C   UNL     1      -0.195  10.220  -5.785  1.00  0.00     0.000 C 
BRANCH   8   9
ATOM      9  C   UNL     1       0.258   9.649  -7.140  1.00  0.00     0.000 C 
BRANCH   9  10
ATOM     10  C   UNL     1       1.752   9.843  -7.473  1.00  0.00     0.006 C 
BRANCH  10  11
ATOM     11  C   UNL     1       2.699   9.697  -6.272  1.00  0.00     0.053 C 
BRANCH  11  12
ATOM     12  C   UNL     1       3.223   8.300  -6.139  1.00  0.00     0.041 C 
ATOM     13  O   UNL     1       3.243   7.533  -7.137  1.00  0.00    -0.550 OA
ATOM     14  O   UNL     1       3.661   7.835  -4.905  1.00  0.00    -0.550 OA
ENDBRANCH  11  12
ENDBRANCH  10  11
ENDBRANCH   9  10
ENDBRANCH   8   9
ENDBRANCH   7   8
ENDBRANCH   6   7
ENDBRANCH   5   6
ENDBRANCH   4   5
ENDBRANCH   3   4
ENDBRANCH   2   3
ENDBRANCH   1   2
BRANCH   1  15
ATOM     15  C   UNL     1      -4.341   9.565  -4.613  1.00  0.00     0.000 C 
BRANCH  15  16
ATOM     16  C   UNL     1      -3.258  10.251  -3.765  1.00  0.00     0.000 C 
BRANCH  16  17
ATOM     17  C   UNL     1      -3.459  11.773  -3.662  1.00  0.00     0.000 C 
BRANCH  17  18
ATOM     18  C   UNL     1      -4.951  12.157  -3.562  1.00  0.00    -0.000 C 
BRANCH  18  19
ATOM     19  C   UNL     1      -5.453  13.018  -4.738  1.00  0.00    -0.000 C 
BRANCH  19  20
ATOM     20  C   UNL     1      -6.933  13.433  -4.656  1.00  0.00    -0.000 C 
BRANCH  20  21
ATOM     21  C   UNL     1      -7.762  12.924  -5.849  1.00  0.00    -0.000 C 
BRANCH  21  22
ATOM     22  C   UNL     1      -7.314  11.531  -6.325  1.00  0.00    -0.000 C 
BRANCH  22  23
ATOM     23  C   UNL     1      -8.247  10.411  -5.833  1.00  0.00    -0.000 C 
BRANCH  23  24
ATOM     24  C   UNL     1      -7.602   9.016  -5.918  1.00  0.00    -0.000 C 
BRANCH  24  25
ATOM     25  C   UNL     1      -8.215   7.957  -4.984  1.00  0.00    -0.003 C 
ATOM     26  C   UNL     1      -7.166   7.179  -4.191  1.00  0.00     0.004 C 
ENDBRANCH  24  25
ENDBRANCH  23  24
ENDBRANCH  22  23
ENDBRANCH  21  22
ENDBRANCH  20  21
ENDBRANCH  19  20
ENDBRANCH  18  19
ENDBRANCH  17  18
ENDBRANCH  16  17
ENDBRANCH  15  16
ENDBRANCH   1  15
TORSDOF 22
ENDMDL
