MODEL 1
REMARK VINA RESULT:    -4.573      0.000      0.000
REMARK INTER + INTRA:          -5.544
REMARK INTER:                  -5.508
REMARK INTRA:                  -0.035
REMARK UNBOUND:                -0.035
REMARK SMILES O=c1c(O)c(-c2ccc(O)cc2O)oc2cc(O)cc(O)c12
REMARK SMILES IDX 5 1 3 2 2 3 1 4 22 5 20 6 19 7 17 8 16 9 15 10 14 11 6 12
REMARK SMILES IDX 8 13 7 14 9 15 11 16 12 17 10 18 13 20 4 22 21 24 18 26
REMARK H PARENT 10 19 13 21 4 23 21 25 18 27
REMARK Flexibility Score: inf
ROOT
ATOM      1  C   UNL     1       2.000  23.345   3.874  1.00  0.00     0.184 A 
ATOM      2  C   UNL     1       2.895  24.148   3.151  1.00  0.00     0.208 A 
ATOM      3  C   UNL     1       4.149  24.441   3.710  1.00  0.00     0.238 A 
ATOM      4  O   UNL     1       4.969  25.116   3.034  1.00  0.00    -0.285 OA
ATOM      5  C   UNL     1       4.482  23.941   4.992  1.00  0.00     0.111 A 
ATOM      6  C   UNL     1       5.708  24.209   5.673  1.00  0.00     0.134 A 
ATOM      7  C   UNL     1       5.984  23.556   6.881  1.00  0.00     0.093 A 
ATOM      8  C   UNL     1       5.050  22.697   7.465  1.00  0.00     0.123 A 
ATOM      9  C   UNL     1       3.826  22.475   6.837  1.00  0.00     0.094 A 
ATOM     10  C   UNL     1       3.536  23.083   5.614  1.00  0.00     0.146 A 
ATOM     11  O   UNL     1       2.363  22.836   5.044  1.00  0.00    -0.451 OA
ENDROOT
BRANCH   1  12
ATOM     12  C   UNL     1       0.657  23.012   3.350  1.00  0.00     0.063 A 
ATOM     13  C   UNL     1      -1.007  21.320   2.829  1.00  0.00     0.047 A 
ATOM     14  C   UNL     1       0.256  21.668   3.313  1.00  0.00     0.020 A 
ATOM     15  C   UNL     1      -1.891  22.312   2.389  1.00  0.00     0.119 A 
ATOM     16  C   UNL     1      -1.508  23.656   2.444  1.00  0.00     0.093 A 
ATOM     17  C   UNL     1      -0.243  24.015   2.933  1.00  0.00     0.130 A 
BRANCH  15  18
ATOM     18  O   UNL     1      -3.151  21.976   1.900  1.00  0.00    -0.508 OA
ATOM     19  H   UNL     1      -3.461  21.012   1.854  1.00  0.00     0.293 HD
ENDBRANCH  15  18
BRANCH  17  20
ATOM     20  O   UNL     1       0.108  25.362   3.028  1.00  0.00    -0.507 OA
ATOM     21  H   UNL     1       0.979  25.712   2.646  1.00  0.00     0.293 HD
ENDBRANCH  17  20
ENDBRANCH   1  12
BRANCH   2  22
ATOM     22  O   UNL     1       2.548  24.612   1.879  1.00  0.00    -0.502 OA
ATOM     23  H   UNL     1       2.651  25.583   1.609  1.00  0.00     0.293 HD
ENDBRANCH   2  22
BRANCH   6  24
ATOM     24  O   UNL     1       6.668  25.120   5.222  1.00  0.00    -0.507 OA
ATOM     25  H   UNL     1       7.626  25.148   5.535  1.00  0.00     0.293 HD
ENDBRANCH   6  24
BRANCH   8  26
ATOM     26  O   UNL     1       5.326  22.064   8.676  1.00  0.00    -0.508 OA
ATOM     27  H   UNL     1       5.101  22.496   9.563  1.00  0.00     0.293 HD
ENDBRANCH   8  26
TORSDOF 6
ENDMDL
MODEL 2
REMARK VINA RESULT:    -4.567      1.215      2.907
REMARK INTER + INTRA:          -5.537
REMARK INTER:                  -5.255
REMARK INTRA:                  -0.282
REMARK UNBOUND:                -0.035
REMARK SMILES O=c1c(O)c(-c2ccc(O)cc2O)oc2cc(O)cc(O)c12
REMARK SMILES IDX 5 1 3 2 2 3 1 4 22 5 20 6 19 7 17 8 16 9 15 10 14 11 6 12
REMARK SMILES IDX 8 13 7 14 9 15 11 16 12 17 10 18 13 20 4 22 21 24 18 26
REMARK H PARENT 10 19 13 21 4 23 21 25 18 27
REMARK Flexibility Score: inf
ROOT
ATOM      1  C   UNL     1       1.871  23.231   4.097  1.00  0.00     0.184 A 
ATOM      2  C   UNL     1       2.171  22.877   5.421  1.00  0.00     0.208 A 
ATOM      3  C   UNL     1       3.459  23.129   5.917  1.00  0.00     0.238 A 
ATOM      4  O   UNL     1       3.706  22.860   7.122  1.00  0.00    -0.285 OA
ATOM      5  C   UNL     1       4.435  23.716   5.075  1.00  0.00     0.111 A 
ATOM      6  C   UNL     1       5.785  23.979   5.460  1.00  0.00     0.134 A 
ATOM      7  C   UNL     1       6.626  24.682   4.589  1.00  0.00     0.093 A 
ATOM      8  C   UNL     1       6.188  25.071   3.321  1.00  0.00     0.123 A 
ATOM      9  C   UNL     1       4.890  24.767   2.914  1.00  0.00     0.094 A 
ATOM     10  C   UNL     1       4.015  24.100   3.774  1.00  0.00     0.146 A 
ATOM     11  O   UNL     1       2.784  23.839   3.350  1.00  0.00    -0.451 OA
ENDROOT
BRANCH   1  12
ATOM     12  C   UNL     1       0.539  22.978   3.507  1.00  0.00     0.063 A 
ATOM     13  C   UNL     1      -1.236  21.401   2.986  1.00  0.00     0.047 A 
ATOM     14  C   UNL     1       0.022  21.673   3.529  1.00  0.00     0.020 A 
ATOM     15  C   UNL     1      -1.999  22.432   2.425  1.00  0.00     0.119 A 
ATOM     16  C   UNL     1      -1.501  23.739   2.419  1.00  0.00     0.093 A 
ATOM     17  C   UNL     1      -0.242  24.022   2.967  1.00  0.00     0.130 A 
BRANCH  15  18
ATOM     18  O   UNL     1      -3.252  22.171   1.875  1.00  0.00    -0.508 OA
ATOM     19  H   UNL     1      -3.613  21.227   1.804  1.00  0.00     0.293 HD
ENDBRANCH  15  18
BRANCH  17  20
ATOM     20  O   UNL     1       0.222  25.337   2.999  1.00  0.00    -0.507 OA
ATOM     21  H   UNL     1       0.205  25.887   3.851  1.00  0.00     0.293 HD
ENDBRANCH  17  20
ENDBRANCH   1  12
BRANCH   2  22
ATOM     22  O   UNL     1       1.183  22.316   6.235  1.00  0.00    -0.502 OA
ATOM     23  H   UNL     1       0.283  22.025   5.874  1.00  0.00     0.293 HD
ENDBRANCH   2  22
BRANCH   6  24
ATOM     24  O   UNL     1       6.349  23.552   6.666  1.00  0.00    -0.507 OA
ATOM     25  H   UNL     1       5.823  23.249   7.471  1.00  0.00     0.293 HD
ENDBRANCH   6  24
BRANCH   8  26
ATOM     26  O   UNL     1       7.037  25.756   2.454  1.00  0.00    -0.508 OA
ATOM     27  H   UNL     1       6.800  26.672   2.093  1.00  0.00     0.293 HD
ENDBRANCH   8  26
TORSDOF 6
ENDMDL
MODEL 3
REMARK VINA RESULT:    -4.294      2.554      5.856
REMARK INTER + INTRA:          -5.208
REMARK INTER:                  -5.447
REMARK INTRA:                   0.240
REMARK UNBOUND:                -0.035
REMARK SMILES O=c1c(O)c(-c2ccc(O)cc2O)oc2cc(O)cc(O)c12
REMARK SMILES IDX 5 1 3 2 2 3 1 4 22 5 20 6 19 7 17 8 16 9 15 10 14 11 6 12
REMARK SMILES IDX 8 13 7 14 9 15 11 16 12 17 10 18 13 20 4 22 21 24 18 26
REMARK H PARENT 10 19 13 21 4 23 21 25 18 27
REMARK Flexibility Score: inf
ROOT
ATOM      1  C   UNL     1       2.056  22.962   4.216  1.00  0.00     0.184 A 
ATOM      2  C   UNL     1       0.940  22.851   3.374  1.00  0.00     0.208 A 
ATOM      3  C   UNL     1      -0.250  22.314   3.889  1.00  0.00     0.238 A 
ATOM      4  O   UNL     1      -1.265  22.267   3.145  1.00  0.00    -0.285 OA
ATOM      5  C   UNL     1      -0.300  21.880   5.236  1.00  0.00     0.111 A 
ATOM      6  C   UNL     1      -1.441  21.283   5.853  1.00  0.00     0.134 A 
ATOM      7  C   UNL     1      -1.421  21.011   7.227  1.00  0.00     0.093 A 
ATOM      8  C   UNL     1      -0.277  21.254   7.992  1.00  0.00     0.123 A 
ATOM      9  C   UNL     1       0.861  21.781   7.386  1.00  0.00     0.094 A 
ATOM     10  C   UNL     1       0.859  22.097   6.026  1.00  0.00     0.146 A 
ATOM     11  O   UNL     1       1.962  22.608   5.491  1.00  0.00    -0.451 OA
ENDROOT
BRANCH   1  12
ATOM     12  C   UNL     1       3.345  23.503   3.732  1.00  0.00     0.063 A 
ATOM     13  C   UNL     1       4.863  23.902   1.876  1.00  0.00     0.047 A 
ATOM     14  C   UNL     1       3.657  23.397   2.368  1.00  0.00     0.020 A 
ATOM     15  C   UNL     1       5.766  24.533   2.740  1.00  0.00     0.119 A 
ATOM     16  C   UNL     1       5.452  24.663   4.097  1.00  0.00     0.093 A 
ATOM     17  C   UNL     1       4.241  24.164   4.598  1.00  0.00     0.130 A 
BRANCH  15  18
ATOM     18  O   UNL     1       6.974  25.036   2.263  1.00  0.00    -0.508 OA
ATOM     19  H   UNL     1       7.064  25.386   1.316  1.00  0.00     0.293 HD
ENDBRANCH  15  18
BRANCH  17  20
ATOM     20  O   UNL     1       3.919  24.344   5.943  1.00  0.00    -0.507 OA
ATOM     21  H   UNL     1       4.569  24.103   6.682  1.00  0.00     0.293 HD
ENDBRANCH  17  20
ENDBRANCH   1  12
BRANCH   2  22
ATOM     22  O   UNL     1       1.012  23.305   2.053  1.00  0.00    -0.502 OA
ATOM     23  H   UNL     1       0.377  22.983   1.334  1.00  0.00     0.293 HD
ENDBRANCH   2  22
BRANCH   6  24
ATOM     24  O   UNL     1      -2.600  20.916   5.161  1.00  0.00    -0.507 OA
ATOM     25  H   UNL     1      -2.661  20.149   4.509  1.00  0.00     0.293 HD
ENDBRANCH   6  24
BRANCH   8  26
ATOM     26  O   UNL     1      -0.260  20.966   9.355  1.00  0.00    -0.508 OA
ATOM     27  H   UNL     1      -0.093  21.686  10.047  1.00  0.00     0.293 HD
ENDBRANCH   8  26
TORSDOF 6
ENDMDL
MODEL 4
REMARK VINA RESULT:    -4.019      2.070      6.440
REMARK INTER + INTRA:          -4.877
REMARK INTER:                  -4.525
REMARK INTRA:                  -0.352
REMARK UNBOUND:                -0.035
REMARK SMILES O=c1c(O)c(-c2ccc(O)cc2O)oc2cc(O)cc(O)c12
REMARK SMILES IDX 5 1 3 2 2 3 1 4 22 5 20 6 19 7 17 8 16 9 15 10 14 11 6 12
REMARK SMILES IDX 8 13 7 14 9 15 11 16 12 17 10 18 13 20 4 22 21 24 18 26
REMARK H PARENT 10 19 13 21 4 23 21 25 18 27
REMARK Flexibility Score: inf
ROOT
ATOM      1  C   UNL     1       2.171  23.265   3.997  1.00  0.00     0.184 A 
ATOM      2  C   UNL     1       2.040  23.002   5.369  1.00  0.00     0.208 A 
ATOM      3  C   UNL     1       0.871  22.380   5.833  1.00  0.00     0.238 A 
ATOM      4  O   UNL     1       0.781  22.097   7.057  1.00  0.00    -0.285 OA
ATOM      5  C   UNL     1      -0.158  22.045   4.919  1.00  0.00     0.111 A 
ATOM      6  C   UNL     1      -1.403  21.448   5.284  1.00  0.00     0.134 A 
ATOM      7  C   UNL     1      -2.294  21.041   4.282  1.00  0.00     0.093 A 
ATOM      8  C   UNL     1      -2.013  21.269   2.933  1.00  0.00     0.123 A 
ATOM      9  C   UNL     1      -0.827  21.904   2.571  1.00  0.00     0.094 A 
ATOM     10  C   UNL     1       0.098  22.289   3.545  1.00  0.00     0.146 A 
ATOM     11  O   UNL     1       1.220  22.881   3.155  1.00  0.00    -0.451 OA
ENDROOT
BRANCH   1  12
ATOM     12  C   UNL     1       3.370  23.933   3.445  1.00  0.00     0.063 A 
ATOM     13  C   UNL     1       5.764  23.889   3.026  1.00  0.00     0.047 A 
ATOM     14  C   UNL     1       4.613  23.288   3.542  1.00  0.00     0.020 A 
ATOM     15  C   UNL     1       5.684  25.135   2.394  1.00  0.00     0.119 A 
ATOM     16  C   UNL     1       4.446  25.773   2.272  1.00  0.00     0.093 A 
ATOM     17  C   UNL     1       3.284  25.175   2.782  1.00  0.00     0.130 A 
BRANCH  15  18
ATOM     18  O   UNL     1       6.826  25.746   1.880  1.00  0.00    -0.508 OA
ATOM     19  H   UNL     1       7.309  26.478   2.388  1.00  0.00     0.293 HD
ENDBRANCH  15  18
BRANCH  17  20
ATOM     20  O   UNL     1       2.049  25.799   2.611  1.00  0.00    -0.507 OA
ATOM     21  H   UNL     1       1.890  26.756   2.908  1.00  0.00     0.293 HD
ENDBRANCH  17  20
ENDBRANCH   1  12
BRANCH   2  22
ATOM     22  O   UNL     1       3.079  23.326   6.246  1.00  0.00    -0.502 OA
ATOM     23  H   UNL     1       3.913  23.814   5.942  1.00  0.00     0.293 HD
ENDBRANCH   2  22
BRANCH   6  24
ATOM     24  O   UNL     1      -1.821  21.260   6.605  1.00  0.00    -0.507 OA
ATOM     25  H   UNL     1      -2.480  20.558   6.905  1.00  0.00     0.293 HD
ENDBRANCH   6  24
BRANCH   8  26
ATOM     26  O   UNL     1      -2.912  20.875   1.944  1.00  0.00    -0.508 OA
ATOM     27  H   UNL     1      -2.623  20.762   0.980  1.00  0.00     0.293 HD
ENDBRANCH   8  26
TORSDOF 6
ENDMDL
MODEL 5
REMARK VINA RESULT:    -3.945      1.555      2.034
REMARK INTER + INTRA:          -4.787
REMARK INTER:                  -4.563
REMARK INTRA:                  -0.225
REMARK UNBOUND:                -0.035
REMARK SMILES O=c1c(O)c(-c2ccc(O)cc2O)oc2cc(O)cc(O)c12
REMARK SMILES IDX 5 1 3 2 2 3 1 4 22 5 20 6 19 7 17 8 16 9 15 10 14 11 6 12
REMARK SMILES IDX 8 13 7 14 9 15 11 16 12 17 10 18 13 20 4 22 21 24 18 26
REMARK H PARENT 10 19 13 21 4 23 21 25 18 27
REMARK Flexibility Score: inf
ROOT
ATOM      1  C   UNL     1       2.553  22.793   5.265  1.00  0.00     0.184 A 
ATOM      2  C   UNL     1       3.199  23.746   4.464  1.00  0.00     0.208 A 
ATOM      3  C   UNL     1       4.484  24.179   4.825  1.00  0.00     0.238 A 
ATOM      4  O   UNL     1       5.081  24.994   4.073  1.00  0.00    -0.285 OA
ATOM      5  C   UNL     1       5.098  23.664   5.993  1.00  0.00     0.111 A 
ATOM      6  C   UNL     1       6.382  24.062   6.476  1.00  0.00     0.134 A 
ATOM      7  C   UNL     1       6.946  23.391   7.568  1.00  0.00     0.093 A 
ATOM      8  C   UNL     1       6.246  22.384   8.235  1.00  0.00     0.123 A 
ATOM      9  C   UNL     1       4.968  22.030   7.807  1.00  0.00     0.094 A 
ATOM     10  C   UNL     1       4.393  22.654   6.698  1.00  0.00     0.146 A 
ATOM     11  O   UNL     1       3.178  22.279   6.317  1.00  0.00    -0.451 OA
ENDROOT
BRANCH   1  12
ATOM     12  C   UNL     1       1.192  22.307   4.951  1.00  0.00     0.063 A 
ATOM     13  C   UNL     1      -0.340  21.317   3.345  1.00  0.00     0.047 A 
ATOM     14  C   UNL     1       0.933  21.789   3.673  1.00  0.00     0.020 A 
ATOM     15  C   UNL     1      -1.367  21.343   4.296  1.00  0.00     0.119 A 
ATOM     16  C   UNL     1      -1.111  21.835   5.579  1.00  0.00     0.093 A 
ATOM     17  C   UNL     1       0.166  22.306   5.919  1.00  0.00     0.130 A 
BRANCH  15  18
ATOM     18  O   UNL     1      -2.642  20.879   3.979  1.00  0.00    -0.508 OA
ATOM     19  H   UNL     1      -2.824  19.893   3.830  1.00  0.00     0.293 HD
ENDBRANCH  15  18
BRANCH  17  20
ATOM     20  O   UNL     1       0.420  22.749   7.217  1.00  0.00    -0.507 OA
ATOM     21  H   UNL     1       1.206  23.354   7.428  1.00  0.00     0.293 HD
ENDBRANCH  17  20
ENDBRANCH   1  12
BRANCH   2  22
ATOM     22  O   UNL     1       2.577  24.224   3.307  1.00  0.00    -0.502 OA
ATOM     23  H   UNL     1       1.800  24.872   3.337  1.00  0.00     0.293 HD
ENDBRANCH   2  22
BRANCH   6  24
ATOM     24  O   UNL     1       7.125  25.118   5.939  1.00  0.00    -0.507 OA
ATOM     25  H   UNL     1       7.901  25.568   6.400  1.00  0.00     0.293 HD
ENDBRANCH   6  24
BRANCH   8  26
ATOM     26  O   UNL     1       6.808  21.733   9.332  1.00  0.00    -0.508 OA
ATOM     27  H   UNL     1       7.716  21.996   9.695  1.00  0.00     0.293 HD
ENDBRANCH   8  26
TORSDOF 6
ENDMDL
MODEL 6
REMARK VINA RESULT:    -3.213      1.482      3.122
REMARK INTER + INTRA:          -3.906
REMARK INTER:                  -4.376
REMARK INTRA:                   0.470
REMARK UNBOUND:                -0.035
REMARK SMILES O=c1c(O)c(-c2ccc(O)cc2O)oc2cc(O)cc(O)c12
REMARK SMILES IDX 5 1 3 2 2 3 1 4 22 5 20 6 19 7 17 8 16 9 15 10 14 11 6 12
REMARK SMILES IDX 8 13 7 14 9 15 11 16 12 17 10 18 13 20 4 22 21 24 18 26
REMARK H PARENT 10 19 13 21 4 23 21 25 18 27
REMARK Flexibility Score: inf
ROOT
ATOM      1  C   UNL     1       1.481  22.286   4.977  1.00  0.00     0.184 A 
ATOM      2  C   UNL     1       1.880  21.652   6.164  1.00  0.00     0.208 A 
ATOM      3  C   UNL     1       3.190  21.843   6.629  1.00  0.00     0.238 A 
ATOM      4  O   UNL     1       3.526  21.316   7.723  1.00  0.00    -0.285 OA
ATOM      5  C   UNL     1       4.089  22.651   5.891  1.00  0.00     0.111 A 
ATOM      6  C   UNL     1       5.452  22.880   6.247  1.00  0.00     0.134 A 
ATOM      7  C   UNL     1       6.212  23.801   5.515  1.00  0.00     0.093 A 
ATOM      8  C   UNL     1       5.677  24.451   4.400  1.00  0.00     0.123 A 
ATOM      9  C   UNL     1       4.365  24.189   4.009  1.00  0.00     0.094 A 
ATOM     10  C   UNL     1       3.571  23.303   4.741  1.00  0.00     0.146 A 
ATOM     11  O   UNL     1       2.323  23.090   4.341  1.00  0.00    -0.451 OA
ENDROOT
BRANCH   1  12
ATOM     12  C   UNL     1       0.121  22.114   4.423  1.00  0.00     0.063 A 
ATOM     13  C   UNL     1      -1.970  20.875   4.399  1.00  0.00     0.047 A 
ATOM     14  C   UNL     1      -0.678  21.063   4.897  1.00  0.00     0.020 A 
ATOM     15  C   UNL     1      -2.484  21.746   3.430  1.00  0.00     0.119 A 
ATOM     16  C   UNL     1      -1.703  22.810   2.970  1.00  0.00     0.093 A 
ATOM     17  C   UNL     1      -0.407  23.009   3.469  1.00  0.00     0.130 A 
BRANCH  15  18
ATOM     18  O   UNL     1      -3.769  21.566   2.923  1.00  0.00    -0.508 OA
ATOM     19  H   UNL     1      -4.147  22.180   2.211  1.00  0.00     0.293 HD
ENDBRANCH  15  18
BRANCH  17  20
ATOM     20  O   UNL     1       0.343  24.103   3.037  1.00  0.00    -0.507 OA
ATOM     21  H   UNL     1      -0.047  25.039   3.013  1.00  0.00     0.293 HD
ENDBRANCH  17  20
ENDBRANCH   1  12
BRANCH   2  22
ATOM     22  O   UNL     1       0.966  20.875   6.882  1.00  0.00    -0.502 OA
ATOM     23  H   UNL     1       0.392  21.259   7.623  1.00  0.00     0.293 HD
ENDBRANCH   2  22
BRANCH   6  24
ATOM     24  O   UNL     1       6.110  22.215   7.287  1.00  0.00    -0.507 OA
ATOM     25  H   UNL     1       6.815  22.627   7.878  1.00  0.00     0.293 HD
ENDBRANCH   6  24
BRANCH   8  26
ATOM     26  O   UNL     1       6.445  25.354   3.667  1.00  0.00    -0.508 OA
ATOM     27  H   UNL     1       6.149  26.313   3.533  1.00  0.00     0.293 HD
ENDBRANCH   8  26
TORSDOF 6
ENDMDL
MODEL 7
REMARK VINA RESULT:    -3.035      1.875      6.593
REMARK INTER + INTRA:          -3.691
REMARK INTER:                  -3.945
REMARK INTRA:                   0.254
REMARK UNBOUND:                -0.035
REMARK SMILES O=c1c(O)c(-c2ccc(O)cc2O)oc2cc(O)cc(O)c12
REMARK SMILES IDX 5 1 3 2 2 3 1 4 22 5 20 6 19 7 17 8 16 9 15 10 14 11 6 12
REMARK SMILES IDX 8 13 7 14 9 15 11 16 12 17 10 18 13 20 4 22 21 24 18 26
REMARK H PARENT 10 19 13 21 4 23 21 25 18 27
REMARK Flexibility Score: inf
ROOT
ATOM      1  C   UNL     1       2.570  22.348   5.572  1.00  0.00     0.184 A 
ATOM      2  C   UNL     1       2.637  22.774   4.237  1.00  0.00     0.208 A 
ATOM      3  C   UNL     1       1.485  22.694   3.439  1.00  0.00     0.238 A 
ATOM      4  O   UNL     1       1.536  23.129   2.258  1.00  0.00    -0.285 OA
ATOM      5  C   UNL     1       0.287  22.171   3.984  1.00  0.00     0.111 A 
ATOM      6  C   UNL     1      -0.930  22.006   3.255  1.00  0.00     0.134 A 
ATOM      7  C   UNL     1      -2.089  21.601   3.929  1.00  0.00     0.093 A 
ATOM      8  C   UNL     1      -2.059  21.293   5.291  1.00  0.00     0.123 A 
ATOM      9  C   UNL     1      -0.863  21.394   5.998  1.00  0.00     0.094 A 
ATOM     10  C   UNL     1       0.302  21.830   5.362  1.00  0.00     0.146 A 
ATOM     11  O   UNL     1       1.418  21.924   6.075  1.00  0.00    -0.451 OA
ENDROOT
BRANCH   1  12
ATOM     12  C   UNL     1       3.751  22.390   6.462  1.00  0.00     0.063 A 
ATOM     13  C   UNL     1       5.246  21.227   7.984  1.00  0.00     0.047 A 
ATOM     14  C   UNL     1       4.133  21.223   7.140  1.00  0.00     0.020 A 
ATOM     15  C   UNL     1       6.000  22.395   8.149  1.00  0.00     0.119 A 
ATOM     16  C   UNL     1       5.640  23.556   7.458  1.00  0.00     0.093 A 
ATOM     17  C   UNL     1       4.527  23.560   6.605  1.00  0.00     0.130 A 
BRANCH  15  18
ATOM     18  O   UNL     1       7.109  22.413   8.992  1.00  0.00    -0.508 OA
ATOM     19  H   UNL     1       7.056  22.069   9.944  1.00  0.00     0.293 HD
ENDBRANCH  15  18
BRANCH  17  20
ATOM     20  O   UNL     1       4.208  24.710   5.884  1.00  0.00    -0.507 OA
ATOM     21  H   UNL     1       3.532  25.383   6.229  1.00  0.00     0.293 HD
ENDBRANCH  17  20
ENDBRANCH   1  12
BRANCH   2  22
ATOM     22  O   UNL     1       3.828  23.303   3.731  1.00  0.00    -0.502 OA
ATOM     23  H   UNL     1       4.518  22.731   3.260  1.00  0.00     0.293 HD
ENDBRANCH   2  22
BRANCH   6  24
ATOM     24  O   UNL     1      -1.045  22.199   1.875  1.00  0.00    -0.507 OA
ATOM     25  H   UNL     1      -0.302  22.524   1.276  1.00  0.00     0.293 HD
ENDBRANCH   6  24
BRANCH   8  26
ATOM     26  O   UNL     1      -3.214  20.875   5.951  1.00  0.00    -0.508 OA
ATOM     27  H   UNL     1      -3.376  21.097   6.926  1.00  0.00     0.293 HD
ENDBRANCH   8  26
TORSDOF 6
ENDMDL
MODEL 8
REMARK VINA RESULT:    -2.983     23.490     25.052
REMARK INTER + INTRA:          -3.629
REMARK INTER:                  -4.210
REMARK INTRA:                   0.581
REMARK UNBOUND:                -0.035
REMARK SMILES O=c1c(O)c(-c2ccc(O)cc2O)oc2cc(O)cc(O)c12
REMARK SMILES IDX 5 1 3 2 2 3 1 4 22 5 20 6 19 7 17 8 16 9 15 10 14 11 6 12
REMARK SMILES IDX 8 13 7 14 9 15 11 16 12 17 10 18 13 20 4 22 21 24 18 26
REMARK H PARENT 10 19 13 21 4 23 21 25 18 27
REMARK Flexibility Score: inf
ROOT
ATOM      1  C   UNL     1      -6.378  40.948  18.405  1.00  0.00     0.184 A 
ATOM      2  C   UNL     1      -7.162  40.996  19.567  1.00  0.00     0.208 A 
ATOM      3  C   UNL     1      -8.559  40.958  19.447  1.00  0.00     0.238 A 
ATOM      4  O   UNL     1      -9.257  40.946  20.495  1.00  0.00    -0.285 OA
ATOM      5  C   UNL     1      -9.153  40.889  18.163  1.00  0.00     0.111 A 
ATOM      6  C   UNL     1     -10.561  40.886  17.920  1.00  0.00     0.134 A 
ATOM      7  C   UNL     1     -11.036  40.684  16.618  1.00  0.00     0.093 A 
ATOM      8  C   UNL     1     -10.155  40.552  15.542  1.00  0.00     0.123 A 
ATOM      9  C   UNL     1      -8.781  40.612  15.762  1.00  0.00     0.094 A 
ATOM     10  C   UNL     1      -8.275  40.776  17.053  1.00  0.00     0.146 A 
ATOM     11  O   UNL     1      -6.959  40.818  17.219  1.00  0.00    -0.451 OA
ENDROOT
BRANCH   1  12
ATOM     12  C   UNL     1      -4.901  41.001  18.461  1.00  0.00     0.063 A 
ATOM     13  C   UNL     1      -2.871  40.969  19.797  1.00  0.00     0.047 A 
ATOM     14  C   UNL     1      -4.264  40.927  19.709  1.00  0.00     0.020 A 
ATOM     15  C   UNL     1      -2.095  41.072  18.636  1.00  0.00     0.119 A 
ATOM     16  C   UNL     1      -2.721  41.123  17.386  1.00  0.00     0.093 A 
ATOM     17  C   UNL     1      -4.119  41.076  17.288  1.00  0.00     0.130 A 
BRANCH  15  18
ATOM     18  O   UNL     1      -0.705  41.120  18.711  1.00  0.00    -0.508 OA
ATOM     19  H   UNL     1      -0.181  40.443  19.255  1.00  0.00     0.293 HD
ENDBRANCH  15  18
BRANCH  17  20
ATOM     20  O   UNL     1      -4.728  41.078  16.034  1.00  0.00    -0.507 OA
ATOM     21  H   UNL     1      -5.667  40.722  15.898  1.00  0.00     0.293 HD
ENDBRANCH  17  20
ENDBRANCH   1  12
BRANCH   2  22
ATOM     22  O   UNL     1      -6.549  41.045  20.823  1.00  0.00    -0.502 OA
ATOM     23  H   UNL     1      -7.070  40.947  21.685  1.00  0.00     0.293 HD
ENDBRANCH   2  22
BRANCH   6  24
ATOM     24  O   UNL     1     -11.524  41.102  18.911  1.00  0.00    -0.507 OA
ATOM     25  H   UNL     1     -11.325  41.196  19.895  1.00  0.00     0.293 HD
ENDBRANCH   6  24
BRANCH   8  26
ATOM     26  O   UNL     1     -10.637  40.367  14.248  1.00  0.00    -0.508 OA
ATOM     27  H   UNL     1     -10.820  39.442  13.878  1.00  0.00     0.293 HD
ENDBRANCH   8  26
TORSDOF 6
ENDMDL
MODEL 9
REMARK VINA RESULT:    -2.677     23.812     25.169
REMARK INTER + INTRA:          -3.261
REMARK INTER:                  -3.533
REMARK INTRA:                   0.272
REMARK UNBOUND:                -0.035
REMARK SMILES O=c1c(O)c(-c2ccc(O)cc2O)oc2cc(O)cc(O)c12
REMARK SMILES IDX 5 1 3 2 2 3 1 4 22 5 20 6 19 7 17 8 16 9 15 10 14 11 6 12
REMARK SMILES IDX 8 13 7 14 9 15 11 16 12 17 10 18 13 20 4 22 21 24 18 26
REMARK H PARENT 10 19 13 21 4 23 21 25 18 27
REMARK Flexibility Score: inf
ROOT
ATOM      1  C   UNL     1      -7.031  40.416  18.450  1.00  0.00     0.184 A 
ATOM      2  C   UNL     1      -7.708  40.647  17.242  1.00  0.00     0.208 A 
ATOM      3  C   UNL     1      -9.095  40.443  17.190  1.00  0.00     0.238 A 
ATOM      4  O   UNL     1      -9.705  40.704  16.120  1.00  0.00    -0.285 OA
ATOM      5  C   UNL     1      -9.783  39.993  18.343  1.00  0.00     0.111 A 
ATOM      6  C   UNL     1     -11.183  39.713  18.394  1.00  0.00     0.134 A 
ATOM      7  C   UNL     1     -11.780  39.399  19.621  1.00  0.00     0.093 A 
ATOM      8  C   UNL     1     -11.018  39.289  20.786  1.00  0.00     0.123 A 
ATOM      9  C   UNL     1      -9.642  39.502  20.735  1.00  0.00     0.094 A 
ATOM     10  C   UNL     1      -9.022  39.853  19.533  1.00  0.00     0.146 A 
ATOM     11  O   UNL     1      -7.711  40.058  19.532  1.00  0.00    -0.451 OA
ENDROOT
BRANCH   1  12
ATOM     12  C   UNL     1      -5.568  40.597  18.568  1.00  0.00     0.063 A 
ATOM     13  C   UNL     1      -3.389  40.650  17.493  1.00  0.00     0.047 A 
ATOM     14  C   UNL     1      -4.773  40.480  17.418  1.00  0.00     0.020 A 
ATOM     15  C   UNL     1      -2.783  40.952  18.719  1.00  0.00     0.119 A 
ATOM     16  C   UNL     1      -3.570  41.093  19.865  1.00  0.00     0.093 A 
ATOM     17  C   UNL     1      -4.961  40.930  19.798  1.00  0.00     0.130 A 
BRANCH  15  18
ATOM     18  O   UNL     1      -1.402  41.119  18.807  1.00  0.00    -0.508 OA
ATOM     19  H   UNL     1      -0.974  41.569  19.608  1.00  0.00     0.293 HD
ENDBRANCH  15  18
BRANCH  17  20
ATOM     20  O   UNL     1      -5.740  41.121  20.939  1.00  0.00    -0.507 OA
ATOM     21  H   UNL     1      -6.503  40.496  21.173  1.00  0.00     0.293 HD
ENDBRANCH  17  20
ENDBRANCH   1  12
BRANCH   2  22
ATOM     22  O   UNL     1      -7.005  41.109  16.125  1.00  0.00    -0.502 OA
ATOM     23  H   UNL     1      -6.258  41.788  16.197  1.00  0.00     0.293 HD
ENDBRANCH   2  22
BRANCH   6  24
ATOM     24  O   UNL     1     -12.018  39.705  17.272  1.00  0.00    -0.507 OA
ATOM     25  H   UNL     1     -11.780  39.294  16.382  1.00  0.00     0.293 HD
ENDBRANCH   6  24
BRANCH   8  26
ATOM     26  O   UNL     1     -11.618  38.960  22.000  1.00  0.00    -0.508 OA
ATOM     27  H   UNL     1     -12.095  39.656  22.560  1.00  0.00     0.293 HD
ENDBRANCH   8  26
TORSDOF 6
ENDMDL
