MODEL 1
REMARK VINA RESULT:    -2.854      0.000      0.000
REMARK INTER + INTRA:          -3.673
REMARK INTER:                  -3.355
REMARK INTRA:                  -0.318
REMARK UNBOUND:                -0.318
REMARK SMILES O=c1cc(-c2ccc(O)c(O)c2)oc2cc(O)cc(O)c12
REMARK SMILES IDX 4 1 3 2 2 3 1 4 21 5 19 6 18 7 16 8 15 9 14 10 13 11 5 12
REMARK SMILES IDX 6 13 7 14 8 15 12 16 10 17 9 18 11 20 20 22 17 24
REMARK H PARENT 9 19 11 21 20 23 17 25
REMARK Flexibility Score: inf
ROOT
ATOM      1  C   UNL     1       1.374  64.221  -7.540  1.00  0.00     0.138 A 
ATOM      2  C   UNL     1       1.642  64.781  -8.798  1.00  0.00     0.100 A 
ATOM      3  C   UNL     1       1.434  66.146  -9.004  1.00  0.00     0.197 A 
ATOM      4  O   UNL     1       1.742  66.631 -10.122  1.00  0.00    -0.289 OA
ATOM      5  C   UNL     1       0.925  66.946  -7.953  1.00  0.00     0.107 A 
ATOM      6  C   UNL     1       0.634  68.338  -8.061  1.00  0.00     0.134 A 
ATOM      7  C   UNL     1       0.244  69.052  -6.921  1.00  0.00     0.093 A 
ATOM      8  C   UNL     1       0.074  68.410  -5.691  1.00  0.00     0.123 A 
ATOM      9  C   UNL     1       0.304  67.040  -5.589  1.00  0.00     0.094 A 
ATOM     10  C   UNL     1       0.727  66.307  -6.700  1.00  0.00     0.146 A 
ATOM     11  O   UNL     1       0.949  65.005  -6.555  1.00  0.00    -0.456 OA
ENDROOT
BRANCH   1  12
ATOM     12  C   UNL     1       1.577  62.775  -7.267  1.00  0.00     0.021 A 
ATOM     13  C   UNL     1       1.951  61.876  -8.283  1.00  0.00     0.016 A 
ATOM     14  C   UNL     1       2.125  60.519  -7.999  1.00  0.00     0.051 A 
ATOM     15  C   UNL     1       1.923  60.034  -6.705  1.00  0.00     0.157 A 
ATOM     16  C   UNL     1       1.363  62.279  -5.969  1.00  0.00     0.062 A 
ATOM     17  C   UNL     1       1.538  60.917  -5.683  1.00  0.00     0.158 A 
BRANCH  15  18
ATOM     18  O   UNL     1       2.106  58.675  -6.452  1.00  0.00    -0.504 OA
ATOM     19  H   UNL     1       2.268  58.318  -5.519  1.00  0.00     0.293 HD
ENDBRANCH  15  18
BRANCH  17  20
ATOM     20  O   UNL     1       1.331  60.441  -4.390  1.00  0.00    -0.504 OA
ATOM     21  H   UNL     1       1.965  59.778  -3.960  1.00  0.00     0.293 HD
ENDBRANCH  17  20
ENDBRANCH   1  12
BRANCH   6  22
ATOM     22  O   UNL     1       0.689  69.058  -9.258  1.00  0.00    -0.507 OA
ATOM     23  H   UNL     1       0.251  69.952  -9.414  1.00  0.00     0.293 HD
ENDBRANCH   6  22
BRANCH   8  24
ATOM     24  O   UNL     1      -0.330  69.125  -4.566  1.00  0.00    -0.508 OA
ATOM     25  H   UNL     1      -1.245  69.557  -4.512  1.00  0.00     0.293 HD
ENDBRANCH   8  24
TORSDOF 5
ENDMDL
MODEL 2
REMARK VINA RESULT:    -2.554      4.476      7.840
REMARK INTER + INTRA:          -3.319
REMARK INTER:                  -3.046
REMARK INTRA:                  -0.273
REMARK UNBOUND:                -0.318
REMARK SMILES O=c1cc(-c2ccc(O)c(O)c2)oc2cc(O)cc(O)c12
REMARK SMILES IDX 4 1 3 2 2 3 1 4 21 5 19 6 18 7 16 8 15 9 14 10 13 11 5 12
REMARK SMILES IDX 6 13 7 14 8 15 12 16 10 17 9 18 11 20 20 22 17 24
REMARK H PARENT 9 19 11 21 20 23 17 25
REMARK Flexibility Score: inf
ROOT
ATOM      1  C   UNL     1      -2.942  68.257  -7.306  1.00  0.00     0.138 A 
ATOM      2  C   UNL     1      -2.461  68.703  -6.066  1.00  0.00     0.100 A 
ATOM      3  C   UNL     1      -1.115  68.524  -5.744  1.00  0.00     0.197 A 
ATOM      4  O   UNL     1      -0.699  68.990  -4.652  1.00  0.00    -0.289 OA
ATOM      5  C   UNL     1      -0.254  67.867  -6.655  1.00  0.00     0.107 A 
ATOM      6  C   UNL     1       1.125  67.593  -6.416  1.00  0.00     0.134 A 
ATOM      7  C   UNL     1       1.906  67.041  -7.439  1.00  0.00     0.093 A 
ATOM      8  C   UNL     1       1.343  66.697  -8.671  1.00  0.00     0.123 A 
ATOM      9  C   UNL     1      -0.014  66.911  -8.895  1.00  0.00     0.094 A 
ATOM     10  C   UNL     1      -0.813  67.492  -7.906  1.00  0.00     0.146 A 
ATOM     11  O   UNL     1      -2.101  67.693  -8.166  1.00  0.00    -0.456 OA
ENDROOT
BRANCH   1  12
ATOM     12  C   UNL     1      -4.364  68.420  -7.699  1.00  0.00     0.021 A 
ATOM     13  C   UNL     1      -4.730  68.974  -8.941  1.00  0.00     0.016 A 
ATOM     14  C   UNL     1      -6.077  69.125  -9.280  1.00  0.00     0.051 A 
ATOM     15  C   UNL     1      -7.080  68.735  -8.388  1.00  0.00     0.157 A 
ATOM     16  C   UNL     1      -5.378  68.042  -6.801  1.00  0.00     0.062 A 
ATOM     17  C   UNL     1      -6.731  68.193  -7.141  1.00  0.00     0.158 A 
BRANCH  15  18
ATOM     18  O   UNL     1      -8.416  68.897  -8.756  1.00  0.00    -0.504 OA
ATOM     19  H   UNL     1      -8.978  69.668  -8.417  1.00  0.00     0.293 HD
ENDBRANCH  15  18
BRANCH  17  20
ATOM     20  O   UNL     1      -7.725  67.806  -6.245  1.00  0.00    -0.504 OA
ATOM     21  H   UNL     1      -8.506  67.228  -6.534  1.00  0.00     0.293 HD
ENDBRANCH  17  20
ENDBRANCH   1  12
BRANCH   6  22
ATOM     22  O   UNL     1       1.766  67.819  -5.195  1.00  0.00    -0.507 OA
ATOM     23  H   UNL     1       2.191  68.690  -4.919  1.00  0.00     0.293 HD
ENDBRANCH   6  22
BRANCH   8  24
ATOM     24  O   UNL     1       2.125  66.133  -9.677  1.00  0.00    -0.508 OA
ATOM     25  H   UNL     1       1.933  66.305 -10.657  1.00  0.00     0.293 HD
ENDBRANCH   8  24
TORSDOF 5
ENDMDL
MODEL 3
REMARK VINA RESULT:    -2.264      3.933      7.378
REMARK INTER + INTRA:          -2.979
REMARK INTER:                  -2.715
REMARK INTRA:                  -0.264
REMARK UNBOUND:                -0.318
REMARK SMILES O=c1cc(-c2ccc(O)c(O)c2)oc2cc(O)cc(O)c12
REMARK SMILES IDX 4 1 3 2 2 3 1 4 21 5 19 6 18 7 16 8 15 9 14 10 13 11 5 12
REMARK SMILES IDX 6 13 7 14 8 15 12 16 10 17 9 18 11 20 20 22 17 24
REMARK H PARENT 9 19 11 21 20 23 17 25
REMARK Flexibility Score: inf
ROOT
ATOM      1  C   UNL     1      -2.511  68.097  -7.045  1.00  0.00     0.138 A 
ATOM      2  C   UNL     1      -2.071  68.797  -8.178  1.00  0.00     0.100 A 
ATOM      3  C   UNL     1      -0.821  68.509  -8.727  1.00  0.00     0.197 A 
ATOM      4  O   UNL     1      -0.481  69.109  -9.779  1.00  0.00    -0.289 OA
ATOM      5  C   UNL     1       0.006  67.535  -8.118  1.00  0.00     0.107 A 
ATOM      6  C   UNL     1       1.316  67.187  -8.564  1.00  0.00     0.134 A 
ATOM      7  C   UNL     1       1.994  66.126  -7.953  1.00  0.00     0.093 A 
ATOM      8  C   UNL     1       1.435  65.440  -6.871  1.00  0.00     0.123 A 
ATOM      9  C   UNL     1       0.180  65.808  -6.394  1.00  0.00     0.094 A 
ATOM     10  C   UNL     1      -0.536  66.840  -7.004  1.00  0.00     0.146 A 
ATOM     11  O   UNL     1      -1.738  67.149  -6.526  1.00  0.00    -0.456 OA
ENDROOT
BRANCH   1  12
ATOM     12  C   UNL     1      -3.831  68.365  -6.421  1.00  0.00     0.021 A 
ATOM     13  C   UNL     1      -3.941  68.892  -5.120  1.00  0.00     0.016 A 
ATOM     14  C   UNL     1      -5.197  69.125  -4.554  1.00  0.00     0.051 A 
ATOM     15  C   UNL     1      -6.361  68.832  -5.268  1.00  0.00     0.157 A 
ATOM     16  C   UNL     1      -5.006  68.061  -7.130  1.00  0.00     0.062 A 
ATOM     17  C   UNL     1      -6.267  68.295  -6.562  1.00  0.00     0.158 A 
BRANCH  15  18
ATOM     18  O   UNL     1      -7.600  69.077  -4.677  1.00  0.00    -0.504 OA
ATOM     19  H   UNL     1      -7.967  68.493  -3.935  1.00  0.00     0.293 HD
ENDBRANCH  15  18
BRANCH  17  20
ATOM     20  O   UNL     1      -7.424  67.997  -7.280  1.00  0.00    -0.504 OA
ATOM     21  H   UNL     1      -7.393  67.754  -8.263  1.00  0.00     0.293 HD
ENDBRANCH  17  20
ENDBRANCH   1  12
BRANCH   6  22
ATOM     22  O   UNL     1       2.000  67.863  -9.580  1.00  0.00    -0.507 OA
ATOM     23  H   UNL     1       1.988  67.604 -10.554  1.00  0.00     0.293 HD
ENDBRANCH   6  22
BRANCH   8  24
ATOM     24  O   UNL     1       2.125  64.396  -6.259  1.00  0.00    -0.508 OA
ATOM     25  H   UNL     1       3.089  64.498  -5.964  1.00  0.00     0.293 HD
ENDBRANCH   8  24
TORSDOF 5
ENDMDL
MODEL 4
REMARK VINA RESULT:    -1.373      1.977      2.557
REMARK INTER + INTRA:          -1.931
REMARK INTER:                  -1.669
REMARK INTRA:                  -0.263
REMARK UNBOUND:                -0.318
REMARK SMILES O=c1cc(-c2ccc(O)c(O)c2)oc2cc(O)cc(O)c12
REMARK SMILES IDX 4 1 3 2 2 3 1 4 21 5 19 6 18 7 16 8 15 9 14 10 13 11 5 12
REMARK SMILES IDX 6 13 7 14 8 15 12 16 10 17 9 18 11 20 20 22 17 24
REMARK H PARENT 9 19 11 21 20 23 17 25
REMARK Flexibility Score: inf
ROOT
ATOM      1  C   UNL     1       0.611  65.254  -6.627  1.00  0.00     0.138 A 
ATOM      2  C   UNL     1       1.443  65.766  -7.633  1.00  0.00     0.100 A 
ATOM      3  C   UNL     1       1.029  66.872  -8.376  1.00  0.00     0.197 A 
ATOM      4  O   UNL     1       1.822  67.347  -9.228  1.00  0.00    -0.289 OA
ATOM      5  C   UNL     1      -0.240  67.449  -8.130  1.00  0.00     0.107 A 
ATOM      6  C   UNL     1      -0.785  68.552  -8.851  1.00  0.00     0.134 A 
ATOM      7  C   UNL     1      -2.001  69.112  -8.442  1.00  0.00     0.093 A 
ATOM      8  C   UNL     1      -2.722  68.569  -7.375  1.00  0.00     0.123 A 
ATOM      9  C   UNL     1      -2.224  67.459  -6.698  1.00  0.00     0.094 A 
ATOM     10  C   UNL     1      -0.997  66.899  -7.061  1.00  0.00     0.146 A 
ATOM     11  O   UNL     1      -0.551  65.848  -6.379  1.00  0.00    -0.456 OA
ENDROOT
BRANCH   1  12
ATOM     12  C   UNL     1       1.003  64.079  -5.809  1.00  0.00     0.021 A 
ATOM     13  C   UNL     1       1.696  64.222  -4.592  1.00  0.00     0.016 A 
ATOM     14  C   UNL     1       2.060  63.097  -3.847  1.00  0.00     0.051 A 
ATOM     15  C   UNL     1       1.749  61.814  -4.304  1.00  0.00     0.157 A 
ATOM     16  C   UNL     1       0.703  62.784  -6.269  1.00  0.00     0.062 A 
ATOM     17  C   UNL     1       1.068  61.655  -5.522  1.00  0.00     0.158 A 
BRANCH  15  18
ATOM     18  O   UNL     1       2.125  60.711  -3.538  1.00  0.00    -0.504 OA
ATOM     19  H   UNL     1       2.858  60.765  -2.841  1.00  0.00     0.293 HD
ENDBRANCH  15  18
BRANCH  17  20
ATOM     20  O   UNL     1       0.757  60.378  -5.986  1.00  0.00    -0.504 OA
ATOM     21  H   UNL     1      -0.190  60.020  -5.961  1.00  0.00     0.293 HD
ENDBRANCH  17  20
ENDBRANCH   1  12
BRANCH   6  22
ATOM     22  O   UNL     1      -0.189  69.116  -9.983  1.00  0.00    -0.507 OA
ATOM     23  H   UNL     1       0.710  69.573  -9.995  1.00  0.00     0.293 HD
ENDBRANCH   6  22
BRANCH   8  24
ATOM     24  O   UNL     1      -3.939  69.123  -6.984  1.00  0.00    -0.508 OA
ATOM     25  H   UNL     1      -4.064  69.539  -6.069  1.00  0.00     0.293 HD
ENDBRANCH   8  24
TORSDOF 5
ENDMDL
MODEL 5
REMARK VINA RESULT:    -1.235     21.553     23.945
REMARK INTER + INTRA:          -1.770
REMARK INTER:                  -1.477
REMARK INTRA:                  -0.293
REMARK UNBOUND:                -0.318
REMARK SMILES O=c1cc(-c2ccc(O)c(O)c2)oc2cc(O)cc(O)c12
REMARK SMILES IDX 4 1 3 2 2 3 1 4 21 5 19 6 18 7 16 8 15 9 14 10 13 11 5 12
REMARK SMILES IDX 6 13 7 14 8 15 12 16 10 17 9 18 11 20 20 22 17 24
REMARK H PARENT 9 19 11 21 20 23 17 25
REMARK Flexibility Score: inf
ROOT
ATOM      1  C   UNL     1      -8.561  51.605   9.882  1.00  0.00     0.138 A 
ATOM      2  C   UNL     1      -8.436  52.999   9.794  1.00  0.00     0.100 A 
ATOM      3  C   UNL     1      -7.168  53.582   9.819  1.00  0.00     0.197 A 
ATOM      4  O   UNL     1      -7.084  54.829   9.676  1.00  0.00    -0.289 OA
ATOM      5  C   UNL     1      -6.021  52.765   9.965  1.00  0.00     0.107 A 
ATOM      6  C   UNL     1      -4.682  53.251  10.045  1.00  0.00     0.134 A 
ATOM      7  C   UNL     1      -3.618  52.341  10.071  1.00  0.00     0.093 A 
ATOM      8  C   UNL     1      -3.848  50.962  10.082  1.00  0.00     0.123 A 
ATOM      9  C   UNL     1      -5.154  50.479  10.059  1.00  0.00     0.094 A 
ATOM     10  C   UNL     1      -6.235  51.361   9.998  1.00  0.00     0.146 A 
ATOM     11  O   UNL     1      -7.465  50.858   9.962  1.00  0.00    -0.456 OA
ENDROOT
BRANCH   1  12
ATOM     12  C   UNL     1      -9.885  50.934   9.862  1.00  0.00     0.021 A 
ATOM     13  C   UNL     1     -10.007  49.544   9.676  1.00  0.00     0.016 A 
ATOM     14  C   UNL     1     -11.267  48.941   9.651  1.00  0.00     0.051 A 
ATOM     15  C   UNL     1     -12.424  49.710   9.803  1.00  0.00     0.157 A 
ATOM     16  C   UNL     1     -11.053  51.704  10.001  1.00  0.00     0.062 A 
ATOM     17  C   UNL     1     -12.318  51.099   9.977  1.00  0.00     0.158 A 
BRANCH  15  18
ATOM     18  O   UNL     1     -13.667  49.078   9.775  1.00  0.00    -0.504 OA
ATOM     19  H   UNL     1     -13.849  48.225  10.290  1.00  0.00     0.293 HD
ENDBRANCH  15  18
BRANCH  17  20
ATOM     20  O   UNL     1     -13.468  51.873  10.125  1.00  0.00    -0.504 OA
ATOM     21  H   UNL     1     -14.376  51.452  10.279  1.00  0.00     0.293 HD
ENDBRANCH  17  20
ENDBRANCH   1  12
BRANCH   6  22
ATOM     22  O   UNL     1      -4.347  54.606  10.125  1.00  0.00    -0.507 OA
ATOM     23  H   UNL     1      -4.277  55.133  10.982  1.00  0.00     0.293 HD
ENDBRANCH   6  22
BRANCH   8  24
ATOM     24  O   UNL     1      -2.784  50.065  10.124  1.00  0.00    -0.508 OA
ATOM     25  H   UNL     1      -2.703  49.371  10.858  1.00  0.00     0.293 HD
ENDBRANCH   8  24
TORSDOF 5
ENDMDL
