MODEL 1
REMARK VINA RESULT:    -0.588      0.000      0.000
REMARK INTER + INTRA:          -7.968
REMARK INTER:                  -1.482
REMARK INTRA:                  -6.486
REMARK UNBOUND:                -6.486
REMARK SMILES CCCCCCCCCCCCCCCCCCCCCCCCCCCC(=O)[O-]
REMARK SMILES IDX 15 1 16 2 17 3 18 4 19 5 20 6 21 7 22 8 23 9 24 10 25 11
REMARK SMILES IDX 26 12 27 13 28 14 29 15 30 16 14 17 13 18 12 19 11 20 10 21
REMARK SMILES IDX 9 22 8 23 7 24 6 25 5 26 4 27 3 28 2 29 1 30
REMARK H PARENT
REMARK Flexibility Score: inf
ROOT
ATOM      1  C   UNL     1      37.991   7.802  35.090  1.00  0.00     0.000 C 
ENDROOT
BRANCH   1   2
ATOM      2  C   UNL     1      37.144   6.520  35.118  1.00  0.00     0.000 C 
BRANCH   2   3
ATOM      3  C   UNL     1      35.762   6.741  35.757  1.00  0.00     0.000 C 
BRANCH   3   4
ATOM      4  C   UNL     1      35.445   8.228  35.981  1.00  0.00     0.000 C 
BRANCH   4   5
ATOM      5  C   UNL     1      34.615   8.475  37.252  1.00  0.00     0.000 C 
BRANCH   5   6
ATOM      6  C   UNL     1      34.789   7.365  38.301  1.00  0.00     0.000 C 
BRANCH   6   7
ATOM      7  C   UNL     1      34.964   7.918  39.726  1.00  0.00     0.000 C 
BRANCH   7   8
ATOM      8  C   UNL     1      35.385   6.833  40.729  1.00  0.00     0.000 C 
BRANCH   8   9
ATOM      9  C   UNL     1      34.264   5.815  41.006  1.00  0.00     0.000 C 
BRANCH   9  10
ATOM     10  C   UNL     1      34.691   4.723  42.000  1.00  0.00     0.000 C 
BRANCH  10  11
ATOM     11  C   UNL     1      36.220   4.593  42.107  1.00  0.00     0.000 C 
BRANCH  11  12
ATOM     12  C   UNL     1      36.714   3.167  41.811  1.00  0.00     0.006 C 
BRANCH  12  13
ATOM     13  C   UNL     1      38.240   3.081  41.687  1.00  0.00     0.053 C 
BRANCH  13  14
ATOM     14  C   UNL     1      38.639   1.796  41.035  1.00  0.00     0.041 C 
ATOM     15  O   UNL     1      38.246   1.525  39.870  1.00  0.00    -0.550 OA
ATOM     16  O   UNL     1      39.414   0.875  41.729  1.00  0.00    -0.550 OA
ENDBRANCH  13  14
ENDBRANCH  12  13
ENDBRANCH  11  12
ENDBRANCH  10  11
ENDBRANCH   9  10
ENDBRANCH   8   9
ENDBRANCH   7   8
ENDBRANCH   6   7
ENDBRANCH   5   6
ENDBRANCH   4   5
ENDBRANCH   3   4
ENDBRANCH   2   3
ENDBRANCH   1   2
BRANCH   1  17
ATOM     17  C   UNL     1      39.129   7.783  36.128  1.00  0.00     0.000 C 
BRANCH  17  18
ATOM     18  C   UNL     1      38.994   8.922  37.161  1.00  0.00     0.000 C 
BRANCH  18  19
ATOM     19  C   UNL     1      38.289   8.498  38.462  1.00  0.00     0.000 C 
BRANCH  19  20
ATOM     20  C   UNL     1      39.212   8.576  39.691  1.00  0.00     0.000 C 
BRANCH  20  21
ATOM     21  C   UNL     1      38.951   7.443  40.698  1.00  0.00     0.000 C 
BRANCH  21  22
ATOM     22  C   UNL     1      40.095   6.414  40.737  1.00  0.00    -0.000 C 
BRANCH  22  23
ATOM     23  C   UNL     1      41.114   6.608  39.599  1.00  0.00    -0.000 C 
BRANCH  23  24
ATOM     24  C   UNL     1      41.012   5.592  38.446  1.00  0.00    -0.000 C 
BRANCH  24  25
ATOM     25  C   UNL     1      40.017   4.455  38.737  1.00  0.00    -0.000 C 
BRANCH  25  26
ATOM     26  C   UNL     1      38.782   4.499  37.821  1.00  0.00    -0.000 C 
BRANCH  26  27
ATOM     27  C   UNL     1      37.485   4.898  38.557  1.00  0.00    -0.000 C 
BRANCH  27  28
ATOM     28  C   UNL     1      36.298   4.009  38.157  1.00  0.00    -0.000 C 
BRANCH  28  29
ATOM     29  C   UNL     1      36.606   3.224  36.876  1.00  0.00    -0.003 C 
ATOM     30  C   UNL     1      35.347   3.024  36.036  1.00  0.00     0.004 C 
ENDBRANCH  28  29
ENDBRANCH  27  28
ENDBRANCH  26  27
ENDBRANCH  25  26
ENDBRANCH  24  25
ENDBRANCH  23  24
ENDBRANCH  22  23
ENDBRANCH  21  22
ENDBRANCH  20  21
ENDBRANCH  19  20
ENDBRANCH  18  19
ENDBRANCH  17  18
ENDBRANCH   1  17
TORSDOF 26
ENDMDL
MODEL 2
REMARK VINA RESULT:    -0.498      1.909      4.936
REMARK INTER + INTRA:          -7.740
REMARK INTER:                  -1.677
REMARK INTRA:                  -6.063
REMARK UNBOUND:                -6.486
REMARK SMILES CCCCCCCCCCCCCCCCCCCCCCCCCCCC(=O)[O-]
REMARK SMILES IDX 15 1 16 2 17 3 18 4 19 5 20 6 21 7 22 8 23 9 24 10 25 11
REMARK SMILES IDX 26 12 27 13 28 14 29 15 30 16 14 17 13 18 12 19 11 20 10 21
REMARK SMILES IDX 9 22 8 23 7 24 6 25 5 26 4 27 3 28 2 29 1 30
REMARK H PARENT
REMARK Flexibility Score: inf
ROOT
ATOM      1  C   UNL     1      35.566   7.269  39.731  1.00  0.00     0.000 C 
ENDROOT
BRANCH   1   2
ATOM      2  C   UNL     1      35.792   8.204  38.531  1.00  0.00     0.000 C 
BRANCH   2   3
ATOM      3  C   UNL     1      37.189   8.035  37.909  1.00  0.00     0.000 C 
BRANCH   3   4
ATOM      4  C   UNL     1      38.230   7.530  38.920  1.00  0.00     0.000 C 
BRANCH   4   5
ATOM      5  C   UNL     1      38.913   6.226  38.469  1.00  0.00     0.000 C 
BRANCH   5   6
ATOM      6  C   UNL     1      39.096   5.223  39.619  1.00  0.00     0.000 C 
BRANCH   6   7
ATOM      7  C   UNL     1      39.041   5.891  41.003  1.00  0.00     0.000 C 
BRANCH   7   8
ATOM      8  C   UNL     1      38.277   5.045  42.034  1.00  0.00     0.000 C 
BRANCH   8   9
ATOM      9  C   UNL     1      37.062   4.323  41.423  1.00  0.00     0.000 C 
BRANCH   9  10
ATOM     10  C   UNL     1      36.911   2.883  41.938  1.00  0.00     0.000 C 
BRANCH  10  11
ATOM     11  C   UNL     1      38.261   2.153  42.042  1.00  0.00     0.000 C 
BRANCH  11  12
ATOM     12  C   UNL     1      38.625   1.398  40.752  1.00  0.00     0.006 C 
BRANCH  12  13
ATOM     13  C   UNL     1      40.070   0.883  40.754  1.00  0.00     0.053 C 
BRANCH  13  14
ATOM     14  C   UNL     1      41.003   1.947  40.271  1.00  0.00     0.041 C 
ATOM     15  O   UNL     1      41.093   2.204  39.042  1.00  0.00    -0.550 OA
ATOM     16  O   UNL     1      41.806   2.630  41.176  1.00  0.00    -0.550 OA
ENDBRANCH  13  14
ENDBRANCH  12  13
ENDBRANCH  11  12
ENDBRANCH  10  11
ENDBRANCH   9  10
ENDBRANCH   8   9
ENDBRANCH   7   8
ENDBRANCH   6   7
ENDBRANCH   5   6
ENDBRANCH   4   5
ENDBRANCH   3   4
ENDBRANCH   2   3
ENDBRANCH   1   2
BRANCH   1  17
ATOM     17  C   UNL     1      35.119   8.025  40.995  1.00  0.00     0.000 C 
BRANCH  17  18
ATOM     18  C   UNL     1      34.427   7.097  42.015  1.00  0.00     0.000 C 
BRANCH  18  19
ATOM     19  C   UNL     1      33.246   6.303  41.431  1.00  0.00     0.000 C 
BRANCH  19  20
ATOM     20  C   UNL     1      33.372   4.788  41.667  1.00  0.00     0.000 C 
BRANCH  20  21
ATOM     21  C   UNL     1      32.874   3.960  40.470  1.00  0.00     0.000 C 
BRANCH  21  22
ATOM     22  C   UNL     1      32.084   4.806  39.456  1.00  0.00    -0.000 C 
BRANCH  22  23
ATOM     23  C   UNL     1      32.454   4.489  37.995  1.00  0.00    -0.000 C 
BRANCH  23  24
ATOM     24  C   UNL     1      33.446   5.469  37.343  1.00  0.00    -0.000 C 
BRANCH  24  25
ATOM     25  C   UNL     1      34.228   4.842  36.176  1.00  0.00    -0.000 C 
BRANCH  25  26
ATOM     26  C   UNL     1      35.718   4.638  36.501  1.00  0.00    -0.000 C 
BRANCH  26  27
ATOM     27  C   UNL     1      35.974   4.187  37.956  1.00  0.00    -0.000 C 
BRANCH  27  28
ATOM     28  C   UNL     1      36.368   2.705  38.039  1.00  0.00    -0.000 C 
BRANCH  28  29
ATOM     29  C   UNL     1      35.210   1.858  38.578  1.00  0.00    -0.003 C 
ATOM     30  C   UNL     1      34.348   1.314  37.442  1.00  0.00     0.004 C 
ENDBRANCH  28  29
ENDBRANCH  27  28
ENDBRANCH  26  27
ENDBRANCH  25  26
ENDBRANCH  24  25
ENDBRANCH  23  24
ENDBRANCH  22  23
ENDBRANCH  21  22
ENDBRANCH  20  21
ENDBRANCH  19  20
ENDBRANCH  18  19
ENDBRANCH  17  18
ENDBRANCH   1  17
TORSDOF 26
ENDMDL
MODEL 3
REMARK VINA RESULT:    -0.469      2.759      5.315
REMARK INTER + INTRA:          -7.669
REMARK INTER:                  -1.505
REMARK INTRA:                  -6.164
REMARK UNBOUND:                -6.486
REMARK SMILES CCCCCCCCCCCCCCCCCCCCCCCCCCCC(=O)[O-]
REMARK SMILES IDX 15 1 16 2 17 3 18 4 19 5 20 6 21 7 22 8 23 9 24 10 25 11
REMARK SMILES IDX 26 12 27 13 28 14 29 15 30 16 14 17 13 18 12 19 11 20 10 21
REMARK SMILES IDX 9 22 8 23 7 24 6 25 5 26 4 27 3 28 2 29 1 30
REMARK H PARENT
REMARK Flexibility Score: inf
ROOT
ATOM      1  C   UNL     1      37.604   4.901  37.319  1.00  0.00     0.000 C 
ENDROOT
BRANCH   1   2
ATOM      2  C   UNL     1      36.455   5.510  38.139  1.00  0.00     0.000 C 
BRANCH   2   3
ATOM      3  C   UNL     1      36.018   6.887  37.609  1.00  0.00     0.000 C 
BRANCH   3   4
ATOM      4  C   UNL     1      35.122   7.646  38.600  1.00  0.00     0.000 C 
BRANCH   4   5
ATOM      5  C   UNL     1      34.293   6.705  39.492  1.00  0.00     0.000 C 
BRANCH   5   6
ATOM      6  C   UNL     1      34.496   6.976  40.991  1.00  0.00     0.000 C 
BRANCH   6   7
ATOM      7  C   UNL     1      35.562   8.052  41.261  1.00  0.00     0.000 C 
BRANCH   7   8
ATOM      8  C   UNL     1      36.720   7.528  42.125  1.00  0.00     0.000 C 
BRANCH   8   9
ATOM      9  C   UNL     1      37.218   6.143  41.672  1.00  0.00     0.000 C 
BRANCH   9  10
ATOM     10  C   UNL     1      38.740   6.105  41.459  1.00  0.00     0.000 C 
BRANCH  10  11
ATOM     11  C   UNL     1      39.293   7.442  40.937  1.00  0.00     0.000 C 
BRANCH  11  12
ATOM     12  C   UNL     1      39.277   7.529  39.402  1.00  0.00     0.006 C 
BRANCH  12  13
ATOM     13  C   UNL     1      38.843   8.909  38.891  1.00  0.00     0.053 C 
BRANCH  13  14
ATOM     14  C   UNL     1      39.069   9.013  37.416  1.00  0.00     0.041 C 
ATOM     15  O   UNL     1      39.345   7.987  36.741  1.00  0.00    -0.550 OA
ATOM     16  O   UNL     1      39.014  10.253  36.791  1.00  0.00    -0.550 OA
ENDBRANCH  13  14
ENDBRANCH  12  13
ENDBRANCH  11  12
ENDBRANCH  10  11
ENDBRANCH   9  10
ENDBRANCH   8   9
ENDBRANCH   7   8
ENDBRANCH   6   7
ENDBRANCH   5   6
ENDBRANCH   4   5
ENDBRANCH   3   4
ENDBRANCH   2   3
ENDBRANCH   1   2
BRANCH   1  17
ATOM     17  C   UNL     1      37.889   3.436  37.697  1.00  0.00     0.000 C 
BRANCH  17  18
ATOM     18  C   UNL     1      38.550   3.311  39.086  1.00  0.00     0.000 C 
BRANCH  18  19
ATOM     19  C   UNL     1      38.691   1.859  39.577  1.00  0.00     0.000 C 
BRANCH  19  20
ATOM     20  C   UNL     1      39.047   1.768  41.071  1.00  0.00     0.000 C 
BRANCH  20  21
ATOM     21  C   UNL     1      38.023   2.484  41.968  1.00  0.00     0.000 C 
BRANCH  21  22
ATOM     22  C   UNL     1      36.717   1.685  42.125  1.00  0.00    -0.000 C 
BRANCH  22  23
ATOM     23  C   UNL     1      35.463   2.578  42.109  1.00  0.00    -0.000 C 
BRANCH  23  24
ATOM     24  C   UNL     1      35.217   3.340  40.793  1.00  0.00    -0.000 C 
BRANCH  24  25
ATOM     25  C   UNL     1      34.927   2.406  39.606  1.00  0.00    -0.000 C 
BRANCH  25  26
ATOM     26  C   UNL     1      33.571   2.695  38.940  1.00  0.00    -0.000 C 
BRANCH  26  27
ATOM     27  C   UNL     1      33.697   3.342  37.544  1.00  0.00    -0.000 C 
BRANCH  27  28
ATOM     28  C   UNL     1      32.365   3.935  37.061  1.00  0.00    -0.000 C 
BRANCH  28  29
ATOM     29  C   UNL     1      32.583   5.283  36.363  1.00  0.00    -0.003 C 
ATOM     30  C   UNL     1      33.754   5.215  35.386  1.00  0.00     0.004 C 
ENDBRANCH  28  29
ENDBRANCH  27  28
ENDBRANCH  26  27
ENDBRANCH  25  26
ENDBRANCH  24  25
ENDBRANCH  23  24
ENDBRANCH  22  23
ENDBRANCH  21  22
ENDBRANCH  20  21
ENDBRANCH  19  20
ENDBRANCH  18  19
ENDBRANCH  17  18
ENDBRANCH   1  17
TORSDOF 26
ENDMDL
MODEL 4
REMARK VINA RESULT:    -0.439      2.882      5.580
REMARK INTER + INTRA:          -7.593
REMARK INTER:                  -1.215
REMARK INTRA:                  -6.378
REMARK UNBOUND:                -6.486
REMARK SMILES CCCCCCCCCCCCCCCCCCCCCCCCCCCC(=O)[O-]
REMARK SMILES IDX 15 1 16 2 17 3 18 4 19 5 20 6 21 7 22 8 23 9 24 10 25 11
REMARK SMILES IDX 26 12 27 13 28 14 29 15 30 16 14 17 13 18 12 19 11 20 10 21
REMARK SMILES IDX 9 22 8 23 7 24 6 25 5 26 4 27 3 28 2 29 1 30
REMARK H PARENT
REMARK Flexibility Score: inf
ROOT
ATOM      1  C   UNL     1      39.617   8.547  37.991  1.00  0.00     0.000 C 
ENDROOT
BRANCH   1   2
ATOM      2  C   UNL     1      39.964   7.073  38.258  1.00  0.00     0.000 C 
BRANCH   2   3
ATOM      3  C   UNL     1      39.785   6.684  39.736  1.00  0.00     0.000 C 
BRANCH   3   4
ATOM      4  C   UNL     1      38.332   6.835  40.215  1.00  0.00     0.000 C 
BRANCH   4   5
ATOM      5  C   UNL     1      38.217   7.642  41.520  1.00  0.00     0.000 C 
BRANCH   5   6
ATOM      6  C   UNL     1      36.934   8.485  41.587  1.00  0.00     0.000 C 
BRANCH   6   7
ATOM      7  C   UNL     1      36.225   8.595  40.226  1.00  0.00     0.000 C 
BRANCH   7   8
ATOM      8  C   UNL     1      36.421   9.971  39.570  1.00  0.00     0.000 C 
BRANCH   8   9
ATOM      9  C   UNL     1      35.359  10.272  38.497  1.00  0.00     0.000 C 
BRANCH   9  10
ATOM     10  C   UNL     1      34.478   9.053  38.180  1.00  0.00     0.000 C 
BRANCH  10  11
ATOM     11  C   UNL     1      33.884   9.111  36.762  1.00  0.00     0.000 C 
BRANCH  11  12
ATOM     12  C   UNL     1      33.684   7.716  36.148  1.00  0.00     0.006 C 
BRANCH  12  13
ATOM     13  C   UNL     1      33.181   6.686  37.167  1.00  0.00     0.053 C 
BRANCH  13  14
ATOM     14  C   UNL     1      31.696   6.783  37.317  1.00  0.00     0.041 C 
ATOM     15  O   UNL     1      30.952   6.765  36.301  1.00  0.00    -0.550 OA
ATOM     16  O   UNL     1      31.133   6.933  38.578  1.00  0.00    -0.550 OA
ENDBRANCH  13  14
ENDBRANCH  12  13
ENDBRANCH  11  12
ENDBRANCH  10  11
ENDBRANCH   9  10
ENDBRANCH   8   9
ENDBRANCH   7   8
ENDBRANCH   6   7
ENDBRANCH   5   6
ENDBRANCH   4   5
ENDBRANCH   3   4
ENDBRANCH   2   3
ENDBRANCH   1   2
BRANCH   1  17
ATOM     17  C   UNL     1      38.797   8.737  36.702  1.00  0.00     0.000 C 
BRANCH  17  18
ATOM     18  C   UNL     1      37.500   7.902  36.707  1.00  0.00     0.000 C 
BRANCH  18  19
ATOM     19  C   UNL     1      37.356   6.971  35.490  1.00  0.00     0.000 C 
BRANCH  19  20
ATOM     20  C   UNL     1      36.846   5.570  35.869  1.00  0.00     0.000 C 
BRANCH  20  21
ATOM     21  C   UNL     1      36.605   5.418  37.380  1.00  0.00     0.000 C 
BRANCH  21  22
ATOM     22  C   UNL     1      36.636   3.949  37.837  1.00  0.00    -0.000 C 
BRANCH  22  23
ATOM     23  C   UNL     1      37.955   3.565  38.533  1.00  0.00    -0.000 C 
BRANCH  23  24
ATOM     24  C   UNL     1      37.800   2.749  39.830  1.00  0.00    -0.000 C 
BRANCH  24  25
ATOM     25  C   UNL     1      38.746   3.217  40.948  1.00  0.00    -0.000 C 
BRANCH  25  26
ATOM     26  C   UNL     1      38.000   3.873  42.122  1.00  0.00    -0.000 C 
BRANCH  26  27
ATOM     27  C   UNL     1      36.483   3.586  42.125  1.00  0.00    -0.000 C 
BRANCH  27  28
ATOM     28  C   UNL     1      35.652   4.875  42.050  1.00  0.00    -0.000 C 
BRANCH  28  29
ATOM     29  C   UNL     1      34.755   4.880  40.806  1.00  0.00    -0.003 C 
ATOM     30  C   UNL     1      33.806   6.076  40.816  1.00  0.00     0.004 C 
ENDBRANCH  28  29
ENDBRANCH  27  28
ENDBRANCH  26  27
ENDBRANCH  25  26
ENDBRANCH  24  25
ENDBRANCH  23  24
ENDBRANCH  22  23
ENDBRANCH  21  22
ENDBRANCH  20  21
ENDBRANCH  19  20
ENDBRANCH  18  19
ENDBRANCH  17  18
ENDBRANCH   1  17
TORSDOF 26
ENDMDL
MODEL 5
REMARK VINA RESULT:    -0.426      2.697      5.145
REMARK INTER + INTRA:          -7.560
REMARK INTER:                  -1.396
REMARK INTRA:                  -6.165
REMARK UNBOUND:                -6.486
REMARK SMILES CCCCCCCCCCCCCCCCCCCCCCCCCCCC(=O)[O-]
REMARK SMILES IDX 15 1 16 2 17 3 18 4 19 5 20 6 21 7 22 8 23 9 24 10 25 11
REMARK SMILES IDX 26 12 27 13 28 14 29 15 30 16 14 17 13 18 12 19 11 20 10 21
REMARK SMILES IDX 9 22 8 23 7 24 6 25 5 26 4 27 3 28 2 29 1 30
REMARK H PARENT
REMARK Flexibility Score: inf
ROOT
ATOM      1  C   UNL     1      34.564   7.135  36.994  1.00  0.00     0.000 C 
ENDROOT
BRANCH   1   2
ATOM      2  C   UNL     1      33.526   8.215  37.344  1.00  0.00     0.000 C 
BRANCH   2   3
ATOM      3  C   UNL     1      34.124   9.633  37.327  1.00  0.00     0.000 C 
BRANCH   3   4
ATOM      4  C   UNL     1      34.044  10.325  38.697  1.00  0.00     0.000 C 
BRANCH   4   5
ATOM      5  C   UNL     1      33.328   9.468  39.756  1.00  0.00     0.000 C 
BRANCH   5   6
ATOM      6  C   UNL     1      34.197   9.205  40.996  1.00  0.00     0.000 C 
BRANCH   6   7
ATOM      7  C   UNL     1      33.537   8.231  41.987  1.00  0.00     0.000 C 
BRANCH   7   8
ATOM      8  C   UNL     1      32.225   7.641  41.445  1.00  0.00     0.000 C 
BRANCH   8   9
ATOM      9  C   UNL     1      31.850   6.310  42.123  1.00  0.00     0.000 C 
BRANCH   9  10
ATOM     10  C   UNL     1      31.961   5.111  41.168  1.00  0.00     0.000 C 
BRANCH  10  11
ATOM     11  C   UNL     1      32.559   5.499  39.805  1.00  0.00     0.000 C 
BRANCH  11  12
ATOM     12  C   UNL     1      32.008   4.643  38.653  1.00  0.00     0.006 C 
BRANCH  12  13
ATOM     13  C   UNL     1      32.933   3.476  38.287  1.00  0.00     0.053 C 
BRANCH  13  14
ATOM     14  C   UNL     1      32.263   2.170  38.573  1.00  0.00     0.041 C 
ATOM     15  O   UNL     1      32.816   1.086  38.248  1.00  0.00    -0.550 OA
ATOM     16  O   UNL     1      31.006   2.149  39.164  1.00  0.00    -0.550 OA
ENDBRANCH  13  14
ENDBRANCH  12  13
ENDBRANCH  11  12
ENDBRANCH  10  11
ENDBRANCH   9  10
ENDBRANCH   8   9
ENDBRANCH   7   8
ENDBRANCH   6   7
ENDBRANCH   5   6
ENDBRANCH   4   5
ENDBRANCH   3   4
ENDBRANCH   2   3
ENDBRANCH   1   2
BRANCH   1  17
ATOM     17  C   UNL     1      35.535   6.850  38.154  1.00  0.00     0.000 C 
BRANCH  17  18
ATOM     18  C   UNL     1      35.974   5.371  38.196  1.00  0.00     0.000 C 
BRANCH  18  19
ATOM     19  C   UNL     1      37.481   5.164  37.960  1.00  0.00     0.000 C 
BRANCH  19  20
ATOM     20  C   UNL     1      37.919   3.702  38.159  1.00  0.00     0.000 C 
BRANCH  20  21
ATOM     21  C   UNL     1      36.742   2.773  38.500  1.00  0.00     0.000 C 
BRANCH  21  22
ATOM     22  C   UNL     1      36.886   2.126  39.888  1.00  0.00    -0.000 C 
BRANCH  22  23
ATOM     23  C   UNL     1      35.530   1.770  40.526  1.00  0.00    -0.000 C 
BRANCH  23  24
ATOM     24  C   UNL     1      34.903   2.876  41.395  1.00  0.00    -0.000 C 
BRANCH  24  25
ATOM     25  C   UNL     1      35.950   3.813  42.019  1.00  0.00    -0.000 C 
BRANCH  25  26
ATOM     26  C   UNL     1      35.596   5.299  41.845  1.00  0.00    -0.000 C 
BRANCH  26  27
ATOM     27  C   UNL     1      36.780   6.251  42.125  1.00  0.00    -0.000 C 
BRANCH  27  28
ATOM     28  C   UNL     1      38.092   5.732  41.518  1.00  0.00    -0.000 C 
BRANCH  28  29
ATOM     29  C   UNL     1      38.924   6.883  40.941  1.00  0.00    -0.003 C 
ATOM     30  C   UNL     1      38.030   8.019  40.451  1.00  0.00     0.004 C 
ENDBRANCH  28  29
ENDBRANCH  27  28
ENDBRANCH  26  27
ENDBRANCH  25  26
ENDBRANCH  24  25
ENDBRANCH  23  24
ENDBRANCH  22  23
ENDBRANCH  21  22
ENDBRANCH  20  21
ENDBRANCH  19  20
ENDBRANCH  18  19
ENDBRANCH  17  18
ENDBRANCH   1  17
TORSDOF 26
ENDMDL
MODEL 6
REMARK VINA RESULT:    -0.406      2.651      5.824
REMARK INTER + INTRA:          -7.510
REMARK INTER:                  -1.384
REMARK INTRA:                  -6.127
REMARK UNBOUND:                -6.486
REMARK SMILES CCCCCCCCCCCCCCCCCCCCCCCCCCCC(=O)[O-]
REMARK SMILES IDX 15 1 16 2 17 3 18 4 19 5 20 6 21 7 22 8 23 9 24 10 25 11
REMARK SMILES IDX 26 12 27 13 28 14 29 15 30 16 14 17 13 18 12 19 11 20 10 21
REMARK SMILES IDX 9 22 8 23 7 24 6 25 5 26 4 27 3 28 2 29 1 30
REMARK H PARENT
REMARK Flexibility Score: inf
ROOT
ATOM      1  C   UNL     1      37.137   4.230  38.301  1.00  0.00     0.000 C 
ENDROOT
BRANCH   1   2
ATOM      2  C   UNL     1      35.775   4.943  38.330  1.00  0.00     0.000 C 
BRANCH   2   3
ATOM      3  C   UNL     1      35.864   6.355  38.937  1.00  0.00     0.000 C 
BRANCH   3   4
ATOM      4  C   UNL     1      37.305   6.760  39.285  1.00  0.00     0.000 C 
BRANCH   4   5
ATOM      5  C   UNL     1      37.413   8.215  39.772  1.00  0.00     0.000 C 
BRANCH   5   6
ATOM      6  C   UNL     1      38.837   8.593  40.208  1.00  0.00     0.000 C 
BRANCH   6   7
ATOM      7  C   UNL     1      39.908   8.119  39.210  1.00  0.00     0.000 C 
BRANCH   7   8
ATOM      8  C   UNL     1      40.095   9.098  38.040  1.00  0.00     0.000 C 
BRANCH   8   9
ATOM      9  C   UNL     1      40.112   8.390  36.673  1.00  0.00     0.000 C 
BRANCH   9  10
ATOM     10  C   UNL     1      40.099   6.859  36.802  1.00  0.00     0.000 C 
BRANCH  10  11
ATOM     11  C   UNL     1      39.157   6.193  35.783  1.00  0.00     0.000 C 
BRANCH  11  12
ATOM     12  C   UNL     1      37.782   6.879  35.714  1.00  0.00     0.006 C 
BRANCH  12  13
ATOM     13  C   UNL     1      37.071   6.647  34.376  1.00  0.00     0.053 C 
BRANCH  13  14
ATOM     14  C   UNL     1      36.537   5.251  34.304  1.00  0.00     0.041 C 
ATOM     15  O   UNL     1      35.436   4.963  34.842  1.00  0.00    -0.550 OA
ATOM     16  O   UNL     1      37.276   4.256  33.675  1.00  0.00    -0.550 OA
ENDBRANCH  13  14
ENDBRANCH  12  13
ENDBRANCH  11  12
ENDBRANCH  10  11
ENDBRANCH   9  10
ENDBRANCH   8   9
ENDBRANCH   7   8
ENDBRANCH   6   7
ENDBRANCH   5   6
ENDBRANCH   4   5
ENDBRANCH   3   4
ENDBRANCH   2   3
ENDBRANCH   1   2
BRANCH   1  17
ATOM     17  C   UNL     1      37.033   2.741  38.678  1.00  0.00     0.000 C 
BRANCH  17  18
ATOM     18  C   UNL     1      35.613   2.356  39.145  1.00  0.00     0.000 C 
BRANCH  18  19
ATOM     19  C   UNL     1      35.594   1.447  40.387  1.00  0.00     0.000 C 
BRANCH  19  20
ATOM     20  C   UNL     1      36.292   2.084  41.602  1.00  0.00     0.000 C 
BRANCH  20  21
ATOM     21  C   UNL     1      35.651   3.417  42.021  1.00  0.00     0.000 C 
BRANCH  21  22
ATOM     22  C   UNL     1      36.677   4.559  42.123  1.00  0.00    -0.000 C 
BRANCH  22  23
ATOM     23  C   UNL     1      38.134   4.061  42.080  1.00  0.00    -0.000 C 
BRANCH  23  24
ATOM     24  C   UNL     1      39.185   5.135  41.747  1.00  0.00    -0.000 C 
BRANCH  24  25
ATOM     25  C   UNL     1      40.449   4.553  41.093  1.00  0.00    -0.000 C 
BRANCH  25  26
ATOM     26  C   UNL     1      40.366   4.530  39.557  1.00  0.00    -0.000 C 
BRANCH  26  27
ATOM     27  C   UNL     1      41.430   3.626  38.897  1.00  0.00    -0.000 C 
BRANCH  27  28
ATOM     28  C   UNL     1      40.797   2.476  38.100  1.00  0.00    -0.000 C 
BRANCH  28  29
ATOM     29  C   UNL     1      40.857   2.753  36.593  1.00  0.00    -0.003 C 
ATOM     30  C   UNL     1      39.488   2.567  35.943  1.00  0.00     0.004 C 
ENDBRANCH  28  29
ENDBRANCH  27  28
ENDBRANCH  26  27
ENDBRANCH  25  26
ENDBRANCH  24  25
ENDBRANCH  23  24
ENDBRANCH  22  23
ENDBRANCH  21  22
ENDBRANCH  20  21
ENDBRANCH  19  20
ENDBRANCH  18  19
ENDBRANCH  17  18
ENDBRANCH   1  17
TORSDOF 26
ENDMDL
MODEL 7
REMARK VINA RESULT:    -0.384      2.409      5.258
REMARK INTER + INTRA:          -7.453
REMARK INTER:                  -1.521
REMARK INTRA:                  -5.932
REMARK UNBOUND:                -6.486
REMARK SMILES CCCCCCCCCCCCCCCCCCCCCCCCCCCC(=O)[O-]
REMARK SMILES IDX 15 1 16 2 17 3 18 4 19 5 20 6 21 7 22 8 23 9 24 10 25 11
REMARK SMILES IDX 26 12 27 13 28 14 29 15 30 16 14 17 13 18 12 19 11 20 10 21
REMARK SMILES IDX 9 22 8 23 7 24 6 25 5 26 4 27 3 28 2 29 1 30
REMARK H PARENT
REMARK Flexibility Score: inf
ROOT
ATOM      1  C   UNL     1      36.085   5.088  37.446  1.00  0.00     0.000 C 
ENDROOT
BRANCH   1   2
ATOM      2  C   UNL     1      34.903   4.107  37.511  1.00  0.00     0.000 C 
BRANCH   2   3
ATOM      3  C   UNL     1      35.356   2.654  37.740  1.00  0.00     0.000 C 
BRANCH   3   4
ATOM      4  C   UNL     1      34.690   2.013  38.967  1.00  0.00     0.000 C 
BRANCH   4   5
ATOM      5  C   UNL     1      35.633   1.065  39.729  1.00  0.00     0.000 C 
BRANCH   5   6
ATOM      6  C   UNL     1      35.281   0.946  41.219  1.00  0.00     0.000 C 
BRANCH   6   7
ATOM      7  C   UNL     1      36.524   0.946  42.125  1.00  0.00     0.000 C 
BRANCH   7   8
ATOM      8  C   UNL     1      37.765   1.515  41.419  1.00  0.00     0.000 C 
BRANCH   8   9
ATOM      9  C   UNL     1      38.037   2.984  41.791  1.00  0.00     0.000 C 
BRANCH   9  10
ATOM     10  C   UNL     1      37.685   3.955  40.653  1.00  0.00     0.000 C 
BRANCH  10  11
ATOM     11  C   UNL     1      36.709   5.057  41.103  1.00  0.00     0.000 C 
BRANCH  11  12
ATOM     12  C   UNL     1      35.651   4.540  42.093  1.00  0.00     0.006 C 
BRANCH  12  13
ATOM     13  C   UNL     1      34.229   4.590  41.521  1.00  0.00     0.053 C 
BRANCH  13  14
ATOM     14  C   UNL     1      33.860   5.995  41.163  1.00  0.00     0.041 C 
ATOM     15  O   UNL     1      33.527   6.284  39.984  1.00  0.00    -0.550 OA
ATOM     16  O   UNL     1      33.921   6.995  42.125  1.00  0.00    -0.550 OA
ENDBRANCH  13  14
ENDBRANCH  12  13
ENDBRANCH  11  12
ENDBRANCH  10  11
ENDBRANCH   9  10
ENDBRANCH   8   9
ENDBRANCH   7   8
ENDBRANCH   6   7
ENDBRANCH   5   6
ENDBRANCH   4   5
ENDBRANCH   3   4
ENDBRANCH   2   3
ENDBRANCH   1   2
BRANCH   1  17
ATOM     17  C   UNL     1      36.524   5.391  36.002  1.00  0.00     0.000 C 
BRANCH  17  18
ATOM     18  C   UNL     1      37.956   4.895  35.711  1.00  0.00     0.000 C 
BRANCH  18  19
ATOM     19  C   UNL     1      38.640   4.232  36.919  1.00  0.00     0.000 C 
BRANCH  19  20
ATOM     20  C   UNL     1      39.630   5.170  37.632  1.00  0.00     0.000 C 
BRANCH  20  21
ATOM     21  C   UNL     1      39.770   6.528  36.925  1.00  0.00     0.000 C 
BRANCH  21  22
ATOM     22  C   UNL     1      39.287   7.700  37.798  1.00  0.00    -0.000 C 
BRANCH  22  23
ATOM     23  C   UNL     1      38.697   7.240  39.144  1.00  0.00    -0.000 C 
BRANCH  23  24
ATOM     24  C   UNL     1      38.858   8.238  40.306  1.00  0.00    -0.000 C 
BRANCH  24  25
ATOM     25  C   UNL     1      37.725   9.275  40.366  1.00  0.00    -0.000 C 
BRANCH  25  26
ATOM     26  C   UNL     1      36.338   8.655  40.124  1.00  0.00    -0.000 C 
BRANCH  26  27
ATOM     27  C   UNL     1      35.519   9.384  39.037  1.00  0.00    -0.000 C 
BRANCH  27  28
ATOM     28  C   UNL     1      35.288   8.502  37.801  1.00  0.00    -0.000 C 
BRANCH  28  29
ATOM     29  C   UNL     1      36.034   9.057  36.582  1.00  0.00    -0.003 C 
ATOM     30  C   UNL     1      36.666  10.412  36.892  1.00  0.00     0.004 C 
ENDBRANCH  28  29
ENDBRANCH  27  28
ENDBRANCH  26  27
ENDBRANCH  25  26
ENDBRANCH  24  25
ENDBRANCH  23  24
ENDBRANCH  22  23
ENDBRANCH  21  22
ENDBRANCH  20  21
ENDBRANCH  19  20
ENDBRANCH  18  19
ENDBRANCH  17  18
ENDBRANCH   1  17
TORSDOF 26
ENDMDL
MODEL 8
REMARK VINA RESULT:    -0.362      3.003      6.291
REMARK INTER + INTRA:          -7.398
REMARK INTER:                  -0.846
REMARK INTRA:                  -6.552
REMARK UNBOUND:                -6.486
REMARK SMILES CCCCCCCCCCCCCCCCCCCCCCCCCCCC(=O)[O-]
REMARK SMILES IDX 15 1 16 2 17 3 18 4 19 5 20 6 21 7 22 8 23 9 24 10 25 11
REMARK SMILES IDX 26 12 27 13 28 14 29 15 30 16 14 17 13 18 12 19 11 20 10 21
REMARK SMILES IDX 9 22 8 23 7 24 6 25 5 26 4 27 3 28 2 29 1 30
REMARK H PARENT
REMARK Flexibility Score: inf
ROOT
ATOM      1  C   UNL     1      39.880   5.352  37.217  1.00  0.00     0.000 C 
ENDROOT
BRANCH   1   2
ATOM      2  C   UNL     1      40.045   4.181  36.234  1.00  0.00     0.000 C 
BRANCH   2   3
ATOM      3  C   UNL     1      40.189   2.827  36.952  1.00  0.00     0.000 C 
BRANCH   3   4
ATOM      4  C   UNL     1      39.046   1.856  36.617  1.00  0.00     0.000 C 
BRANCH   4   5
ATOM      5  C   UNL     1      38.093   1.628  37.804  1.00  0.00     0.000 C 
BRANCH   5   6
ATOM      6  C   UNL     1      36.707   1.129  37.367  1.00  0.00     0.000 C 
BRANCH   6   7
ATOM      7  C   UNL     1      35.605   2.183  37.572  1.00  0.00     0.000 C 
BRANCH   7   8
ATOM      8  C   UNL     1      35.292   2.964  36.286  1.00  0.00     0.000 C 
BRANCH   8   9
ATOM      9  C   UNL     1      35.310   2.071  35.032  1.00  0.00     0.000 C 
BRANCH   9  10
ATOM     10  C   UNL     1      36.116   2.691  33.879  1.00  0.00     0.000 C 
BRANCH  10  11
ATOM     11  C   UNL     1      36.999   3.862  34.345  1.00  0.00     0.000 C 
BRANCH  11  12
ATOM     12  C   UNL     1      36.741   5.150  33.545  1.00  0.00     0.006 C 
BRANCH  12  13
ATOM     13  C   UNL     1      37.854   5.453  32.534  1.00  0.00     0.053 C 
BRANCH  13  14
ATOM     14  C   UNL     1      38.826   6.434  33.106  1.00  0.00     0.041 C 
ATOM     15  O   UNL     1      40.044   6.135  33.211  1.00  0.00    -0.550 OA
ATOM     16  O   UNL     1      38.380   7.669  33.562  1.00  0.00    -0.550 OA
ENDBRANCH  13  14
ENDBRANCH  12  13
ENDBRANCH  11  12
ENDBRANCH  10  11
ENDBRANCH   9  10
ENDBRANCH   8   9
ENDBRANCH   7   8
ENDBRANCH   6   7
ENDBRANCH   5   6
ENDBRANCH   4   5
ENDBRANCH   3   4
ENDBRANCH   2   3
ENDBRANCH   1   2
BRANCH   1  17
ATOM     17  C   UNL     1      38.769   6.328  36.792  1.00  0.00     0.000 C 
BRANCH  17  18
ATOM     18  C   UNL     1      37.383   5.899  37.318  1.00  0.00     0.000 C 
BRANCH  18  19
ATOM     19  C   UNL     1      37.438   5.107  38.637  1.00  0.00     0.000 C 
BRANCH  19  20
ATOM     20  C   UNL     1      36.215   5.360  39.535  1.00  0.00     0.000 C 
BRANCH  20  21
ATOM     21  C   UNL     1      36.390   4.783  40.949  1.00  0.00     0.000 C 
BRANCH  21  22
ATOM     22  C   UNL     1      36.898   3.330  40.935  1.00  0.00    -0.000 C 
BRANCH  22  23
ATOM     23  C   UNL     1      38.155   3.126  41.801  1.00  0.00    -0.000 C 
BRANCH  23  24
ATOM     24  C   UNL     1      39.405   2.646  41.041  1.00  0.00    -0.000 C 
BRANCH  24  25
ATOM     25  C   UNL     1      40.294   3.804  40.558  1.00  0.00    -0.000 C 
BRANCH  25  26
ATOM     26  C   UNL     1      40.194   5.045  41.462  1.00  0.00    -0.000 C 
BRANCH  26  27
ATOM     27  C   UNL     1      40.352   6.377  40.696  1.00  0.00    -0.000 C 
BRANCH  27  28
ATOM     28  C   UNL     1      39.183   7.337  40.962  1.00  0.00    -0.000 C 
BRANCH  28  29
ATOM     29  C   UNL     1      39.093   8.410  39.870  1.00  0.00    -0.003 C 
ATOM     30  C   UNL     1      37.647   8.835  39.632  1.00  0.00     0.004 C 
ENDBRANCH  28  29
ENDBRANCH  27  28
ENDBRANCH  26  27
ENDBRANCH  25  26
ENDBRANCH  24  25
ENDBRANCH  23  24
ENDBRANCH  22  23
ENDBRANCH  21  22
ENDBRANCH  20  21
ENDBRANCH  19  20
ENDBRANCH  18  19
ENDBRANCH  17  18
ENDBRANCH   1  17
TORSDOF 26
ENDMDL
MODEL 9
REMARK VINA RESULT:    -0.358      2.480      5.259
REMARK INTER + INTRA:          -7.390
REMARK INTER:                  -1.536
REMARK INTRA:                  -5.853
REMARK UNBOUND:                -6.486
REMARK SMILES CCCCCCCCCCCCCCCCCCCCCCCCCCCC(=O)[O-]
REMARK SMILES IDX 15 1 16 2 17 3 18 4 19 5 20 6 21 7 22 8 23 9 24 10 25 11
REMARK SMILES IDX 26 12 27 13 28 14 29 15 30 16 14 17 13 18 12 19 11 20 10 21
REMARK SMILES IDX 9 22 8 23 7 24 6 25 5 26 4 27 3 28 2 29 1 30
REMARK H PARENT
REMARK Flexibility Score: inf
ROOT
ATOM      1  C   UNL     1      37.668   5.009  36.880  1.00  0.00     0.000 C 
ENDROOT
BRANCH   1   2
ATOM      2  C   UNL     1      36.579   5.805  37.619  1.00  0.00     0.000 C 
BRANCH   2   3
ATOM      3  C   UNL     1      36.467   7.255  37.117  1.00  0.00     0.000 C 
BRANCH   3   4
ATOM      4  C   UNL     1      35.673   8.154  38.078  1.00  0.00     0.000 C 
BRANCH   4   5
ATOM      5  C   UNL     1      34.667   7.366  38.935  1.00  0.00     0.000 C 
BRANCH   5   6
ATOM      6  C   UNL     1      34.808   7.657  40.437  1.00  0.00     0.000 C 
BRANCH   6   7
ATOM      7  C   UNL     1      35.933   8.661  40.743  1.00  0.00     0.000 C 
BRANCH   7   8
ATOM      8  C   UNL     1      37.033   8.058  41.631  1.00  0.00     0.000 C 
BRANCH   8   9
ATOM      9  C   UNL     1      37.536   6.700  41.111  1.00  0.00     0.000 C 
BRANCH   9  10
ATOM     10  C   UNL     1      39.060   6.674  40.908  1.00  0.00     0.000 C 
BRANCH  10  11
ATOM     11  C   UNL     1      39.590   7.975  40.280  1.00  0.00     0.000 C 
BRANCH  11  12
ATOM     12  C   UNL     1      39.642   7.911  38.744  1.00  0.00     0.006 C 
BRANCH  12  13
ATOM     13  C   UNL     1      40.654   6.880  38.228  1.00  0.00     0.053 C 
BRANCH  13  14
ATOM     14  C   UNL     1      40.651   6.850  36.733  1.00  0.00     0.041 C 
ATOM     15  O   UNL     1      40.000   7.708  36.081  1.00  0.00    -0.550 OA
ATOM     16  O   UNL     1      41.337   5.849  36.056  1.00  0.00    -0.550 OA
ENDBRANCH  13  14
ENDBRANCH  12  13
ENDBRANCH  11  12
ENDBRANCH  10  11
ENDBRANCH   9  10
ENDBRANCH   8   9
ENDBRANCH   7   8
ENDBRANCH   6   7
ENDBRANCH   5   6
ENDBRANCH   4   5
ENDBRANCH   3   4
ENDBRANCH   2   3
ENDBRANCH   1   2
BRANCH   1  17
ATOM     17  C   UNL     1      37.858   3.593  37.454  1.00  0.00     0.000 C 
BRANCH  17  18
ATOM     18  C   UNL     1      38.654   3.601  38.775  1.00  0.00     0.000 C 
BRANCH  18  19
ATOM     19  C   UNL     1      38.757   2.220  39.446  1.00  0.00     0.000 C 
BRANCH  19  20
ATOM     20  C   UNL     1      39.080   2.310  40.948  1.00  0.00     0.000 C 
BRANCH  20  21
ATOM     21  C   UNL     1      38.049   3.146  41.725  1.00  0.00     0.000 C 
BRANCH  21  22
ATOM     22  C   UNL     1      36.789   2.341  42.087  1.00  0.00    -0.000 C 
BRANCH  22  23
ATOM     23  C   UNL     1      35.509   3.196  42.080  1.00  0.00    -0.000 C 
BRANCH  23  24
ATOM     24  C   UNL     1      35.264   4.000  40.789  1.00  0.00    -0.000 C 
BRANCH  24  25
ATOM     25  C   UNL     1      35.002   3.104  39.567  1.00  0.00    -0.000 C 
BRANCH  25  26
ATOM     26  C   UNL     1      33.558   3.213  39.048  1.00  0.00    -0.000 C 
BRANCH  26  27
ATOM     27  C   UNL     1      32.748   4.343  39.720  1.00  0.00    -0.000 C 
BRANCH  27  28
ATOM     28  C   UNL     1      31.570   3.798  40.541  1.00  0.00    -0.000 C 
BRANCH  28  29
ATOM     29  C   UNL     1      31.674   4.231  42.008  1.00  0.00    -0.003 C 
ATOM     30  C   UNL     1      32.177   5.667  42.124  1.00  0.00     0.004 C 
ENDBRANCH  28  29
ENDBRANCH  27  28
ENDBRANCH  26  27
ENDBRANCH  25  26
ENDBRANCH  24  25
ENDBRANCH  23  24
ENDBRANCH  22  23
ENDBRANCH  21  22
ENDBRANCH  20  21
ENDBRANCH  19  20
ENDBRANCH  18  19
ENDBRANCH  17  18
ENDBRANCH   1  17
TORSDOF 26
ENDMDL
