MODEL 1
REMARK VINA RESULT:    -2.769      0.000      0.000
REMARK INTER + INTRA:          -7.104
REMARK INTER:                  -6.978
REMARK INTRA:                  -0.126
REMARK UNBOUND:                -0.126
REMARK SMILES CCCCCCCCCCCCCCCCCCCCCCCCCCCC(=O)[O-]
REMARK SMILES IDX 15 1 16 2 17 3 18 4 19 5 20 6 21 7 22 8 23 9 24 10 25 11
REMARK SMILES IDX 26 12 27 13 28 14 29 15 30 16 14 17 13 18 12 19 11 20 10 21
REMARK SMILES IDX 9 22 8 23 7 24 6 25 5 26 4 27 3 28 2 29 1 30
REMARK H PARENT
REMARK Flexibility Score: inf
ROOT
ATOM      1  C   UNL     1      23.475  66.056  16.375  1.00  0.00     0.000 C 
ENDROOT
BRANCH   1   2
ATOM      2  C   UNL     1      22.114  65.389  16.643  1.00  0.00     0.000 C 
BRANCH   2   3
ATOM      3  C   UNL     1      21.161  65.468  15.436  1.00  0.00     0.000 C 
BRANCH   3   4
ATOM      4  C   UNL     1      19.686  65.750  15.791  1.00  0.00     0.000 C 
BRANCH   4   5
ATOM      5  C   UNL     1      18.713  65.768  14.595  1.00  0.00     0.000 C 
BRANCH   5   6
ATOM      6  C   UNL     1      17.242  66.049  14.951  1.00  0.00     0.000 C 
BRANCH   6   7
ATOM      7  C   UNL     1      16.917  65.764  16.426  1.00  0.00     0.000 C 
BRANCH   7   8
ATOM      8  C   UNL     1      15.636  64.932  16.601  1.00  0.00     0.000 C 
BRANCH   8   9
ATOM      9  C   UNL     1      14.648  65.565  17.597  1.00  0.00     0.000 C 
BRANCH   9  10
ATOM     10  C   UNL     1      13.197  65.520  17.094  1.00  0.00     0.000 C 
BRANCH  10  11
ATOM     11  C   UNL     1      13.100  65.278  15.580  1.00  0.00     0.000 C 
BRANCH  11  12
ATOM     12  C   UNL     1      13.691  63.910  15.206  1.00  0.00     0.006 C 
BRANCH  12  13
ATOM     13  C   UNL     1      12.959  63.265  14.024  1.00  0.00     0.053 C 
BRANCH  13  14
ATOM     14  C   UNL     1      13.582  63.639  12.714  1.00  0.00     0.041 C 
ATOM     15  O   UNL     1      14.632  64.333  12.687  1.00  0.00    -0.550 OA
ATOM     16  O   UNL     1      12.989  63.237  11.522  1.00  0.00    -0.550 OA
ENDBRANCH  13  14
ENDBRANCH  12  13
ENDBRANCH  11  12
ENDBRANCH  10  11
ENDBRANCH   9  10
ENDBRANCH   8   9
ENDBRANCH   7   8
ENDBRANCH   6   7
ENDBRANCH   5   6
ENDBRANCH   4   5
ENDBRANCH   3   4
ENDBRANCH   2   3
ENDBRANCH   1   2
BRANCH   1  17
ATOM     17  C   UNL     1      24.609  65.038  16.178  1.00  0.00     0.000 C 
BRANCH  17  18
ATOM     18  C   UNL     1      25.939  65.707  15.791  1.00  0.00     0.000 C 
BRANCH  18  19
ATOM     19  C   UNL     1      27.127  65.230  16.646  1.00  0.00     0.000 C 
BRANCH  19  20
ATOM     20  C   UNL     1      28.458  65.959  16.383  1.00  0.00     0.000 C 
BRANCH  20  21
ATOM     21  C   UNL     1      29.677  65.016  16.402  1.00  0.00     0.000 C 
BRANCH  21  22
ATOM     22  C   UNL     1      30.729  65.419  17.458  1.00  0.00    -0.000 C 
BRANCH  22  23
ATOM     23  C   UNL     1      30.173  65.529  18.893  1.00  0.00    -0.000 C 
BRANCH  23  24
ATOM     24  C   UNL     1      31.232  65.720  19.992  1.00  0.00    -0.000 C 
BRANCH  24  25
ATOM     25  C   UNL     1      31.606  64.410  20.700  1.00  0.00    -0.000 C 
BRANCH  25  26
ATOM     26  C   UNL     1      31.653  63.244  19.706  1.00  0.00    -0.000 C 
BRANCH  26  27
ATOM     27  C   UNL     1      33.088  62.998  19.212  1.00  0.00    -0.000 C 
BRANCH  27  28
ATOM     28  C   UNL     1      33.125  62.465  17.764  1.00  0.00    -0.000 C 
BRANCH  28  29
ATOM     29  C   UNL     1      33.119  63.577  16.700  1.00  0.00    -0.003 C 
ATOM     30  C   UNL     1      32.621  63.102  15.334  1.00  0.00     0.004 C 
ENDBRANCH  28  29
ENDBRANCH  27  28
ENDBRANCH  26  27
ENDBRANCH  25  26
ENDBRANCH  24  25
ENDBRANCH  23  24
ENDBRANCH  22  23
ENDBRANCH  21  22
ENDBRANCH  20  21
ENDBRANCH  19  20
ENDBRANCH  18  19
ENDBRANCH  17  18
ENDBRANCH   1  17
TORSDOF 26
ENDMDL
MODEL 2
REMARK VINA RESULT:    -2.214      1.833      2.888
REMARK INTER + INTRA:          -5.706
REMARK INTER:                  -4.215
REMARK INTRA:                  -1.491
REMARK UNBOUND:                -0.126
REMARK SMILES CCCCCCCCCCCCCCCCCCCCCCCCCCCC(=O)[O-]
REMARK SMILES IDX 15 1 16 2 17 3 18 4 19 5 20 6 21 7 22 8 23 9 24 10 25 11
REMARK SMILES IDX 26 12 27 13 28 14 29 15 30 16 14 17 13 18 12 19 11 20 10 21
REMARK SMILES IDX 9 22 8 23 7 24 6 25 5 26 4 27 3 28 2 29 1 30
REMARK H PARENT
REMARK Flexibility Score: inf
ROOT
ATOM      1  C   UNL     1      22.150  65.063  17.178  1.00  0.00     0.000 C 
ENDROOT
BRANCH   1   2
ATOM      2  C   UNL     1      20.904  65.355  16.324  1.00  0.00     0.000 C 
BRANCH   2   3
ATOM      3  C   UNL     1      19.676  64.533  16.755  1.00  0.00     0.000 C 
BRANCH   3   4
ATOM      4  C   UNL     1      18.314  65.200  16.471  1.00  0.00     0.000 C 
BRANCH   4   5
ATOM      5  C   UNL     1      18.275  66.111  15.227  1.00  0.00     0.000 C 
BRANCH   5   6
ATOM      6  C   UNL     1      18.305  65.376  13.875  1.00  0.00     0.000 C 
BRANCH   6   7
ATOM      7  C   UNL     1      17.296  65.943  12.863  1.00  0.00     0.000 C 
BRANCH   7   8
ATOM      8  C   UNL     1      15.840  65.805  13.337  1.00  0.00     0.000 C 
BRANCH   8   9
ATOM      9  C   UNL     1      14.903  65.281  12.233  1.00  0.00     0.000 C 
BRANCH   9  10
ATOM     10  C   UNL     1      13.912  64.229  12.755  1.00  0.00     0.000 C 
BRANCH  10  11
ATOM     11  C   UNL     1      13.069  64.739  13.934  1.00  0.00     0.000 C 
BRANCH  11  12
ATOM     12  C   UNL     1      13.435  63.997  15.229  1.00  0.00     0.006 C 
BRANCH  12  13
ATOM     13  C   UNL     1      13.016  64.776  16.481  1.00  0.00     0.053 C 
BRANCH  13  14
ATOM     14  C   UNL     1      14.162  64.970  17.425  1.00  0.00     0.041 C 
ATOM     15  O   UNL     1      14.206  65.988  18.166  1.00  0.00    -0.550 OA
ATOM     16  O   UNL     1      15.192  64.038  17.471  1.00  0.00    -0.550 OA
ENDBRANCH  13  14
ENDBRANCH  12  13
ENDBRANCH  11  12
ENDBRANCH  10  11
ENDBRANCH   9  10
ENDBRANCH   8   9
ENDBRANCH   7   8
ENDBRANCH   6   7
ENDBRANCH   5   6
ENDBRANCH   4   5
ENDBRANCH   3   4
ENDBRANCH   2   3
ENDBRANCH   1   2
BRANCH   1  17
ATOM     17  C   UNL     1      23.398  64.770  16.330  1.00  0.00     0.000 C 
BRANCH  17  18
ATOM     18  C   UNL     1      24.192  66.044  15.993  1.00  0.00     0.000 C 
BRANCH  18  19
ATOM     19  C   UNL     1      25.708  65.801  15.892  1.00  0.00     0.000 C 
BRANCH  19  20
ATOM     20  C   UNL     1      26.448  65.705  17.240  1.00  0.00     0.000 C 
BRANCH  20  21
ATOM     21  C   UNL     1      27.944  66.062  17.134  1.00  0.00     0.000 C 
BRANCH  21  22
ATOM     22  C   UNL     1      28.666  66.021  18.499  1.00  0.00    -0.000 C 
BRANCH  22  23
ATOM     23  C   UNL     1      30.202  65.934  18.396  1.00  0.00    -0.000 C 
BRANCH  23  24
ATOM     24  C   UNL     1      30.864  64.905  19.330  1.00  0.00    -0.000 C 
BRANCH  24  25
ATOM     25  C   UNL     1      32.397  64.918  19.249  1.00  0.00    -0.000 C 
BRANCH  25  26
ATOM     26  C   UNL     1      32.911  63.753  18.396  1.00  0.00    -0.000 C 
BRANCH  26  27
ATOM     27  C   UNL     1      33.001  64.152  16.914  1.00  0.00    -0.000 C 
BRANCH  27  28
ATOM     28  C   UNL     1      32.938  62.929  15.974  1.00  0.00    -0.000 C 
BRANCH  28  29
ATOM     29  C   UNL     1      31.921  63.087  14.829  1.00  0.00    -0.003 C 
ATOM     30  C   UNL     1      30.708  63.934  15.213  1.00  0.00     0.004 C 
ENDBRANCH  28  29
ENDBRANCH  27  28
ENDBRANCH  26  27
ENDBRANCH  25  26
ENDBRANCH  24  25
ENDBRANCH  23  24
ENDBRANCH  22  23
ENDBRANCH  21  22
ENDBRANCH  20  21
ENDBRANCH  19  20
ENDBRANCH  18  19
ENDBRANCH  17  18
ENDBRANCH   1  17
TORSDOF 26
ENDMDL
MODEL 3
REMARK VINA RESULT:    -2.120      1.363      2.782
REMARK INTER + INTRA:          -5.469
REMARK INTER:                  -4.513
REMARK INTRA:                  -0.956
REMARK UNBOUND:                -0.126
REMARK SMILES CCCCCCCCCCCCCCCCCCCCCCCCCCCC(=O)[O-]
REMARK SMILES IDX 15 1 16 2 17 3 18 4 19 5 20 6 21 7 22 8 23 9 24 10 25 11
REMARK SMILES IDX 26 12 27 13 28 14 29 15 30 16 14 17 13 18 12 19 11 20 10 21
REMARK SMILES IDX 9 22 8 23 7 24 6 25 5 26 4 27 3 28 2 29 1 30
REMARK H PARENT
REMARK Flexibility Score: inf
ROOT
ATOM      1  C   UNL     1      23.563  66.090  16.651  1.00  0.00     0.000 C 
ENDROOT
BRANCH   1   2
ATOM      2  C   UNL     1      22.110  65.634  16.870  1.00  0.00     0.000 C 
BRANCH   2   3
ATOM      3  C   UNL     1      21.408  65.218  15.564  1.00  0.00     0.000 C 
BRANCH   3   4
ATOM      4  C   UNL     1      19.872  65.358  15.578  1.00  0.00     0.000 C 
BRANCH   4   5
ATOM      5  C   UNL     1      19.227  65.670  14.213  1.00  0.00     0.000 C 
BRANCH   5   6
ATOM      6  C   UNL     1      17.758  66.125  14.270  1.00  0.00     0.000 C 
BRANCH   6   7
ATOM      7  C   UNL     1      17.182  66.112  15.695  1.00  0.00     0.000 C 
BRANCH   7   8
ATOM      8  C   UNL     1      15.752  65.550  15.752  1.00  0.00     0.000 C 
BRANCH   8   9
ATOM      9  C   UNL     1      15.430  64.877  17.099  1.00  0.00     0.000 C 
BRANCH   9  10
ATOM     10  C   UNL     1      13.937  64.955  17.451  1.00  0.00     0.000 C 
BRANCH  10  11
ATOM     11  C   UNL     1      13.068  65.404  16.266  1.00  0.00     0.000 C 
BRANCH  11  12
ATOM     12  C   UNL     1      12.891  64.262  15.254  1.00  0.00     0.006 C 
BRANCH  12  13
ATOM     13  C   UNL     1      12.993  64.751  13.805  1.00  0.00     0.053 C 
BRANCH  13  14
ATOM     14  C   UNL     1      13.777  63.802  12.951  1.00  0.00     0.041 C 
ATOM     15  O   UNL     1      14.653  64.239  12.159  1.00  0.00    -0.550 OA
ATOM     16  O   UNL     1      13.525  62.437  13.016  1.00  0.00    -0.550 OA
ENDBRANCH  13  14
ENDBRANCH  12  13
ENDBRANCH  11  12
ENDBRANCH  10  11
ENDBRANCH   9  10
ENDBRANCH   8   9
ENDBRANCH   7   8
ENDBRANCH   6   7
ENDBRANCH   5   6
ENDBRANCH   4   5
ENDBRANCH   3   4
ENDBRANCH   2   3
ENDBRANCH   1   2
BRANCH   1  17
ATOM     17  C   UNL     1      24.511  64.923  16.331  1.00  0.00     0.000 C 
BRANCH  17  18
ATOM     18  C   UNL     1      25.923  65.401  15.950  1.00  0.00     0.000 C 
BRANCH  18  19
ATOM     19  C   UNL     1      27.021  64.381  16.299  1.00  0.00     0.000 C 
BRANCH  19  20
ATOM     20  C   UNL     1      28.462  64.923  16.240  1.00  0.00     0.000 C 
BRANCH  20  21
ATOM     21  C   UNL     1      29.388  64.077  15.344  1.00  0.00     0.000 C 
BRANCH  21  22
ATOM     22  C   UNL     1      30.886  64.316  15.637  1.00  0.00    -0.000 C 
BRANCH  22  23
ATOM     23  C   UNL     1      31.158  65.052  16.965  1.00  0.00    -0.000 C 
BRANCH  23  24
ATOM     24  C   UNL     1      31.577  64.150  18.139  1.00  0.00    -0.000 C 
BRANCH  24  25
ATOM     25  C   UNL     1      32.272  64.920  19.272  1.00  0.00    -0.000 C 
BRANCH  25  26
ATOM     26  C   UNL     1      31.319  65.940  19.905  1.00  0.00    -0.000 C 
BRANCH  26  27
ATOM     27  C   UNL     1      30.756  65.416  21.236  1.00  0.00    -0.000 C 
BRANCH  27  28
ATOM     28  C   UNL     1      31.870  65.044  22.237  1.00  0.00    -0.000 C 
BRANCH  28  29
ATOM     29  C   UNL     1      32.060  66.082  23.358  1.00  0.00    -0.003 C 
ATOM     30  C   UNL     1      30.976  66.013  24.434  1.00  0.00     0.004 C 
ENDBRANCH  28  29
ENDBRANCH  27  28
ENDBRANCH  26  27
ENDBRANCH  25  26
ENDBRANCH  24  25
ENDBRANCH  23  24
ENDBRANCH  22  23
ENDBRANCH  21  22
ENDBRANCH  20  21
ENDBRANCH  19  20
ENDBRANCH  18  19
ENDBRANCH  17  18
ENDBRANCH   1  17
TORSDOF 26
ENDMDL
MODEL 4
REMARK VINA RESULT:    -1.830      2.076      3.358
REMARK INTER + INTRA:          -4.739
REMARK INTER:                  -4.147
REMARK INTRA:                  -0.592
REMARK UNBOUND:                -0.126
REMARK SMILES CCCCCCCCCCCCCCCCCCCCCCCCCCCC(=O)[O-]
REMARK SMILES IDX 15 1 16 2 17 3 18 4 19 5 20 6 21 7 22 8 23 9 24 10 25 11
REMARK SMILES IDX 26 12 27 13 28 14 29 15 30 16 14 17 13 18 12 19 11 20 10 21
REMARK SMILES IDX 9 22 8 23 7 24 6 25 5 26 4 27 3 28 2 29 1 30
REMARK H PARENT
REMARK Flexibility Score: inf
ROOT
ATOM      1  C   UNL     1      21.971  64.882  16.916  1.00  0.00     0.000 C 
ENDROOT
BRANCH   1   2
ATOM      2  C   UNL     1      20.580  64.913  16.258  1.00  0.00     0.000 C 
BRANCH   2   3
ATOM      3  C   UNL     1      19.465  64.406  17.191  1.00  0.00     0.000 C 
BRANCH   3   4
ATOM      4  C   UNL     1      18.155  65.219  17.140  1.00  0.00     0.000 C 
BRANCH   4   5
ATOM      5  C   UNL     1      17.943  66.044  15.854  1.00  0.00     0.000 C 
BRANCH   5   6
ATOM      6  C   UNL     1      18.414  65.365  14.555  1.00  0.00     0.000 C 
BRANCH   6   7
ATOM      7  C   UNL     1      17.874  66.053  13.290  1.00  0.00     0.000 C 
BRANCH   7   8
ATOM      8  C   UNL     1      16.339  66.125  13.264  1.00  0.00     0.000 C 
BRANCH   8   9
ATOM      9  C   UNL     1      15.696  64.874  12.638  1.00  0.00     0.000 C 
BRANCH   9  10
ATOM     10  C   UNL     1      14.192  64.776  12.936  1.00  0.00     0.000 C 
BRANCH  10  11
ATOM     11  C   UNL     1      13.601  66.096  13.455  1.00  0.00     0.000 C 
BRANCH  11  12
ATOM     12  C   UNL     1      13.164  65.959  14.922  1.00  0.00     0.006 C 
BRANCH  12  13
ATOM     13  C   UNL     1      14.353  66.008  15.888  1.00  0.00     0.053 C 
BRANCH  13  14
ATOM     14  C   UNL     1      14.057  65.295  17.171  1.00  0.00     0.041 C 
ATOM     15  O   UNL     1      12.921  65.398  17.705  1.00  0.00    -0.550 OA
ATOM     16  O   UNL     1      15.043  64.532  17.787  1.00  0.00    -0.550 OA
ENDBRANCH  13  14
ENDBRANCH  12  13
ENDBRANCH  11  12
ENDBRANCH  10  11
ENDBRANCH   9  10
ENDBRANCH   8   9
ENDBRANCH   7   8
ENDBRANCH   6   7
ENDBRANCH   5   6
ENDBRANCH   4   5
ENDBRANCH   3   4
ENDBRANCH   2   3
ENDBRANCH   1   2
BRANCH   1  17
ATOM     17  C   UNL     1      23.115  64.901  15.890  1.00  0.00     0.000 C 
BRANCH  17  18
ATOM     18  C   UNL     1      24.033  66.125  16.057  1.00  0.00     0.000 C 
BRANCH  18  19
ATOM     19  C   UNL     1      25.529  65.763  16.058  1.00  0.00     0.000 C 
BRANCH  19  20
ATOM     20  C   UNL     1      26.146  65.532  17.450  1.00  0.00     0.000 C 
BRANCH  20  21
ATOM     21  C   UNL     1      27.566  66.116  17.585  1.00  0.00     0.000 C 
BRANCH  21  22
ATOM     22  C   UNL     1      28.131  65.992  19.017  1.00  0.00    -0.000 C 
BRANCH  22  23
ATOM     23  C   UNL     1      29.666  65.864  19.081  1.00  0.00    -0.000 C 
BRANCH  23  24
ATOM     24  C   UNL     1      30.251  64.633  18.365  1.00  0.00    -0.000 C 
BRANCH  24  25
ATOM     25  C   UNL     1      31.739  64.790  18.019  1.00  0.00    -0.000 C 
BRANCH  25  26
ATOM     26  C   UNL     1      32.576  63.697  18.693  1.00  0.00    -0.000 C 
BRANCH  26  27
ATOM     27  C   UNL     1      31.803  63.046  19.851  1.00  0.00    -0.000 C 
BRANCH  27  28
ATOM     28  C   UNL     1      32.616  63.034  21.163  1.00  0.00    -0.000 C 
BRANCH  28  29
ATOM     29  C   UNL     1      32.799  61.626  21.759  1.00  0.00    -0.003 C 
ATOM     30  C   UNL     1      32.648  60.510  20.725  1.00  0.00     0.004 C 
ENDBRANCH  28  29
ENDBRANCH  27  28
ENDBRANCH  26  27
ENDBRANCH  25  26
ENDBRANCH  24  25
ENDBRANCH  23  24
ENDBRANCH  22  23
ENDBRANCH  21  22
ENDBRANCH  20  21
ENDBRANCH  19  20
ENDBRANCH  18  19
ENDBRANCH  17  18
ENDBRANCH   1  17
TORSDOF 26
ENDMDL
MODEL 5
REMARK VINA RESULT:    -1.547      4.500     14.132
REMARK INTER + INTRA:          -4.024
REMARK INTER:                  -2.562
REMARK INTRA:                  -1.462
REMARK UNBOUND:                -0.126
REMARK SMILES CCCCCCCCCCCCCCCCCCCCCCCCCCCC(=O)[O-]
REMARK SMILES IDX 15 1 16 2 17 3 18 4 19 5 20 6 21 7 22 8 23 9 24 10 25 11
REMARK SMILES IDX 26 12 27 13 28 14 29 15 30 16 14 17 13 18 12 19 11 20 10 21
REMARK SMILES IDX 9 22 8 23 7 24 6 25 5 26 4 27 3 28 2 29 1 30
REMARK H PARENT
REMARK Flexibility Score: inf
ROOT
ATOM      1  C   UNL     1      26.815  65.252  18.313  1.00  0.00     0.000 C 
ENDROOT
BRANCH   1   2
ATOM      2  C   UNL     1      27.864  65.643  19.368  1.00  0.00     0.000 C 
BRANCH   2   3
ATOM      3  C   UNL     1      27.245  65.943  20.746  1.00  0.00     0.000 C 
BRANCH   3   4
ATOM      4  C   UNL     1      28.251  65.980  21.915  1.00  0.00     0.000 C 
BRANCH   4   5
ATOM      5  C   UNL     1      29.730  66.125  21.506  1.00  0.00     0.000 C 
BRANCH   5   6
ATOM      6  C   UNL     1      30.737  65.402  22.419  1.00  0.00     0.000 C 
BRANCH   6   7
ATOM      7  C   UNL     1      32.009  64.960  21.678  1.00  0.00     0.000 C 
BRANCH   7   8
ATOM      8  C   UNL     1      32.701  66.121  20.945  1.00  0.00     0.000 C 
BRANCH   8   9
ATOM      9  C   UNL     1      33.117  65.753  19.509  1.00  0.00     0.000 C 
BRANCH   9  10
ATOM     10  C   UNL     1      32.819  64.284  19.170  1.00  0.00     0.000 C 
BRANCH  10  11
ATOM     11  C   UNL     1      31.326  64.024  18.916  1.00  0.00     0.000 C 
BRANCH  11  12
ATOM     12  C   UNL     1      30.914  64.522  17.522  1.00  0.00     0.006 C 
BRANCH  12  13
ATOM     13  C   UNL     1      31.753  63.887  16.408  1.00  0.00     0.053 C 
BRANCH  13  14
ATOM     14  C   UNL     1      30.943  63.646  15.171  1.00  0.00     0.041 C 
ATOM     15  O   UNL     1      30.076  64.485  14.809  1.00  0.00    -0.550 OA
ATOM     16  O   UNL     1      31.132  62.485  14.430  1.00  0.00    -0.550 OA
ENDBRANCH  13  14
ENDBRANCH  12  13
ENDBRANCH  11  12
ENDBRANCH  10  11
ENDBRANCH   9  10
ENDBRANCH   8   9
ENDBRANCH   7   8
ENDBRANCH   6   7
ENDBRANCH   5   6
ENDBRANCH   4   5
ENDBRANCH   3   4
ENDBRANCH   2   3
ENDBRANCH   1   2
BRANCH   1  17
ATOM     17  C   UNL     1      27.160  65.773  16.908  1.00  0.00     0.000 C 
BRANCH  17  18
ATOM     18  C   UNL     1      26.680  64.825  15.795  1.00  0.00     0.000 C 
BRANCH  18  19
ATOM     19  C   UNL     1      25.197  65.021  15.433  1.00  0.00     0.000 C 
BRANCH  19  20
ATOM     20  C   UNL     1      24.374  65.829  16.453  1.00  0.00     0.000 C 
BRANCH  20  21
ATOM     21  C   UNL     1      22.903  65.378  16.534  1.00  0.00     0.000 C 
BRANCH  21  22
ATOM     22  C   UNL     1      21.994  66.116  15.526  1.00  0.00    -0.000 C 
BRANCH  22  23
ATOM     23  C   UNL     1      20.595  65.489  15.362  1.00  0.00    -0.000 C 
BRANCH  23  24
ATOM     24  C   UNL     1      19.558  65.918  16.415  1.00  0.00    -0.000 C 
BRANCH  24  25
ATOM     25  C   UNL     1      18.148  66.097  15.832  1.00  0.00    -0.000 C 
BRANCH  25  26
ATOM     26  C   UNL     1      18.182  66.076  14.300  1.00  0.00    -0.000 C 
BRANCH  26  27
ATOM     27  C   UNL     1      16.933  65.385  13.730  1.00  0.00    -0.000 C 
BRANCH  27  28
ATOM     28  C   UNL     1      15.632  66.125  14.106  1.00  0.00    -0.000 C 
BRANCH  28  29
ATOM     29  C   UNL     1      14.521  65.190  14.620  1.00  0.00    -0.003 C 
ATOM     30  C   UNL     1      14.473  65.093  16.145  1.00  0.00     0.004 C 
ENDBRANCH  28  29
ENDBRANCH  27  28
ENDBRANCH  26  27
ENDBRANCH  25  26
ENDBRANCH  24  25
ENDBRANCH  23  24
ENDBRANCH  22  23
ENDBRANCH  21  22
ENDBRANCH  20  21
ENDBRANCH  19  20
ENDBRANCH  18  19
ENDBRANCH  17  18
ENDBRANCH   1  17
TORSDOF 26
ENDMDL
MODEL 6
REMARK VINA RESULT:    -1.449      1.417      3.117
REMARK INTER + INTRA:          -3.776
REMARK INTER:                  -2.438
REMARK INTRA:                  -1.338
REMARK UNBOUND:                -0.126
REMARK SMILES CCCCCCCCCCCCCCCCCCCCCCCCCCCC(=O)[O-]
REMARK SMILES IDX 15 1 16 2 17 3 18 4 19 5 20 6 21 7 22 8 23 9 24 10 25 11
REMARK SMILES IDX 26 12 27 13 28 14 29 15 30 16 14 17 13 18 12 19 11 20 10 21
REMARK SMILES IDX 9 22 8 23 7 24 6 25 5 26 4 27 3 28 2 29 1 30
REMARK H PARENT
REMARK Flexibility Score: inf
ROOT
ATOM      1  C   UNL     1      26.371  64.647  16.351  1.00  0.00     0.000 C 
ENDROOT
BRANCH   1   2
ATOM      2  C   UNL     1      25.108  64.600  15.474  1.00  0.00     0.000 C 
BRANCH   2   3
ATOM      3  C   UNL     1      23.820  64.381  16.290  1.00  0.00     0.000 C 
BRANCH   3   4
ATOM      4  C   UNL     1      23.264  65.645  16.977  1.00  0.00     0.000 C 
BRANCH   4   5
ATOM      5  C   UNL     1      21.889  66.121  16.467  1.00  0.00     0.000 C 
BRANCH   5   6
ATOM      6  C   UNL     1      21.089  65.077  15.667  1.00  0.00     0.000 C 
BRANCH   6   7
ATOM      7  C   UNL     1      20.200  65.705  14.582  1.00  0.00     0.000 C 
BRANCH   7   8
ATOM      8  C   UNL     1      18.705  65.428  14.807  1.00  0.00     0.000 C 
BRANCH   8   9
ATOM      9  C   UNL     1      18.214  65.897  16.188  1.00  0.00     0.000 C 
BRANCH   9  10
ATOM     10  C   UNL     1      17.295  64.869  16.866  1.00  0.00     0.000 C 
BRANCH  10  11
ATOM     11  C   UNL     1      15.961  65.475  17.325  1.00  0.00     0.000 C 
BRANCH  11  12
ATOM     12  C   UNL     1      15.099  65.878  16.118  1.00  0.00     0.006 C 
BRANCH  12  13
ATOM     13  C   UNL     1      14.687  64.668  15.271  1.00  0.00     0.053 C 
BRANCH  13  14
ATOM     14  C   UNL     1      14.246  65.075  13.898  1.00  0.00     0.041 C 
ATOM     15  O   UNL     1      14.904  64.710  12.888  1.00  0.00    -0.550 OA
ATOM     16  O   UNL     1      13.121  65.874  13.737  1.00  0.00    -0.550 OA
ENDBRANCH  13  14
ENDBRANCH  12  13
ENDBRANCH  11  12
ENDBRANCH  10  11
ENDBRANCH   9  10
ENDBRANCH   8   9
ENDBRANCH   7   8
ENDBRANCH   6   7
ENDBRANCH   5   6
ENDBRANCH   4   5
ENDBRANCH   3   4
ENDBRANCH   2   3
ENDBRANCH   1   2
BRANCH   1  17
ATOM     17  C   UNL     1      26.810  66.082  16.686  1.00  0.00     0.000 C 
BRANCH  17  18
ATOM     18  C   UNL     1      28.152  66.125  17.438  1.00  0.00     0.000 C 
BRANCH  18  19
ATOM     19  C   UNL     1      28.030  65.711  18.915  1.00  0.00     0.000 C 
BRANCH  19  20
ATOM     20  C   UNL     1      29.212  66.125  19.812  1.00  0.00     0.000 C 
BRANCH  20  21
ATOM     21  C   UNL     1      29.004  65.755  21.294  1.00  0.00     0.000 C 
BRANCH  21  22
ATOM     22  C   UNL     1      30.288  65.916  22.137  1.00  0.00    -0.000 C 
BRANCH  22  23
ATOM     23  C   UNL     1      31.585  65.554  21.385  1.00  0.00    -0.000 C 
BRANCH  23  24
ATOM     24  C   UNL     1      31.485  64.329  20.460  1.00  0.00    -0.000 C 
BRANCH  24  25
ATOM     25  C   UNL     1      32.800  64.018  19.729  1.00  0.00    -0.000 C 
BRANCH  25  26
ATOM     26  C   UNL     1      33.044  65.018  18.593  1.00  0.00    -0.000 C 
BRANCH  26  27
ATOM     27  C   UNL     1      32.935  64.331  17.222  1.00  0.00    -0.000 C 
BRANCH  27  28
ATOM     28  C   UNL     1      31.470  64.165  16.765  1.00  0.00    -0.000 C 
BRANCH  28  29
ATOM     29  C   UNL     1      31.310  63.253  15.535  1.00  0.00    -0.003 C 
ATOM     30  C   UNL     1      32.346  63.525  14.444  1.00  0.00     0.004 C 
ENDBRANCH  28  29
ENDBRANCH  27  28
ENDBRANCH  26  27
ENDBRANCH  25  26
ENDBRANCH  24  25
ENDBRANCH  23  24
ENDBRANCH  22  23
ENDBRANCH  21  22
ENDBRANCH  20  21
ENDBRANCH  19  20
ENDBRANCH  18  19
ENDBRANCH  17  18
ENDBRANCH   1  17
TORSDOF 26
ENDMDL
MODEL 7
REMARK VINA RESULT:    -1.411      1.350      2.376
REMARK INTER + INTRA:          -3.683
REMARK INTER:                  -3.874
REMARK INTRA:                   0.192
REMARK UNBOUND:                -0.126
REMARK SMILES CCCCCCCCCCCCCCCCCCCCCCCCCCCC(=O)[O-]
REMARK SMILES IDX 15 1 16 2 17 3 18 4 19 5 20 6 21 7 22 8 23 9 24 10 25 11
REMARK SMILES IDX 26 12 27 13 28 14 29 15 30 16 14 17 13 18 12 19 11 20 10 21
REMARK SMILES IDX 9 22 8 23 7 24 6 25 5 26 4 27 3 28 2 29 1 30
REMARK H PARENT
REMARK Flexibility Score: inf
ROOT
ATOM      1  C   UNL     1      23.756  66.107  16.505  1.00  0.00     0.000 C 
ENDROOT
BRANCH   1   2
ATOM      2  C   UNL     1      22.413  65.379  16.326  1.00  0.00     0.000 C 
BRANCH   2   3
ATOM      3  C   UNL     1      22.005  65.229  14.849  1.00  0.00     0.000 C 
BRANCH   3   4
ATOM      4  C   UNL     1      20.516  64.901  14.616  1.00  0.00     0.000 C 
BRANCH   4   5
ATOM      5  C   UNL     1      19.594  66.124  14.437  1.00  0.00     0.000 C 
BRANCH   5   6
ATOM      6  C   UNL     1      18.206  66.001  15.092  1.00  0.00     0.000 C 
BRANCH   6   7
ATOM      7  C   UNL     1      18.265  65.432  16.518  1.00  0.00     0.000 C 
BRANCH   7   8
ATOM      8  C   UNL     1      17.100  64.478  16.825  1.00  0.00     0.000 C 
BRANCH   8   9
ATOM      9  C   UNL     1      16.080  65.082  17.808  1.00  0.00     0.000 C 
BRANCH   9  10
ATOM     10  C   UNL     1      14.914  65.777  17.089  1.00  0.00     0.000 C 
BRANCH  10  11
ATOM     11  C   UNL     1      14.837  65.420  15.597  1.00  0.00     0.000 C 
BRANCH  11  12
ATOM     12  C   UNL     1      13.414  64.988  15.211  1.00  0.00     0.006 C 
BRANCH  12  13
ATOM     13  C   UNL     1      13.181  65.049  13.697  1.00  0.00     0.053 C 
BRANCH  13  14
ATOM     14  C   UNL     1      13.559  63.766  13.024  1.00  0.00     0.041 C 
ATOM     15  O   UNL     1      14.342  63.776  12.037  1.00  0.00    -0.550 OA
ATOM     16  O   UNL     1      13.031  62.562  13.474  1.00  0.00    -0.550 OA
ENDBRANCH  13  14
ENDBRANCH  12  13
ENDBRANCH  11  12
ENDBRANCH  10  11
ENDBRANCH   9  10
ENDBRANCH   8   9
ENDBRANCH   7   8
ENDBRANCH   6   7
ENDBRANCH   5   6
ENDBRANCH   4   5
ENDBRANCH   3   4
ENDBRANCH   2   3
ENDBRANCH   1   2
BRANCH   1  17
ATOM     17  C   UNL     1      24.964  65.160  16.412  1.00  0.00     0.000 C 
BRANCH  17  18
ATOM     18  C   UNL     1      26.273  65.832  16.864  1.00  0.00     0.000 C 
BRANCH  18  19
ATOM     19  C   UNL     1      27.520  64.977  16.578  1.00  0.00     0.000 C 
BRANCH  19  20
ATOM     20  C   UNL     1      28.605  65.014  17.670  1.00  0.00     0.000 C 
BRANCH  20  21
ATOM     21  C   UNL     1      29.683  66.085  17.414  1.00  0.00     0.000 C 
BRANCH  21  22
ATOM     22  C   UNL     1      30.843  66.021  18.431  1.00  0.00    -0.000 C 
BRANCH  22  23
ATOM     23  C   UNL     1      31.642  64.703  18.395  1.00  0.00    -0.000 C 
BRANCH  23  24
ATOM     24  C   UNL     1      32.686  64.601  17.269  1.00  0.00    -0.000 C 
BRANCH  24  25
ATOM     25  C   UNL     1      32.848  63.172  16.727  1.00  0.00    -0.000 C 
BRANCH  25  26
ATOM     26  C   UNL     1      32.969  62.162  17.873  1.00  0.00    -0.000 C 
BRANCH  26  27
ATOM     27  C   UNL     1      33.041  62.877  19.232  1.00  0.00    -0.000 C 
BRANCH  27  28
ATOM     28  C   UNL     1      32.432  62.032  20.371  1.00  0.00    -0.000 C 
BRANCH  28  29
ATOM     29  C   UNL     1      33.123  62.246  21.731  1.00  0.00    -0.003 C 
ATOM     30  C   UNL     1      32.473  61.456  22.868  1.00  0.00     0.004 C 
ENDBRANCH  28  29
ENDBRANCH  27  28
ENDBRANCH  26  27
ENDBRANCH  25  26
ENDBRANCH  24  25
ENDBRANCH  23  24
ENDBRANCH  22  23
ENDBRANCH  21  22
ENDBRANCH  20  21
ENDBRANCH  19  20
ENDBRANCH  18  19
ENDBRANCH  17  18
ENDBRANCH   1  17
TORSDOF 26
ENDMDL
MODEL 8
REMARK VINA RESULT:    -1.304      1.987      4.349
REMARK INTER + INTRA:          -3.412
REMARK INTER:                  -2.367
REMARK INTRA:                  -1.044
REMARK UNBOUND:                -0.126
REMARK SMILES CCCCCCCCCCCCCCCCCCCCCCCCCCCC(=O)[O-]
REMARK SMILES IDX 15 1 16 2 17 3 18 4 19 5 20 6 21 7 22 8 23 9 24 10 25 11
REMARK SMILES IDX 26 12 27 13 28 14 29 15 30 16 14 17 13 18 12 19 11 20 10 21
REMARK SMILES IDX 9 22 8 23 7 24 6 25 5 26 4 27 3 28 2 29 1 30
REMARK H PARENT
REMARK Flexibility Score: inf
ROOT
ATOM      1  C   UNL     1      26.760  64.322  17.486  1.00  0.00     0.000 C 
ENDROOT
BRANCH   1   2
ATOM      2  C   UNL     1      27.076  64.956  16.120  1.00  0.00     0.000 C 
BRANCH   2   3
ATOM      3  C   UNL     1      25.880  65.721  15.524  1.00  0.00     0.000 C 
BRANCH   3   4
ATOM      4  C   UNL     1      24.586  64.893  15.381  1.00  0.00     0.000 C 
BRANCH   4   5
ATOM      5  C   UNL     1      23.275  65.698  15.482  1.00  0.00     0.000 C 
BRANCH   5   6
ATOM      6  C   UNL     1      22.031  64.880  15.875  1.00  0.00     0.000 C 
BRANCH   6   7
ATOM      7  C   UNL     1      20.887  65.752  16.416  1.00  0.00     0.000 C 
BRANCH   7   8
ATOM      8  C   UNL     1      19.845  66.098  15.339  1.00  0.00     0.000 C 
BRANCH   8   9
ATOM      9  C   UNL     1      18.519  65.339  15.530  1.00  0.00     0.000 C 
BRANCH   9  10
ATOM     10  C   UNL     1      17.312  66.125  14.994  1.00  0.00     0.000 C 
BRANCH  10  11
ATOM     11  C   UNL     1      17.001  65.808  13.524  1.00  0.00     0.000 C 
BRANCH  11  12
ATOM     12  C   UNL     1      15.517  66.059  13.212  1.00  0.00     0.006 C 
BRANCH  12  13
ATOM     13  C   UNL     1      14.787  64.776  12.799  1.00  0.00     0.053 C 
BRANCH  13  14
ATOM     14  C   UNL     1      14.221  64.879  11.415  1.00  0.00     0.041 C 
ATOM     15  O   UNL     1      13.300  64.102  11.049  1.00  0.00    -0.550 OA
ATOM     16  O   UNL     1      14.727  65.819  10.525  1.00  0.00    -0.550 OA
ENDBRANCH  13  14
ENDBRANCH  12  13
ENDBRANCH  11  12
ENDBRANCH  10  11
ENDBRANCH   9  10
ENDBRANCH   8   9
ENDBRANCH   7   8
ENDBRANCH   6   7
ENDBRANCH   5   6
ENDBRANCH   4   5
ENDBRANCH   3   4
ENDBRANCH   2   3
ENDBRANCH   1   2
BRANCH   1  17
ATOM     17  C   UNL     1      27.530  64.982  18.641  1.00  0.00     0.000 C 
BRANCH  17  18
ATOM     18  C   UNL     1      28.602  65.968  18.145  1.00  0.00     0.000 C 
BRANCH  18  19
ATOM     19  C   UNL     1      29.798  66.094  19.105  1.00  0.00     0.000 C 
BRANCH  19  20
ATOM     20  C   UNL     1      31.185  65.979  18.445  1.00  0.00     0.000 C 
BRANCH  20  21
ATOM     21  C   UNL     1      31.644  64.519  18.256  1.00  0.00     0.000 C 
BRANCH  21  22
ATOM     22  C   UNL     1      32.172  63.885  19.561  1.00  0.00    -0.000 C 
BRANCH  22  23
ATOM     23  C   UNL     1      33.073  62.652  19.344  1.00  0.00    -0.000 C 
BRANCH  23  24
ATOM     24  C   UNL     1      32.604  61.367  20.048  1.00  0.00    -0.000 C 
BRANCH  24  25
ATOM     25  C   UNL     1      32.420  61.544  21.563  1.00  0.00    -0.000 C 
BRANCH  25  26
ATOM     26  C   UNL     1      33.123  62.814  22.055  1.00  0.00    -0.000 C 
BRANCH  26  27
ATOM     27  C   UNL     1      32.556  63.268  23.409  1.00  0.00    -0.000 C 
BRANCH  27  28
ATOM     28  C   UNL     1      32.871  64.749  23.709  1.00  0.00    -0.000 C 
BRANCH  28  29
ATOM     29  C   UNL     1      32.030  65.736  22.879  1.00  0.00    -0.003 C 
ATOM     30  C   UNL     1      30.526  65.593  23.115  1.00  0.00     0.004 C 
ENDBRANCH  28  29
ENDBRANCH  27  28
ENDBRANCH  26  27
ENDBRANCH  25  26
ENDBRANCH  24  25
ENDBRANCH  23  24
ENDBRANCH  22  23
ENDBRANCH  21  22
ENDBRANCH  20  21
ENDBRANCH  19  20
ENDBRANCH  18  19
ENDBRANCH  17  18
ENDBRANCH   1  17
TORSDOF 26
ENDMDL
