MODEL 1
REMARK VINA RESULT:    -3.845      0.000      0.000
REMARK INTER + INTRA:         -11.726
REMARK INTER:                  -8.341
REMARK INTRA:                  -3.386
REMARK UNBOUND:                -3.386
REMARK SMILES CCCCCCCCCCCCCCCCCCCCCC(=O)[O-]
REMARK SMILES IDX 12 1 11 2 10 3 9 4 8 5 7 6 6 7 5 8 4 9 3 10 2 11 1 12 13 13
REMARK SMILES IDX 14 14 15 15 16 16 17 17 18 18 19 19 20 20 21 21 22 22 23 23
REMARK SMILES IDX 24 24
REMARK H PARENT
REMARK Flexibility Score: inf
ROOT
ATOM      1  C   UNL     1      10.657 -22.709 -38.557  1.00  0.00     0.000 C 
ENDROOT
BRANCH   1   2
ATOM      2  C   UNL     1      11.432 -23.488 -39.632  1.00  0.00     0.000 C 
BRANCH   2   3
ATOM      3  C   UNL     1      12.518 -24.403 -39.032  1.00  0.00     0.000 C 
BRANCH   3   4
ATOM      4  C   UNL     1      13.894 -24.264 -39.706  1.00  0.00    -0.000 C 
BRANCH   4   5
ATOM      5  C   UNL     1      14.625 -22.965 -39.323  1.00  0.00    -0.000 C 
BRANCH   5   6
ATOM      6  C   UNL     1      14.640 -22.721 -37.806  1.00  0.00    -0.000 C 
BRANCH   6   7
ATOM      7  C   UNL     1      14.264 -21.281 -37.432  1.00  0.00    -0.000 C 
BRANCH   7   8
ATOM      8  C   UNL     1      13.717 -20.527 -38.653  1.00  0.00    -0.000 C 
BRANCH   8   9
ATOM      9  C   UNL     1      12.865 -19.307 -38.268  1.00  0.00    -0.000 C 
BRANCH   9  10
ATOM     10  C   UNL     1      12.160 -19.483 -36.915  1.00  0.00    -0.000 C 
BRANCH  10  11
ATOM     11  C   UNL     1      10.636 -19.434 -37.081  1.00  0.00    -0.003 C 
ATOM     12  C   UNL     1      10.235 -18.498 -38.217  1.00  0.00     0.004 C 
ENDBRANCH  10  11
ENDBRANCH   9  10
ENDBRANCH   8   9
ENDBRANCH   7   8
ENDBRANCH   6   7
ENDBRANCH   5   6
ENDBRANCH   4   5
ENDBRANCH   3   4
ENDBRANCH   2   3
ENDBRANCH   1   2
BRANCH   1  13
ATOM     13  C   UNL     1      10.994 -23.230 -37.152  1.00  0.00     0.000 C 
BRANCH  13  14
ATOM     14  C   UNL     1       9.976 -24.263 -36.634  1.00  0.00     0.000 C 
BRANCH  14  15
ATOM     15  C   UNL     1       9.093 -23.782 -35.467  1.00  0.00     0.000 C 
BRANCH  15  16
ATOM     16  C   UNL     1       9.471 -22.407 -34.886  1.00  0.00     0.000 C 
BRANCH  16  17
ATOM     17  C   UNL     1       8.402 -21.313 -35.119  1.00  0.00     0.000 C 
BRANCH  17  18
ATOM     18  C   UNL     1       7.380 -21.636 -36.230  1.00  0.00     0.000 C 
BRANCH  18  19
ATOM     19  C   UNL     1       6.644 -20.420 -36.834  1.00  0.00     0.000 C 
BRANCH  19  20
ATOM     20  C   UNL     1       6.764 -19.110 -36.031  1.00  0.00     0.006 C 
BRANCH  20  21
ATOM     21  C   UNL     1       6.745 -17.838 -36.894  1.00  0.00     0.053 C 
BRANCH  21  22
ATOM     22  C   UNL     1       6.034 -16.708 -36.214  1.00  0.00     0.041 C 
ATOM     23  O   UNL     1       6.336 -15.515 -36.483  1.00  0.00    -0.550 OA
ATOM     24  O   UNL     1       5.042 -16.972 -35.274  1.00  0.00    -0.550 OA
ENDBRANCH  21  22
ENDBRANCH  20  21
ENDBRANCH  19  20
ENDBRANCH  18  19
ENDBRANCH  17  18
ENDBRANCH  16  17
ENDBRANCH  15  16
ENDBRANCH  14  15
ENDBRANCH  13  14
ENDBRANCH   1  13
TORSDOF 20
ENDMDL
MODEL 2
REMARK VINA RESULT:    -3.841      3.728      7.081
REMARK INTER + INTRA:         -11.717
REMARK INTER:                  -8.165
REMARK INTRA:                  -3.552
REMARK UNBOUND:                -3.386
REMARK SMILES CCCCCCCCCCCCCCCCCCCCCC(=O)[O-]
REMARK SMILES IDX 12 1 11 2 10 3 9 4 8 5 7 6 6 7 5 8 4 9 3 10 2 11 1 12 13 13
REMARK SMILES IDX 14 14 15 15 16 16 17 17 18 18 19 19 20 20 21 21 22 22 23 23
REMARK SMILES IDX 24 24
REMARK H PARENT
REMARK Flexibility Score: inf
ROOT
ATOM      1  C   UNL     1       9.402 -24.112 -36.299  1.00  0.00     0.000 C 
ENDROOT
BRANCH   1   2
ATOM      2  C   UNL     1       9.299 -23.319 -34.986  1.00  0.00     0.000 C 
BRANCH   2   3
ATOM      3  C   UNL     1       8.269 -22.174 -35.067  1.00  0.00     0.000 C 
BRANCH   3   4
ATOM      4  C   UNL     1       7.264 -22.319 -36.223  1.00  0.00    -0.000 C 
BRANCH   4   5
ATOM      5  C   UNL     1       6.791 -20.967 -36.785  1.00  0.00    -0.000 C 
BRANCH   5   6
ATOM      6  C   UNL     1       7.414 -19.770 -36.049  1.00  0.00    -0.000 C 
BRANCH   6   7
ATOM      7  C   UNL     1       6.399 -18.653 -35.767  1.00  0.00    -0.000 C 
BRANCH   7   8
ATOM      8  C   UNL     1       5.593 -18.319 -37.031  1.00  0.00    -0.000 C 
BRANCH   8   9
ATOM      9  C   UNL     1       6.385 -17.467 -38.035  1.00  0.00    -0.000 C 
BRANCH   9  10
ATOM     10  C   UNL     1       6.602 -18.183 -39.376  1.00  0.00    -0.000 C 
BRANCH  10  11
ATOM     11  C   UNL     1       8.092 -18.454 -39.618  1.00  0.00    -0.003 C 
ATOM     12  C   UNL     1       8.963 -17.577 -38.724  1.00  0.00     0.004 C 
ENDBRANCH  10  11
ENDBRANCH   9  10
ENDBRANCH   8   9
ENDBRANCH   7   8
ENDBRANCH   6   7
ENDBRANCH   5   6
ENDBRANCH   4   5
ENDBRANCH   3   4
ENDBRANCH   2   3
ENDBRANCH   1   2
BRANCH   1  13
ATOM     13  C   UNL     1      10.866 -24.247 -36.745  1.00  0.00     0.000 C 
BRANCH  13  14
ATOM     14  C   UNL     1      11.190 -23.419 -38.002  1.00  0.00     0.000 C 
BRANCH  14  15
ATOM     15  C   UNL     1      10.038 -22.533 -38.515  1.00  0.00     0.000 C 
BRANCH  15  16
ATOM     16  C   UNL     1      10.244 -21.019 -38.324  1.00  0.00     0.000 C 
BRANCH  16  17
ATOM     17  C   UNL     1      11.053 -20.652 -37.058  1.00  0.00     0.000 C 
BRANCH  17  18
ATOM     18  C   UNL     1      12.052 -19.491 -37.244  1.00  0.00     0.000 C 
BRANCH  18  19
ATOM     19  C   UNL     1      13.526 -19.822 -36.923  1.00  0.00     0.000 C 
BRANCH  19  20
ATOM     20  C   UNL     1      14.026 -21.183 -37.444  1.00  0.00     0.006 C 
BRANCH  20  21
ATOM     21  C   UNL     1      14.541 -21.153 -38.892  1.00  0.00     0.053 C 
BRANCH  21  22
ATOM     22  C   UNL     1      15.227 -22.430 -39.271  1.00  0.00     0.041 C 
ATOM     23  O   UNL     1      16.233 -22.408 -40.030  1.00  0.00    -0.550 OA
ATOM     24  O   UNL     1      14.752 -23.647 -38.793  1.00  0.00    -0.550 OA
ENDBRANCH  21  22
ENDBRANCH  20  21
ENDBRANCH  19  20
ENDBRANCH  18  19
ENDBRANCH  17  18
ENDBRANCH  16  17
ENDBRANCH  15  16
ENDBRANCH  14  15
ENDBRANCH  13  14
ENDBRANCH   1  13
TORSDOF 20
ENDMDL
MODEL 3
REMARK VINA RESULT:    -3.814      3.193      6.548
REMARK INTER + INTRA:         -11.659
REMARK INTER:                  -7.449
REMARK INTRA:                  -4.210
REMARK UNBOUND:                -3.386
REMARK SMILES CCCCCCCCCCCCCCCCCCCCCC(=O)[O-]
REMARK SMILES IDX 12 1 11 2 10 3 9 4 8 5 7 6 6 7 5 8 4 9 3 10 2 11 1 12 13 13
REMARK SMILES IDX 14 14 15 15 16 16 17 17 18 18 19 19 20 20 21 21 22 22 23 23
REMARK SMILES IDX 24 24
REMARK H PARENT
REMARK Flexibility Score: inf
ROOT
ATOM      1  C   UNL     1       8.244 -22.382 -35.215  1.00  0.00     0.000 C 
ENDROOT
BRANCH   1   2
ATOM      2  C   UNL     1       8.625 -20.893 -35.219  1.00  0.00     0.000 C 
BRANCH   2   3
ATOM      3  C   UNL     1      10.098 -20.661 -35.615  1.00  0.00     0.000 C 
BRANCH   3   4
ATOM      4  C   UNL     1      10.277 -19.997 -36.990  1.00  0.00    -0.000 C 
BRANCH   4   5
ATOM      5  C   UNL     1      10.268 -21.005 -38.153  1.00  0.00    -0.000 C 
BRANCH   5   6
ATOM      6  C   UNL     1       9.024 -20.868 -39.044  1.00  0.00    -0.000 C 
BRANCH   6   7
ATOM      7  C   UNL     1       8.115 -22.104 -38.991  1.00  0.00    -0.000 C 
BRANCH   7   8
ATOM      8  C   UNL     1       6.750 -21.750 -38.384  1.00  0.00    -0.000 C 
BRANCH   8   9
ATOM      9  C   UNL     1       6.442 -20.246 -38.445  1.00  0.00    -0.000 C 
BRANCH   9  10
ATOM     10  C   UNL     1       5.706 -19.741 -37.195  1.00  0.00    -0.000 C 
BRANCH  10  11
ATOM     11  C   UNL     1       6.403 -18.507 -36.610  1.00  0.00    -0.003 C 
ATOM     12  C   UNL     1       7.333 -17.861 -37.634  1.00  0.00     0.004 C 
ENDBRANCH  10  11
ENDBRANCH   9  10
ENDBRANCH   8   9
ENDBRANCH   7   8
ENDBRANCH   6   7
ENDBRANCH   5   6
ENDBRANCH   4   5
ENDBRANCH   3   4
ENDBRANCH   2   3
ENDBRANCH   1   2
BRANCH   1  13
ATOM     13  C   UNL     1       9.495 -23.269 -35.126  1.00  0.00     0.000 C 
BRANCH  13  14
ATOM     14  C   UNL     1       9.616 -24.258 -36.300  1.00  0.00     0.000 C 
BRANCH  14  15
ATOM     15  C   UNL     1      10.994 -24.289 -36.988  1.00  0.00     0.000 C 
BRANCH  15  16
ATOM     16  C   UNL     1      11.084 -25.199 -38.227  1.00  0.00     0.000 C 
BRANCH  16  17
ATOM     17  C   UNL     1      10.835 -24.464 -39.565  1.00  0.00     0.000 C 
BRANCH  17  18
ATOM     18  C   UNL     1      12.040 -23.655 -40.090  1.00  0.00     0.000 C 
BRANCH  18  19
ATOM     19  C   UNL     1      13.431 -24.254 -39.784  1.00  0.00     0.000 C 
BRANCH  19  20
ATOM     20  C   UNL     1      14.446 -23.279 -39.157  1.00  0.00     0.006 C 
BRANCH  20  21
ATOM     21  C   UNL     1      13.873 -21.887 -38.844  1.00  0.00     0.053 C 
BRANCH  21  22
ATOM     22  C   UNL     1      14.337 -21.374 -37.515  1.00  0.00     0.041 C 
ATOM     23  O   UNL     1      13.773 -20.378 -36.988  1.00  0.00    -0.550 OA
ATOM     24  O   UNL     1      15.400 -21.989 -36.862  1.00  0.00    -0.550 OA
ENDBRANCH  21  22
ENDBRANCH  20  21
ENDBRANCH  19  20
ENDBRANCH  18  19
ENDBRANCH  17  18
ENDBRANCH  16  17
ENDBRANCH  15  16
ENDBRANCH  14  15
ENDBRANCH  13  14
ENDBRANCH   1  13
TORSDOF 20
ENDMDL
MODEL 4
REMARK VINA RESULT:    -3.800      2.975      6.744
REMARK INTER + INTRA:         -11.629
REMARK INTER:                  -8.269
REMARK INTRA:                  -3.360
REMARK UNBOUND:                -3.386
REMARK SMILES CCCCCCCCCCCCCCCCCCCCCC(=O)[O-]
REMARK SMILES IDX 12 1 11 2 10 3 9 4 8 5 7 6 6 7 5 8 4 9 3 10 2 11 1 12 13 13
REMARK SMILES IDX 14 14 15 15 16 16 17 17 18 18 19 19 20 20 21 21 22 22 23 23
REMARK SMILES IDX 24 24
REMARK H PARENT
REMARK Flexibility Score: inf
ROOT
ATOM      1  C   UNL     1       7.867 -20.234 -35.771  1.00  0.00     0.000 C 
ENDROOT
BRANCH   1   2
ATOM      2  C   UNL     1       6.868 -20.943 -36.700  1.00  0.00     0.000 C 
BRANCH   2   3
ATOM      3  C   UNL     1       6.932 -20.418 -38.149  1.00  0.00     0.000 C 
BRANCH   3   4
ATOM      4  C   UNL     1       8.177 -19.565 -38.449  1.00  0.00    -0.000 C 
BRANCH   4   5
ATOM      5  C   UNL     1       7.914 -18.456 -39.483  1.00  0.00    -0.000 C 
BRANCH   5   6
ATOM      6  C   UNL     1       6.654 -17.637 -39.163  1.00  0.00    -0.000 C 
BRANCH   6   7
ATOM      7  C   UNL     1       6.951 -16.406 -38.295  1.00  0.00    -0.000 C 
BRANCH   7   8
ATOM      8  C   UNL     1       6.591 -16.677 -36.826  1.00  0.00    -0.000 C 
BRANCH   8   9
ATOM      9  C   UNL     1       5.231 -17.373 -36.665  1.00  0.00    -0.000 C 
BRANCH   9  10
ATOM     10  C   UNL     1       4.452 -16.872 -35.439  1.00  0.00    -0.000 C 
BRANCH  10  11
ATOM     11  C   UNL     1       5.295 -17.000 -34.165  1.00  0.00    -0.003 C 
ATOM     12  C   UNL     1       5.232 -15.722 -33.332  1.00  0.00     0.004 C 
ENDBRANCH  10  11
ENDBRANCH   9  10
ENDBRANCH   8   9
ENDBRANCH   7   8
ENDBRANCH   6   7
ENDBRANCH   5   6
ENDBRANCH   4   5
ENDBRANCH   3   4
ENDBRANCH   2   3
ENDBRANCH   1   2
BRANCH   1  13
ATOM     13  C   UNL     1       8.678 -21.252 -34.957  1.00  0.00     0.000 C 
BRANCH  13  14
ATOM     14  C   UNL     1       8.294 -22.711 -35.266  1.00  0.00     0.000 C 
BRANCH  14  15
ATOM     15  C   UNL     1       9.447 -23.728 -35.156  1.00  0.00     0.000 C 
BRANCH  15  16
ATOM     16  C   UNL     1      10.005 -24.229 -36.501  1.00  0.00     0.000 C 
BRANCH  16  17
ATOM     17  C   UNL     1       9.324 -23.596 -37.737  1.00  0.00     0.000 C 
BRANCH  17  18
ATOM     18  C   UNL     1      10.212 -22.617 -38.532  1.00  0.00     0.000 C 
BRANCH  18  19
ATOM     19  C   UNL     1      11.518 -22.181 -37.832  1.00  0.00     0.000 C 
BRANCH  19  20
ATOM     20  C   UNL     1      11.543 -20.724 -37.329  1.00  0.00     0.006 C 
BRANCH  20  21
ATOM     21  C   UNL     1      12.954 -20.132 -37.182  1.00  0.00     0.053 C 
BRANCH  21  22
ATOM     22  C   UNL     1      13.452 -19.540 -38.465  1.00  0.00     0.041 C 
ATOM     23  O   UNL     1      13.263 -18.319 -38.715  1.00  0.00    -0.550 OA
ATOM     24  O   UNL     1      14.119 -20.337 -39.389  1.00  0.00    -0.550 OA
ENDBRANCH  21  22
ENDBRANCH  20  21
ENDBRANCH  19  20
ENDBRANCH  18  19
ENDBRANCH  17  18
ENDBRANCH  16  17
ENDBRANCH  15  16
ENDBRANCH  14  15
ENDBRANCH  13  14
ENDBRANCH   1  13
TORSDOF 20
ENDMDL
MODEL 5
REMARK VINA RESULT:    -3.796      3.270      6.688
REMARK INTER + INTRA:         -11.620
REMARK INTER:                  -8.407
REMARK INTRA:                  -3.213
REMARK UNBOUND:                -3.386
REMARK SMILES CCCCCCCCCCCCCCCCCCCCCC(=O)[O-]
REMARK SMILES IDX 12 1 11 2 10 3 9 4 8 5 7 6 6 7 5 8 4 9 3 10 2 11 1 12 13 13
REMARK SMILES IDX 14 14 15 15 16 16 17 17 18 18 19 19 20 20 21 21 22 22 23 23
REMARK SMILES IDX 24 24
REMARK H PARENT
REMARK Flexibility Score: inf
ROOT
ATOM      1  C   UNL     1       8.277 -22.257 -34.889  1.00  0.00     0.000 C 
ENDROOT
BRANCH   1   2
ATOM      2  C   UNL     1       8.682 -20.832 -35.298  1.00  0.00     0.000 C 
BRANCH   2   3
ATOM      3  C   UNL     1       7.515 -20.042 -35.924  1.00  0.00     0.000 C 
BRANCH   3   4
ATOM      4  C   UNL     1       7.169 -20.472 -37.360  1.00  0.00    -0.000 C 
BRANCH   4   5
ATOM      5  C   UNL     1       7.892 -19.637 -38.431  1.00  0.00    -0.000 C 
BRANCH   5   6
ATOM      6  C   UNL     1       8.379 -18.281 -37.894  1.00  0.00    -0.000 C 
BRANCH   6   7
ATOM      7  C   UNL     1       7.924 -17.100 -38.763  1.00  0.00    -0.000 C 
BRANCH   7   8
ATOM      8  C   UNL     1       6.667 -16.443 -38.173  1.00  0.00    -0.000 C 
BRANCH   8   9
ATOM      9  C   UNL     1       6.600 -16.555 -36.641  1.00  0.00    -0.000 C 
BRANCH   9  10
ATOM     10  C   UNL     1       6.064 -15.277 -35.979  1.00  0.00    -0.000 C 
BRANCH  10  11
ATOM     11  C   UNL     1       5.171 -15.615 -34.778  1.00  0.00    -0.003 C 
ATOM     12  C   UNL     1       5.335 -17.075 -34.364  1.00  0.00     0.004 C 
ENDBRANCH  10  11
ENDBRANCH   9  10
ENDBRANCH   8   9
ENDBRANCH   7   8
ENDBRANCH   6   7
ENDBRANCH   5   6
ENDBRANCH   4   5
ENDBRANCH   3   4
ENDBRANCH   2   3
ENDBRANCH   1   2
BRANCH   1  13
ATOM     13  C   UNL     1       9.484 -23.205 -34.935  1.00  0.00     0.000 C 
BRANCH  13  14
ATOM     14  C   UNL     1       9.422 -24.202 -36.107  1.00  0.00     0.000 C 
BRANCH  14  15
ATOM     15  C   UNL     1      10.392 -23.908 -37.267  1.00  0.00     0.000 C 
BRANCH  15  16
ATOM     16  C   UNL     1       9.950 -22.782 -38.219  1.00  0.00     0.000 C 
BRANCH  16  17
ATOM     17  C   UNL     1      11.050 -21.732 -38.502  1.00  0.00     0.000 C 
BRANCH  17  18
ATOM     18  C   UNL     1      11.744 -21.171 -37.243  1.00  0.00     0.000 C 
BRANCH  18  19
ATOM     19  C   UNL     1      11.669 -19.638 -37.066  1.00  0.00     0.000 C 
BRANCH  19  20
ATOM     20  C   UNL     1      11.957 -18.812 -38.334  1.00  0.00     0.006 C 
BRANCH  20  21
ATOM     21  C   UNL     1      13.447 -18.728 -38.706  1.00  0.00     0.053 C 
BRANCH  21  22
ATOM     22  C   UNL     1      13.768 -19.535 -39.927  1.00  0.00     0.041 C 
ATOM     23  O   UNL     1      12.894 -19.713 -40.817  1.00  0.00    -0.550 OA
ATOM     24  O   UNL     1      15.030 -20.099 -40.079  1.00  0.00    -0.550 OA
ENDBRANCH  21  22
ENDBRANCH  20  21
ENDBRANCH  19  20
ENDBRANCH  18  19
ENDBRANCH  17  18
ENDBRANCH  16  17
ENDBRANCH  15  16
ENDBRANCH  14  15
ENDBRANCH  13  14
ENDBRANCH   1  13
TORSDOF 20
ENDMDL
MODEL 6
REMARK VINA RESULT:    -3.756      3.613      7.253
REMARK INTER + INTRA:         -11.534
REMARK INTER:                  -8.740
REMARK INTRA:                  -2.794
REMARK UNBOUND:                -3.386
REMARK SMILES CCCCCCCCCCCCCCCCCCCCCC(=O)[O-]
REMARK SMILES IDX 12 1 11 2 10 3 9 4 8 5 7 6 6 7 5 8 4 9 3 10 2 11 1 12 13 13
REMARK SMILES IDX 14 14 15 15 16 16 17 17 18 18 19 19 20 20 21 21 22 22 23 23
REMARK SMILES IDX 24 24
REMARK H PARENT
REMARK Flexibility Score: inf
ROOT
ATOM      1  C   UNL     1      10.198 -23.186 -38.276  1.00  0.00     0.000 C 
ENDROOT
BRANCH   1   2
ATOM      2  C   UNL     1      10.732 -23.770 -36.958  1.00  0.00     0.000 C 
BRANCH   2   3
ATOM      3  C   UNL     1       9.620 -23.979 -35.910  1.00  0.00     0.000 C 
BRANCH   3   4
ATOM      4  C   UNL     1       9.572 -22.890 -34.824  1.00  0.00    -0.000 C 
BRANCH   4   5
ATOM      5  C   UNL     1       8.283 -22.051 -34.867  1.00  0.00    -0.000 C 
BRANCH   5   6
ATOM      6  C   UNL     1       7.433 -22.338 -36.114  1.00  0.00    -0.000 C 
BRANCH   6   7
ATOM      7  C   UNL     1       7.214 -21.092 -36.984  1.00  0.00    -0.000 C 
BRANCH   7   8
ATOM      8  C   UNL     1       7.406 -19.811 -36.157  1.00  0.00    -0.000 C 
BRANCH   8   9
ATOM      9  C   UNL     1       6.900 -18.554 -36.881  1.00  0.00    -0.000 C 
BRANCH   9  10
ATOM     10  C   UNL     1       5.512 -18.110 -36.395  1.00  0.00    -0.000 C 
BRANCH  10  11
ATOM     11  C   UNL     1       5.610 -16.837 -35.545  1.00  0.00    -0.003 C 
ATOM     12  C   UNL     1       5.275 -17.122 -34.084  1.00  0.00     0.004 C 
ENDBRANCH  10  11
ENDBRANCH   9  10
ENDBRANCH   8   9
ENDBRANCH   7   8
ENDBRANCH   6   7
ENDBRANCH   5   6
ENDBRANCH   4   5
ENDBRANCH   3   4
ENDBRANCH   2   3
ENDBRANCH   1   2
BRANCH   1  13
ATOM     13  C   UNL     1      10.576 -21.704 -38.414  1.00  0.00     0.000 C 
BRANCH  13  14
ATOM     14  C   UNL     1      11.453 -21.198 -37.254  1.00  0.00     0.000 C 
BRANCH  14  15
ATOM     15  C   UNL     1      11.340 -19.689 -36.960  1.00  0.00     0.000 C 
BRANCH  15  16
ATOM     16  C   UNL     1      11.493 -18.772 -38.188  1.00  0.00     0.000 C 
BRANCH  16  17
ATOM     17  C   UNL     1      12.947 -18.654 -38.704  1.00  0.00     0.000 C 
BRANCH  17  18
ATOM     18  C   UNL     1      13.234 -19.432 -40.006  1.00  0.00     0.000 C 
BRANCH  18  19
ATOM     19  C   UNL     1      14.636 -20.072 -40.106  1.00  0.00     0.000 C 
BRANCH  19  20
ATOM     20  C   UNL     1      14.666 -21.512 -40.653  1.00  0.00     0.006 C 
BRANCH  20  21
ATOM     21  C   UNL     1      13.853 -22.519 -39.823  1.00  0.00     0.053 C 
BRANCH  21  22
ATOM     22  C   UNL     1      14.640 -23.062 -38.669  1.00  0.00     0.041 C 
ATOM     23  O   UNL     1      14.915 -22.324 -37.686  1.00  0.00    -0.550 OA
ATOM     24  O   UNL     1      15.079 -24.382 -38.684  1.00  0.00    -0.550 OA
ENDBRANCH  21  22
ENDBRANCH  20  21
ENDBRANCH  19  20
ENDBRANCH  18  19
ENDBRANCH  17  18
ENDBRANCH  16  17
ENDBRANCH  15  16
ENDBRANCH  14  15
ENDBRANCH  13  14
ENDBRANCH   1  13
TORSDOF 20
ENDMDL
MODEL 7
REMARK VINA RESULT:    -3.742      1.399      2.787
REMARK INTER + INTRA:         -11.504
REMARK INTER:                  -8.364
REMARK INTRA:                  -3.139
REMARK UNBOUND:                -3.386
REMARK SMILES CCCCCCCCCCCCCCCCCCCCCC(=O)[O-]
REMARK SMILES IDX 12 1 11 2 10 3 9 4 8 5 7 6 6 7 5 8 4 9 3 10 2 11 1 12 13 13
REMARK SMILES IDX 14 14 15 15 16 16 17 17 18 18 19 19 20 20 21 21 22 22 23 23
REMARK SMILES IDX 24 24
REMARK H PARENT
REMARK Flexibility Score: inf
ROOT
ATOM      1  C   UNL     1       9.773 -23.654 -35.410  1.00  0.00     0.000 C 
ENDROOT
BRANCH   1   2
ATOM      2  C   UNL     1      10.576 -24.003 -36.673  1.00  0.00     0.000 C 
BRANCH   2   3
ATOM      3  C   UNL     1      11.364 -22.798 -37.225  1.00  0.00     0.000 C 
BRANCH   3   4
ATOM      4  C   UNL     1      12.592 -23.187 -38.065  1.00  0.00    -0.000 C 
BRANCH   4   5
ATOM      5  C   UNL     1      13.753 -22.185 -37.937  1.00  0.00    -0.000 C 
BRANCH   5   6
ATOM      6  C   UNL     1      13.296 -20.815 -37.413  1.00  0.00    -0.000 C 
BRANCH   6   7
ATOM      7  C   UNL     1      13.328 -19.725 -38.494  1.00  0.00    -0.000 C 
BRANCH   7   8
ATOM      8  C   UNL     1      12.218 -18.690 -38.255  1.00  0.00    -0.000 C 
BRANCH   8   9
ATOM      9  C   UNL     1      11.195 -19.146 -37.203  1.00  0.00    -0.000 C 
BRANCH   9  10
ATOM     10  C   UNL     1       9.766 -19.219 -37.761  1.00  0.00    -0.000 C 
BRANCH  10  11
ATOM     11  C   UNL     1       9.764 -19.765 -39.194  1.00  0.00    -0.003 C 
ATOM     12  C   UNL     1       9.018 -21.094 -39.276  1.00  0.00     0.004 C 
ENDBRANCH  10  11
ENDBRANCH   9  10
ENDBRANCH   8   9
ENDBRANCH   7   8
ENDBRANCH   6   7
ENDBRANCH   5   6
ENDBRANCH   4   5
ENDBRANCH   3   4
ENDBRANCH   2   3
ENDBRANCH   1   2
BRANCH   1  13
ATOM     13  C   UNL     1       9.764 -22.137 -35.166  1.00  0.00     0.000 C 
BRANCH  13  14
ATOM     14  C   UNL     1       8.354 -21.524 -35.247  1.00  0.00     0.000 C 
BRANCH  14  15
ATOM     15  C   UNL     1       7.313 -22.374 -36.001  1.00  0.00     0.000 C 
BRANCH  15  16
ATOM     16  C   UNL     1       6.348 -21.579 -36.899  1.00  0.00     0.000 C 
BRANCH  16  17
ATOM     17  C   UNL     1       6.422 -20.047 -36.696  1.00  0.00     0.000 C 
BRANCH  17  18
ATOM     18  C   UNL     1       5.554 -19.225 -37.671  1.00  0.00     0.000 C 
BRANCH  18  19
ATOM     19  C   UNL     1       5.621 -17.692 -37.495  1.00  0.00     0.000 C 
BRANCH  19  20
ATOM     20  C   UNL     1       5.750 -17.200 -36.040  1.00  0.00     0.006 C 
BRANCH  20  21
ATOM     21  C   UNL     1       4.477 -16.542 -35.482  1.00  0.00     0.053 C 
BRANCH  21  22
ATOM     22  C   UNL     1       4.647 -16.106 -34.059  1.00  0.00     0.041 C 
ATOM     23  O   UNL     1       5.331 -16.801 -33.260  1.00  0.00    -0.550 OA
ATOM     24  O   UNL     1       4.043 -14.936 -33.610  1.00  0.00    -0.550 OA
ENDBRANCH  21  22
ENDBRANCH  20  21
ENDBRANCH  19  20
ENDBRANCH  18  19
ENDBRANCH  17  18
ENDBRANCH  16  17
ENDBRANCH  15  16
ENDBRANCH  14  15
ENDBRANCH  13  14
ENDBRANCH   1  13
TORSDOF 20
ENDMDL
MODEL 8
REMARK VINA RESULT:    -3.709      1.341      2.232
REMARK INTER + INTRA:         -11.432
REMARK INTER:                  -7.817
REMARK INTRA:                  -3.615
REMARK UNBOUND:                -3.386
REMARK SMILES CCCCCCCCCCCCCCCCCCCCCC(=O)[O-]
REMARK SMILES IDX 12 1 11 2 10 3 9 4 8 5 7 6 6 7 5 8 4 9 3 10 2 11 1 12 13 13
REMARK SMILES IDX 14 14 15 15 16 16 17 17 18 18 19 19 20 20 21 21 22 22 23 23
REMARK SMILES IDX 24 24
REMARK H PARENT
REMARK Flexibility Score: inf
ROOT
ATOM      1  C   UNL     1      12.384 -24.427 -39.637  1.00  0.00     0.000 C 
ENDROOT
BRANCH   1   2
ATOM      2  C   UNL     1      13.821 -24.941 -39.817  1.00  0.00     0.000 C 
BRANCH   2   3
ATOM      3  C   UNL     1      14.875 -23.947 -39.288  1.00  0.00     0.000 C 
BRANCH   3   4
ATOM      4  C   UNL     1      14.607 -23.458 -37.855  1.00  0.00    -0.000 C 
BRANCH   4   5
ATOM      5  C   UNL     1      14.643 -21.925 -37.723  1.00  0.00    -0.000 C 
BRANCH   5   6
ATOM      6  C   UNL     1      15.177 -21.236 -38.989  1.00  0.00    -0.000 C 
BRANCH   6   7
ATOM      7  C   UNL     1      14.248 -20.125 -39.497  1.00  0.00    -0.000 C 
BRANCH   7   8
ATOM      8  C   UNL     1      13.047 -20.721 -40.247  1.00  0.00    -0.000 C 
BRANCH   8   9
ATOM      9  C   UNL     1      11.699 -20.197 -39.724  1.00  0.00    -0.000 C 
BRANCH   9  10
ATOM     10  C   UNL     1      11.096 -21.098 -38.637  1.00  0.00    -0.000 C 
BRANCH  10  11
ATOM     11  C   UNL     1      11.250 -20.462 -37.250  1.00  0.00    -0.003 C 
ATOM     12  C   UNL     1      11.173 -18.940 -37.331  1.00  0.00     0.004 C 
ENDBRANCH  10  11
ENDBRANCH   9  10
ENDBRANCH   8   9
ENDBRANCH   7   8
ENDBRANCH   6   7
ENDBRANCH   5   6
ENDBRANCH   4   5
ENDBRANCH   3   4
ENDBRANCH   2   3
ENDBRANCH   1   2
BRANCH   1  13
ATOM     13  C   UNL     1      11.545 -25.416 -38.814  1.00  0.00     0.000 C 
BRANCH  13  14
ATOM     14  C   UNL     1      10.419 -24.732 -38.018  1.00  0.00     0.000 C 
BRANCH  14  15
ATOM     15  C   UNL     1      10.829 -24.201 -36.631  1.00  0.00     0.000 C 
BRANCH  15  16
ATOM     16  C   UNL     1       9.668 -24.010 -35.637  1.00  0.00     0.000 C 
BRANCH  16  17
ATOM     17  C   UNL     1       9.731 -22.680 -34.849  1.00  0.00     0.000 C 
BRANCH  17  18
ATOM     18  C   UNL     1       8.433 -21.846 -34.888  1.00  0.00     0.000 C 
BRANCH  18  19
ATOM     19  C   UNL     1       7.441 -22.206 -36.016  1.00  0.00     0.000 C 
BRANCH  19  20
ATOM     20  C   UNL     1       7.573 -21.367 -37.303  1.00  0.00     0.006 C 
BRANCH  20  21
ATOM     21  C   UNL     1       6.473 -20.307 -37.479  1.00  0.00     0.053 C 
BRANCH  21  22
ATOM     22  C   UNL     1       6.850 -18.997 -36.857  1.00  0.00     0.041 C 
ATOM     23  O   UNL     1       7.604 -18.197 -37.472  1.00  0.00    -0.550 OA
ATOM     24  O   UNL     1       6.375 -18.663 -35.593  1.00  0.00    -0.550 OA
ENDBRANCH  21  22
ENDBRANCH  20  21
ENDBRANCH  19  20
ENDBRANCH  18  19
ENDBRANCH  17  18
ENDBRANCH  16  17
ENDBRANCH  15  16
ENDBRANCH  14  15
ENDBRANCH  13  14
ENDBRANCH   1  13
TORSDOF 20
ENDMDL
MODEL 9
REMARK VINA RESULT:    -3.696      1.361      3.423
REMARK INTER + INTRA:         -11.403
REMARK INTER:                  -8.100
REMARK INTRA:                  -3.302
REMARK UNBOUND:                -3.386
REMARK SMILES CCCCCCCCCCCCCCCCCCCCCC(=O)[O-]
REMARK SMILES IDX 12 1 11 2 10 3 9 4 8 5 7 6 6 7 5 8 4 9 3 10 2 11 1 12 13 13
REMARK SMILES IDX 14 14 15 15 16 16 17 17 18 18 19 19 20 20 21 21 22 22 23 23
REMARK SMILES IDX 24 24
REMARK H PARENT
REMARK Flexibility Score: inf
ROOT
ATOM      1  C   UNL     1      10.327 -21.164 -36.316  1.00  0.00     0.000 C 
ENDROOT
BRANCH   1   2
ATOM      2  C   UNL     1       9.673 -19.808 -36.627  1.00  0.00     0.000 C 
BRANCH   2   3
ATOM      3  C   UNL     1       9.652 -19.494 -38.136  1.00  0.00     0.000 C 
BRANCH   3   4
ATOM      4  C   UNL     1      10.381 -20.536 -39.001  1.00  0.00    -0.000 C 
BRANCH   4   5
ATOM      5  C   UNL     1      11.571 -19.949 -39.779  1.00  0.00    -0.000 C 
BRANCH   5   6
ATOM      6  C   UNL     1      12.430 -19.005 -38.923  1.00  0.00    -0.000 C 
BRANCH   6   7
ATOM      7  C   UNL     1      13.833 -19.564 -38.648  1.00  0.00    -0.000 C 
BRANCH   7   8
ATOM      8  C   UNL     1      13.789 -20.623 -37.536  1.00  0.00    -0.000 C 
BRANCH   8   9
ATOM      9  C   UNL     1      14.921 -21.656 -37.652  1.00  0.00    -0.000 C 
BRANCH   9  10
ATOM     10  C   UNL     1      14.397 -23.091 -37.809  1.00  0.00    -0.000 C 
BRANCH  10  11
ATOM     11  C   UNL     1      12.896 -23.095 -38.125  1.00  0.00    -0.003 C 
ATOM     12  C   UNL     1      12.619 -23.750 -39.475  1.00  0.00     0.004 C 
ENDBRANCH  10  11
ENDBRANCH   9  10
ENDBRANCH   8   9
ENDBRANCH   7   8
ENDBRANCH   6   7
ENDBRANCH   5   6
ENDBRANCH   4   5
ENDBRANCH   3   4
ENDBRANCH   2   3
ENDBRANCH   1   2
BRANCH   1  13
ATOM     13  C   UNL     1       9.704 -21.801 -35.065  1.00  0.00     0.000 C 
BRANCH  13  14
ATOM     14  C   UNL     1       8.326 -22.433 -35.337  1.00  0.00     0.000 C 
BRANCH  14  15
ATOM     15  C   UNL     1       8.207 -23.193 -36.672  1.00  0.00     0.000 C 
BRANCH  15  16
ATOM     16  C   UNL     1       7.171 -22.622 -37.657  1.00  0.00     0.000 C 
BRANCH  16  17
ATOM     17  C   UNL     1       6.222 -21.573 -37.031  1.00  0.00     0.000 C 
BRANCH  17  18
ATOM     18  C   UNL     1       6.152 -20.232 -37.791  1.00  0.00     0.000 C 
BRANCH  18  19
ATOM     19  C   UNL     1       5.472 -19.070 -37.034  1.00  0.00     0.000 C 
BRANCH  19  20
ATOM     20  C   UNL     1       6.399 -18.244 -36.122  1.00  0.00     0.006 C 
BRANCH  20  21
ATOM     21  C   UNL     1       5.667 -17.482 -35.005  1.00  0.00     0.053 C 
BRANCH  21  22
ATOM     22  C   UNL     1       5.673 -16.001 -35.236  1.00  0.00     0.041 C 
ATOM     23  O   UNL     1       6.483 -15.491 -36.056  1.00  0.00    -0.550 OA
ATOM     24  O   UNL     1       4.790 -15.183 -34.540  1.00  0.00    -0.550 OA
ENDBRANCH  21  22
ENDBRANCH  20  21
ENDBRANCH  19  20
ENDBRANCH  18  19
ENDBRANCH  17  18
ENDBRANCH  16  17
ENDBRANCH  15  16
ENDBRANCH  14  15
ENDBRANCH  13  14
ENDBRANCH   1  13
TORSDOF 20
ENDMDL
