MODEL 1
REMARK VINA RESULT:    -5.209      0.000      0.000
REMARK INTER + INTRA:          -6.645
REMARK INTER:                  -6.275
REMARK INTRA:                  -0.370
REMARK UNBOUND:                -0.370
REMARK SMILES O=c1c(O)c(-c2ccc(O)cc2O)oc2cc(O)cc(O)c12
REMARK SMILES IDX 5 1 3 2 2 3 1 4 22 5 20 6 19 7 17 8 16 9 15 10 14 11 6 12
REMARK SMILES IDX 8 13 7 14 9 15 11 16 12 17 10 18 13 20 4 22 21 24 18 26
REMARK H PARENT 10 19 13 21 4 23 21 25 18 27
REMARK Flexibility Score: inf
ROOT
ATOM      1  C   UNL     1     -15.406 -17.508 -34.611  1.00  0.00     0.184 A 
ATOM      2  C   UNL     1     -16.122 -16.967 -33.528  1.00  0.00     0.208 A 
ATOM      3  C   UNL     1     -15.957 -15.609 -33.217  1.00  0.00     0.238 A 
ATOM      4  O   UNL     1     -16.603 -15.110 -32.255  1.00  0.00    -0.285 OA
ATOM      5  C   UNL     1     -15.068 -14.823 -33.980  1.00  0.00     0.111 A 
ATOM      6  C   UNL     1     -14.841 -13.448 -33.730  1.00  0.00     0.134 A 
ATOM      7  C   UNL     1     -13.933 -12.736 -34.529  1.00  0.00     0.093 A 
ATOM      8  C   UNL     1     -13.248 -13.371 -35.567  1.00  0.00     0.123 A 
ATOM      9  C   UNL     1     -13.468 -14.730 -35.819  1.00  0.00     0.094 A 
ATOM     10  C   UNL     1     -14.370 -15.456 -35.036  1.00  0.00     0.146 A 
ATOM     11  O   UNL     1     -14.564 -16.743 -35.299  1.00  0.00    -0.451 OA
ENDROOT
BRANCH   1  12
ATOM     12  C   UNL     1     -15.542 -18.927 -34.999  1.00  0.00     0.063 A 
ATOM     13  C   UNL     1     -16.950 -20.728 -35.825  1.00  0.00     0.047 A 
ATOM     14  C   UNL     1     -16.785 -19.391 -35.457  1.00  0.00     0.020 A 
ATOM     15  C   UNL     1     -15.877 -21.622 -35.730  1.00  0.00     0.119 A 
ATOM     16  C   UNL     1     -14.641 -21.174 -35.254  1.00  0.00     0.093 A 
ATOM     17  C   UNL     1     -14.469 -19.834 -34.875  1.00  0.00     0.130 A 
BRANCH  15  18
ATOM     18  O   UNL     1     -16.029 -22.956 -36.100  1.00  0.00    -0.508 OA
ATOM     19  H   UNL     1     -16.329 -23.217 -37.031  1.00  0.00     0.293 HD
ENDBRANCH  15  18
BRANCH  17  20
ATOM     20  O   UNL     1     -13.245 -19.412 -34.355  1.00  0.00    -0.507 OA
ATOM     21  H   UNL     1     -12.668 -20.024 -33.790  1.00  0.00     0.293 HD
ENDBRANCH  17  20
ENDBRANCH   1  12
BRANCH   2  22
ATOM     22  O   UNL     1     -16.961 -17.782 -32.764  1.00  0.00    -0.502 OA
ATOM     23  H   UNL     1     -17.805 -18.196 -33.141  1.00  0.00     0.293 HD
ENDBRANCH   2  22
BRANCH   6  24
ATOM     24  O   UNL     1     -15.509 -12.785 -32.700  1.00  0.00    -0.507 OA
ATOM     25  H   UNL     1     -15.616 -11.777 -32.696  1.00  0.00     0.293 HD
ENDBRANCH   6  24
BRANCH   8  26
ATOM     26  O   UNL     1     -12.351 -12.642 -36.345  1.00  0.00    -0.508 OA
ATOM     27  H   UNL     1     -12.480 -12.536 -37.344  1.00  0.00     0.293 HD
ENDBRANCH   8  26
TORSDOF 6
ENDMDL
MODEL 2
REMARK VINA RESULT:    -4.805      1.969      6.990
REMARK INTER + INTRA:          -6.159
REMARK INTER:                  -5.744
REMARK INTRA:                  -0.415
REMARK UNBOUND:                -0.370
REMARK SMILES O=c1c(O)c(-c2ccc(O)cc2O)oc2cc(O)cc(O)c12
REMARK SMILES IDX 5 1 3 2 2 3 1 4 22 5 20 6 19 7 17 8 16 9 15 10 14 11 6 12
REMARK SMILES IDX 8 13 7 14 9 15 11 16 12 17 10 18 13 20 4 22 21 24 18 26
REMARK H PARENT 10 19 13 21 4 23 21 25 18 27
REMARK Flexibility Score: inf
ROOT
ATOM      1  C   UNL     1     -14.440 -17.163 -35.427  1.00  0.00     0.184 A 
ATOM      2  C   UNL     1     -14.684 -17.061 -36.808  1.00  0.00     0.208 A 
ATOM      3  C   UNL     1     -14.909 -18.234 -37.544  1.00  0.00     0.238 A 
ATOM      4  O   UNL     1     -15.140 -18.155 -38.782  1.00  0.00    -0.285 OA
ATOM      5  C   UNL     1     -14.868 -19.484 -36.892  1.00  0.00     0.111 A 
ATOM      6  C   UNL     1     -15.081 -20.714 -37.561  1.00  0.00     0.134 A 
ATOM      7  C   UNL     1     -15.015 -21.917 -36.842  1.00  0.00     0.093 A 
ATOM      8  C   UNL     1     -14.739 -21.916 -35.473  1.00  0.00     0.123 A 
ATOM      9  C   UNL     1     -14.529 -20.703 -34.806  1.00  0.00     0.094 A 
ATOM     10  C   UNL     1     -14.592 -19.494 -35.504  1.00  0.00     0.146 A 
ATOM     11  O   UNL     1     -14.392 -18.357 -34.846  1.00  0.00    -0.451 OA
ENDROOT
BRANCH   1  12
ATOM     12  C   UNL     1     -14.206 -15.967 -34.591  1.00  0.00     0.063 A 
ATOM     13  C   UNL     1     -12.662 -14.281 -33.764  1.00  0.00     0.047 A 
ATOM     14  C   UNL     1     -12.919 -15.407 -34.549  1.00  0.00     0.020 A 
ATOM     15  C   UNL     1     -13.686 -13.705 -33.002  1.00  0.00     0.119 A 
ATOM     16  C   UNL     1     -14.965 -14.269 -33.020  1.00  0.00     0.093 A 
ATOM     17  C   UNL     1     -15.231 -15.405 -33.801  1.00  0.00     0.130 A 
BRANCH  15  18
ATOM     18  O   UNL     1     -13.442 -12.579 -32.220  1.00  0.00    -0.508 OA
ATOM     19  H   UNL     1     -12.555 -12.090 -32.257  1.00  0.00     0.293 HD
ENDBRANCH  15  18
BRANCH  17  20
ATOM     20  O   UNL     1     -16.498 -15.986 -33.770  1.00  0.00    -0.507 OA
ATOM     21  H   UNL     1     -16.792 -16.582 -33.006  1.00  0.00     0.293 HD
ENDBRANCH  17  20
ENDBRANCH   1  12
BRANCH   2  22
ATOM     22  O   UNL     1     -14.673 -15.812 -37.433  1.00  0.00    -0.502 OA
ATOM     23  H   UNL     1     -13.815 -15.351 -37.709  1.00  0.00     0.293 HD
ENDBRANCH   2  22
BRANCH   6  24
ATOM     24  O   UNL     1     -15.358 -20.750 -38.928  1.00  0.00    -0.507 OA
ATOM     25  H   UNL     1     -16.191 -20.322 -39.315  1.00  0.00     0.293 HD
ENDBRANCH   6  24
BRANCH   8  26
ATOM     26  O   UNL     1     -14.678 -23.124 -34.783  1.00  0.00    -0.508 OA
ATOM     27  H   UNL     1     -14.316 -23.965 -35.217  1.00  0.00     0.293 HD
ENDBRANCH   8  26
TORSDOF 6
ENDMDL
MODEL 3
REMARK VINA RESULT:    -4.762      1.604      6.823
REMARK INTER + INTRA:          -6.107
REMARK INTER:                  -5.810
REMARK INTRA:                  -0.297
REMARK UNBOUND:                -0.370
REMARK SMILES O=c1c(O)c(-c2ccc(O)cc2O)oc2cc(O)cc(O)c12
REMARK SMILES IDX 5 1 3 2 2 3 1 4 22 5 20 6 19 7 17 8 16 9 15 10 14 11 6 12
REMARK SMILES IDX 8 13 7 14 9 15 11 16 12 17 10 18 13 20 4 22 21 24 18 26
REMARK H PARENT 10 19 13 21 4 23 21 25 18 27
REMARK Flexibility Score: inf
ROOT
ATOM      1  C   UNL     1     -15.022 -18.109 -34.957  1.00  0.00     0.184 A 
ATOM      2  C   UNL     1     -16.207 -18.658 -35.480  1.00  0.00     0.208 A 
ATOM      3  C   UNL     1     -16.255 -20.034 -35.748  1.00  0.00     0.238 A 
ATOM      4  O   UNL     1     -17.316 -20.540 -36.206  1.00  0.00    -0.285 OA
ATOM      5  C   UNL     1     -15.118 -20.831 -35.505  1.00  0.00     0.111 A 
ATOM      6  C   UNL     1     -15.082 -22.225 -35.750  1.00  0.00     0.134 A 
ATOM      7  C   UNL     1     -13.908 -22.948 -35.492  1.00  0.00     0.093 A 
ATOM      8  C   UNL     1     -12.771 -22.306 -34.996  1.00  0.00     0.123 A 
ATOM      9  C   UNL     1     -12.800 -20.929 -34.751  1.00  0.00     0.094 A 
ATOM     10  C   UNL     1     -13.961 -20.191 -35.000  1.00  0.00     0.146 A 
ATOM     11  O   UNL     1     -13.962 -18.886 -34.756  1.00  0.00    -0.451 OA
ENDROOT
BRANCH   1  12
ATOM     12  C   UNL     1     -14.907 -16.670 -34.643  1.00  0.00     0.063 A 
ATOM     13  C   UNL     1     -13.849 -14.526 -35.085  1.00  0.00     0.047 A 
ATOM     14  C   UNL     1     -13.988 -15.888 -35.361  1.00  0.00     0.020 A 
ATOM     15  C   UNL     1     -14.619 -13.930 -34.080  1.00  0.00     0.119 A 
ATOM     16  C   UNL     1     -15.521 -14.705 -33.344  1.00  0.00     0.093 A 
ATOM     17  C   UNL     1     -15.662 -16.076 -33.610  1.00  0.00     0.130 A 
BRANCH  15  18
ATOM     18  O   UNL     1     -14.492 -12.571 -33.800  1.00  0.00    -0.508 OA
ATOM     19  H   UNL     1     -14.170 -11.914 -34.499  1.00  0.00     0.293 HD
ENDBRANCH  15  18
BRANCH  17  20
ATOM     20  O   UNL     1     -16.528 -16.847 -32.835  1.00  0.00    -0.507 OA
ATOM     21  H   UNL     1     -16.936 -17.705 -33.188  1.00  0.00     0.293 HD
ENDBRANCH  17  20
ENDBRANCH   1  12
BRANCH   2  22
ATOM     22  O   UNL     1     -17.302 -17.834 -35.752  1.00  0.00    -0.502 OA
ATOM     23  H   UNL     1     -18.213 -18.205 -35.994  1.00  0.00     0.293 HD
ENDBRANCH   2  22
BRANCH   6  24
ATOM     24  O   UNL     1     -16.201 -22.896 -36.246  1.00  0.00    -0.507 OA
ATOM     25  H   UNL     1     -16.869 -23.345 -35.631  1.00  0.00     0.293 HD
ENDBRANCH   6  24
BRANCH   8  26
ATOM     26  O   UNL     1     -11.617 -23.046 -34.748  1.00  0.00    -0.508 OA
ATOM     27  H   UNL     1     -11.601 -24.054 -34.851  1.00  0.00     0.293 HD
ENDBRANCH   8  26
TORSDOF 6
ENDMDL
MODEL 4
REMARK VINA RESULT:    -4.619      1.974      6.499
REMARK INTER + INTRA:          -5.935
REMARK INTER:                  -5.693
REMARK INTRA:                  -0.242
REMARK UNBOUND:                -0.370
REMARK SMILES O=c1c(O)c(-c2ccc(O)cc2O)oc2cc(O)cc(O)c12
REMARK SMILES IDX 5 1 3 2 2 3 1 4 22 5 20 6 19 7 17 8 16 9 15 10 14 11 6 12
REMARK SMILES IDX 8 13 7 14 9 15 11 16 12 17 10 18 13 20 4 22 21 24 18 26
REMARK H PARENT 10 19 13 21 4 23 21 25 18 27
REMARK Flexibility Score: inf
ROOT
ATOM      1  C   UNL     1     -14.956 -15.588 -34.056  1.00  0.00     0.184 A 
ATOM      2  C   UNL     1     -15.835 -16.432 -33.353  1.00  0.00     0.208 A 
ATOM      3  C   UNL     1     -16.167 -17.677 -33.908  1.00  0.00     0.238 A 
ATOM      4  O   UNL     1     -16.945 -18.447 -33.282  1.00  0.00    -0.285 OA
ATOM      5  C   UNL     1     -15.630 -18.047 -35.159  1.00  0.00     0.111 A 
ATOM      6  C   UNL     1     -15.917 -19.282 -35.789  1.00  0.00     0.134 A 
ATOM      7  C   UNL     1     -15.351 -19.573 -37.039  1.00  0.00     0.093 A 
ATOM      8  C   UNL     1     -14.508 -18.656 -37.671  1.00  0.00     0.123 A 
ATOM      9  C   UNL     1     -14.221 -17.434 -37.053  1.00  0.00     0.094 A 
ATOM     10  C   UNL     1     -14.773 -17.126 -35.806  1.00  0.00     0.146 A 
ATOM     11  O   UNL     1     -14.482 -15.961 -35.240  1.00  0.00    -0.451 OA
ENDROOT
BRANCH   1  12
ATOM     12  C   UNL     1     -14.557 -14.269 -33.524  1.00  0.00     0.063 A 
ATOM     13  C   UNL     1     -12.806 -12.823 -32.656  1.00  0.00     0.047 A 
ATOM     14  C   UNL     1     -13.216 -14.055 -33.169  1.00  0.00     0.020 A 
ATOM     15  C   UNL     1     -13.734 -11.789 -32.481  1.00  0.00     0.119 A 
ATOM     16  C   UNL     1     -15.077 -12.000 -32.811  1.00  0.00     0.093 A 
ATOM     17  C   UNL     1     -15.498 -13.238 -33.320  1.00  0.00     0.130 A 
BRANCH  15  18
ATOM     18  O   UNL     1     -13.336 -10.554 -31.976  1.00  0.00    -0.508 OA
ATOM     19  H   UNL     1     -13.653  -9.685 -32.389  1.00  0.00     0.293 HD
ENDBRANCH  15  18
BRANCH  17  20
ATOM     20  O   UNL     1     -16.849 -13.450 -33.597  1.00  0.00    -0.507 OA
ATOM     21  H   UNL     1     -17.193 -13.510 -34.548  1.00  0.00     0.293 HD
ENDBRANCH  17  20
ENDBRANCH   1  12
BRANCH   2  22
ATOM     22  O   UNL     1     -16.385 -16.017 -32.138  1.00  0.00    -0.502 OA
ATOM     23  H   UNL     1     -16.583 -15.045 -31.936  1.00  0.00     0.293 HD
ENDBRANCH   2  22
BRANCH   6  24
ATOM     24  O   UNL     1     -16.755 -20.220 -35.184  1.00  0.00    -0.507 OA
ATOM     25  H   UNL     1     -17.609 -19.946 -34.711  1.00  0.00     0.293 HD
ENDBRANCH   6  24
BRANCH   8  26
ATOM     26  O   UNL     1     -13.960 -18.969 -38.912  1.00  0.00    -0.508 OA
ATOM     27  H   UNL     1     -13.216 -19.651 -39.007  1.00  0.00     0.293 HD
ENDBRANCH   8  26
TORSDOF 6
ENDMDL
MODEL 5
REMARK VINA RESULT:    -4.544      4.123      9.139
REMARK INTER + INTRA:          -5.844
REMARK INTER:                  -5.455
REMARK INTRA:                  -0.389
REMARK UNBOUND:                -0.370
REMARK SMILES O=c1c(O)c(-c2ccc(O)cc2O)oc2cc(O)cc(O)c12
REMARK SMILES IDX 5 1 3 2 2 3 1 4 22 5 20 6 19 7 17 8 16 9 15 10 14 11 6 12
REMARK SMILES IDX 8 13 7 14 9 15 11 16 12 17 10 18 13 20 4 22 21 24 18 26
REMARK H PARENT 10 19 13 21 4 23 21 25 18 27
REMARK Flexibility Score: inf
ROOT
ATOM      1  C   UNL     1     -13.559 -10.581 -34.222  1.00  0.00     0.184 A 
ATOM      2  C   UNL     1     -12.387 -11.358 -34.225  1.00  0.00     0.208 A 
ATOM      3  C   UNL     1     -12.473 -12.714 -33.876  1.00  0.00     0.238 A 
ATOM      4  O   UNL     1     -11.430 -13.424 -33.886  1.00  0.00    -0.285 OA
ATOM      5  C   UNL     1     -13.721 -13.263 -33.513  1.00  0.00     0.111 A 
ATOM      6  C   UNL     1     -13.892 -14.619 -33.144  1.00  0.00     0.134 A 
ATOM      7  C   UNL     1     -15.166 -15.087 -32.787  1.00  0.00     0.093 A 
ATOM      8  C   UNL     1     -16.268 -14.228 -32.790  1.00  0.00     0.123 A 
ATOM      9  C   UNL     1     -16.104 -12.887 -33.153  1.00  0.00     0.094 A 
ATOM     10  C   UNL     1     -14.844 -12.401 -33.515  1.00  0.00     0.146 A 
ATOM     11  O   UNL     1     -14.717 -11.125 -33.859  1.00  0.00    -0.451 OA
ENDROOT
BRANCH   1  12
ATOM     12  C   UNL     1     -13.542  -9.150 -34.590  1.00  0.00     0.063 A 
ATOM     13  C   UNL     1     -13.811  -7.442 -36.299  1.00  0.00     0.047 A 
ATOM     14  C   UNL     1     -13.826  -8.785 -35.915  1.00  0.00     0.020 A 
ATOM     15  C   UNL     1     -13.500  -6.447 -35.364  1.00  0.00     0.119 A 
ATOM     16  C   UNL     1     -13.194  -6.803 -34.047  1.00  0.00     0.093 A 
ATOM     17  C   UNL     1     -13.200  -8.150 -33.655  1.00  0.00     0.130 A 
BRANCH  15  18
ATOM     18  O   UNL     1     -13.488  -5.104 -35.734  1.00  0.00    -0.508 OA
ATOM     19  H   UNL     1     -13.596  -4.365 -35.050  1.00  0.00     0.293 HD
ENDBRANCH  15  18
BRANCH  17  20
ATOM     20  O   UNL     1     -12.844  -8.495 -32.351  1.00  0.00    -0.507 OA
ATOM     21  H   UNL     1     -12.258  -7.894 -31.784  1.00  0.00     0.293 HD
ENDBRANCH  17  20
ENDBRANCH   1  12
BRANCH   2  22
ATOM     22  O   UNL     1     -11.159 -10.775 -34.545  1.00  0.00    -0.502 OA
ATOM     23  H   UNL     1     -10.291 -11.065 -34.110  1.00  0.00     0.293 HD
ENDBRANCH   2  22
BRANCH   6  24
ATOM     24  O   UNL     1     -12.812 -15.503 -33.131  1.00  0.00    -0.507 OA
ATOM     25  H   UNL     1     -12.265 -15.688 -33.963  1.00  0.00     0.293 HD
ENDBRANCH   6  24
BRANCH   8  26
ATOM     26  O   UNL     1     -17.521 -14.717 -32.431  1.00  0.00    -0.508 OA
ATOM     27  H   UNL     1     -17.996 -14.396 -31.595  1.00  0.00     0.293 HD
ENDBRANCH   8  26
TORSDOF 6
ENDMDL
MODEL 6
REMARK VINA RESULT:    -4.404      5.773      9.054
REMARK INTER + INTRA:          -5.675
REMARK INTER:                  -5.409
REMARK INTRA:                  -0.266
REMARK UNBOUND:                -0.370
REMARK SMILES O=c1c(O)c(-c2ccc(O)cc2O)oc2cc(O)cc(O)c12
REMARK SMILES IDX 5 1 3 2 2 3 1 4 22 5 20 6 19 7 17 8 16 9 15 10 14 11 6 12
REMARK SMILES IDX 8 13 7 14 9 15 11 16 12 17 10 18 13 20 4 22 21 24 18 26
REMARK H PARENT 10 19 13 21 4 23 21 25 18 27
REMARK Flexibility Score: inf
ROOT
ATOM      1  C   UNL     1     -13.127  -9.127 -33.076  1.00  0.00     0.184 A 
ATOM      2  C   UNL     1     -12.149  -8.940 -32.083  1.00  0.00     0.208 A 
ATOM      3  C   UNL     1     -11.743  -7.635 -31.768  1.00  0.00     0.238 A 
ATOM      4  O   UNL     1     -10.875  -7.454 -30.871  1.00  0.00    -0.285 OA
ATOM      5  C   UNL     1     -12.307  -6.544 -32.462  1.00  0.00     0.111 A 
ATOM      6  C   UNL     1     -11.951  -5.198 -32.209  1.00  0.00     0.134 A 
ATOM      7  C   UNL     1     -12.551  -4.168 -32.949  1.00  0.00     0.093 A 
ATOM      8  C   UNL     1     -13.496  -4.457 -33.936  1.00  0.00     0.123 A 
ATOM      9  C   UNL     1     -13.852  -5.786 -34.191  1.00  0.00     0.094 A 
ATOM     10  C   UNL     1     -13.267  -6.826 -33.463  1.00  0.00     0.146 A 
ATOM     11  O   UNL     1     -13.626  -8.078 -33.722  1.00  0.00    -0.451 OA
ENDROOT
BRANCH   1  12
ATOM     12  C   UNL     1     -13.607 -10.474 -33.448  1.00  0.00     0.063 A 
ATOM     13  C   UNL     1     -13.862 -12.190 -35.150  1.00  0.00     0.047 A 
ATOM     14  C   UNL     1     -13.415 -10.925 -34.763  1.00  0.00     0.020 A 
ATOM     15  C   UNL     1     -14.518 -13.017 -34.230  1.00  0.00     0.119 A 
ATOM     16  C   UNL     1     -14.734 -12.567 -32.924  1.00  0.00     0.093 A 
ATOM     17  C   UNL     1     -14.293 -11.295 -32.529  1.00  0.00     0.130 A 
BRANCH  15  18
ATOM     18  O   UNL     1     -14.964 -14.283 -34.604  1.00  0.00    -0.508 OA
ATOM     19  H   UNL     1     -14.407 -15.112 -34.434  1.00  0.00     0.293 HD
ENDBRANCH  15  18
BRANCH  17  20
ATOM     20  O   UNL     1     -14.559 -10.839 -31.237  1.00  0.00    -0.507 OA
ATOM     21  H   UNL     1     -15.176 -10.054 -31.067  1.00  0.00     0.293 HD
ENDBRANCH  17  20
ENDBRANCH   1  12
BRANCH   2  22
ATOM     22  O   UNL     1     -11.577 -10.044 -31.444  1.00  0.00    -0.502 OA
ATOM     23  H   UNL     1     -10.712  -9.979 -30.921  1.00  0.00     0.293 HD
ENDBRANCH   2  22
BRANCH   6  24
ATOM     24  O   UNL     1     -11.010  -4.875 -31.230  1.00  0.00    -0.507 OA
ATOM     25  H   UNL     1     -10.419  -5.580 -30.806  1.00  0.00     0.293 HD
ENDBRANCH   6  24
BRANCH   8  26
ATOM     26  O   UNL     1     -14.076  -3.417 -34.658  1.00  0.00    -0.508 OA
ATOM     27  H   UNL     1     -14.294  -3.512 -35.643  1.00  0.00     0.293 HD
ENDBRANCH   8  26
TORSDOF 6
ENDMDL
MODEL 7
REMARK VINA RESULT:    -4.365      2.288      3.782
REMARK INTER + INTRA:          -5.629
REMARK INTER:                  -5.219
REMARK INTRA:                  -0.410
REMARK UNBOUND:                -0.370
REMARK SMILES O=c1c(O)c(-c2ccc(O)cc2O)oc2cc(O)cc(O)c12
REMARK SMILES IDX 5 1 3 2 2 3 1 4 22 5 20 6 19 7 17 8 16 9 15 10 14 11 6 12
REMARK SMILES IDX 8 13 7 14 9 15 11 16 12 17 10 18 13 20 4 22 21 24 18 26
REMARK H PARENT 10 19 13 21 4 23 21 25 18 27
REMARK Flexibility Score: inf
ROOT
ATOM      1  C   UNL     1     -14.302 -14.618 -34.233  1.00  0.00     0.184 A 
ATOM      2  C   UNL     1     -13.472 -14.204 -33.176  1.00  0.00     0.208 A 
ATOM      3  C   UNL     1     -13.035 -12.871 -33.140  1.00  0.00     0.238 A 
ATOM      4  O   UNL     1     -12.299 -12.485 -32.191  1.00  0.00    -0.285 OA
ATOM      5  C   UNL     1     -13.419 -11.985 -34.167  1.00  0.00     0.111 A 
ATOM      6  C   UNL     1     -13.019 -10.627 -34.207  1.00  0.00     0.134 A 
ATOM      7  C   UNL     1     -13.436  -9.810 -35.270  1.00  0.00     0.093 A 
ATOM      8  C   UNL     1     -14.241 -10.323 -36.289  1.00  0.00     0.123 A 
ATOM      9  C   UNL     1     -14.639 -11.664 -36.255  1.00  0.00     0.094 A 
ATOM     10  C   UNL     1     -14.236 -12.493 -35.204  1.00  0.00     0.146 A 
ATOM     11  O   UNL     1     -14.632 -13.761 -35.194  1.00  0.00    -0.451 OA
ENDROOT
BRANCH   1  12
ATOM     12  C   UNL     1     -14.806 -16.003 -34.325  1.00  0.00     0.063 A 
ATOM     13  C   UNL     1     -14.493 -18.279 -35.122  1.00  0.00     0.047 A 
ATOM     14  C   UNL     1     -14.042 -16.962 -35.010  1.00  0.00     0.020 A 
ATOM     15  C   UNL     1     -15.719 -18.653 -34.560  1.00  0.00     0.119 A 
ATOM     16  C   UNL     1     -16.498 -17.701 -33.895  1.00  0.00     0.093 A 
ATOM     17  C   UNL     1     -16.055 -16.374 -33.784  1.00  0.00     0.130 A 
BRANCH  15  18
ATOM     18  O   UNL     1     -16.176 -19.966 -34.661  1.00  0.00    -0.508 OA
ATOM     19  H   UNL     1     -16.281 -20.422 -35.559  1.00  0.00     0.293 HD
ENDBRANCH  15  18
BRANCH  17  20
ATOM     20  O   UNL     1     -16.865 -15.423 -33.161  1.00  0.00    -0.507 OA
ATOM     21  H   UNL     1     -16.485 -14.557 -32.798  1.00  0.00     0.293 HD
ENDBRANCH  17  20
ENDBRANCH   1  12
BRANCH   2  22
ATOM     22  O   UNL     1     -13.072 -15.118 -32.197  1.00  0.00    -0.502 OA
ATOM     23  H   UNL     1     -13.447 -16.057 -32.147  1.00  0.00     0.293 HD
ENDBRANCH   2  22
BRANCH   6  24
ATOM     24  O   UNL     1     -12.215 -10.084 -33.204  1.00  0.00    -0.507 OA
ATOM     25  H   UNL     1     -12.579  -9.423 -32.528  1.00  0.00     0.293 HD
ENDBRANCH   6  24
BRANCH   8  26
ATOM     26  O   UNL     1     -14.640  -9.491 -37.333  1.00  0.00    -0.508 OA
ATOM     27  H   UNL     1     -14.903  -9.864 -38.238  1.00  0.00     0.293 HD
ENDBRANCH   8  26
TORSDOF 6
ENDMDL
MODEL 8
REMARK VINA RESULT:    -4.326      5.343     10.617
REMARK INTER + INTRA:          -5.581
REMARK INTER:                  -5.164
REMARK INTRA:                  -0.417
REMARK UNBOUND:                -0.370
REMARK SMILES O=c1c(O)c(-c2ccc(O)cc2O)oc2cc(O)cc(O)c12
REMARK SMILES IDX 5 1 3 2 2 3 1 4 22 5 20 6 19 7 17 8 16 9 15 10 14 11 6 12
REMARK SMILES IDX 8 13 7 14 9 15 11 16 12 17 10 18 13 20 4 22 21 24 18 26
REMARK H PARENT 10 19 13 21 4 23 21 25 18 27
REMARK Flexibility Score: inf
ROOT
ATOM      1  C   UNL     1     -12.752  -8.532 -33.484  1.00  0.00     0.184 A 
ATOM      2  C   UNL     1     -12.207  -9.171 -32.356  1.00  0.00     0.208 A 
ATOM      3  C   UNL     1     -12.238 -10.572 -32.290  1.00  0.00     0.238 A 
ATOM      4  O   UNL     1     -11.743 -11.156 -31.288  1.00  0.00    -0.285 OA
ATOM      5  C   UNL     1     -12.827 -11.305 -33.340  1.00  0.00     0.111 A 
ATOM      6  C   UNL     1     -12.902 -12.719 -33.350  1.00  0.00     0.134 A 
ATOM      7  C   UNL     1     -13.512 -13.376 -34.429  1.00  0.00     0.093 A 
ATOM      8  C   UNL     1     -14.049 -12.650 -35.495  1.00  0.00     0.123 A 
ATOM      9  C   UNL     1     -13.977 -11.253 -35.491  1.00  0.00     0.094 A 
ATOM     10  C   UNL     1     -13.371 -10.579 -34.426  1.00  0.00     0.146 A 
ATOM     11  O   UNL     1     -13.314  -9.253 -34.449  1.00  0.00    -0.451 OA
ENDROOT
BRANCH   1  12
ATOM     12  C   UNL     1     -12.742  -7.061 -33.622  1.00  0.00     0.063 A 
ATOM     13  C   UNL     1     -11.486  -5.024 -34.052  1.00  0.00     0.047 A 
ATOM     14  C   UNL     1     -11.533  -6.414 -33.921  1.00  0.00     0.020 A 
ATOM     15  C   UNL     1     -12.647  -4.261 -33.874  1.00  0.00     0.119 A 
ATOM     16  C   UNL     1     -13.852  -4.895 -33.553  1.00  0.00     0.093 A 
ATOM     17  C   UNL     1     -13.905  -6.291 -33.414  1.00  0.00     0.130 A 
BRANCH  15  18
ATOM     18  O   UNL     1     -12.614  -2.875 -34.007  1.00  0.00    -0.508 OA
ATOM     19  H   UNL     1     -12.218  -2.283 -33.287  1.00  0.00     0.293 HD
ENDBRANCH  15  18
BRANCH  17  20
ATOM     20  O   UNL     1     -15.102  -6.905 -33.045  1.00  0.00    -0.507 OA
ATOM     21  H   UNL     1     -15.118  -7.714 -32.436  1.00  0.00     0.293 HD
ENDBRANCH  17  20
ENDBRANCH   1  12
BRANCH   2  22
ATOM     22  O   UNL     1     -11.672  -8.414 -31.310  1.00  0.00    -0.502 OA
ATOM     23  H   UNL     1     -12.165  -8.269 -30.438  1.00  0.00     0.293 HD
ENDBRANCH   2  22
BRANCH   6  24
ATOM     24  O   UNL     1     -12.376 -13.474 -32.301  1.00  0.00    -0.507 OA
ATOM     25  H   UNL     1     -12.945 -14.129 -31.777  1.00  0.00     0.293 HD
ENDBRANCH   6  24
BRANCH   8  26
ATOM     26  O   UNL     1     -14.650 -13.326 -36.553  1.00  0.00    -0.508 OA
ATOM     27  H   UNL     1     -15.511 -12.996 -36.973  1.00  0.00     0.293 HD
ENDBRANCH   8  26
TORSDOF 6
ENDMDL
MODEL 9
REMARK VINA RESULT:    -4.296      1.495      3.016
REMARK INTER + INTRA:          -5.545
REMARK INTER:                  -5.118
REMARK INTRA:                  -0.427
REMARK UNBOUND:                -0.370
REMARK SMILES O=c1c(O)c(-c2ccc(O)cc2O)oc2cc(O)cc(O)c12
REMARK SMILES IDX 5 1 3 2 2 3 1 4 22 5 20 6 19 7 17 8 16 9 15 10 14 11 6 12
REMARK SMILES IDX 8 13 7 14 9 15 11 16 12 17 10 18 13 20 4 22 21 24 18 26
REMARK H PARENT 10 19 13 21 4 23 21 25 18 27
REMARK Flexibility Score: inf
ROOT
ATOM      1  C   UNL     1     -14.431 -16.934 -35.724  1.00  0.00     0.184 A 
ATOM      2  C   UNL     1     -13.913 -16.351 -36.894  1.00  0.00     0.208 A 
ATOM      3  C   UNL     1     -13.526 -15.003 -36.866  1.00  0.00     0.238 A 
ATOM      4  O   UNL     1     -13.049 -14.473 -37.906  1.00  0.00    -0.285 OA
ATOM      5  C   UNL     1     -13.682 -14.259 -35.678  1.00  0.00     0.111 A 
ATOM      6  C   UNL     1     -13.321 -12.894 -35.566  1.00  0.00     0.134 A 
ATOM      7  C   UNL     1     -13.516 -12.220 -34.351  1.00  0.00     0.093 A 
ATOM      8  C   UNL     1     -14.064 -12.881 -33.250  1.00  0.00     0.123 A 
ATOM      9  C   UNL     1     -14.423 -14.229 -33.354  1.00  0.00     0.094 A 
ATOM     10  C   UNL     1     -14.235 -14.919 -34.555  1.00  0.00     0.146 A 
ATOM     11  O   UNL     1     -14.580 -16.200 -34.626  1.00  0.00    -0.451 OA
ENDROOT
BRANCH   1  12
ATOM     12  C   UNL     1     -14.847 -18.351 -35.682  1.00  0.00     0.063 A 
ATOM     13  C   UNL     1     -16.479 -20.055 -36.267  1.00  0.00     0.047 A 
ATOM     14  C   UNL     1     -16.053 -18.725 -36.294  1.00  0.00     0.020 A 
ATOM     15  C   UNL     1     -15.710 -21.027 -35.618  1.00  0.00     0.119 A 
ATOM     16  C   UNL     1     -14.517 -20.661 -34.985  1.00  0.00     0.093 A 
ATOM     17  C   UNL     1     -14.086 -19.325 -35.002  1.00  0.00     0.130 A 
BRANCH  15  18
ATOM     18  O   UNL     1     -16.122 -22.357 -35.589  1.00  0.00    -0.508 OA
ATOM     19  H   UNL     1     -16.951 -22.666 -36.082  1.00  0.00     0.293 HD
ENDBRANCH  15  18
BRANCH  17  20
ATOM     20  O   UNL     1     -12.921 -18.965 -34.325  1.00  0.00    -0.507 OA
ATOM     21  H   UNL     1     -12.941 -18.347 -33.523  1.00  0.00     0.293 HD
ENDBRANCH  17  20
ENDBRANCH   1  12
BRANCH   2  22
ATOM     22  O   UNL     1     -13.813 -17.103 -38.068  1.00  0.00    -0.502 OA
ATOM     23  H   UNL     1     -14.486 -17.025 -38.820  1.00  0.00     0.293 HD
ENDBRANCH   2  22
BRANCH   6  24
ATOM     24  O   UNL     1     -12.771 -12.206 -36.648  1.00  0.00    -0.507 OA
ATOM     25  H   UNL     1     -11.785 -12.264 -36.872  1.00  0.00     0.293 HD
ENDBRANCH   6  24
BRANCH   8  26
ATOM     26  O   UNL     1     -14.248 -12.189 -32.055  1.00  0.00    -0.508 OA
ATOM     27  H   UNL     1     -15.154 -12.139 -31.605  1.00  0.00     0.293 HD
ENDBRANCH   8  26
TORSDOF 6
ENDMDL
