MODEL 1
REMARK VINA RESULT:    -4.701      0.000      0.000
REMARK INTER + INTRA:         -10.604
REMARK INTER:                  -8.548
REMARK INTRA:                  -2.056
REMARK UNBOUND:                -2.056
REMARK SMILES CCCCCCCCCCCCCCCC(=O)[O-]
REMARK SMILES IDX 9 1 10 2 11 3 12 4 13 5 14 6 15 7 16 8 17 9 18 10 8 11 7 12
REMARK SMILES IDX 6 13 5 14 4 15 3 16 2 17 1 18
REMARK H PARENT
REMARK Flexibility Score: inf
ROOT
ATOM      1  C   UNL     1       6.323  -5.671 -17.316  1.00  0.00     0.000 C 
ENDROOT
BRANCH   1   2
ATOM      2  C   UNL     1       7.646  -5.248 -16.649  1.00  0.00     0.000 C 
BRANCH   2   3
ATOM      3  C   UNL     1       7.543  -5.166 -15.116  1.00  0.00     0.000 C 
BRANCH   3   4
ATOM      4  C   UNL     1       6.436  -6.072 -14.550  1.00  0.00     0.000 C 
BRANCH   4   5
ATOM      5  C   UNL     1       6.995  -7.314 -13.838  1.00  0.00     0.000 C 
BRANCH   5   6
ATOM      6  C   UNL     1       5.951  -8.441 -13.808  1.00  0.00     0.006 C 
BRANCH   6   7
ATOM      7  C   UNL     1       4.590  -7.987 -14.350  1.00  0.00     0.053 C 
BRANCH   7   8
ATOM      8  C   UNL     1       3.511  -8.105 -13.316  1.00  0.00     0.041 C 
ATOM      9  O   UNL     1       3.159  -9.239 -12.894  1.00  0.00    -0.550 OA
ATOM     10  O   UNL     1       2.917  -6.963 -12.795  1.00  0.00    -0.550 OA
ENDBRANCH   7   8
ENDBRANCH   6   7
ENDBRANCH   5   6
ENDBRANCH   4   5
ENDBRANCH   3   4
ENDBRANCH   2   3
ENDBRANCH   1   2
BRANCH   1  11
ATOM     11  C   UNL     1       6.351  -7.048 -18.002  1.00  0.00     0.000 C 
BRANCH  11  12
ATOM     12  C   UNL     1       7.724  -7.737 -17.907  1.00  0.00    -0.000 C 
BRANCH  12  13
ATOM     13  C   UNL     1       7.689  -9.002 -17.035  1.00  0.00    -0.000 C 
BRANCH  13  14
ATOM     14  C   UNL     1       6.345  -9.747 -17.132  1.00  0.00    -0.000 C 
BRANCH  14  15
ATOM     15  C   UNL     1       6.449 -11.027 -17.991  1.00  0.00    -0.000 C 
BRANCH  15  16
ATOM     16  C   UNL     1       6.225 -10.782 -19.496  1.00  0.00    -0.000 C 
BRANCH  16  17
ATOM     17  C   UNL     1       4.754 -10.813 -19.940  1.00  0.00    -0.003 C 
ATOM     18  C   UNL     1       3.889 -11.720 -19.064  1.00  0.00     0.004 C 
ENDBRANCH  16  17
ENDBRANCH  15  16
ENDBRANCH  14  15
ENDBRANCH  13  14
ENDBRANCH  12  13
ENDBRANCH  11  12
ENDBRANCH   1  11
TORSDOF 14
ENDMDL
MODEL 2
REMARK VINA RESULT:    -4.642      0.937      1.479
REMARK INTER + INTRA:         -10.497
REMARK INTER:                  -8.956
REMARK INTRA:                  -1.541
REMARK UNBOUND:                -2.056
REMARK SMILES CCCCCCCCCCCCCCCC(=O)[O-]
REMARK SMILES IDX 9 1 10 2 11 3 12 4 13 5 14 6 15 7 16 8 17 9 18 10 8 11 7 12
REMARK SMILES IDX 6 13 5 14 4 15 3 16 2 17 1 18
REMARK H PARENT
REMARK Flexibility Score: inf
ROOT
ATOM      1  C   UNL     1       7.294  -6.031 -17.928  1.00  0.00     0.000 C 
ENDROOT
BRANCH   1   2
ATOM      2  C   UNL     1       5.813  -5.792 -17.576  1.00  0.00     0.000 C 
BRANCH   2   3
ATOM      3  C   UNL     1       5.596  -5.474 -16.087  1.00  0.00     0.000 C 
BRANCH   3   4
ATOM      4  C   UNL     1       6.898  -5.553 -15.272  1.00  0.00     0.000 C 
BRANCH   4   5
ATOM      5  C   UNL     1       6.724  -6.319 -13.951  1.00  0.00     0.000 C 
BRANCH   5   6
ATOM      6  C   UNL     1       6.721  -7.836 -14.196  1.00  0.00     0.006 C 
BRANCH   6   7
ATOM      7  C   UNL     1       5.556  -8.536 -13.484  1.00  0.00     0.053 C 
BRANCH   7   8
ATOM      8  C   UNL     1       4.229  -7.995 -13.923  1.00  0.00     0.041 C 
ATOM      9  O   UNL     1       3.843  -8.150 -15.112  1.00  0.00    -0.550 OA
ATOM     10  O   UNL     1       3.404  -7.349 -13.011  1.00  0.00    -0.550 OA
ENDBRANCH   7   8
ENDBRANCH   6   7
ENDBRANCH   5   6
ENDBRANCH   4   5
ENDBRANCH   3   4
ENDBRANCH   2   3
ENDBRANCH   1   2
BRANCH   1  11
ATOM     11  C   UNL     1       7.620  -7.444 -18.444  1.00  0.00     0.000 C 
BRANCH  11  12
ATOM     12  C   UNL     1       7.623  -8.503 -17.327  1.00  0.00    -0.000 C 
BRANCH  12  13
ATOM     13  C   UNL     1       6.387  -9.415 -17.377  1.00  0.00    -0.000 C 
BRANCH  13  14
ATOM     14  C   UNL     1       6.678 -10.765 -18.057  1.00  0.00    -0.000 C 
BRANCH  14  15
ATOM     15  C   UNL     1       6.369 -10.734 -19.569  1.00  0.00    -0.000 C 
BRANCH  15  16
ATOM     16  C   UNL     1       4.871 -10.891 -19.898  1.00  0.00    -0.000 C 
BRANCH  16  17
ATOM     17  C   UNL     1       4.125 -11.914 -19.026  1.00  0.00    -0.003 C 
ATOM     18  C   UNL     1       2.655 -11.553 -18.813  1.00  0.00     0.004 C 
ENDBRANCH  16  17
ENDBRANCH  15  16
ENDBRANCH  14  15
ENDBRANCH  13  14
ENDBRANCH  12  13
ENDBRANCH  11  12
ENDBRANCH   1  11
TORSDOF 14
ENDMDL
MODEL 3
REMARK VINA RESULT:    -4.399      2.893      5.417
REMARK INTER + INTRA:         -10.055
REMARK INTER:                  -8.391
REMARK INTRA:                  -1.664
REMARK UNBOUND:                -2.056
REMARK SMILES CCCCCCCCCCCCCCCC(=O)[O-]
REMARK SMILES IDX 9 1 10 2 11 3 12 4 13 5 14 6 15 7 16 8 17 9 18 10 8 11 7 12
REMARK SMILES IDX 6 13 5 14 4 15 3 16 2 17 1 18
REMARK H PARENT
REMARK Flexibility Score: inf
ROOT
ATOM      1  C   UNL     1       7.364  -5.850 -17.616  1.00  0.00     0.000 C 
ENDROOT
BRANCH   1   2
ATOM      2  C   UNL     1       7.624  -6.653 -18.905  1.00  0.00     0.000 C 
BRANCH   2   3
ATOM      3  C   UNL     1       8.091  -8.093 -18.629  1.00  0.00     0.000 C 
BRANCH   3   4
ATOM      4  C   UNL     1       7.767  -8.553 -17.198  1.00  0.00     0.000 C 
BRANCH   4   5
ATOM      5  C   UNL     1       6.455  -9.349 -17.114  1.00  0.00     0.000 C 
BRANCH   5   6
ATOM      6  C   UNL     1       6.685 -10.822 -17.488  1.00  0.00     0.006 C 
BRANCH   6   7
ATOM      7  C   UNL     1       5.582 -11.366 -18.405  1.00  0.00     0.053 C 
BRANCH   7   8
ATOM      8  C   UNL     1       5.713 -10.845 -19.804  1.00  0.00     0.041 C 
ATOM      9  O   UNL     1       6.846 -10.772 -20.350  1.00  0.00    -0.550 OA
ATOM     10  O   UNL     1       4.581 -10.471 -20.517  1.00  0.00    -0.550 OA
ENDBRANCH   7   8
ENDBRANCH   6   7
ENDBRANCH   5   6
ENDBRANCH   4   5
ENDBRANCH   3   4
ENDBRANCH   2   3
ENDBRANCH   1   2
BRANCH   1  11
ATOM     11  C   UNL     1       5.880  -5.633 -17.273  1.00  0.00     0.000 C 
BRANCH  11  12
ATOM     12  C   UNL     1       5.620  -5.562 -15.757  1.00  0.00    -0.000 C 
BRANCH  12  13
ATOM     13  C   UNL     1       6.895  -5.796 -14.931  1.00  0.00    -0.000 C 
BRANCH  13  14
ATOM     14  C   UNL     1       6.618  -6.555 -13.621  1.00  0.00    -0.000 C 
BRANCH  14  15
ATOM     15  C   UNL     1       6.611  -8.086 -13.824  1.00  0.00    -0.000 C 
BRANCH  15  16
ATOM     16  C   UNL     1       5.262  -8.749 -13.485  1.00  0.00    -0.000 C 
BRANCH  16  17
ATOM     17  C   UNL     1       4.037  -8.078 -14.127  1.00  0.00    -0.003 C 
ATOM     18  C   UNL     1       3.265  -7.192 -13.149  1.00  0.00     0.004 C 
ENDBRANCH  16  17
ENDBRANCH  15  16
ENDBRANCH  14  15
ENDBRANCH  13  14
ENDBRANCH  12  13
ENDBRANCH  11  12
ENDBRANCH   1  11
TORSDOF 14
ENDMDL
MODEL 4
REMARK VINA RESULT:    -4.396      2.654      5.442
REMARK INTER + INTRA:         -10.049
REMARK INTER:                  -8.139
REMARK INTRA:                  -1.911
REMARK UNBOUND:                -2.056
REMARK SMILES CCCCCCCCCCCCCCCC(=O)[O-]
REMARK SMILES IDX 9 1 10 2 11 3 12 4 13 5 14 6 15 7 16 8 17 9 18 10 8 11 7 12
REMARK SMILES IDX 6 13 5 14 4 15 3 16 2 17 1 18
REMARK H PARENT
REMARK Flexibility Score: inf
ROOT
ATOM      1  C   UNL     1       7.066  -5.754 -17.830  1.00  0.00     0.000 C 
ENDROOT
BRANCH   1   2
ATOM      2  C   UNL     1       7.286  -7.188 -18.346  1.00  0.00     0.000 C 
BRANCH   2   3
ATOM      3  C   UNL     1       8.274  -7.990 -17.482  1.00  0.00     0.000 C 
BRANCH   3   4
ATOM      4  C   UNL     1       7.564  -8.914 -16.478  1.00  0.00     0.000 C 
BRANCH   4   5
ATOM      5  C   UNL     1       6.223  -9.446 -17.008  1.00  0.00     0.000 C 
BRANCH   5   6
ATOM      6  C   UNL     1       6.401 -10.826 -17.658  1.00  0.00     0.006 C 
BRANCH   6   7
ATOM      7  C   UNL     1       6.343 -10.759 -19.190  1.00  0.00     0.053 C 
BRANCH   7   8
ATOM      8  C   UNL     1       4.947 -10.943 -19.704  1.00  0.00     0.041 C 
ATOM      9  O   UNL     1       4.583 -10.371 -20.766  1.00  0.00    -0.550 OA
ATOM     10  O   UNL     1       4.060 -11.771 -19.029  1.00  0.00    -0.550 OA
ENDBRANCH   7   8
ENDBRANCH   6   7
ENDBRANCH   5   6
ENDBRANCH   4   5
ENDBRANCH   3   4
ENDBRANCH   2   3
ENDBRANCH   1   2
BRANCH   1  11
ATOM     11  C   UNL     1       7.420  -5.534 -16.348  1.00  0.00     0.000 C 
BRANCH  11  12
ATOM     12  C   UNL     1       6.180  -5.303 -15.465  1.00  0.00    -0.000 C 
BRANCH  12  13
ATOM     13  C   UNL     1       4.866  -5.425 -16.252  1.00  0.00    -0.000 C 
BRANCH  13  14
ATOM     14  C   UNL     1       3.719  -5.997 -15.401  1.00  0.00    -0.000 C 
BRANCH  14  15
ATOM     15  C   UNL     1       3.926  -7.492 -15.073  1.00  0.00    -0.000 C 
BRANCH  15  16
ATOM     16  C   UNL     1       4.302  -7.756 -13.601  1.00  0.00    -0.000 C 
BRANCH  16  17
ATOM     17  C   UNL     1       5.586  -8.578 -13.403  1.00  0.00    -0.003 C 
ATOM     18  C   UNL     1       6.816  -7.705 -13.151  1.00  0.00     0.004 C 
ENDBRANCH  16  17
ENDBRANCH  15  16
ENDBRANCH  14  15
ENDBRANCH  13  14
ENDBRANCH  12  13
ENDBRANCH  11  12
ENDBRANCH   1  11
TORSDOF 14
ENDMDL
MODEL 5
REMARK VINA RESULT:    -4.242      1.780      2.447
REMARK INTER + INTRA:          -9.770
REMARK INTER:                  -7.992
REMARK INTRA:                  -1.778
REMARK UNBOUND:                -2.056
REMARK SMILES CCCCCCCCCCCCCCCC(=O)[O-]
REMARK SMILES IDX 9 1 10 2 11 3 12 4 13 5 14 6 15 7 16 8 17 9 18 10 8 11 7 12
REMARK SMILES IDX 6 13 5 14 4 15 3 16 2 17 1 18
REMARK H PARENT
REMARK Flexibility Score: inf
ROOT
ATOM      1  C   UNL     1       7.196  -5.622 -16.902  1.00  0.00     0.000 C 
ENDROOT
BRANCH   1   2
ATOM      2  C   UNL     1       6.166  -5.225 -15.827  1.00  0.00     0.000 C 
BRANCH   2   3
ATOM      3  C   UNL     1       4.714  -5.325 -16.325  1.00  0.00     0.000 C 
BRANCH   3   4
ATOM      4  C   UNL     1       3.799  -6.061 -15.331  1.00  0.00     0.000 C 
BRANCH   4   5
ATOM      5  C   UNL     1       4.133  -7.556 -15.214  1.00  0.00     0.000 C 
BRANCH   5   6
ATOM      6  C   UNL     1       4.171  -7.995 -13.742  1.00  0.00     0.006 C 
BRANCH   6   7
ATOM      7  C   UNL     1       5.465  -8.739 -13.392  1.00  0.00     0.053 C 
BRANCH   7   8
ATOM      8  C   UNL     1       6.658  -7.833 -13.432  1.00  0.00     0.041 C 
ATOM      9  O   UNL     1       6.650  -6.747 -12.795  1.00  0.00    -0.550 OA
ATOM     10  O   UNL     1       7.791  -8.203 -14.146  1.00  0.00    -0.550 OA
ENDBRANCH   7   8
ENDBRANCH   6   7
ENDBRANCH   5   6
ENDBRANCH   4   5
ENDBRANCH   3   4
ENDBRANCH   2   3
ENDBRANCH   1   2
BRANCH   1  11
ATOM     11  C   UNL     1       6.653  -6.529 -18.020  1.00  0.00     0.000 C 
BRANCH  11  12
ATOM     12  C   UNL     1       7.646  -7.630 -18.433  1.00  0.00    -0.000 C 
BRANCH  12  13
ATOM     13  C   UNL     1       7.838  -8.690 -17.336  1.00  0.00    -0.000 C 
BRANCH  13  14
ATOM     14  C   UNL     1       6.541  -9.460 -17.026  1.00  0.00    -0.000 C 
BRANCH  14  15
ATOM     15  C   UNL     1       6.563 -10.893 -17.599  1.00  0.00    -0.000 C 
BRANCH  15  16
ATOM     16  C   UNL     1       5.324 -11.238 -18.450  1.00  0.00    -0.000 C 
BRANCH  16  17
ATOM     17  C   UNL     1       5.450 -10.886 -19.941  1.00  0.00    -0.003 C 
ATOM     18  C   UNL     1       6.901 -10.691 -20.384  1.00  0.00     0.004 C 
ENDBRANCH  16  17
ENDBRANCH  15  16
ENDBRANCH  14  15
ENDBRANCH  13  14
ENDBRANCH  12  13
ENDBRANCH  11  12
ENDBRANCH   1  11
TORSDOF 14
ENDMDL
MODEL 6
REMARK VINA RESULT:    -4.153      2.742      5.751
REMARK INTER + INTRA:          -9.609
REMARK INTER:                  -7.680
REMARK INTRA:                  -1.929
REMARK UNBOUND:                -2.056
REMARK SMILES CCCCCCCCCCCCCCCC(=O)[O-]
REMARK SMILES IDX 9 1 10 2 11 3 12 4 13 5 14 6 15 7 16 8 17 9 18 10 8 11 7 12
REMARK SMILES IDX 6 13 5 14 4 15 3 16 2 17 1 18
REMARK H PARENT
REMARK Flexibility Score: inf
ROOT
ATOM      1  C   UNL     1       6.519  -7.622 -13.421  1.00  0.00     0.000 C 
ENDROOT
BRANCH   1   2
ATOM      2  C   UNL     1       7.675  -8.048 -14.345  1.00  0.00     0.000 C 
BRANCH   2   3
ATOM      3  C   UNL     1       7.192  -8.789 -15.604  1.00  0.00     0.000 C 
BRANCH   3   4
ATOM      4  C   UNL     1       8.087  -8.521 -16.826  1.00  0.00     0.000 C 
BRANCH   4   5
ATOM      5  C   UNL     1       7.406  -8.893 -18.152  1.00  0.00     0.000 C 
BRANCH   5   6
ATOM      6  C   UNL     1       6.089  -9.642 -17.899  1.00  0.00     0.006 C 
BRANCH   6   7
ATOM      7  C   UNL     1       6.063 -11.016 -18.581  1.00  0.00     0.053 C 
BRANCH   7   8
ATOM      8  C   UNL     1       4.912 -11.144 -19.533  1.00  0.00     0.041 C 
ATOM      9  O   UNL     1       4.991 -10.657 -20.692  1.00  0.00    -0.550 OA
ATOM     10  O   UNL     1       3.766 -11.830 -19.152  1.00  0.00    -0.550 OA
ENDBRANCH   7   8
ENDBRANCH   6   7
ENDBRANCH   5   6
ENDBRANCH   4   5
ENDBRANCH   3   4
ENDBRANCH   2   3
ENDBRANCH   1   2
BRANCH   1  11
ATOM     11  C   UNL     1       5.338  -8.607 -13.358  1.00  0.00     0.000 C 
BRANCH  11  12
ATOM     12  C   UNL     1       3.980  -7.932 -13.622  1.00  0.00    -0.000 C 
BRANCH  12  13
ATOM     13  C   UNL     1       3.852  -7.410 -15.062  1.00  0.00    -0.000 C 
BRANCH  13  14
ATOM     14  C   UNL     1       3.538  -5.904 -15.118  1.00  0.00    -0.000 C 
BRANCH  14  15
ATOM     15  C   UNL     1       4.381  -5.172 -16.184  1.00  0.00    -0.000 C 
BRANCH  15  16
ATOM     16  C   UNL     1       5.450  -6.064 -16.847  1.00  0.00    -0.000 C 
BRANCH  16  17
ATOM     17  C   UNL     1       6.767  -5.345 -17.185  1.00  0.00    -0.003 C 
ATOM     18  C   UNL     1       7.637  -5.091 -15.954  1.00  0.00     0.004 C 
ENDBRANCH  16  17
ENDBRANCH  15  16
ENDBRANCH  14  15
ENDBRANCH  13  14
ENDBRANCH  12  13
ENDBRANCH  11  12
ENDBRANCH   1  11
TORSDOF 14
ENDMDL
MODEL 7
REMARK VINA RESULT:    -3.851      2.440      5.797
REMARK INTER + INTRA:          -9.059
REMARK INTER:                  -8.239
REMARK INTRA:                  -0.820
REMARK UNBOUND:                -2.056
REMARK SMILES CCCCCCCCCCCCCCCC(=O)[O-]
REMARK SMILES IDX 9 1 10 2 11 3 12 4 13 5 14 6 15 7 16 8 17 9 18 10 8 11 7 12
REMARK SMILES IDX 6 13 5 14 4 15 3 16 2 17 1 18
REMARK H PARENT
REMARK Flexibility Score: inf
ROOT
ATOM      1  C   UNL     1       7.755  -8.137 -17.695  1.00  0.00     0.000 C 
ENDROOT
BRANCH   1   2
ATOM      2  C   UNL     1       6.585  -8.991 -17.170  1.00  0.00     0.000 C 
BRANCH   2   3
ATOM      3  C   UNL     1       6.495 -10.366 -17.853  1.00  0.00     0.000 C 
BRANCH   3   4
ATOM      4  C   UNL     1       7.145 -10.376 -19.246  1.00  0.00     0.000 C 
BRANCH   4   5
ATOM      5  C   UNL     1       6.197 -10.894 -20.339  1.00  0.00     0.000 C 
BRANCH   5   6
ATOM      6  C   UNL     1       4.733 -10.798 -19.882  1.00  0.00     0.006 C 
BRANCH   6   7
ATOM      7  C   UNL     1       4.347 -11.937 -18.929  1.00  0.00     0.053 C 
BRANCH   7   8
ATOM      8  C   UNL     1       2.862 -12.135 -18.870  1.00  0.00     0.041 C 
ATOM      9  O   UNL     1       2.093 -11.139 -18.808  1.00  0.00    -0.550 OA
ATOM     10  O   UNL     1       2.327 -13.416 -18.918  1.00  0.00    -0.550 OA
ENDBRANCH   7   8
ENDBRANCH   6   7
ENDBRANCH   5   6
ENDBRANCH   4   5
ENDBRANCH   3   4
ENDBRANCH   2   3
ENDBRANCH   1   2
BRANCH   1  11
ATOM     11  C   UNL     1       7.346  -6.804 -18.347  1.00  0.00     0.000 C 
BRANCH  11  12
ATOM     12  C   UNL     1       6.708  -5.821 -17.350  1.00  0.00    -0.000 C 
BRANCH  12  13
ATOM     13  C   UNL     1       7.610  -5.548 -16.135  1.00  0.00    -0.000 C 
BRANCH  13  14
ATOM     14  C   UNL     1       6.827  -5.536 -14.810  1.00  0.00    -0.000 C 
BRANCH  14  15
ATOM     15  C   UNL     1       6.816  -6.922 -14.128  1.00  0.00    -0.000 C 
BRANCH  15  16
ATOM     16  C   UNL     1       5.414  -7.377 -13.675  1.00  0.00    -0.000 C 
BRANCH  16  17
ATOM     17  C   UNL     1       4.413  -7.610 -14.819  1.00  0.00    -0.003 C 
ATOM     18  C   UNL     1       3.426  -6.456 -14.988  1.00  0.00     0.004 C 
ENDBRANCH  16  17
ENDBRANCH  15  16
ENDBRANCH  14  15
ENDBRANCH  13  14
ENDBRANCH  12  13
ENDBRANCH  11  12
ENDBRANCH   1  11
TORSDOF 14
ENDMDL
MODEL 8
REMARK VINA RESULT:    -3.777      2.608      5.645
REMARK INTER + INTRA:          -8.923
REMARK INTER:                  -7.285
REMARK INTRA:                  -1.638
REMARK UNBOUND:                -2.056
REMARK SMILES CCCCCCCCCCCCCCCC(=O)[O-]
REMARK SMILES IDX 9 1 10 2 11 3 12 4 13 5 14 6 15 7 16 8 17 9 18 10 8 11 7 12
REMARK SMILES IDX 6 13 5 14 4 15 3 16 2 17 1 18
REMARK H PARENT
REMARK Flexibility Score: inf
ROOT
ATOM      1  C   UNL     1       7.120  -8.734 -16.772  1.00  0.00     0.000 C 
ENDROOT
BRANCH   1   2
ATOM      2  C   UNL     1       6.575  -7.781 -17.852  1.00  0.00     0.000 C 
BRANCH   2   3
ATOM      3  C   UNL     1       7.667  -7.276 -18.811  1.00  0.00     0.000 C 
BRANCH   3   4
ATOM      4  C   UNL     1       8.669  -8.377 -19.196  1.00  0.00     0.000 C 
BRANCH   4   5
ATOM      5  C   UNL     1       8.186  -9.229 -20.381  1.00  0.00     0.000 C 
BRANCH   5   6
ATOM      6  C   UNL     1       7.557 -10.542 -19.890  1.00  0.00     0.006 C 
BRANCH   6   7
ATOM      7  C   UNL     1       6.072 -10.648 -20.260  1.00  0.00     0.053 C 
BRANCH   7   8
ATOM      8  C   UNL     1       5.274 -11.310 -19.178  1.00  0.00     0.041 C 
ATOM      9  O   UNL     1       4.053 -11.562 -19.356  1.00  0.00    -0.550 OA
ATOM     10  O   UNL     1       5.887 -11.680 -17.988  1.00  0.00    -0.550 OA
ENDBRANCH   7   8
ENDBRANCH   6   7
ENDBRANCH   5   6
ENDBRANCH   4   5
ENDBRANCH   3   4
ENDBRANCH   2   3
ENDBRANCH   1   2
BRANCH   1  11
ATOM     11  C   UNL     1       7.966  -8.061 -15.677  1.00  0.00     0.000 C 
BRANCH  11  12
ATOM     12  C   UNL     1       7.597  -6.583 -15.459  1.00  0.00    -0.000 C 
BRANCH  12  13
ATOM     13  C   UNL     1       6.844  -6.354 -14.139  1.00  0.00    -0.000 C 
BRANCH  13  14
ATOM     14  C   UNL     1       6.265  -7.655 -13.556  1.00  0.00    -0.000 C 
BRANCH  14  15
ATOM     15  C   UNL     1       4.721  -7.674 -13.593  1.00  0.00    -0.000 C 
BRANCH  15  16
ATOM     16  C   UNL     1       4.134  -7.475 -15.005  1.00  0.00    -0.000 C 
BRANCH  16  17
ATOM     17  C   UNL     1       3.523  -6.087 -15.257  1.00  0.00    -0.003 C 
ATOM     18  C   UNL     1       4.332  -5.254 -16.252  1.00  0.00     0.004 C 
ENDBRANCH  16  17
ENDBRANCH  15  16
ENDBRANCH  14  15
ENDBRANCH  13  14
ENDBRANCH  12  13
ENDBRANCH  11  12
ENDBRANCH   1  11
TORSDOF 14
ENDMDL
MODEL 9
REMARK VINA RESULT:    -3.489      2.544      5.674
REMARK INTER + INTRA:          -8.401
REMARK INTER:                  -7.020
REMARK INTRA:                  -1.381
REMARK UNBOUND:                -2.056
REMARK SMILES CCCCCCCCCCCCCCCC(=O)[O-]
REMARK SMILES IDX 9 1 10 2 11 3 12 4 13 5 14 6 15 7 16 8 17 9 18 10 8 11 7 12
REMARK SMILES IDX 6 13 5 14 4 15 3 16 2 17 1 18
REMARK H PARENT
REMARK Flexibility Score: inf
ROOT
ATOM      1  C   UNL     1       7.328  -8.144 -15.616  1.00  0.00     0.000 C 
ENDROOT
BRANCH   1   2
ATOM      2  C   UNL     1       8.176  -7.798 -16.855  1.00  0.00     0.000 C 
BRANCH   2   3
ATOM      3  C   UNL     1       7.609  -8.395 -18.154  1.00  0.00     0.000 C 
BRANCH   3   4
ATOM      4  C   UNL     1       6.531  -9.461 -17.891  1.00  0.00     0.000 C 
BRANCH   4   5
ATOM      5  C   UNL     1       6.464 -10.521 -19.001  1.00  0.00     0.000 C 
BRANCH   5   6
ATOM      6  C   UNL     1       5.014 -10.748 -19.454  1.00  0.00     0.006 C 
BRANCH   6   7
ATOM      7  C   UNL     1       4.507 -12.151 -19.097  1.00  0.00     0.053 C 
BRANCH   7   8
ATOM      8  C   UNL     1       3.023 -12.170 -18.883  1.00  0.00     0.041 C 
ATOM      9  O   UNL     1       2.383 -11.089 -18.791  1.00  0.00    -0.550 OA
ATOM     10  O   UNL     1       2.344 -13.380 -18.819  1.00  0.00    -0.550 OA
ENDBRANCH   7   8
ENDBRANCH   6   7
ENDBRANCH   5   6
ENDBRANCH   4   5
ENDBRANCH   3   4
ENDBRANCH   2   3
ENDBRANCH   1   2
BRANCH   1  11
ATOM     11  C   UNL     1       7.303  -7.062 -14.522  1.00  0.00     0.000 C 
BRANCH  11  12
ATOM     12  C   UNL     1       6.521  -7.496 -13.269  1.00  0.00    -0.000 C 
BRANCH  12  13
ATOM     13  C   UNL     1       5.480  -8.585 -13.573  1.00  0.00    -0.000 C 
BRANCH  13  14
ATOM     14  C   UNL     1       4.073  -8.007 -13.808  1.00  0.00    -0.000 C 
BRANCH  14  15
ATOM     15  C   UNL     1       3.916  -7.412 -15.224  1.00  0.00    -0.000 C 
BRANCH  15  16
ATOM     16  C   UNL     1       3.449  -5.942 -15.229  1.00  0.00    -0.000 C 
BRANCH  16  17
ATOM     17  C   UNL     1       4.371  -4.978 -15.995  1.00  0.00    -0.003 C 
ATOM     18  C   UNL     1       5.239  -5.688 -17.035  1.00  0.00     0.004 C 
ENDBRANCH  16  17
ENDBRANCH  15  16
ENDBRANCH  14  15
ENDBRANCH  13  14
ENDBRANCH  12  13
ENDBRANCH  11  12
ENDBRANCH   1  11
TORSDOF 14
ENDMDL
