MODEL 1
REMARK VINA RESULT:     4.180      0.000      0.000
REMARK INTER + INTRA:           7.056
REMARK INTER:                   7.601
REMARK INTRA:                  -0.545
REMARK UNBOUND:                -0.545
REMARK SMILES CCCCCCCCCCCCCCCC(=O)[O-]
REMARK SMILES IDX 9 1 10 2 11 3 12 4 13 5 14 6 15 7 16 8 17 9 18 10 8 11 7 12
REMARK SMILES IDX 6 13 5 14 4 15 3 16 2 17 1 18
REMARK H PARENT
REMARK Flexibility Score: inf
ROOT
ATOM      1  C   UNL     1      24.936 -29.406  20.906  1.00  0.00     0.000 C 
ENDROOT
BRANCH   1   2
ATOM      2  C   UNL     1      25.739 -28.191  20.407  1.00  0.00     0.000 C 
BRANCH   2   3
ATOM      3  C   UNL     1      27.270 -28.380  20.390  1.00  0.00     0.000 C 
BRANCH   3   4
ATOM      4  C   UNL     1      28.080 -27.215  20.987  1.00  0.00     0.000 C 
BRANCH   4   5
ATOM      5  C   UNL     1      28.079 -25.927  20.143  1.00  0.00     0.000 C 
BRANCH   5   6
ATOM      6  C   UNL     1      29.491 -25.443  19.747  1.00  0.00     0.006 C 
BRANCH   6   7
ATOM      7  C   UNL     1      30.577 -25.951  20.705  1.00  0.00     0.053 C 
BRANCH   7   8
ATOM      8  C   UNL     1      31.707 -24.974  20.778  1.00  0.00     0.041 C 
ATOM      9  O   UNL     1      31.781 -24.027  19.951  1.00  0.00    -0.550 OA
ATOM     10  O   UNL     1      32.706 -25.136  21.729  1.00  0.00    -0.550 OA
ENDBRANCH   7   8
ENDBRANCH   6   7
ENDBRANCH   5   6
ENDBRANCH   4   5
ENDBRANCH   3   4
ENDBRANCH   2   3
ENDBRANCH   1   2
BRANCH   1  11
ATOM     11  C   UNL     1      23.451 -29.088  21.138  1.00  0.00     0.000 C 
BRANCH  11  12
ATOM     12  C   UNL     1      22.758 -30.225  21.897  1.00  0.00    -0.000 C 
BRANCH  12  13
ATOM     13  C   UNL     1      21.298 -29.867  22.211  1.00  0.00    -0.000 C 
BRANCH  13  14
ATOM     14  C   UNL     1      20.445 -31.099  22.551  1.00  0.00    -0.000 C 
BRANCH  14  15
ATOM     15  C   UNL     1      19.036 -31.033  21.935  1.00  0.00    -0.000 C 
BRANCH  15  16
ATOM     16  C   UNL     1      18.761 -32.215  20.981  1.00  0.00    -0.000 C 
BRANCH  16  17
ATOM     17  C   UNL     1      19.971 -33.146  20.792  1.00  0.00    -0.003 C 
ATOM     18  C   UNL     1      19.575 -34.582  20.459  1.00  0.00     0.004 C 
ENDBRANCH  16  17
ENDBRANCH  15  16
ENDBRANCH  14  15
ENDBRANCH  13  14
ENDBRANCH  12  13
ENDBRANCH  11  12
ENDBRANCH   1  11
TORSDOF 14
ENDMDL
MODEL 2
REMARK VINA RESULT:     4.193      5.125     10.964
REMARK INTER + INTRA:           7.080
REMARK INTER:                   7.028
REMARK INTRA:                   0.052
REMARK UNBOUND:                -0.545
REMARK SMILES CCCCCCCCCCCCCCCC(=O)[O-]
REMARK SMILES IDX 9 1 10 2 11 3 12 4 13 5 14 6 15 7 16 8 17 9 18 10 8 11 7 12
REMARK SMILES IDX 6 13 5 14 4 15 3 16 2 17 1 18
REMARK H PARENT
REMARK Flexibility Score: inf
ROOT
ATOM      1  C   UNL     1      24.844 -29.237  20.983  1.00  0.00     0.000 C 
ENDROOT
BRANCH   1   2
ATOM      2  C   UNL     1      23.320 -29.066  21.124  1.00  0.00     0.000 C 
BRANCH   2   3
ATOM      3  C   UNL     1      22.645 -30.017  22.134  1.00  0.00     0.000 C 
BRANCH   3   4
ATOM      4  C   UNL     1      21.110 -29.924  22.196  1.00  0.00     0.000 C 
BRANCH   4   5
ATOM      5  C   UNL     1      20.398 -31.230  22.595  1.00  0.00     0.000 C 
BRANCH   5   6
ATOM      6  C   UNL     1      18.940 -31.322  22.092  1.00  0.00     0.006 C 
BRANCH   6   7
ATOM      7  C   UNL     1      18.834 -32.007  20.724  1.00  0.00     0.053 C 
BRANCH   7   8
ATOM      8  C   UNL     1      19.740 -33.196  20.664  1.00  0.00     0.041 C 
ATOM      9  O   UNL     1      20.987 -33.039  20.589  1.00  0.00    -0.550 OA
ATOM     10  O   UNL     1      19.206 -34.478  20.643  1.00  0.00    -0.550 OA
ENDBRANCH   7   8
ENDBRANCH   6   7
ENDBRANCH   5   6
ENDBRANCH   4   5
ENDBRANCH   3   4
ENDBRANCH   2   3
ENDBRANCH   1   2
BRANCH   1  11
ATOM     11  C   UNL     1      25.504 -28.097  20.194  1.00  0.00     0.000 C 
BRANCH  11  12
ATOM     12  C   UNL     1      27.017 -28.068  20.433  1.00  0.00    -0.000 C 
BRANCH  12  13
ATOM     13  C   UNL     1      27.484 -26.661  20.836  1.00  0.00    -0.000 C 
BRANCH  13  14
ATOM     14  C   UNL     1      29.007 -26.487  20.728  1.00  0.00    -0.000 C 
BRANCH  14  15
ATOM     15  C   UNL     1      29.415 -25.493  19.627  1.00  0.00    -0.000 C 
BRANCH  15  16
ATOM     16  C   UNL     1      30.877 -25.023  19.780  1.00  0.00    -0.000 C 
BRANCH  16  17
ATOM     17  C   UNL     1      31.634 -25.728  20.919  1.00  0.00    -0.003 C 
ATOM     18  C   UNL     1      32.244 -24.754  21.924  1.00  0.00     0.004 C 
ENDBRANCH  16  17
ENDBRANCH  15  16
ENDBRANCH  14  15
ENDBRANCH  13  14
ENDBRANCH  12  13
ENDBRANCH  11  12
ENDBRANCH   1  11
TORSDOF 14
ENDMDL
MODEL 3
REMARK VINA RESULT:     5.037      5.437      9.740
REMARK INTER + INTRA:           8.615
REMARK INTER:                   9.143
REMARK INTRA:                  -0.528
REMARK UNBOUND:                -0.545
REMARK SMILES CCCCCCCCCCCCCCCC(=O)[O-]
REMARK SMILES IDX 9 1 10 2 11 3 12 4 13 5 14 6 15 7 16 8 17 9 18 10 8 11 7 12
REMARK SMILES IDX 6 13 5 14 4 15 3 16 2 17 1 18
REMARK H PARENT
REMARK Flexibility Score: inf
ROOT
ATOM      1  C   UNL     1      27.776 -26.517  21.520  1.00  0.00     0.000 C 
ENDROOT
BRANCH   1   2
ATOM      2  C   UNL     1      26.525 -26.229  20.670  1.00  0.00     0.000 C 
BRANCH   2   3
ATOM      3  C   UNL     1      25.878 -27.468  20.017  1.00  0.00     0.000 C 
BRANCH   3   4
ATOM      4  C   UNL     1      26.468 -28.821  20.455  1.00  0.00     0.000 C 
BRANCH   4   5
ATOM      5  C   UNL     1      27.535 -29.399  19.508  1.00  0.00     0.000 C 
BRANCH   5   6
ATOM      6  C   UNL     1      27.146 -30.760  18.890  1.00  0.00     0.006 C 
BRANCH   6   7
ATOM      7  C   UNL     1      27.748 -30.964  17.493  1.00  0.00     0.053 C 
BRANCH   7   8
ATOM      8  C   UNL     1      28.560 -32.220  17.454  1.00  0.00     0.041 C 
ATOM      9  O   UNL     1      29.785 -32.192  17.744  1.00  0.00    -0.550 OA
ATOM     10  O   UNL     1      27.976 -33.413  17.049  1.00  0.00    -0.550 OA
ENDBRANCH   7   8
ENDBRANCH   6   7
ENDBRANCH   5   6
ENDBRANCH   4   5
ENDBRANCH   3   4
ENDBRANCH   2   3
ENDBRANCH   1   2
BRANCH   1  11
ATOM     11  C   UNL     1      29.087 -26.247  20.766  1.00  0.00     0.000 C 
BRANCH  11  12
ATOM     12  C   UNL     1      28.817 -25.551  19.428  1.00  0.00    -0.000 C 
BRANCH  12  13
ATOM     13  C   UNL     1      30.130 -25.254  18.688  1.00  0.00    -0.000 C 
BRANCH  13  14
ATOM     14  C   UNL     1      30.693 -23.863  19.013  1.00  0.00    -0.000 C 
BRANCH  14  15
ATOM     15  C   UNL     1      31.816 -23.908  20.065  1.00  0.00    -0.000 C 
BRANCH  15  16
ATOM     16  C   UNL     1      31.967 -25.309  20.696  1.00  0.00    -0.000 C 
BRANCH  16  17
ATOM     17  C   UNL     1      32.623 -25.288  22.088  1.00  0.00    -0.003 C 
ATOM     18  C   UNL     1      32.207 -24.083  22.928  1.00  0.00     0.004 C 
ENDBRANCH  16  17
ENDBRANCH  15  16
ENDBRANCH  14  15
ENDBRANCH  13  14
ENDBRANCH  12  13
ENDBRANCH  11  12
ENDBRANCH   1  11
TORSDOF 14
ENDMDL
MODEL 4
REMARK VINA RESULT:     5.428      5.360      9.476
REMARK INTER + INTRA:           9.326
REMARK INTER:                  10.094
REMARK INTRA:                  -0.768
REMARK UNBOUND:                -0.545
REMARK SMILES CCCCCCCCCCCCCCCC(=O)[O-]
REMARK SMILES IDX 9 1 10 2 11 3 12 4 13 5 14 6 15 7 16 8 17 9 18 10 8 11 7 12
REMARK SMILES IDX 6 13 5 14 4 15 3 16 2 17 1 18
REMARK H PARENT
REMARK Flexibility Score: inf
ROOT
ATOM      1  C   UNL     1      27.545 -26.440  21.407  1.00  0.00     0.000 C 
ENDROOT
BRANCH   1   2
ATOM      2  C   UNL     1      26.539 -26.294  20.251  1.00  0.00     0.000 C 
BRANCH   2   3
ATOM      3  C   UNL     1      26.146 -27.613  19.554  1.00  0.00     0.000 C 
BRANCH   3   4
ATOM      4  C   UNL     1      26.466 -28.893  20.348  1.00  0.00     0.000 C 
BRANCH   4   5
ATOM      5  C   UNL     1      27.575 -29.772  19.742  1.00  0.00     0.000 C 
BRANCH   5   6
ATOM      6  C   UNL     1      27.309 -30.186  18.278  1.00  0.00     0.006 C 
BRANCH   6   7
ATOM      7  C   UNL     1      27.214 -31.707  18.106  1.00  0.00     0.053 C 
BRANCH   7   8
ATOM      8  C   UNL     1      28.463 -32.240  17.477  1.00  0.00     0.041 C 
ATOM      9  O   UNL     1      28.409 -33.227  16.697  1.00  0.00    -0.550 OA
ATOM     10  O   UNL     1      29.693 -31.677  17.790  1.00  0.00    -0.550 OA
ENDBRANCH   7   8
ENDBRANCH   6   7
ENDBRANCH   5   6
ENDBRANCH   4   5
ENDBRANCH   3   4
ENDBRANCH   2   3
ENDBRANCH   1   2
BRANCH   1  11
ATOM     11  C   UNL     1      28.933 -26.899  20.937  1.00  0.00     0.000 C 
BRANCH  11  12
ATOM     12  C   UNL     1      30.042 -26.198  21.731  1.00  0.00    -0.000 C 
BRANCH  12  13
ATOM     13  C   UNL     1      31.413 -26.425  21.078  1.00  0.00    -0.000 C 
BRANCH  13  14
ATOM     14  C   UNL     1      32.368 -25.238  21.277  1.00  0.00    -0.000 C 
BRANCH  14  15
ATOM     15  C   UNL     1      31.780 -23.911  20.767  1.00  0.00    -0.000 C 
BRANCH  15  16
ATOM     16  C   UNL     1      31.653 -23.881  19.230  1.00  0.00    -0.000 C 
BRANCH  16  17
ATOM     17  C   UNL     1      30.205 -23.724  18.735  1.00  0.00    -0.003 C 
ATOM     18  C   UNL     1      29.563 -25.050  18.333  1.00  0.00     0.004 C 
ENDBRANCH  16  17
ENDBRANCH  15  16
ENDBRANCH  14  15
ENDBRANCH  13  14
ENDBRANCH  12  13
ENDBRANCH  11  12
ENDBRANCH   1  11
TORSDOF 14
ENDMDL
MODEL 5
REMARK VINA RESULT:     6.356      5.330      7.721
REMARK INTER + INTRA:          11.013
REMARK INTER:                  11.487
REMARK INTRA:                  -0.474
REMARK UNBOUND:                -0.545
REMARK SMILES CCCCCCCCCCCCCCCC(=O)[O-]
REMARK SMILES IDX 9 1 10 2 11 3 12 4 13 5 14 6 15 7 16 8 17 9 18 10 8 11 7 12
REMARK SMILES IDX 6 13 5 14 4 15 3 16 2 17 1 18
REMARK H PARENT
REMARK Flexibility Score: inf
ROOT
ATOM      1  C   UNL     1      31.399 -25.307  20.687  1.00  0.00     0.000 C 
ENDROOT
BRANCH   1   2
ATOM      2  C   UNL     1      30.877 -24.320  19.627  1.00  0.00     0.000 C 
BRANCH   2   3
ATOM      3  C   UNL     1      31.969 -23.549  18.857  1.00  0.00     0.000 C 
BRANCH   3   4
ATOM      4  C   UNL     1      31.811 -22.018  18.854  1.00  0.00     0.000 C 
BRANCH   4   5
ATOM      5  C   UNL     1      32.992 -21.245  18.236  1.00  0.00     0.000 C 
BRANCH   5   6
ATOM      6  C   UNL     1      33.217 -19.851  18.861  1.00  0.00     0.006 C 
BRANCH   6   7
ATOM      7  C   UNL     1      34.208 -19.000  18.056  1.00  0.00     0.053 C 
BRANCH   7   8
ATOM      8  C   UNL     1      35.387 -18.634  18.901  1.00  0.00     0.041 C 
ATOM      9  O   UNL     1      35.221 -18.252  20.089  1.00  0.00    -0.550 OA
ATOM     10  O   UNL     1      36.667 -18.669  18.362  1.00  0.00    -0.550 OA
ENDBRANCH   7   8
ENDBRANCH   6   7
ENDBRANCH   5   6
ENDBRANCH   4   5
ENDBRANCH   3   4
ENDBRANCH   2   3
ENDBRANCH   1   2
BRANCH   1  11
ATOM     11  C   UNL     1      30.280 -26.133  21.338  1.00  0.00     0.000 C 
BRANCH  11  12
ATOM     12  C   UNL     1      29.033 -26.166  20.448  1.00  0.00    -0.000 C 
BRANCH  12  13
ATOM     13  C   UNL     1      27.954 -27.080  21.046  1.00  0.00    -0.000 C 
BRANCH  13  14
ATOM     14  C   UNL     1      26.862 -27.452  20.032  1.00  0.00    -0.000 C 
BRANCH  14  15
ATOM     15  C   UNL     1      26.664 -28.973  19.902  1.00  0.00    -0.000 C 
BRANCH  15  16
ATOM     16  C   UNL     1      27.766 -29.633  19.048  1.00  0.00    -0.000 C 
BRANCH  16  17
ATOM     17  C   UNL     1      27.264 -30.817  18.204  1.00  0.00    -0.003 C 
ATOM     18  C   UNL     1      28.381 -31.767  17.780  1.00  0.00     0.004 C 
ENDBRANCH  16  17
ENDBRANCH  15  16
ENDBRANCH  14  15
ENDBRANCH  13  14
ENDBRANCH  12  13
ENDBRANCH  11  12
ENDBRANCH   1  11
TORSDOF 14
ENDMDL
