MODEL 1
REMARK VINA RESULT:    -5.683      0.000      0.000
REMARK INTER + INTRA:          -7.262
REMARK INTER:                  -6.845
REMARK INTRA:                  -0.417
REMARK UNBOUND:                -0.417
REMARK SMILES O=c1c(O)c(-c2ccc(O)cc2O)oc2cc(O)cc(O)c12
REMARK SMILES IDX 5 1 3 2 2 3 1 4 22 5 20 6 19 7 17 8 16 9 15 10 14 11 6 12
REMARK SMILES IDX 8 13 7 14 9 15 11 16 12 17 10 18 13 20 4 22 21 24 18 26
REMARK H PARENT 10 19 13 21 4 23 21 25 18 27
REMARK Flexibility Score: inf
ROOT
ATOM      1  C   UNL     1      16.969  -6.894 -32.469  1.00  0.00     0.184 A 
ATOM      2  C   UNL     1      15.735  -6.841 -33.134  1.00  0.00     0.208 A 
ATOM      3  C   UNL     1      14.593  -7.344 -32.492  1.00  0.00     0.238 A 
ATOM      4  O   UNL     1      13.479  -7.238 -33.068  1.00  0.00    -0.285 OA
ATOM      5  C   UNL     1      14.707  -7.921 -31.203  1.00  0.00     0.111 A 
ATOM      6  C   UNL     1      13.623  -8.498 -30.474  1.00  0.00     0.134 A 
ATOM      7  C   UNL     1      13.828  -8.929 -29.158  1.00  0.00     0.093 A 
ATOM      8  C   UNL     1      15.090  -8.864 -28.567  1.00  0.00     0.123 A 
ATOM      9  C   UNL     1      16.169  -8.355 -29.290  1.00  0.00     0.094 A 
ATOM     10  C   UNL     1      15.988  -7.884 -30.593  1.00  0.00     0.146 A 
ATOM     11  O   UNL     1      17.039  -7.394 -31.241  1.00  0.00    -0.451 OA
ENDROOT
BRANCH   1  12
ATOM     12  C   UNL     1      18.209  -6.401 -33.105  1.00  0.00     0.063 A 
ATOM     13  C   UNL     1      20.222  -6.872 -34.390  1.00  0.00     0.047 A 
ATOM     14  C   UNL     1      19.017  -7.298 -33.825  1.00  0.00     0.020 A 
ATOM     15  C   UNL     1      20.640  -5.549 -34.237  1.00  0.00     0.119 A 
ATOM     16  C   UNL     1      19.844  -4.646 -33.521  1.00  0.00     0.093 A 
ATOM     17  C   UNL     1      18.629  -5.058 -32.959  1.00  0.00     0.130 A 
BRANCH  15  18
ATOM     18  O   UNL     1      21.846  -5.139 -34.801  1.00  0.00    -0.508 OA
ATOM     19  H   UNL     1      22.737  -5.410 -34.403  1.00  0.00     0.293 HD
ENDBRANCH  15  18
BRANCH  17  20
ATOM     20  O   UNL     1      17.858  -4.108 -32.286  1.00  0.00    -0.507 OA
ATOM     21  H   UNL     1      17.876  -3.122 -32.513  1.00  0.00     0.293 HD
ENDBRANCH  17  20
ENDBRANCH   1  12
BRANCH   2  22
ATOM     22  O   UNL     1      15.653  -6.270 -34.407  1.00  0.00    -0.502 OA
ATOM     23  H   UNL     1      16.444  -5.817 -34.850  1.00  0.00     0.293 HD
ENDBRANCH   2  22
BRANCH   6  24
ATOM     24  O   UNL     1      12.344  -8.694 -31.001  1.00  0.00    -0.507 OA
ATOM     25  H   UNL     1      12.078  -8.501 -31.955  1.00  0.00     0.293 HD
ENDBRANCH   6  24
BRANCH   8  26
ATOM     26  O   UNL     1      15.261  -9.316 -27.260  1.00  0.00    -0.508 OA
ATOM     27  H   UNL     1      16.160  -9.268 -26.796  1.00  0.00     0.293 HD
ENDBRANCH   8  26
TORSDOF 6
ENDMDL
MODEL 2
REMARK VINA RESULT:    -5.507      2.063      6.605
REMARK INTER + INTRA:          -7.051
REMARK INTER:                  -6.796
REMARK INTRA:                  -0.255
REMARK UNBOUND:                -0.417
REMARK SMILES O=c1c(O)c(-c2ccc(O)cc2O)oc2cc(O)cc(O)c12
REMARK SMILES IDX 5 1 3 2 2 3 1 4 22 5 20 6 19 7 17 8 16 9 15 10 14 11 6 12
REMARK SMILES IDX 8 13 7 14 9 15 11 16 12 17 10 18 13 20 4 22 21 24 18 26
REMARK H PARENT 10 19 13 21 4 23 21 25 18 27
REMARK Flexibility Score: inf
ROOT
ATOM      1  C   UNL     1      15.709  -7.227 -30.057  1.00  0.00     0.184 A 
ATOM      2  C   UNL     1      15.029  -6.000 -30.058  1.00  0.00     0.208 A 
ATOM      3  C   UNL     1      15.251  -5.098 -31.110  1.00  0.00     0.238 A 
ATOM      4  O   UNL     1      14.593  -4.026 -31.137  1.00  0.00    -0.285 OA
ATOM      5  C   UNL     1      16.174  -5.426 -32.135  1.00  0.00     0.111 A 
ATOM      6  C   UNL     1      16.507  -4.571 -33.229  1.00  0.00     0.134 A 
ATOM      7  C   UNL     1      17.340  -5.049 -34.248  1.00  0.00     0.093 A 
ATOM      8  C   UNL     1      17.904  -6.323 -34.181  1.00  0.00     0.123 A 
ATOM      9  C   UNL     1      17.631  -7.145 -33.087  1.00  0.00     0.094 A 
ATOM     10  C   UNL     1      16.774  -6.711 -32.073  1.00  0.00     0.146 A 
ATOM     11  O   UNL     1      16.530  -7.530 -31.056  1.00  0.00    -0.451 OA
ENDROOT
BRANCH   1  12
ATOM     12  C   UNL     1      15.532  -8.205 -28.963  1.00  0.00     0.063 A 
ATOM     13  C   UNL     1      16.514  -9.527 -27.170  1.00  0.00     0.047 A 
ATOM     14  C   UNL     1      16.640  -8.564 -28.175  1.00  0.00     0.020 A 
ATOM     15  C   UNL     1      15.286 -10.149 -26.944  1.00  0.00     0.119 A 
ATOM     16  C   UNL     1      14.175  -9.801 -27.722  1.00  0.00     0.093 A 
ATOM     17  C   UNL     1      14.286  -8.830 -28.726  1.00  0.00     0.130 A 
BRANCH  15  18
ATOM     18  O   UNL     1      15.176 -11.111 -25.942  1.00  0.00    -0.508 OA
ATOM     19  H   UNL     1      15.891 -11.815 -25.802  1.00  0.00     0.293 HD
ENDBRANCH  15  18
BRANCH  17  20
ATOM     20  O   UNL     1      13.139  -8.495 -29.448  1.00  0.00    -0.507 OA
ATOM     21  H   UNL     1      12.858  -8.977 -30.293  1.00  0.00     0.293 HD
ENDBRANCH  17  20
ENDBRANCH   1  12
BRANCH   2  22
ATOM     22  O   UNL     1      14.128  -5.702 -29.032  1.00  0.00    -0.502 OA
ATOM     23  H   UNL     1      13.188  -5.368 -29.215  1.00  0.00     0.293 HD
ENDBRANCH   2  22
BRANCH   6  24
ATOM     24  O   UNL     1      16.072  -3.249 -33.348  1.00  0.00    -0.507 OA
ATOM     25  H   UNL     1      15.174  -2.908 -33.040  1.00  0.00     0.293 HD
ENDBRANCH   6  24
BRANCH   8  26
ATOM     26  O   UNL     1      18.741  -6.759 -35.206  1.00  0.00    -0.508 OA
ATOM     27  H   UNL     1      19.041  -7.724 -35.271  1.00  0.00     0.293 HD
ENDBRANCH   8  26
TORSDOF 6
ENDMDL
MODEL 3
REMARK VINA RESULT:    -5.295      4.541      7.551
REMARK INTER + INTRA:          -6.795
REMARK INTER:                  -6.540
REMARK INTRA:                  -0.255
REMARK UNBOUND:                -0.417
REMARK SMILES O=c1c(O)c(-c2ccc(O)cc2O)oc2cc(O)cc(O)c12
REMARK SMILES IDX 5 1 3 2 2 3 1 4 22 5 20 6 19 7 17 8 16 9 15 10 14 11 6 12
REMARK SMILES IDX 8 13 7 14 9 15 11 16 12 17 10 18 13 20 4 22 21 24 18 26
REMARK H PARENT 10 19 13 21 4 23 21 25 18 27
REMARK Flexibility Score: inf
ROOT
ATOM      1  C   UNL     1      22.796  -5.324 -35.389  1.00  0.00     0.184 A 
ATOM      2  C   UNL     1      22.583  -5.555 -34.022  1.00  0.00     0.208 A 
ATOM      3  C   UNL     1      21.387  -6.162 -33.613  1.00  0.00     0.238 A 
ATOM      4  O   UNL     1      21.228  -6.422 -32.391  1.00  0.00    -0.285 OA
ATOM      5  C   UNL     1      20.405  -6.506 -34.575  1.00  0.00     0.111 A 
ATOM      6  C   UNL     1      19.139  -7.090 -34.270  1.00  0.00     0.134 A 
ATOM      7  C   UNL     1      18.299  -7.500 -35.312  1.00  0.00     0.093 A 
ATOM      8  C   UNL     1      18.649  -7.288 -36.646  1.00  0.00     0.123 A 
ATOM      9  C   UNL     1      19.859  -6.666 -36.954  1.00  0.00     0.094 A 
ATOM     10  C   UNL     1      20.735  -6.279 -35.938  1.00  0.00     0.146 A 
ATOM     11  O   UNL     1      21.883  -5.702 -36.275  1.00  0.00    -0.451 OA
ENDROOT
BRANCH   1  12
ATOM     12  C   UNL     1      24.027  -4.667 -35.878  1.00  0.00     0.063 A 
ATOM     13  C   UNL     1      25.519  -2.743 -35.838  1.00  0.00     0.047 A 
ATOM     14  C   UNL     1      24.391  -3.413 -35.356  1.00  0.00     0.020 A 
ATOM     15  C   UNL     1      26.293  -3.311 -36.851  1.00  0.00     0.119 A 
ATOM     16  C   UNL     1      25.940  -4.560 -37.379  1.00  0.00     0.093 A 
ATOM     17  C   UNL     1      24.818  -5.246 -36.897  1.00  0.00     0.130 A 
BRANCH  15  18
ATOM     18  O   UNL     1      27.411  -2.630 -37.326  1.00  0.00    -0.508 OA
ATOM     19  H   UNL     1      27.842  -1.883 -36.795  1.00  0.00     0.293 HD
ENDBRANCH  15  18
BRANCH  17  20
ATOM     20  O   UNL     1      24.533  -6.502 -37.434  1.00  0.00    -0.507 OA
ATOM     21  H   UNL     1      25.104  -7.320 -37.260  1.00  0.00     0.293 HD
ENDBRANCH  17  20
ENDBRANCH   1  12
BRANCH   2  22
ATOM     22  O   UNL     1      23.567  -5.202 -33.094  1.00  0.00    -0.502 OA
ATOM     23  H   UNL     1      23.387  -4.561 -32.330  1.00  0.00     0.293 HD
ENDBRANCH   2  22
BRANCH   6  24
ATOM     24  O   UNL     1      18.652  -7.264 -32.972  1.00  0.00    -0.507 OA
ATOM     25  H   UNL     1      18.428  -6.515 -32.335  1.00  0.00     0.293 HD
ENDBRANCH   6  24
BRANCH   8  26
ATOM     26  O   UNL     1      17.781  -7.695 -37.657  1.00  0.00    -0.508 OA
ATOM     27  H   UNL     1      17.111  -8.441 -37.513  1.00  0.00     0.293 HD
ENDBRANCH   8  26
TORSDOF 6
ENDMDL
MODEL 4
REMARK VINA RESULT:    -5.268      1.579      6.337
REMARK INTER + INTRA:          -6.762
REMARK INTER:                  -6.401
REMARK INTRA:                  -0.362
REMARK UNBOUND:                -0.417
REMARK SMILES O=c1c(O)c(-c2ccc(O)cc2O)oc2cc(O)cc(O)c12
REMARK SMILES IDX 5 1 3 2 2 3 1 4 22 5 20 6 19 7 17 8 16 9 15 10 14 11 6 12
REMARK SMILES IDX 8 13 7 14 9 15 11 16 12 17 10 18 13 20 4 22 21 24 18 26
REMARK H PARENT 10 19 13 21 4 23 21 25 18 27
REMARK Flexibility Score: inf
ROOT
ATOM      1  C   UNL     1      16.084  -7.122 -32.207  1.00  0.00     0.184 A 
ATOM      2  C   UNL     1      15.405  -6.772 -33.383  1.00  0.00     0.208 A 
ATOM      3  C   UNL     1      16.148  -6.411 -34.517  1.00  0.00     0.238 A 
ATOM      4  O   UNL     1      15.534  -6.158 -35.586  1.00  0.00    -0.285 OA
ATOM      5  C   UNL     1      17.563  -6.378 -34.451  1.00  0.00     0.111 A 
ATOM      6  C   UNL     1      18.416  -5.990 -35.527  1.00  0.00     0.134 A 
ATOM      7  C   UNL     1      19.804  -6.113 -35.387  1.00  0.00     0.093 A 
ATOM      8  C   UNL     1      20.371  -6.547 -34.189  1.00  0.00     0.123 A 
ATOM      9  C   UNL     1      19.548  -6.875 -33.111  1.00  0.00     0.094 A 
ATOM     10  C   UNL     1      18.159  -6.798 -33.232  1.00  0.00     0.146 A 
ATOM     11  O   UNL     1      17.412  -7.132 -32.186  1.00  0.00    -0.451 OA
ENDROOT
BRANCH   1  12
ATOM     12  C   UNL     1      15.354  -7.488 -30.974  1.00  0.00     0.063 A 
ATOM     13  C   UNL     1      14.116  -9.152 -29.701  1.00  0.00     0.047 A 
ATOM     14  C   UNL     1      14.857  -8.795 -30.830  1.00  0.00     0.020 A 
ATOM     15  C   UNL     1      13.854  -8.209 -28.705  1.00  0.00     0.119 A 
ATOM     16  C   UNL     1      14.343  -6.904 -28.838  1.00  0.00     0.093 A 
ATOM     17  C   UNL     1      15.096  -6.536 -29.960  1.00  0.00     0.130 A 
BRANCH  15  18
ATOM     18  O   UNL     1      13.110  -8.579 -27.587  1.00  0.00    -0.508 OA
ATOM     19  H   UNL     1      12.260  -9.123 -27.672  1.00  0.00     0.293 HD
ENDBRANCH  15  18
BRANCH  17  20
ATOM     20  O   UNL     1      15.589  -5.231 -30.024  1.00  0.00    -0.507 OA
ATOM     21  H   UNL     1      16.152  -4.817 -29.292  1.00  0.00     0.293 HD
ENDBRANCH  17  20
ENDBRANCH   1  12
BRANCH   2  22
ATOM     22  O   UNL     1      14.008  -6.809 -33.418  1.00  0.00    -0.502 OA
ATOM     23  H   UNL     1      13.467  -6.277 -34.090  1.00  0.00     0.293 HD
ENDBRANCH   2  22
BRANCH   6  24
ATOM     24  O   UNL     1      17.957  -5.457 -36.734  1.00  0.00    -0.507 OA
ATOM     25  H   UNL     1      17.994  -4.481 -36.985  1.00  0.00     0.293 HD
ENDBRANCH   6  24
BRANCH   8  26
ATOM     26  O   UNL     1      21.757  -6.643 -34.079  1.00  0.00    -0.508 OA
ATOM     27  H   UNL     1      22.198  -7.414 -33.593  1.00  0.00     0.293 HD
ENDBRANCH   8  26
TORSDOF 6
ENDMDL
MODEL 5
REMARK VINA RESULT:    -5.268      1.473      6.514
REMARK INTER + INTRA:          -6.762
REMARK INTER:                  -6.561
REMARK INTRA:                  -0.201
REMARK UNBOUND:                -0.417
REMARK SMILES O=c1c(O)c(-c2ccc(O)cc2O)oc2cc(O)cc(O)c12
REMARK SMILES IDX 5 1 3 2 2 3 1 4 22 5 20 6 19 7 17 8 16 9 15 10 14 11 6 12
REMARK SMILES IDX 8 13 7 14 9 15 11 16 12 17 10 18 13 20 4 22 21 24 18 26
REMARK H PARENT 10 19 13 21 4 23 21 25 18 27
REMARK Flexibility Score: inf
ROOT
ATOM      1  C   UNL     1      15.925  -7.150 -32.287  1.00  0.00     0.184 A 
ATOM      2  C   UNL     1      15.261  -6.698 -33.437  1.00  0.00     0.208 A 
ATOM      3  C   UNL     1      16.019  -6.289 -34.545  1.00  0.00     0.238 A 
ATOM      4  O   UNL     1      15.417  -5.942 -35.594  1.00  0.00    -0.285 OA
ATOM      5  C   UNL     1      17.434  -6.311 -34.477  1.00  0.00     0.111 A 
ATOM      6  C   UNL     1      18.303  -5.882 -35.525  1.00  0.00     0.134 A 
ATOM      7  C   UNL     1      19.685  -6.064 -35.393  1.00  0.00     0.093 A 
ATOM      8  C   UNL     1      20.234  -6.597 -34.227  1.00  0.00     0.123 A 
ATOM      9  C   UNL     1      19.397  -6.967 -33.173  1.00  0.00     0.094 A 
ATOM     10  C   UNL     1      18.012  -6.832 -33.289  1.00  0.00     0.146 A 
ATOM     11  O   UNL     1      17.251  -7.209 -32.268  1.00  0.00    -0.451 OA
ENDROOT
BRANCH   1  12
ATOM     12  C   UNL     1      15.179  -7.571 -31.082  1.00  0.00     0.063 A 
ATOM     13  C   UNL     1      14.758  -7.319 -28.698  1.00  0.00     0.047 A 
ATOM     14  C   UNL     1      15.407  -6.907 -29.864  1.00  0.00     0.020 A 
ATOM     15  C   UNL     1      13.880  -8.404 -28.729  1.00  0.00     0.119 A 
ATOM     16  C   UNL     1      13.644  -9.074 -29.936  1.00  0.00     0.093 A 
ATOM     17  C   UNL     1      14.282  -8.664 -31.114  1.00  0.00     0.130 A 
BRANCH  15  18
ATOM     18  O   UNL     1      13.243  -8.807 -27.558  1.00  0.00    -0.508 OA
ATOM     19  H   UNL     1      12.498  -8.260 -27.144  1.00  0.00     0.293 HD
ENDBRANCH  15  18
BRANCH  17  20
ATOM     20  O   UNL     1      13.984  -9.345 -32.296  1.00  0.00    -0.507 OA
ATOM     21  H   UNL     1      14.518 -10.139 -32.625  1.00  0.00     0.293 HD
ENDBRANCH  17  20
ENDBRANCH   1  12
BRANCH   2  22
ATOM     22  O   UNL     1      13.864  -6.683 -33.475  1.00  0.00    -0.502 OA
ATOM     23  H   UNL     1      13.338  -5.871 -33.776  1.00  0.00     0.293 HD
ENDBRANCH   2  22
BRANCH   6  24
ATOM     24  O   UNL     1      17.866  -5.253 -36.693  1.00  0.00    -0.507 OA
ATOM     25  H   UNL     1      17.335  -5.700 -37.424  1.00  0.00     0.293 HD
ENDBRANCH   6  24
BRANCH   8  26
ATOM     26  O   UNL     1      21.615  -6.750 -34.124  1.00  0.00    -0.508 OA
ATOM     27  H   UNL     1      22.086  -7.573 -34.480  1.00  0.00     0.293 HD
ENDBRANCH   8  26
TORSDOF 6
ENDMDL
MODEL 6
REMARK VINA RESULT:    -5.016      1.435      2.185
REMARK INTER + INTRA:          -6.459
REMARK INTER:                  -6.092
REMARK INTRA:                  -0.368
REMARK UNBOUND:                -0.417
REMARK SMILES O=c1c(O)c(-c2ccc(O)cc2O)oc2cc(O)cc(O)c12
REMARK SMILES IDX 5 1 3 2 2 3 1 4 22 5 20 6 19 7 17 8 16 9 15 10 14 11 6 12
REMARK SMILES IDX 8 13 7 14 9 15 11 16 12 17 10 18 13 20 4 22 21 24 18 26
REMARK H PARENT 10 19 13 21 4 23 21 25 18 27
REMARK Flexibility Score: inf
ROOT
ATOM      1  C   UNL     1      17.746  -6.215 -32.888  1.00  0.00     0.184 A 
ATOM      2  C   UNL     1      16.869  -6.147 -33.981  1.00  0.00     0.208 A 
ATOM      3  C   UNL     1      15.588  -6.707 -33.862  1.00  0.00     0.238 A 
ATOM      4  O   UNL     1      14.785  -6.589 -34.824  1.00  0.00    -0.285 OA
ATOM      5  C   UNL     1      15.211  -7.354 -32.659  1.00  0.00     0.111 A 
ATOM      6  C   UNL     1      13.952  -7.992 -32.442  1.00  0.00     0.134 A 
ATOM      7  C   UNL     1      13.643  -8.492 -31.171  1.00  0.00     0.093 A 
ATOM      8  C   UNL     1      14.570  -8.438 -30.130  1.00  0.00     0.123 A 
ATOM      9  C   UNL     1      15.825  -7.868 -30.348  1.00  0.00     0.094 A 
ATOM     10  C   UNL     1      16.149  -7.327 -31.594  1.00  0.00     0.146 A 
ATOM     11  O   UNL     1      17.349  -6.782 -31.755  1.00  0.00    -0.451 OA
ENDROOT
BRANCH   1  12
ATOM     12  C   UNL     1      19.116  -5.663 -32.963  1.00  0.00     0.063 A 
ATOM     13  C   UNL     1      20.582  -3.720 -32.985  1.00  0.00     0.047 A 
ATOM     14  C   UNL     1      19.305  -4.274 -32.863  1.00  0.00     0.020 A 
ATOM     15  C   UNL     1      21.684  -4.544 -33.217  1.00  0.00     0.119 A 
ATOM     16  C   UNL     1      21.509  -5.929 -33.320  1.00  0.00     0.093 A 
ATOM     17  C   UNL     1      20.235  -6.497 -33.189  1.00  0.00     0.130 A 
BRANCH  15  18
ATOM     18  O   UNL     1      22.951  -3.978 -33.342  1.00  0.00    -0.508 OA
ATOM     19  H   UNL     1      23.651  -4.374 -33.958  1.00  0.00     0.293 HD
ENDBRANCH  15  18
BRANCH  17  20
ATOM     20  O   UNL     1      20.123  -7.887 -33.264  1.00  0.00    -0.507 OA
ATOM     21  H   UNL     1      20.800  -8.471 -33.738  1.00  0.00     0.293 HD
ENDBRANCH  17  20
ENDBRANCH   1  12
BRANCH   2  22
ATOM     22  O   UNL     1      17.269  -5.506 -35.157  1.00  0.00    -0.502 OA
ATOM     23  H   UNL     1      17.406  -4.503 -35.209  1.00  0.00     0.293 HD
ENDBRANCH   2  22
BRANCH   6  24
ATOM     24  O   UNL     1      12.991  -8.181 -33.437  1.00  0.00    -0.507 OA
ATOM     25  H   UNL     1      13.059  -7.828 -34.379  1.00  0.00     0.293 HD
ENDBRANCH   6  24
BRANCH   8  26
ATOM     26  O   UNL     1      14.234  -8.960 -28.882  1.00  0.00    -0.508 OA
ATOM     27  H   UNL     1      14.007  -8.359 -28.099  1.00  0.00     0.293 HD
ENDBRANCH   8  26
TORSDOF 6
ENDMDL
MODEL 7
REMARK VINA RESULT:    -5.009      4.274      5.814
REMARK INTER + INTRA:          -6.451
REMARK INTER:                  -6.135
REMARK INTRA:                  -0.316
REMARK UNBOUND:                -0.417
REMARK SMILES O=c1c(O)c(-c2ccc(O)cc2O)oc2cc(O)cc(O)c12
REMARK SMILES IDX 5 1 3 2 2 3 1 4 22 5 20 6 19 7 17 8 16 9 15 10 14 11 6 12
REMARK SMILES IDX 8 13 7 14 9 15 11 16 12 17 10 18 13 20 4 22 21 24 18 26
REMARK H PARENT 10 19 13 21 4 23 21 25 18 27
REMARK Flexibility Score: inf
ROOT
ATOM      1  C   UNL     1      13.503  -7.929 -31.873  1.00  0.00     0.184 A 
ATOM      2  C   UNL     1      13.485  -6.561 -31.561  1.00  0.00     0.208 A 
ATOM      3  C   UNL     1      14.119  -6.122 -30.389  1.00  0.00     0.238 A 
ATOM      4  O   UNL     1      14.153  -4.887 -30.146  1.00  0.00    -0.285 OA
ATOM      5  C   UNL     1      14.739  -7.061 -29.528  1.00  0.00     0.111 A 
ATOM      6  C   UNL     1      15.378  -6.733 -28.294  1.00  0.00     0.134 A 
ATOM      7  C   UNL     1      16.064  -7.728 -27.587  1.00  0.00     0.093 A 
ATOM      8  C   UNL     1      16.079  -9.049 -28.033  1.00  0.00     0.123 A 
ATOM      9  C   UNL     1      15.410  -9.392 -29.208  1.00  0.00     0.094 A 
ATOM     10  C   UNL     1      14.748  -8.416 -29.955  1.00  0.00     0.146 A 
ATOM     11  O   UNL     1      14.135  -8.782 -31.075  1.00  0.00    -0.451 OA
ENDROOT
BRANCH   1  12
ATOM     12  C   UNL     1      12.831  -8.453 -33.081  1.00  0.00     0.063 A 
ATOM     13  C   UNL     1      12.619  -8.469 -35.506  1.00  0.00     0.047 A 
ATOM     14  C   UNL     1      13.270  -8.033 -34.349  1.00  0.00     0.020 A 
ATOM     15  C   UNL     1      11.518  -9.322 -35.412  1.00  0.00     0.119 A 
ATOM     16  C   UNL     1      11.071  -9.747 -34.155  1.00  0.00     0.093 A 
ATOM     17  C   UNL     1      11.722  -9.325 -32.989  1.00  0.00     0.130 A 
BRANCH  15  18
ATOM     18  O   UNL     1      10.875  -9.745 -36.574  1.00  0.00    -0.508 OA
ATOM     19  H   UNL     1      11.390  -9.942 -37.424  1.00  0.00     0.293 HD
ENDBRANCH  15  18
BRANCH  17  20
ATOM     20  O   UNL     1      11.257  -9.807 -31.764  1.00  0.00    -0.507 OA
ATOM     21  H   UNL     1      11.343 -10.776 -31.483  1.00  0.00     0.293 HD
ENDBRANCH  17  20
ENDBRANCH   1  12
BRANCH   2  22
ATOM     22  O   UNL     1      12.863  -5.657 -32.426  1.00  0.00    -0.502 OA
ATOM     23  H   UNL     1      12.021  -5.154 -32.171  1.00  0.00     0.293 HD
ENDBRANCH   2  22
BRANCH   6  24
ATOM     24  O   UNL     1      15.346  -5.464 -27.712  1.00  0.00    -0.507 OA
ATOM     25  H   UNL     1      16.048  -5.098 -27.087  1.00  0.00     0.293 HD
ENDBRANCH   6  24
BRANCH   8  26
ATOM     26  O   UNL     1      16.759 -10.016 -27.295  1.00  0.00    -0.508 OA
ATOM     27  H   UNL     1      16.437 -10.309 -26.381  1.00  0.00     0.293 HD
ENDBRANCH   8  26
TORSDOF 6
ENDMDL
MODEL 8
REMARK VINA RESULT:    -4.942      2.248      7.032
REMARK INTER + INTRA:          -6.369
REMARK INTER:                  -5.993
REMARK INTRA:                  -0.377
REMARK UNBOUND:                -0.417
REMARK SMILES O=c1c(O)c(-c2ccc(O)cc2O)oc2cc(O)cc(O)c12
REMARK SMILES IDX 5 1 3 2 2 3 1 4 22 5 20 6 19 7 17 8 16 9 15 10 14 11 6 12
REMARK SMILES IDX 8 13 7 14 9 15 11 16 12 17 10 18 13 20 4 22 21 24 18 26
REMARK H PARENT 10 19 13 21 4 23 21 25 18 27
REMARK Flexibility Score: inf
ROOT
ATOM      1  C   UNL     1      18.490  -6.028 -33.329  1.00  0.00     0.184 A 
ATOM      2  C   UNL     1      18.505  -6.592 -34.613  1.00  0.00     0.208 A 
ATOM      3  C   UNL     1      19.697  -6.567 -35.354  1.00  0.00     0.238 A 
ATOM      4  O   UNL     1      19.720  -7.129 -36.481  1.00  0.00    -0.285 OA
ATOM      5  C   UNL     1      20.852  -5.952 -34.810  1.00  0.00     0.111 A 
ATOM      6  C   UNL     1      22.102  -5.834 -35.488  1.00  0.00     0.134 A 
ATOM      7  C   UNL     1      23.210  -5.315 -34.806  1.00  0.00     0.093 A 
ATOM      8  C   UNL     1      23.097  -4.851 -33.496  1.00  0.00     0.123 A 
ATOM      9  C   UNL     1      21.865  -4.909 -32.844  1.00  0.00     0.094 A 
ATOM     10  C   UNL     1      20.750  -5.454 -33.484  1.00  0.00     0.146 A 
ATOM     11  O   UNL     1      19.600  -5.504 -32.823  1.00  0.00    -0.451 OA
ENDROOT
BRANCH   1  12
ATOM     12  C   UNL     1      17.258  -6.005 -32.512  1.00  0.00     0.063 A 
ATOM     13  C   UNL     1      15.727  -7.162 -31.015  1.00  0.00     0.047 A 
ATOM     14  C   UNL     1      16.913  -7.137 -31.753  1.00  0.00     0.020 A 
ATOM     15  C   UNL     1      14.866  -6.063 -31.031  1.00  0.00     0.119 A 
ATOM     16  C   UNL     1      15.199  -4.930 -31.784  1.00  0.00     0.093 A 
ATOM     17  C   UNL     1      16.390  -4.888 -32.519  1.00  0.00     0.130 A 
BRANCH  15  18
ATOM     18  O   UNL     1      13.684  -6.105 -30.295  1.00  0.00    -0.508 OA
ATOM     19  H   UNL     1      13.687  -6.285 -29.298  1.00  0.00     0.293 HD
ENDBRANCH  15  18
BRANCH  17  20
ATOM     20  O   UNL     1      16.689  -3.720 -33.223  1.00  0.00    -0.507 OA
ATOM     21  H   UNL     1      17.390  -3.678 -33.952  1.00  0.00     0.293 HD
ENDBRANCH  17  20
ENDBRANCH   1  12
BRANCH   2  22
ATOM     22  O   UNL     1      17.350  -7.189 -35.126  1.00  0.00    -0.502 OA
ATOM     23  H   UNL     1      16.750  -6.722 -35.796  1.00  0.00     0.293 HD
ENDBRANCH   2  22
BRANCH   6  24
ATOM     24  O   UNL     1      22.302  -6.183 -36.826  1.00  0.00    -0.507 OA
ATOM     25  H   UNL     1      21.574  -6.476 -37.460  1.00  0.00     0.293 HD
ENDBRANCH   6  24
BRANCH   8  26
ATOM     26  O   UNL     1      24.217  -4.326 -32.853  1.00  0.00    -0.508 OA
ATOM     27  H   UNL     1      24.767  -3.584 -33.267  1.00  0.00     0.293 HD
ENDBRANCH   8  26
TORSDOF 6
ENDMDL
MODEL 9
REMARK VINA RESULT:    -4.933      1.509      6.578
REMARK INTER + INTRA:          -6.359
REMARK INTER:                  -5.983
REMARK INTRA:                  -0.377
REMARK UNBOUND:                -0.417
REMARK SMILES O=c1c(O)c(-c2ccc(O)cc2O)oc2cc(O)cc(O)c12
REMARK SMILES IDX 5 1 3 2 2 3 1 4 22 5 20 6 19 7 17 8 16 9 15 10 14 11 6 12
REMARK SMILES IDX 8 13 7 14 9 15 11 16 12 17 10 18 13 20 4 22 21 24 18 26
REMARK H PARENT 10 19 13 21 4 23 21 25 18 27
REMARK Flexibility Score: inf
ROOT
ATOM      1  C   UNL     1      16.033  -6.666 -32.275  1.00  0.00     0.184 A 
ATOM      2  C   UNL     1      15.779  -5.286 -32.245  1.00  0.00     0.208 A 
ATOM      3  C   UNL     1      16.816  -4.396 -32.564  1.00  0.00     0.238 A 
ATOM      4  O   UNL     1      16.566  -3.163 -32.595  1.00  0.00    -0.285 OA
ATOM      5  C   UNL     1      18.103  -4.898 -32.881  1.00  0.00     0.111 A 
ATOM      6  C   UNL     1      19.238  -4.086 -33.181  1.00  0.00     0.134 A 
ATOM      7  C   UNL     1      20.428  -4.693 -33.600  1.00  0.00     0.093 A 
ATOM      8  C   UNL     1      20.545  -6.081 -33.666  1.00  0.00     0.123 A 
ATOM      9  C   UNL     1      19.459  -6.885 -33.319  1.00  0.00     0.094 A 
ATOM     10  C   UNL     1      18.247  -6.309 -32.933  1.00  0.00     0.146 A 
ATOM     11  O   UNL     1      17.234  -7.111 -32.625  1.00  0.00    -0.451 OA
ENDROOT
BRANCH   1  12
ATOM     12  C   UNL     1      14.986  -7.650 -31.925  1.00  0.00     0.063 A 
ATOM     13  C   UNL     1      13.031  -8.937 -32.590  1.00  0.00     0.047 A 
ATOM     14  C   UNL     1      14.063  -8.050 -32.907  1.00  0.00     0.020 A 
ATOM     15  C   UNL     1      12.901  -9.429 -31.290  1.00  0.00     0.119 A 
ATOM     16  C   UNL     1      13.814  -9.037 -30.304  1.00  0.00     0.093 A 
ATOM     17  C   UNL     1      14.860  -8.156 -30.611  1.00  0.00     0.130 A 
BRANCH  15  18
ATOM     18  O   UNL     1      11.864 -10.308 -30.988  1.00  0.00    -0.508 OA
ATOM     19  H   UNL     1      11.881 -11.274 -31.292  1.00  0.00     0.293 HD
ENDBRANCH  15  18
BRANCH  17  20
ATOM     20  O   UNL     1      15.763  -7.827 -29.598  1.00  0.00    -0.507 OA
ATOM     21  H   UNL     1      16.409  -8.494 -29.196  1.00  0.00     0.293 HD
ENDBRANCH  17  20
ENDBRANCH   1  12
BRANCH   2  22
ATOM     22  O   UNL     1      14.501  -4.820 -31.925  1.00  0.00    -0.502 OA
ATOM     23  H   UNL     1      13.949  -5.221 -31.176  1.00  0.00     0.293 HD
ENDBRANCH   2  22
BRANCH   6  24
ATOM     24  O   UNL     1      19.257  -2.695 -33.060  1.00  0.00    -0.507 OA
ATOM     25  H   UNL     1      20.079  -2.118 -33.160  1.00  0.00     0.293 HD
ENDBRANCH   6  24
BRANCH   8  26
ATOM     26  O   UNL     1      21.750  -6.651 -34.072  1.00  0.00    -0.508 OA
ATOM     27  H   UNL     1      22.617  -6.128 -34.054  1.00  0.00     0.293 HD
ENDBRANCH   8  26
TORSDOF 6
ENDMDL
