MODEL 1
REMARK VINA RESULT:    -1.900      0.000      0.000
REMARK INTER + INTRA:          -3.273
REMARK INTER:                  -2.733
REMARK INTRA:                  -0.540
REMARK UNBOUND:                -0.540
REMARK SMILES O=c1cc(-c2ccc(O)c(O)c2)oc2cc(O[C@@H]3O[C@@H](CO)[C@@H](O)[C@H](O)[C@H]3O)cc(O)c12
REMARK SMILES IDX 17 1 16 2 4 3 3 4 13 5 2 6 14 7 1 8 32 9 15 10 30 11 29 12
REMARK SMILES IDX 5 13 6 14 7 15 8 16 12 17 10 18 9 19 11 21 31 23 18 25 27 26
REMARK SMILES IDX 19 27 25 28 20 29 23 30 28 31 26 33 21 35 22 36 24 38
REMARK H PARENT 9 20 11 22 31 24 28 32 26 34 22 37 24 39
REMARK Flexibility Score: inf
ROOT
ATOM      1  O   UNL     1      40.949 -33.187  11.943  1.00  0.00    -0.462 OA
ENDROOT
BRANCH   1   2
ATOM      2  C   UNL     1      39.809 -32.420  12.190  1.00  0.00     0.130 A 
ATOM      3  C   UNL     1      35.063 -32.152  12.552  1.00  0.00     0.138 A 
ATOM      4  C   UNL     1      35.102 -30.773  12.823  1.00  0.00     0.100 A 
ATOM      5  O   UNL     1      36.202 -32.817  12.371  1.00  0.00    -0.456 OA
ATOM      6  C   UNL     1      36.333 -30.117  12.869  1.00  0.00     0.197 A 
ATOM      7  C   UNL     1      37.398 -32.234  12.403  1.00  0.00     0.146 A 
ATOM      8  O   UNL     1      36.356 -28.881  13.119  1.00  0.00    -0.289 OA
ATOM      9  C   UNL     1      37.518 -30.843  12.641  1.00  0.00     0.107 A 
ATOM     10  C   UNL     1      38.538 -33.010  12.183  1.00  0.00     0.094 A 
ATOM     11  C   UNL     1      38.802 -30.246  12.637  1.00  0.00     0.134 A 
ATOM     12  C   UNL     1      39.934 -31.047  12.403  1.00  0.00     0.093 A 
BRANCH   3  13
ATOM     13  C   UNL     1      33.780 -32.888  12.472  1.00  0.00     0.021 A 
ATOM     14  C   UNL     1      33.765 -34.204  11.988  1.00  0.00     0.016 A 
ATOM     15  C   UNL     1      32.566 -34.911  11.901  1.00  0.00     0.051 A 
ATOM     16  C   UNL     1      31.356 -34.316  12.282  1.00  0.00     0.157 A 
ATOM     17  C   UNL     1      32.562 -32.284  12.839  1.00  0.00     0.062 A 
ATOM     18  C   UNL     1      31.351 -32.981  12.753  1.00  0.00     0.158 A 
BRANCH  16  19
ATOM     19  O   UNL     1      30.192 -35.081  12.173  1.00  0.00    -0.504 OA
ATOM     20  H   UNL     1      29.429 -34.862  11.544  1.00  0.00     0.293 HD
ENDBRANCH  16  19
BRANCH  18  21
ATOM     21  O   UNL     1      30.185 -32.320  13.124  1.00  0.00    -0.504 OA
ATOM     22  H   UNL     1      29.251 -32.646  12.917  1.00  0.00     0.293 HD
ENDBRANCH  18  21
ENDBRANCH   3  13
BRANCH  11  23
ATOM     23  O   UNL     1      38.954 -28.875  12.844  1.00  0.00    -0.507 OA
ATOM     24  H   UNL     1      39.840 -28.475  13.120  1.00  0.00     0.293 HD
ENDBRANCH  11  23
ENDBRANCH   1   2
BRANCH   1  25
ATOM     25  C   UNL     1      42.282 -32.698  12.121  1.00  0.00     0.339 C 
ATOM     26  C   UNL     1      43.294 -33.870  11.931  1.00  0.00     0.214 C 
ATOM     27  O   UNL     1      42.513 -31.610  11.235  1.00  0.00    -0.332 OA
ATOM     28  C   UNL     1      44.267 -33.584  10.784  1.00  0.00     0.180 C 
ATOM     29  C   UNL     1      43.838 -31.108  11.310  1.00  0.00     0.179 C 
ATOM     30  C   UNL     1      44.907 -32.190  10.958  1.00  0.00     0.177 C 
BRANCH  26  31
ATOM     31  O   UNL     1      44.020 -34.080  13.115  1.00  0.00    -0.384 OA
ATOM     32  H   UNL     1      43.434 -33.801  13.864  1.00  0.00     0.211 HD
ENDBRANCH  26  31
BRANCH  28  33
ATOM     33  O   UNL     1      43.575 -33.656   9.563  1.00  0.00    -0.387 OA
ATOM     34  H   UNL     1      42.855 -34.330   9.678  1.00  0.00     0.211 HD
ENDBRANCH  28  33
BRANCH  29  35
ATOM     35  C   UNL     1      44.087 -30.349  12.630  1.00  0.00     0.191 C 
BRANCH  35  36
ATOM     36  O   UNL     1      45.128 -29.425  12.460  1.00  0.00    -0.394 OA
ATOM     37  H   UNL     1      45.657 -29.744  11.685  1.00  0.00     0.210 HD
ENDBRANCH  35  36
ENDBRANCH  29  35
BRANCH  30  38
ATOM     38  O   UNL     1      45.906 -32.251  11.943  1.00  0.00    -0.387 OA
ATOM     39  H   UNL     1      46.184 -33.197  12.022  1.00  0.00     0.211 HD
ENDBRANCH  30  38
ENDBRANCH   1  25
TORSDOF 11
ENDMDL
MODEL 2
REMARK VINA RESULT:    -1.521      1.640      2.559
REMARK INTER + INTRA:          -2.728
REMARK INTER:                  -3.191
REMARK INTRA:                   0.464
REMARK UNBOUND:                -0.540
REMARK SMILES O=c1cc(-c2ccc(O)c(O)c2)oc2cc(O[C@@H]3O[C@@H](CO)[C@@H](O)[C@H](O)[C@H]3O)cc(O)c12
REMARK SMILES IDX 17 1 16 2 4 3 3 4 13 5 2 6 14 7 1 8 32 9 15 10 30 11 29 12
REMARK SMILES IDX 5 13 6 14 7 15 8 16 12 17 10 18 9 19 11 21 31 23 18 25 27 26
REMARK SMILES IDX 19 27 25 28 20 29 23 30 28 31 26 33 21 35 22 36 24 38
REMARK H PARENT 9 20 11 22 31 24 28 32 26 34 22 37 24 39
REMARK Flexibility Score: inf
ROOT
ATOM      1  O   UNL     1      39.992 -32.100  12.739  1.00  0.00    -0.462 OA
ENDROOT
BRANCH   1   2
ATOM      2  C   UNL     1      38.803 -31.589  12.217  1.00  0.00     0.130 A 
ATOM      3  C   UNL     1      34.067 -31.900  11.773  1.00  0.00     0.138 A 
ATOM      4  C   UNL     1      34.011 -30.774  10.933  1.00  0.00     0.100 A 
ATOM      5  O   UNL     1      35.240 -32.297  12.263  1.00  0.00    -0.456 OA
ATOM      6  C   UNL     1      35.191 -30.106  10.604  1.00  0.00     0.197 A 
ATOM      7  C   UNL     1      36.390 -31.693  11.974  1.00  0.00     0.146 A 
ATOM      8  O   UNL     1      35.129 -29.092   9.855  1.00  0.00    -0.289 OA
ATOM      9  C   UNL     1      36.420 -30.569  11.112  1.00  0.00     0.107 A 
ATOM     10  C   UNL     1      37.575 -32.191  12.521  1.00  0.00     0.094 A 
ATOM     11  C   UNL     1      37.663 -29.968  10.798  1.00  0.00     0.134 A 
ATOM     12  C   UNL     1      38.843 -30.494  11.352  1.00  0.00     0.093 A 
BRANCH   3  13
ATOM     13  C   UNL     1      32.845 -32.656  12.135  1.00  0.00     0.021 A 
ATOM     14  C   UNL     1      32.862 -34.058  12.108  1.00  0.00     0.016 A 
ATOM     15  C   UNL     1      31.720 -34.785  12.440  1.00  0.00     0.051 A 
ATOM     16  C   UNL     1      30.533 -34.129  12.795  1.00  0.00     0.157 A 
ATOM     17  C   UNL     1      31.647 -31.997  12.474  1.00  0.00     0.062 A 
ATOM     18  C   UNL     1      30.493 -32.715  12.807  1.00  0.00     0.158 A 
BRANCH  16  19
ATOM     19  O   UNL     1      29.427 -34.918  13.120  1.00  0.00    -0.504 OA
ATOM     20  H   UNL     1      29.217 -35.805  12.679  1.00  0.00     0.293 HD
ENDBRANCH  16  19
BRANCH  18  21
ATOM     21  O   UNL     1      29.343 -31.999  13.124  1.00  0.00    -0.504 OA
ATOM     22  H   UNL     1      29.195 -31.024  12.902  1.00  0.00     0.293 HD
ENDBRANCH  18  21
ENDBRANCH   3  13
BRANCH  11  23
ATOM     23  O   UNL     1      37.731 -28.875   9.934  1.00  0.00    -0.507 OA
ATOM     24  H   UNL     1      37.990 -28.982   8.962  1.00  0.00     0.293 HD
ENDBRANCH  11  23
ENDBRANCH   1   2
BRANCH   1  25
ATOM     25  C   UNL     1      41.206 -32.200  11.987  1.00  0.00     0.339 C 
ATOM     26  C   UNL     1      41.476 -30.849  11.255  1.00  0.00     0.214 C 
ATOM     27  O   UNL     1      42.268 -32.593  12.847  1.00  0.00    -0.332 OA
ATOM     28  C   UNL     1      42.811 -30.238  11.689  1.00  0.00     0.180 C 
ATOM     29  C   UNL     1      43.521 -32.655  12.184  1.00  0.00     0.179 C 
ATOM     30  C   UNL     1      43.941 -31.282  11.571  1.00  0.00     0.177 C 
BRANCH  26  31
ATOM     31  O   UNL     1      41.484 -31.045   9.864  1.00  0.00    -0.384 OA
ATOM     32  H   UNL     1      42.209 -30.477   9.498  1.00  0.00     0.211 HD
ENDBRANCH  26  31
BRANCH  28  33
ATOM     33  O   UNL     1      42.700 -29.782  13.014  1.00  0.00    -0.387 OA
ATOM     34  H   UNL     1      42.920 -28.815  13.006  1.00  0.00     0.211 HD
ENDBRANCH  28  33
BRANCH  29  35
ATOM     35  C   UNL     1      43.594 -33.853  11.213  1.00  0.00     0.191 C 
BRANCH  35  36
ATOM     36  O   UNL     1      43.501 -35.054  11.931  1.00  0.00    -0.394 OA
ATOM     37  H   UNL     1      43.579 -34.811  12.889  1.00  0.00     0.210 HD
ENDBRANCH  35  36
ENDBRANCH  29  35
BRANCH  30  38
ATOM     38  O   UNL     1      44.313 -31.424  10.224  1.00  0.00    -0.387 OA
ATOM     39  H   UNL     1      43.488 -31.611   9.710  1.00  0.00     0.211 HD
ENDBRANCH  30  38
ENDBRANCH   1  25
TORSDOF 11
ENDMDL
MODEL 3
REMARK VINA RESULT:     0.405      1.266      1.794
REMARK INTER + INTRA:           0.042
REMARK INTER:                  -0.600
REMARK INTRA:                   0.642
REMARK UNBOUND:                -0.540
REMARK SMILES O=c1cc(-c2ccc(O)c(O)c2)oc2cc(O[C@@H]3O[C@@H](CO)[C@@H](O)[C@H](O)[C@H]3O)cc(O)c12
REMARK SMILES IDX 17 1 16 2 4 3 3 4 13 5 2 6 14 7 1 8 32 9 15 10 30 11 29 12
REMARK SMILES IDX 5 13 6 14 7 15 8 16 12 17 10 18 9 19 11 21 31 23 18 25 27 26
REMARK SMILES IDX 19 27 25 28 20 29 23 30 28 31 26 33 21 35 22 36 24 38
REMARK H PARENT 9 20 11 22 31 24 28 32 26 34 22 37 24 39
REMARK Flexibility Score: inf
ROOT
ATOM      1  O   UNL     1      40.308 -33.006  11.772  1.00  0.00    -0.462 OA
ENDROOT
BRANCH   1   2
ATOM      2  C   UNL     1      39.118 -32.334  12.053  1.00  0.00     0.130 A 
ATOM      3  C   UNL     1      34.375 -32.442  12.520  1.00  0.00     0.138 A 
ATOM      4  C   UNL     1      34.312 -31.068  12.810  1.00  0.00     0.100 A 
ATOM      5  O   UNL     1      35.558 -33.015  12.305  1.00  0.00    -0.456 OA
ATOM      6  C   UNL     1      35.489 -30.319  12.840  1.00  0.00     0.197 A 
ATOM      7  C   UNL     1      36.705 -32.340  12.320  1.00  0.00     0.146 A 
ATOM      8  O   UNL     1      35.422 -29.088  13.108  1.00  0.00    -0.289 OA
ATOM      9  C   UNL     1      36.722 -30.947  12.577  1.00  0.00     0.107 A 
ATOM     10  C   UNL     1      37.897 -33.022  12.065  1.00  0.00     0.094 A 
ATOM     11  C   UNL     1      37.955 -30.251  12.554  1.00  0.00     0.134 A 
ATOM     12  C   UNL     1      39.140 -30.958  12.284  1.00  0.00     0.093 A 
BRANCH   3  13
ATOM     13  C   UNL     1      33.152 -33.276  12.456  1.00  0.00     0.021 A 
ATOM     14  C   UNL     1      33.245 -34.616  12.055  1.00  0.00     0.016 A 
ATOM     15  C   UNL     1      32.104 -35.414  11.984  1.00  0.00     0.051 A 
ATOM     16  C   UNL     1      30.844 -34.888  12.300  1.00  0.00     0.157 A 
ATOM     17  C   UNL     1      31.883 -32.743  12.757  1.00  0.00     0.062 A 
ATOM     18  C   UNL     1      30.729 -33.532  12.687  1.00  0.00     0.158 A 
BRANCH  16  19
ATOM     19  O   UNL     1      29.742 -35.743  12.211  1.00  0.00    -0.504 OA
ATOM     20  H   UNL     1      29.677 -36.514  11.558  1.00  0.00     0.293 HD
ENDBRANCH  16  19
BRANCH  18  21
ATOM     21  O   UNL     1      29.508 -32.939  12.990  1.00  0.00    -0.504 OA
ATOM     22  H   UNL     1      28.661 -33.062  12.451  1.00  0.00     0.293 HD
ENDBRANCH  18  21
ENDBRANCH   3  13
BRANCH  11  23
ATOM     23  O   UNL     1      38.004 -28.876  12.778  1.00  0.00    -0.507 OA
ATOM     24  H   UNL     1      37.204 -28.281  12.610  1.00  0.00     0.293 HD
ENDBRANCH  11  23
ENDBRANCH   1   2
BRANCH   1  25
ATOM     25  C   UNL     1      41.579 -32.355  11.674  1.00  0.00     0.339 C 
ATOM     26  C   UNL     1      41.913 -32.090  10.174  1.00  0.00     0.214 C 
ATOM     27  O   UNL     1      41.568 -31.171  12.463  1.00  0.00    -0.332 OA
ATOM     28  C   UNL     1      42.096 -30.595   9.900  1.00  0.00     0.180 C 
ATOM     29  C   UNL     1      42.777 -30.435  12.369  1.00  0.00     0.179 C 
ATOM     30  C   UNL     1      43.090 -29.982  10.908  1.00  0.00     0.177 C 
BRANCH  26  31
ATOM     31  O   UNL     1      43.084 -32.776   9.810  1.00  0.00    -0.384 OA
ATOM     32  H   UNL     1      42.891 -33.239   8.955  1.00  0.00     0.211 HD
ENDBRANCH  26  31
BRANCH  28  33
ATOM     33  O   UNL     1      40.848 -29.954   9.990  1.00  0.00    -0.387 OA
ATOM     34  H   UNL     1      40.275 -30.517  10.572  1.00  0.00     0.211 HD
ENDBRANCH  28  33
BRANCH  29  35
ATOM     35  C   UNL     1      43.938 -31.149  13.094  1.00  0.00     0.191 C 
BRANCH  35  36
ATOM     36  O   UNL     1      44.250 -32.344  12.431  1.00  0.00    -0.394 OA
ATOM     37  H   UNL     1      44.696 -32.924  13.101  1.00  0.00     0.210 HD
ENDBRANCH  35  36
ENDBRANCH  29  35
BRANCH  30  38
ATOM     38  O   UNL     1      44.402 -30.326  10.544  1.00  0.00    -0.387 OA
ATOM     39  H   UNL     1      44.353 -31.174  10.035  1.00  0.00     0.211 HD
ENDBRANCH  30  38
ENDBRANCH   1  25
TORSDOF 11
ENDMDL
