MODEL 1
REMARK VINA RESULT:    -7.704      0.000      0.000
REMARK INTER + INTRA:          -9.349
REMARK INTER:                  -9.055
REMARK INTRA:                  -0.294
REMARK UNBOUND:                -0.294
REMARK SMILES O=c1cc(-c2ccc(O)c(O)c2)oc2cc(O)cc(O)c12
REMARK SMILES IDX 4 1 3 2 2 3 1 4 21 5 19 6 18 7 16 8 15 9 14 10 13 11 5 12
REMARK SMILES IDX 6 13 7 14 8 15 12 16 10 17 9 18 11 20 20 22 17 24
REMARK H PARENT 9 19 11 21 20 23 17 25
REMARK Flexibility Score: inf
ROOT
ATOM      1  C   UNL     1      17.896  22.751  40.086  1.00  0.00     0.138 A 
ATOM      2  C   UNL     1      17.677  23.859  39.255  1.00  0.00     0.100 A 
ATOM      3  C   UNL     1      16.561  24.669  39.464  1.00  0.00     0.197 A 
ATOM      4  O   UNL     1      16.425  25.692  38.744  1.00  0.00    -0.289 OA
ATOM      5  C   UNL     1      15.643  24.350  40.494  1.00  0.00     0.107 A 
ATOM      6  C   UNL     1      14.449  25.080  40.772  1.00  0.00     0.134 A 
ATOM      7  C   UNL     1      13.677  24.739  41.890  1.00  0.00     0.093 A 
ATOM      8  C   UNL     1      14.022  23.658  42.701  1.00  0.00     0.123 A 
ATOM      9  C   UNL     1      15.157  22.902  42.405  1.00  0.00     0.094 A 
ATOM     10  C   UNL     1      15.967  23.239  41.318  1.00  0.00     0.146 A 
ATOM     11  O   UNL     1      17.048  22.504  41.079  1.00  0.00    -0.456 OA
ENDROOT
BRANCH   1  12
ATOM     12  C   UNL     1      19.066  21.855  39.905  1.00  0.00     0.021 A 
ATOM     13  C   UNL     1      19.080  20.600  40.541  1.00  0.00     0.016 A 
ATOM     14  C   UNL     1      20.165  19.735  40.381  1.00  0.00     0.051 A 
ATOM     15  C   UNL     1      21.250  20.105  39.576  1.00  0.00     0.157 A 
ATOM     16  C   UNL     1      20.155  22.215  39.088  1.00  0.00     0.062 A 
ATOM     17  C   UNL     1      21.243  21.344  38.926  1.00  0.00     0.158 A 
BRANCH  15  18
ATOM     18  O   UNL     1      22.335  19.244  39.416  1.00  0.00    -0.504 OA
ATOM     19  H   UNL     1      22.332  18.511  38.717  1.00  0.00     0.293 HD
ENDBRANCH  15  18
BRANCH  17  20
ATOM     20  O   UNL     1      22.321  21.704  38.118  1.00  0.00    -0.504 OA
ATOM     21  H   UNL     1      23.228  21.261  38.215  1.00  0.00     0.293 HD
ENDBRANCH  17  20
ENDBRANCH   1  12
BRANCH   6  22
ATOM     22  O   UNL     1      13.968  26.125  39.978  1.00  0.00    -0.507 OA
ATOM     23  H   UNL     1      14.168  27.102  40.128  1.00  0.00     0.293 HD
ENDBRANCH   6  22
BRANCH   8  24
ATOM     24  O   UNL     1      13.221  23.337  43.795  1.00  0.00    -0.508 OA
ATOM     25  H   UNL     1      13.606  22.900  44.624  1.00  0.00     0.293 HD
ENDBRANCH   8  24
TORSDOF 5
ENDMDL
MODEL 2
REMARK VINA RESULT:    -7.693      1.724      7.387
REMARK INTER + INTRA:          -9.336
REMARK INTER:                  -9.067
REMARK INTRA:                  -0.269
REMARK UNBOUND:                -0.294
REMARK SMILES O=c1cc(-c2ccc(O)c(O)c2)oc2cc(O)cc(O)c12
REMARK SMILES IDX 4 1 3 2 2 3 1 4 21 5 19 6 18 7 16 8 15 9 14 10 13 11 5 12
REMARK SMILES IDX 6 13 7 14 8 15 12 16 10 17 9 18 11 20 20 22 17 24
REMARK H PARENT 9 19 11 21 20 23 17 25
REMARK Flexibility Score: inf
ROOT
ATOM      1  C   UNL     1      16.628  22.405  41.398  1.00  0.00     0.138 A 
ATOM      2  C   UNL     1      16.692  21.005  41.361  1.00  0.00     0.100 A 
ATOM      3  C   UNL     1      17.832  20.378  40.855  1.00  0.00     0.197 A 
ATOM      4  O   UNL     1      17.886  19.122  40.893  1.00  0.00    -0.289 OA
ATOM      5  C   UNL     1      18.901  21.160  40.357  1.00  0.00     0.107 A 
ATOM      6  C   UNL     1      20.094  20.631  39.780  1.00  0.00     0.134 A 
ATOM      7  C   UNL     1      21.134  21.500  39.426  1.00  0.00     0.093 A 
ATOM      8  C   UNL     1      20.999  22.881  39.571  1.00  0.00     0.123 A 
ATOM      9  C   UNL     1      19.815  23.413  40.083  1.00  0.00     0.094 A 
ATOM     10  C   UNL     1      18.774  22.570  40.477  1.00  0.00     0.146 A 
ATOM     11  O   UNL     1      17.668  23.115  40.974  1.00  0.00    -0.456 OA
ENDROOT
BRANCH   1  12
ATOM     12  C   UNL     1      15.439  23.121  41.925  1.00  0.00     0.021 A 
ATOM     13  C   UNL     1      14.776  24.054  41.106  1.00  0.00     0.016 A 
ATOM     14  C   UNL     1      13.651  24.736  41.574  1.00  0.00     0.051 A 
ATOM     15  C   UNL     1      13.162  24.490  42.863  1.00  0.00     0.157 A 
ATOM     16  C   UNL     1      14.934  22.870  43.216  1.00  0.00     0.062 A 
ATOM     17  C   UNL     1      13.802  23.554  43.684  1.00  0.00     0.158 A 
BRANCH  15  18
ATOM     18  O   UNL     1      12.039  25.170  43.334  1.00  0.00    -0.504 OA
ATOM     19  H   UNL     1      11.188  24.680  43.581  1.00  0.00     0.293 HD
ENDBRANCH  15  18
BRANCH  17  20
ATOM     20  O   UNL     1      13.307  23.305  44.962  1.00  0.00    -0.504 OA
ATOM     21  H   UNL     1      13.124  24.059  45.616  1.00  0.00     0.293 HD
ENDBRANCH  17  20
ENDBRANCH   1  12
BRANCH   6  22
ATOM     22  O   UNL     1      20.298  19.274  39.513  1.00  0.00    -0.507 OA
ATOM     23  H   UNL     1      20.410  18.559  40.216  1.00  0.00     0.293 HD
ENDBRANCH   6  22
BRANCH   8  24
ATOM     24  O   UNL     1      22.048  23.716  39.194  1.00  0.00    -0.508 OA
ATOM     25  H   UNL     1      22.649  24.157  39.881  1.00  0.00     0.293 HD
ENDBRANCH   8  24
TORSDOF 5
ENDMDL
MODEL 3
REMARK VINA RESULT:    -7.647      2.404      7.582
REMARK INTER + INTRA:          -9.282
REMARK INTER:                  -8.968
REMARK INTRA:                  -0.314
REMARK UNBOUND:                -0.294
REMARK SMILES O=c1cc(-c2ccc(O)c(O)c2)oc2cc(O)cc(O)c12
REMARK SMILES IDX 4 1 3 2 2 3 1 4 21 5 19 6 18 7 16 8 15 9 14 10 13 11 5 12
REMARK SMILES IDX 6 13 7 14 8 15 12 16 10 17 9 18 11 20 20 22 17 24
REMARK H PARENT 9 19 11 21 20 23 17 25
REMARK Flexibility Score: inf
ROOT
ATOM      1  C   UNL     1      13.817  23.850  42.951  1.00  0.00     0.138 A 
ATOM      2  C   UNL     1      13.591  24.958  42.123  1.00  0.00     0.100 A 
ATOM      3  C   UNL     1      14.387  25.149  40.993  1.00  0.00     0.197 A 
ATOM      4  O   UNL     1      14.120  26.117  40.235  1.00  0.00    -0.289 OA
ATOM      5  C   UNL     1      15.433  24.240  40.708  1.00  0.00     0.107 A 
ATOM      6  C   UNL     1      16.334  24.357  39.607  1.00  0.00     0.134 A 
ATOM      7  C   UNL     1      17.257  23.334  39.360  1.00  0.00     0.093 A 
ATOM      8  C   UNL     1      17.354  22.230  40.207  1.00  0.00     0.123 A 
ATOM      9  C   UNL     1      16.516  22.133  41.318  1.00  0.00     0.094 A 
ATOM     10  C   UNL     1      15.561  23.119  41.572  1.00  0.00     0.146 A 
ATOM     11  O   UNL     1      14.771  22.982  42.631  1.00  0.00    -0.456 OA
ENDROOT
BRANCH   1  12
ATOM     12  C   UNL     1      13.001  23.601  44.167  1.00  0.00     0.021 A 
ATOM     13  C   UNL     1      12.225  24.645  44.704  1.00  0.00     0.016 A 
ATOM     14  C   UNL     1      11.443  24.435  45.842  1.00  0.00     0.051 A 
ATOM     15  C   UNL     1      11.414  23.177  46.456  1.00  0.00     0.157 A 
ATOM     16  C   UNL     1      12.957  22.335  44.783  1.00  0.00     0.062 A 
ATOM     17  C   UNL     1      12.169  22.125  45.924  1.00  0.00     0.158 A 
BRANCH  15  18
ATOM     18  O   UNL     1      10.635  22.964  47.593  1.00  0.00    -0.504 OA
ATOM     19  H   UNL     1       9.755  23.447  47.730  1.00  0.00     0.293 HD
ENDBRANCH  15  18
BRANCH  17  20
ATOM     20  O   UNL     1      12.129  20.872  46.533  1.00  0.00    -0.504 OA
ATOM     21  H   UNL     1      12.488  20.726  47.471  1.00  0.00     0.293 HD
ENDBRANCH  17  20
ENDBRANCH   1  12
BRANCH   6  22
ATOM     22  O   UNL     1      16.379  25.459  38.747  1.00  0.00    -0.507 OA
ATOM     23  H   UNL     1      16.684  25.427  37.787  1.00  0.00     0.293 HD
ENDBRANCH   6  22
BRANCH   8  24
ATOM     24  O   UNL     1      18.296  21.239  39.939  1.00  0.00    -0.508 OA
ATOM     25  H   UNL     1      18.118  20.266  40.158  1.00  0.00     0.293 HD
ENDBRANCH   8  24
TORSDOF 5
ENDMDL
MODEL 4
REMARK VINA RESULT:    -7.540      1.959      3.253
REMARK INTER + INTRA:          -9.156
REMARK INTER:                  -8.863
REMARK INTRA:                  -0.293
REMARK UNBOUND:                -0.294
REMARK SMILES O=c1cc(-c2ccc(O)c(O)c2)oc2cc(O)cc(O)c12
REMARK SMILES IDX 4 1 3 2 2 3 1 4 21 5 19 6 18 7 16 8 15 9 14 10 13 11 5 12
REMARK SMILES IDX 6 13 7 14 8 15 12 16 10 17 9 18 11 20 20 22 17 24
REMARK H PARENT 9 19 11 21 20 23 17 25
REMARK Flexibility Score: inf
ROOT
ATOM      1  C   UNL     1      15.669  23.329  41.228  1.00  0.00     0.138 A 
ATOM      2  C   UNL     1      15.014  24.478  40.764  1.00  0.00     0.100 A 
ATOM      3  C   UNL     1      14.007  25.059  41.537  1.00  0.00     0.197 A 
ATOM      4  O   UNL     1      13.481  26.125  41.125  1.00  0.00    -0.289 OA
ATOM      5  C   UNL     1      13.637  24.467  42.768  1.00  0.00     0.107 A 
ATOM      6  C   UNL     1      12.597  24.948  43.620  1.00  0.00     0.134 A 
ATOM      7  C   UNL     1      12.397  24.348  44.870  1.00  0.00     0.093 A 
ATOM      8  C   UNL     1      13.155  23.249  45.271  1.00  0.00     0.123 A 
ATOM      9  C   UNL     1      14.137  22.735  44.423  1.00  0.00     0.094 A 
ATOM     10  C   UNL     1      14.384  23.333  43.185  1.00  0.00     0.146 A 
ATOM     11  O   UNL     1      15.338  22.824  42.412  1.00  0.00    -0.456 OA
ENDROOT
BRANCH   1  12
ATOM     12  C   UNL     1      16.744  22.670  40.444  1.00  0.00     0.021 A 
ATOM     13  C   UNL     1      17.735  23.458  39.831  1.00  0.00     0.016 A 
ATOM     14  C   UNL     1      18.761  22.863  39.095  1.00  0.00     0.051 A 
ATOM     15  C   UNL     1      18.822  21.470  38.967  1.00  0.00     0.157 A 
ATOM     16  C   UNL     1      16.819  21.269  40.321  1.00  0.00     0.062 A 
ATOM     17  C   UNL     1      17.852  20.672  39.583  1.00  0.00     0.158 A 
BRANCH  15  18
ATOM     18  O   UNL     1      19.845  20.873  38.232  1.00  0.00    -0.504 OA
ATOM     19  H   UNL     1      20.358  21.385  37.524  1.00  0.00     0.293 HD
ENDBRANCH  15  18
BRANCH  17  20
ATOM     20  O   UNL     1      17.922  19.285  39.461  1.00  0.00    -0.504 OA
ATOM     21  H   UNL     1      17.415  18.671  40.090  1.00  0.00     0.293 HD
ENDBRANCH  17  20
ENDBRANCH   1  12
BRANCH   6  22
ATOM     22  O   UNL     1      11.726  25.987  43.281  1.00  0.00    -0.507 OA
ATOM     23  H   UNL     1      12.008  26.864  42.870  1.00  0.00     0.293 HD
ENDBRANCH   6  22
BRANCH   8  24
ATOM     24  O   UNL     1      12.918  22.667  46.515  1.00  0.00    -0.508 OA
ATOM     25  H   UNL     1      13.610  22.694  47.254  1.00  0.00     0.293 HD
ENDBRANCH   8  24
TORSDOF 5
ENDMDL
MODEL 5
REMARK VINA RESULT:    -7.471      1.993      7.291
REMARK INTER + INTRA:          -9.075
REMARK INTER:                  -8.758
REMARK INTRA:                  -0.318
REMARK UNBOUND:                -0.294
REMARK SMILES O=c1cc(-c2ccc(O)c(O)c2)oc2cc(O)cc(O)c12
REMARK SMILES IDX 4 1 3 2 2 3 1 4 21 5 19 6 18 7 16 8 15 9 14 10 13 11 5 12
REMARK SMILES IDX 6 13 7 14 8 15 12 16 10 17 9 18 11 20 20 22 17 24
REMARK H PARENT 9 19 11 21 20 23 17 25
REMARK Flexibility Score: inf
ROOT
ATOM      1  C   UNL     1      14.660  23.767  42.049  1.00  0.00     0.138 A 
ATOM      2  C   UNL     1      14.714  24.712  41.014  1.00  0.00     0.100 A 
ATOM      3  C   UNL     1      15.694  24.600  40.027  1.00  0.00     0.197 A 
ATOM      4  O   UNL     1      15.678  25.426  39.078  1.00  0.00    -0.289 OA
ATOM      5  C   UNL     1      16.642  23.551  40.094  1.00  0.00     0.107 A 
ATOM      6  C   UNL     1      17.710  23.363  39.167  1.00  0.00     0.134 A 
ATOM      7  C   UNL     1      18.517  22.223  39.267  1.00  0.00     0.093 A 
ATOM      8  C   UNL     1      18.335  21.299  40.296  1.00  0.00     0.123 A 
ATOM      9  C   UNL     1      17.329  21.503  41.241  1.00  0.00     0.094 A 
ATOM     10  C   UNL     1      16.485  22.611  41.147  1.00  0.00     0.146 A 
ATOM     11  O   UNL     1      15.529  22.761  42.058  1.00  0.00    -0.456 OA
ENDROOT
BRANCH   1  12
ATOM     12  C   UNL     1      13.639  23.841  43.125  1.00  0.00     0.021 A 
ATOM     13  C   UNL     1      12.639  24.828  43.062  1.00  0.00     0.016 A 
ATOM     14  C   UNL     1      11.663  24.914  44.057  1.00  0.00     0.051 A 
ATOM     15  C   UNL     1      11.663  24.010  45.126  1.00  0.00     0.157 A 
ATOM     16  C   UNL     1      13.626  22.927  44.197  1.00  0.00     0.062 A 
ATOM     17  C   UNL     1      12.644  23.013  45.195  1.00  0.00     0.158 A 
BRANCH  15  18
ATOM     18  O   UNL     1      10.691  24.094  46.122  1.00  0.00    -0.504 OA
ATOM     19  H   UNL     1       9.791  23.638  46.025  1.00  0.00     0.293 HD
ENDBRANCH  15  18
BRANCH  17  20
ATOM     20  O   UNL     1      12.634  22.109  46.255  1.00  0.00    -0.504 OA
ATOM     21  H   UNL     1      11.797  21.943  46.804  1.00  0.00     0.293 HD
ENDBRANCH  17  20
ENDBRANCH   1  12
BRANCH   6  22
ATOM     22  O   UNL     1      18.034  24.268  38.151  1.00  0.00    -0.507 OA
ATOM     23  H   UNL     1      17.436  25.017  37.835  1.00  0.00     0.293 HD
ENDBRANCH   6  22
BRANCH   8  24
ATOM     24  O   UNL     1      19.167  20.184  40.375  1.00  0.00    -0.508 OA
ATOM     25  H   UNL     1      20.154  20.274  40.585  1.00  0.00     0.293 HD
ENDBRANCH   8  24
TORSDOF 5
ENDMDL
MODEL 6
REMARK VINA RESULT:    -7.292      1.559      6.954
REMARK INTER + INTRA:          -8.865
REMARK INTER:                  -8.550
REMARK INTRA:                  -0.315
REMARK UNBOUND:                -0.294
REMARK SMILES O=c1cc(-c2ccc(O)c(O)c2)oc2cc(O)cc(O)c12
REMARK SMILES IDX 4 1 3 2 2 3 1 4 21 5 19 6 18 7 16 8 15 9 14 10 13 11 5 12
REMARK SMILES IDX 6 13 7 14 8 15 12 16 10 17 9 18 11 20 20 22 17 24
REMARK H PARENT 9 19 11 21 20 23 17 25
REMARK Flexibility Score: inf
ROOT
ATOM      1  C   UNL     1      16.120  23.223  41.164  1.00  0.00     0.138 A 
ATOM      2  C   UNL     1      16.466  24.062  40.095  1.00  0.00     0.100 A 
ATOM      3  C   UNL     1      17.567  23.747  39.298  1.00  0.00     0.197 A 
ATOM      4  O   UNL     1      17.815  24.484  38.309  1.00  0.00    -0.289 OA
ATOM      5  C   UNL     1      18.343  22.600  39.592  1.00  0.00     0.107 A 
ATOM      6  C   UNL     1      19.510  22.203  38.873  1.00  0.00     0.134 A 
ATOM      7  C   UNL     1      20.129  20.986  39.182  1.00  0.00     0.093 A 
ATOM      8  C   UNL     1      19.661  20.183  40.222  1.00  0.00     0.123 A 
ATOM      9  C   UNL     1      18.554  20.588  40.968  1.00  0.00     0.094 A 
ATOM     10  C   UNL     1      17.893  21.780  40.661  1.00  0.00     0.146 A 
ATOM     11  O   UNL     1      16.833  22.123  41.385  1.00  0.00    -0.456 OA
ENDROOT
BRANCH   1  12
ATOM     12  C   UNL     1      14.960  23.513  42.044  1.00  0.00     0.021 A 
ATOM     13  C   UNL     1      13.999  24.455  41.633  1.00  0.00     0.016 A 
ATOM     14  C   UNL     1      12.895  24.741  42.438  1.00  0.00     0.051 A 
ATOM     15  C   UNL     1      12.726  24.083  43.663  1.00  0.00     0.157 A 
ATOM     16  C   UNL     1      14.777  22.848  43.272  1.00  0.00     0.062 A 
ATOM     17  C   UNL     1      13.666  23.133  44.079  1.00  0.00     0.158 A 
BRANCH  15  18
ATOM     18  O   UNL     1      11.625  24.367  44.471  1.00  0.00    -0.504 OA
ATOM     19  H   UNL     1      10.921  23.667  44.672  1.00  0.00     0.293 HD
ENDBRANCH  15  18
BRANCH  17  20
ATOM     20  O   UNL     1      13.489  22.475  45.294  1.00  0.00    -0.504 OA
ATOM     21  H   UNL     1      13.859  21.544  45.452  1.00  0.00     0.293 HD
ENDBRANCH  17  20
ENDBRANCH   1  12
BRANCH   6  22
ATOM     22  O   UNL     1      20.111  22.971  37.871  1.00  0.00    -0.507 OA
ATOM     23  H   UNL     1      21.042  23.354  37.920  1.00  0.00     0.293 HD
ENDBRANCH   6  22
BRANCH   8  24
ATOM     24  O   UNL     1      20.313  18.986  40.513  1.00  0.00    -0.508 OA
ATOM     25  H   UNL     1      20.178  18.157  39.945  1.00  0.00     0.293 HD
ENDBRANCH   8  24
TORSDOF 5
ENDMDL
MODEL 7
REMARK VINA RESULT:    -7.190      1.541      7.270
REMARK INTER + INTRA:          -8.746
REMARK INTER:                  -8.452
REMARK INTRA:                  -0.294
REMARK UNBOUND:                -0.294
REMARK SMILES O=c1cc(-c2ccc(O)c(O)c2)oc2cc(O)cc(O)c12
REMARK SMILES IDX 4 1 3 2 2 3 1 4 21 5 19 6 18 7 16 8 15 9 14 10 13 11 5 12
REMARK SMILES IDX 6 13 7 14 8 15 12 16 10 17 9 18 11 20 20 22 17 24
REMARK H PARENT 9 19 11 21 20 23 17 25
REMARK Flexibility Score: inf
ROOT
ATOM      1  C   UNL     1      16.589  22.410  41.408  1.00  0.00     0.138 A 
ATOM      2  C   UNL     1      16.626  21.009  41.446  1.00  0.00     0.100 A 
ATOM      3  C   UNL     1      17.747  20.334  40.962  1.00  0.00     0.197 A 
ATOM      4  O   UNL     1      17.778  19.081  41.066  1.00  0.00    -0.289 OA
ATOM      5  C   UNL     1      18.825  21.067  40.409  1.00  0.00     0.107 A 
ATOM      6  C   UNL     1      20.001  20.485  39.848  1.00  0.00     0.134 A 
ATOM      7  C   UNL     1      21.052  21.313  39.436  1.00  0.00     0.093 A 
ATOM      8  C   UNL     1      20.946  22.702  39.508  1.00  0.00     0.123 A 
ATOM      9  C   UNL     1      19.778  23.283  40.004  1.00  0.00     0.094 A 
ATOM     10  C   UNL     1      18.726  22.483  40.455  1.00  0.00     0.146 A 
ATOM     11  O   UNL     1      17.637  23.076  40.934  1.00  0.00    -0.456 OA
ENDROOT
BRANCH   1  12
ATOM     12  C   UNL     1      15.420  23.177  41.908  1.00  0.00     0.021 A 
ATOM     13  C   UNL     1      14.820  22.806  43.125  1.00  0.00     0.016 A 
ATOM     14  C   UNL     1      13.724  23.515  43.622  1.00  0.00     0.051 A 
ATOM     15  C   UNL     1      13.216  24.613  42.917  1.00  0.00     0.157 A 
ATOM     16  C   UNL     1      14.911  24.290  41.211  1.00  0.00     0.062 A 
ATOM     17  C   UNL     1      13.812  25.003  41.712  1.00  0.00     0.158 A 
BRANCH  15  18
ATOM     18  O   UNL     1      12.121  25.323  43.409  1.00  0.00    -0.504 OA
ATOM     19  H   UNL     1      12.020  26.318  43.250  1.00  0.00     0.293 HD
ENDBRANCH  15  18
BRANCH  17  20
ATOM     20  O   UNL     1      13.310  26.103  41.019  1.00  0.00    -0.504 OA
ATOM     21  H   UNL     1      12.471  26.035  40.453  1.00  0.00     0.293 HD
ENDBRANCH  17  20
ENDBRANCH   1  12
BRANCH   6  22
ATOM     22  O   UNL     1      20.176  19.111  39.653  1.00  0.00    -0.507 OA
ATOM     23  H   UNL     1      20.888  18.699  39.069  1.00  0.00     0.293 HD
ENDBRANCH   6  22
BRANCH   8  24
ATOM     24  O   UNL     1      22.005  23.495  39.074  1.00  0.00    -0.508 OA
ATOM     25  H   UNL     1      21.867  24.247  38.409  1.00  0.00     0.293 HD
ENDBRANCH   8  24
TORSDOF 5
ENDMDL
MODEL 8
REMARK VINA RESULT:    -5.421      2.568      5.096
REMARK INTER + INTRA:          -6.666
REMARK INTER:                  -6.370
REMARK INTRA:                  -0.296
REMARK UNBOUND:                -0.294
REMARK SMILES O=c1cc(-c2ccc(O)c(O)c2)oc2cc(O)cc(O)c12
REMARK SMILES IDX 4 1 3 2 2 3 1 4 21 5 19 6 18 7 16 8 15 9 14 10 13 11 5 12
REMARK SMILES IDX 6 13 7 14 8 15 12 16 10 17 9 18 11 20 20 22 17 24
REMARK H PARENT 9 19 11 21 20 23 17 25
REMARK Flexibility Score: inf
ROOT
ATOM      1  C   UNL     1      14.955  23.167  42.878  1.00  0.00     0.138 A 
ATOM      2  C   UNL     1      15.217  22.631  44.147  1.00  0.00     0.100 A 
ATOM      3  C   UNL     1      14.361  22.922  45.210  1.00  0.00     0.197 A 
ATOM      4  O   UNL     1      14.587  22.377  46.321  1.00  0.00    -0.289 OA
ATOM      5  C   UNL     1      13.252  23.778  45.006  1.00  0.00     0.107 A 
ATOM      6  C   UNL     1      12.336  24.176  46.025  1.00  0.00     0.134 A 
ATOM      7  C   UNL     1      11.209  24.933  45.681  1.00  0.00     0.093 A 
ATOM      8  C   UNL     1      10.999  25.358  44.369  1.00  0.00     0.123 A 
ATOM      9  C   UNL     1      11.918  25.020  43.375  1.00  0.00     0.094 A 
ATOM     10  C   UNL     1      13.033  24.236  43.680  1.00  0.00     0.146 A 
ATOM     11  O   UNL     1      13.876  23.924  42.702  1.00  0.00    -0.456 OA
ENDROOT
BRANCH   1  12
ATOM     12  C   UNL     1      15.835  22.892  41.714  1.00  0.00     0.021 A 
ATOM     13  C   UNL     1      15.625  23.587  40.510  1.00  0.00     0.016 A 
ATOM     14  C   UNL     1      16.443  23.352  39.402  1.00  0.00     0.051 A 
ATOM     15  C   UNL     1      17.490  22.427  39.482  1.00  0.00     0.157 A 
ATOM     16  C   UNL     1      16.898  21.971  41.791  1.00  0.00     0.062 A 
ATOM     17  C   UNL     1      17.720  21.738  40.679  1.00  0.00     0.158 A 
BRANCH  15  18
ATOM     18  O   UNL     1      18.308  22.189  38.378  1.00  0.00    -0.504 OA
ATOM     19  H   UNL     1      19.308  22.059  38.478  1.00  0.00     0.293 HD
ENDBRANCH  15  18
BRANCH  17  20
ATOM     20  O   UNL     1      18.770  20.824  40.757  1.00  0.00    -0.504 OA
ATOM     21  H   UNL     1      18.767  19.965  40.218  1.00  0.00     0.293 HD
ENDBRANCH  17  20
ENDBRANCH   1  12
BRANCH   6  22
ATOM     22  O   UNL     1      12.496  23.878  47.381  1.00  0.00    -0.507 OA
ATOM     23  H   UNL     1      13.110  23.165  47.745  1.00  0.00     0.293 HD
ENDBRANCH   6  22
BRANCH   8  24
ATOM     24  O   UNL     1       9.875  26.124  44.067  1.00  0.00    -0.508 OA
ATOM     25  H   UNL     1       9.031  25.704  43.695  1.00  0.00     0.293 HD
ENDBRANCH   8  24
TORSDOF 5
ENDMDL
