MODEL 1
REMARK VINA RESULT:    -6.219      0.000      0.000
REMARK INTER + INTRA:          -7.808
REMARK INTER:                  -7.491
REMARK INTRA:                  -0.317
REMARK UNBOUND:                -0.317
REMARK SMILES O=c1c(O)c(-c2ccc(O)c(O)c2)oc2cc(O)cc(O)c12
REMARK SMILES IDX 5 1 3 2 2 3 1 4 22 5 20 6 19 7 17 8 16 9 15 10 14 11 6 12
REMARK SMILES IDX 7 13 8 14 9 15 13 16 11 17 10 18 12 20 4 22 21 24 18 26
REMARK H PARENT 10 19 12 21 4 23 21 25 18 27
REMARK Flexibility Score: inf
ROOT
ATOM      1  C   UNL     1      14.366  56.101  33.993  1.00  0.00     0.180 A 
ATOM      2  C   UNL     1      14.091  55.934  32.625  1.00  0.00     0.208 A 
ATOM      3  C   UNL     1      14.633  56.844  31.705  1.00  0.00     0.238 A 
ATOM      4  O   UNL     1      14.339  56.721  30.487  1.00  0.00    -0.285 OA
ATOM      5  C   UNL     1      15.457  57.901  32.162  1.00  0.00     0.111 A 
ATOM      6  C   UNL     1      16.093  58.857  31.314  1.00  0.00     0.134 A 
ATOM      7  C   UNL     1      16.780  59.937  31.884  1.00  0.00     0.093 A 
ATOM      8  C   UNL     1      16.909  60.058  33.270  1.00  0.00     0.123 A 
ATOM      9  C   UNL     1      16.343  59.096  34.104  1.00  0.00     0.094 A 
ATOM     10  C   UNL     1      15.621  58.027  33.566  1.00  0.00     0.146 A 
ATOM     11  O   UNL     1      15.088  57.140  34.396  1.00  0.00    -0.452 OA
ENDROOT
BRANCH   1  12
ATOM     12  C   UNL     1      13.851  55.168  35.022  1.00  0.00     0.025 A 
ATOM     13  C   UNL     1      12.642  55.416  35.696  1.00  0.00     0.016 A 
ATOM     14  C   UNL     1      12.164  54.509  36.645  1.00  0.00     0.051 A 
ATOM     15  C   UNL     1      12.877  53.337  36.926  1.00  0.00     0.157 A 
ATOM     16  C   UNL     1      14.552  53.981  35.292  1.00  0.00     0.062 A 
ATOM     17  C   UNL     1      14.076  53.071  36.243  1.00  0.00     0.158 A 
BRANCH  15  18
ATOM     18  O   UNL     1      12.399  52.436  37.876  1.00  0.00    -0.504 OA
ATOM     19  H   UNL     1      12.772  52.411  38.818  1.00  0.00     0.293 HD
ENDBRANCH  15  18
BRANCH  17  20
ATOM     20  O   UNL     1      14.806  51.910  36.495  1.00  0.00    -0.504 OA
ATOM     21  H   UNL     1      14.923  51.185  35.796  1.00  0.00     0.293 HD
ENDBRANCH  17  20
ENDBRANCH   1  12
BRANCH   2  22
ATOM     22  O   UNL     1      13.256  54.897  32.198  1.00  0.00    -0.502 OA
ATOM     23  H   UNL     1      13.561  53.931  32.166  1.00  0.00     0.293 HD
ENDBRANCH   2  22
BRANCH   6  24
ATOM     24  O   UNL     1      16.103  58.778  29.919  1.00  0.00    -0.507 OA
ATOM     25  H   UNL     1      16.063  59.572  29.298  1.00  0.00     0.293 HD
ENDBRANCH   6  24
BRANCH   8  26
ATOM     26  O   UNL     1      17.608  61.125  33.828  1.00  0.00    -0.508 OA
ATOM     27  H   UNL     1      17.358  62.086  33.625  1.00  0.00     0.293 HD
ENDBRANCH   8  26
TORSDOF 6
ENDMDL
MODEL 2
REMARK VINA RESULT:    -5.258      2.887      4.152
REMARK INTER + INTRA:          -6.651
REMARK INTER:                  -6.327
REMARK INTRA:                  -0.324
REMARK UNBOUND:                -0.317
REMARK SMILES O=c1c(O)c(-c2ccc(O)c(O)c2)oc2cc(O)cc(O)c12
REMARK SMILES IDX 5 1 3 2 2 3 1 4 22 5 20 6 19 7 17 8 16 9 15 10 14 11 6 12
REMARK SMILES IDX 7 13 8 14 9 15 13 16 11 17 10 18 12 20 4 22 21 24 18 26
REMARK H PARENT 10 19 12 21 4 23 21 25 18 27
REMARK Flexibility Score: inf
ROOT
ATOM      1  C   UNL     1      15.314  56.207  32.998  1.00  0.00     0.180 A 
ATOM      2  C   UNL     1      16.518  56.902  32.794  1.00  0.00     0.208 A 
ATOM      3  C   UNL     1      16.577  58.269  33.106  1.00  0.00     0.238 A 
ATOM      4  O   UNL     1      17.642  58.898  32.871  1.00  0.00    -0.285 OA
ATOM      5  C   UNL     1      15.436  58.921  33.632  1.00  0.00     0.111 A 
ATOM      6  C   UNL     1      15.395  60.294  34.021  1.00  0.00     0.134 A 
ATOM      7  C   UNL     1      14.176  60.866  34.407  1.00  0.00     0.093 A 
ATOM      8  C   UNL     1      13.010  60.099  34.480  1.00  0.00     0.123 A 
ATOM      9  C   UNL     1      13.054  58.744  34.160  1.00  0.00     0.094 A 
ATOM     10  C   UNL     1      14.247  58.153  33.737  1.00  0.00     0.146 A 
ATOM     11  O   UNL     1      14.242  56.861  33.431  1.00  0.00    -0.452 OA
ENDROOT
BRANCH   1  12
ATOM     12  C   UNL     1      15.181  54.759  32.717  1.00  0.00     0.025 A 
ATOM     13  C   UNL     1      15.374  53.797  33.725  1.00  0.00     0.016 A 
ATOM     14  C   UNL     1      15.221  52.438  33.442  1.00  0.00     0.051 A 
ATOM     15  C   UNL     1      14.860  52.019  32.154  1.00  0.00     0.157 A 
ATOM     16  C   UNL     1      14.800  54.336  31.433  1.00  0.00     0.062 A 
ATOM     17  C   UNL     1      14.646  52.974  31.147  1.00  0.00     0.158 A 
BRANCH  15  18
ATOM     18  O   UNL     1      14.711  50.662  31.875  1.00  0.00    -0.504 OA
ATOM     19  H   UNL     1      13.825  50.187  32.006  1.00  0.00     0.293 HD
ENDBRANCH  15  18
BRANCH  17  20
ATOM     20  O   UNL     1      14.280  52.591  29.856  1.00  0.00    -0.504 OA
ATOM     21  H   UNL     1      14.780  51.873  29.345  1.00  0.00     0.293 HD
ENDBRANCH  17  20
ENDBRANCH   1  12
BRANCH   2  22
ATOM     22  O   UNL     1      17.626  56.243  32.253  1.00  0.00    -0.502 OA
ATOM     23  H   UNL     1      18.067  55.455  32.711  1.00  0.00     0.293 HD
ENDBRANCH   2  22
BRANCH   6  24
ATOM     24  O   UNL     1      16.517  61.125  34.073  1.00  0.00    -0.507 OA
ATOM     25  H   UNL     1      16.658  61.860  34.749  1.00  0.00     0.293 HD
ENDBRANCH   6  24
BRANCH   8  26
ATOM     26  O   UNL     1      11.806  60.671  34.880  1.00  0.00    -0.508 OA
ATOM     27  H   UNL     1      11.061  60.113  35.282  1.00  0.00     0.293 HD
ENDBRANCH   8  26
TORSDOF 6
ENDMDL
MODEL 3
REMARK VINA RESULT:    -5.058      3.239      6.898
REMARK INTER + INTRA:          -6.411
REMARK INTER:                  -6.152
REMARK INTRA:                  -0.258
REMARK UNBOUND:                -0.317
REMARK SMILES O=c1c(O)c(-c2ccc(O)c(O)c2)oc2cc(O)cc(O)c12
REMARK SMILES IDX 5 1 3 2 2 3 1 4 22 5 20 6 19 7 17 8 16 9 15 10 14 11 6 12
REMARK SMILES IDX 7 13 8 14 9 15 13 16 11 17 10 18 12 20 4 22 21 24 18 26
REMARK H PARENT 10 19 12 21 4 23 21 25 18 27
REMARK Flexibility Score: inf
ROOT
ATOM      1  C   UNL     1      15.273  54.888  32.638  1.00  0.00     0.180 A 
ATOM      2  C   UNL     1      15.115  53.927  33.652  1.00  0.00     0.208 A 
ATOM      3  C   UNL     1      14.740  52.621  33.300  1.00  0.00     0.238 A 
ATOM      4  O   UNL     1      14.548  51.779  34.215  1.00  0.00    -0.285 OA
ATOM      5  C   UNL     1      14.545  52.288  31.937  1.00  0.00     0.111 A 
ATOM      6  C   UNL     1      14.204  50.985  31.463  1.00  0.00     0.134 A 
ATOM      7  C   UNL     1      13.908  50.800  30.106  1.00  0.00     0.093 A 
ATOM      8  C   UNL     1      14.003  51.857  29.197  1.00  0.00     0.123 A 
ATOM      9  C   UNL     1      14.393  53.118  29.641  1.00  0.00     0.094 A 
ATOM     10  C   UNL     1      14.661  53.342  30.994  1.00  0.00     0.146 A 
ATOM     11  O   UNL     1      15.018  54.562  31.377  1.00  0.00    -0.452 OA
ENDROOT
BRANCH   1  12
ATOM     12  C   UNL     1      15.690  56.280  32.929  1.00  0.00     0.025 A 
ATOM     13  C   UNL     1      14.802  57.204  33.508  1.00  0.00     0.016 A 
ATOM     14  C   UNL     1      15.225  58.505  33.795  1.00  0.00     0.051 A 
ATOM     15  C   UNL     1      16.542  58.897  33.521  1.00  0.00     0.157 A 
ATOM     16  C   UNL     1      17.014  56.672  32.675  1.00  0.00     0.062 A 
ATOM     17  C   UNL     1      17.440  57.974  32.961  1.00  0.00     0.158 A 
BRANCH  15  18
ATOM     18  O   UNL     1      16.959  60.196  33.805  1.00  0.00    -0.504 OA
ATOM     19  H   UNL     1      16.485  61.003  33.415  1.00  0.00     0.293 HD
ENDBRANCH  15  18
BRANCH  17  20
ATOM     20  O   UNL     1      18.760  58.332  32.682  1.00  0.00    -0.504 OA
ATOM     21  H   UNL     1      18.992  59.168  32.159  1.00  0.00     0.293 HD
ENDBRANCH  17  20
ENDBRANCH   1  12
BRANCH   2  22
ATOM     22  O   UNL     1      15.291  54.284  34.992  1.00  0.00    -0.502 OA
ATOM     23  H   UNL     1      14.866  55.111  35.395  1.00  0.00     0.293 HD
ENDBRANCH   2  22
BRANCH   6  24
ATOM     24  O   UNL     1      14.171  49.845  32.270  1.00  0.00    -0.507 OA
ATOM     25  H   UNL     1      14.838  49.635  32.996  1.00  0.00     0.293 HD
ENDBRANCH   6  24
BRANCH   8  26
ATOM     26  O   UNL     1      13.723  51.661  27.847  1.00  0.00    -0.508 OA
ATOM     27  H   UNL     1      13.126  50.904  27.535  1.00  0.00     0.293 HD
ENDBRANCH   8  26
TORSDOF 6
ENDMDL
MODEL 4
REMARK VINA RESULT:    -5.056      2.222      4.037
REMARK INTER + INTRA:          -6.408
REMARK INTER:                  -6.104
REMARK INTRA:                  -0.303
REMARK UNBOUND:                -0.317
REMARK SMILES O=c1c(O)c(-c2ccc(O)c(O)c2)oc2cc(O)cc(O)c12
REMARK SMILES IDX 5 1 3 2 2 3 1 4 22 5 20 6 19 7 17 8 16 9 15 10 14 11 6 12
REMARK SMILES IDX 7 13 8 14 9 15 13 16 11 17 10 18 12 20 4 22 21 24 18 26
REMARK H PARENT 10 19 12 21 4 23 21 25 18 27
REMARK Flexibility Score: inf
ROOT
ATOM      1  C   UNL     1      14.659  54.910  33.079  1.00  0.00     0.180 A 
ATOM      2  C   UNL     1      15.025  56.267  33.065  1.00  0.00     0.208 A 
ATOM      3  C   UNL     1      15.457  56.843  31.860  1.00  0.00     0.238 A 
ATOM      4  O   UNL     1      15.834  58.044  31.865  1.00  0.00    -0.285 OA
ATOM      5  C   UNL     1      15.501  56.060  30.681  1.00  0.00     0.111 A 
ATOM      6  C   UNL     1      15.883  56.551  29.396  1.00  0.00     0.134 A 
ATOM      7  C   UNL     1      16.017  55.657  28.327  1.00  0.00     0.093 A 
ATOM      8  C   UNL     1      15.718  54.300  28.480  1.00  0.00     0.123 A 
ATOM      9  C   UNL     1      15.287  53.823  29.715  1.00  0.00     0.094 A 
ATOM     10  C   UNL     1      15.179  54.684  30.811  1.00  0.00     0.146 A 
ATOM     11  O   UNL     1      14.775  54.186  31.972  1.00  0.00    -0.452 OA
ENDROOT
BRANCH   1  12
ATOM     12  C   UNL     1      14.170  54.237  34.305  1.00  0.00     0.025 A 
ATOM     13  C   UNL     1      15.034  53.485  35.121  1.00  0.00     0.016 A 
ATOM     14  C   UNL     1      14.555  52.879  36.286  1.00  0.00     0.051 A 
ATOM     15  C   UNL     1      13.213  53.026  36.659  1.00  0.00     0.157 A 
ATOM     16  C   UNL     1      12.830  54.399  34.695  1.00  0.00     0.062 A 
ATOM     17  C   UNL     1      12.349  53.792  35.861  1.00  0.00     0.158 A 
BRANCH  15  18
ATOM     18  O   UNL     1      12.739  52.418  37.820  1.00  0.00    -0.504 OA
ATOM     19  H   UNL     1      12.501  52.958  38.644  1.00  0.00     0.293 HD
ENDBRANCH  15  18
BRANCH  17  20
ATOM     20  O   UNL     1      11.008  53.964  36.209  1.00  0.00    -0.504 OA
ATOM     21  H   UNL     1      10.401  54.604  35.712  1.00  0.00     0.293 HD
ENDBRANCH  17  20
ENDBRANCH   1  12
BRANCH   2  22
ATOM     22  O   UNL     1      14.994  57.015  34.245  1.00  0.00    -0.502 OA
ATOM     23  H   UNL     1      15.058  58.026  34.250  1.00  0.00     0.293 HD
ENDBRANCH   2  22
BRANCH   6  24
ATOM     24  O   UNL     1      16.114  57.900  29.114  1.00  0.00    -0.507 OA
ATOM     25  H   UNL     1      16.124  58.638  29.801  1.00  0.00     0.293 HD
ENDBRANCH   6  24
BRANCH   8  26
ATOM     26  O   UNL     1      15.838  53.421  27.408  1.00  0.00    -0.508 OA
ATOM     27  H   UNL     1      16.227  52.492  27.525  1.00  0.00     0.293 HD
ENDBRANCH   8  26
TORSDOF 6
ENDMDL
MODEL 5
REMARK VINA RESULT:    -4.980      4.763      6.212
REMARK INTER + INTRA:          -6.317
REMARK INTER:                  -5.998
REMARK INTRA:                  -0.319
REMARK UNBOUND:                -0.317
REMARK SMILES O=c1c(O)c(-c2ccc(O)c(O)c2)oc2cc(O)cc(O)c12
REMARK SMILES IDX 5 1 3 2 2 3 1 4 22 5 20 6 19 7 17 8 16 9 15 10 14 11 6 12
REMARK SMILES IDX 7 13 8 14 9 15 13 16 11 17 10 18 12 20 4 22 21 24 18 26
REMARK H PARENT 10 19 12 21 4 23 21 25 18 27
REMARK Flexibility Score: inf
ROOT
ATOM      1  C   UNL     1      14.847  51.333  32.105  1.00  0.00     0.180 A 
ATOM      2  C   UNL     1      14.737  52.318  31.109  1.00  0.00     0.208 A 
ATOM      3  C   UNL     1      14.736  53.670  31.486  1.00  0.00     0.238 A 
ATOM      4  O   UNL     1      14.584  54.547  30.595  1.00  0.00    -0.285 OA
ATOM      5  C   UNL     1      14.862  54.021  32.852  1.00  0.00     0.111 A 
ATOM      6  C   UNL     1      14.913  55.360  33.343  1.00  0.00     0.134 A 
ATOM      7  C   UNL     1      14.907  55.589  34.725  1.00  0.00     0.093 A 
ATOM      8  C   UNL     1      14.916  54.526  35.632  1.00  0.00     0.123 A 
ATOM      9  C   UNL     1      14.927  53.215  35.161  1.00  0.00     0.094 A 
ATOM     10  C   UNL     1      14.897  52.955  33.788  1.00  0.00     0.146 A 
ATOM     11  O   UNL     1      14.896  51.691  33.382  1.00  0.00    -0.452 OA
ENDROOT
BRANCH   1  12
ATOM     12  C   UNL     1      14.880  49.887  31.784  1.00  0.00     0.025 A 
ATOM     13  C   UNL     1      13.706  49.113  31.771  1.00  0.00     0.016 A 
ATOM     14  C   UNL     1      13.759  47.756  31.442  1.00  0.00     0.051 A 
ATOM     15  C   UNL     1      14.980  47.156  31.109  1.00  0.00     0.157 A 
ATOM     16  C   UNL     1      16.099  49.285  31.429  1.00  0.00     0.062 A 
ATOM     17  C   UNL     1      16.154  47.926  31.100  1.00  0.00     0.158 A 
BRANCH  15  18
ATOM     18  O   UNL     1      15.029  45.801  30.784  1.00  0.00    -0.504 OA
ATOM     19  H   UNL     1      14.214  45.308  30.439  1.00  0.00     0.293 HD
ENDBRANCH  15  18
BRANCH  17  20
ATOM     20  O   UNL     1      17.385  47.360  30.767  1.00  0.00    -0.504 OA
ATOM     21  H   UNL     1      17.507  46.783  29.943  1.00  0.00     0.293 HD
ENDBRANCH  17  20
ENDBRANCH   1  12
BRANCH   2  22
ATOM     22  O   UNL     1      14.593  51.949  29.768  1.00  0.00    -0.502 OA
ATOM     23  H   UNL     1      15.357  52.000  29.105  1.00  0.00     0.293 HD
ENDBRANCH   2  22
BRANCH   6  24
ATOM     24  O   UNL     1      15.000  56.489  32.524  1.00  0.00    -0.507 OA
ATOM     25  H   UNL     1      15.017  56.468  31.516  1.00  0.00     0.293 HD
ENDBRANCH   6  24
BRANCH   8  26
ATOM     26  O   UNL     1      14.926  54.762  37.004  1.00  0.00    -0.508 OA
ATOM     27  H   UNL     1      14.140  55.199  37.472  1.00  0.00     0.293 HD
ENDBRANCH   8  26
TORSDOF 6
ENDMDL
MODEL 6
REMARK VINA RESULT:    -4.884      2.501      3.608
REMARK INTER + INTRA:          -6.201
REMARK INTER:                  -5.877
REMARK INTRA:                  -0.323
REMARK UNBOUND:                -0.317
REMARK SMILES O=c1c(O)c(-c2ccc(O)c(O)c2)oc2cc(O)cc(O)c12
REMARK SMILES IDX 5 1 3 2 2 3 1 4 22 5 20 6 19 7 17 8 16 9 15 10 14 11 6 12
REMARK SMILES IDX 7 13 8 14 9 15 13 16 11 17 10 18 12 20 4 22 21 24 18 26
REMARK H PARENT 10 19 12 21 4 23 21 25 18 27
REMARK Flexibility Score: inf
ROOT
ATOM      1  C   UNL     1      14.639  56.178  33.382  1.00  0.00     0.180 A 
ATOM      2  C   UNL     1      13.437  56.705  33.884  1.00  0.00     0.208 A 
ATOM      3  C   UNL     1      13.346  58.084  34.126  1.00  0.00     0.238 A 
ATOM      4  O   UNL     1      12.286  58.542  34.627  1.00  0.00    -0.285 OA
ATOM      5  C   UNL     1      14.453  58.922  33.848  1.00  0.00     0.111 A 
ATOM      6  C   UNL     1      14.458  60.340  34.016  1.00  0.00     0.134 A 
ATOM      7  C   UNL     1      15.650  61.052  33.834  1.00  0.00     0.093 A 
ATOM      8  C   UNL     1      16.820  60.406  33.425  1.00  0.00     0.123 A 
ATOM      9  C   UNL     1      16.809  59.032  33.200  1.00  0.00     0.094 A 
ATOM     10  C   UNL     1      15.644  58.288  33.408  1.00  0.00     0.146 A 
ATOM     11  O   UNL     1      15.680  56.979  33.193  1.00  0.00    -0.452 OA
ENDROOT
BRANCH   1  12
ATOM     12  C   UNL     1      14.803  54.737  33.078  1.00  0.00     0.025 A 
ATOM     13  C   UNL     1      15.233  53.826  34.059  1.00  0.00     0.016 A 
ATOM     14  C   UNL     1      15.358  52.468  33.755  1.00  0.00     0.051 A 
ATOM     15  C   UNL     1      15.042  51.998  32.474  1.00  0.00     0.157 A 
ATOM     16  C   UNL     1      14.468  54.257  31.801  1.00  0.00     0.062 A 
ATOM     17  C   UNL     1      14.593  52.898  31.494  1.00  0.00     0.158 A 
BRANCH  15  18
ATOM     18  O   UNL     1      15.171  50.643  32.174  1.00  0.00    -0.504 OA
ATOM     19  H   UNL     1      14.788  50.249  31.322  1.00  0.00     0.293 HD
ENDBRANCH  15  18
BRANCH  17  20
ATOM     20  O   UNL     1      14.264  52.460  30.210  1.00  0.00    -0.504 OA
ATOM     21  H   UNL     1      14.041  53.106  29.462  1.00  0.00     0.293 HD
ENDBRANCH  17  20
ENDBRANCH   1  12
BRANCH   2  22
ATOM     22  O   UNL     1      12.364  55.856  34.173  1.00  0.00    -0.502 OA
ATOM     23  H   UNL     1      11.917  55.834  35.082  1.00  0.00     0.293 HD
ENDBRANCH   2  22
BRANCH   6  24
ATOM     24  O   UNL     1      13.324  61.092  34.333  1.00  0.00    -0.507 OA
ATOM     25  H   UNL     1      13.307  61.858  34.989  1.00  0.00     0.293 HD
ENDBRANCH   6  24
BRANCH   8  26
ATOM     26  O   UNL     1      17.997  61.124  33.230  1.00  0.00    -0.508 OA
ATOM     27  H   UNL     1      18.015  61.972  32.673  1.00  0.00     0.293 HD
ENDBRANCH   8  26
TORSDOF 6
ENDMDL
MODEL 7
REMARK VINA RESULT:    -4.855      3.407      4.548
REMARK INTER + INTRA:          -6.165
REMARK INTER:                  -5.853
REMARK INTRA:                  -0.313
REMARK UNBOUND:                -0.317
REMARK SMILES O=c1c(O)c(-c2ccc(O)c(O)c2)oc2cc(O)cc(O)c12
REMARK SMILES IDX 5 1 3 2 2 3 1 4 22 5 20 6 19 7 17 8 16 9 15 10 14 11 6 12
REMARK SMILES IDX 7 13 8 14 9 15 13 16 11 17 10 18 12 20 4 22 21 24 18 26
REMARK H PARENT 10 19 12 21 4 23 21 25 18 27
REMARK Flexibility Score: inf
ROOT
ATOM      1  C   UNL     1      14.223  53.897  32.472  1.00  0.00     0.180 A 
ATOM      2  C   UNL     1      13.207  54.575  33.166  1.00  0.00     0.208 A 
ATOM      3  C   UNL     1      13.430  55.896  33.583  1.00  0.00     0.238 A 
ATOM      4  O   UNL     1      12.537  56.480  34.251  1.00  0.00    -0.285 OA
ATOM      5  C   UNL     1      14.662  56.529  33.286  1.00  0.00     0.111 A 
ATOM      6  C   UNL     1      14.981  57.878  33.625  1.00  0.00     0.134 A 
ATOM      7  C   UNL     1      16.278  58.359  33.398  1.00  0.00     0.093 A 
ATOM      8  C   UNL     1      17.246  57.559  32.786  1.00  0.00     0.123 A 
ATOM      9  C   UNL     1      16.925  56.260  32.397  1.00  0.00     0.094 A 
ATOM     10  C   UNL     1      15.651  55.740  32.643  1.00  0.00     0.146 A 
ATOM     11  O   UNL     1      15.391  54.494  32.267  1.00  0.00    -0.452 OA
ENDROOT
BRANCH   1  12
ATOM     12  C   UNL     1      14.053  52.511  31.979  1.00  0.00     0.025 A 
ATOM     13  C   UNL     1      14.482  51.406  32.736  1.00  0.00     0.016 A 
ATOM     14  C   UNL     1      14.289  50.106  32.260  1.00  0.00     0.051 A 
ATOM     15  C   UNL     1      13.654  49.890  31.031  1.00  0.00     0.157 A 
ATOM     16  C   UNL     1      13.399  52.287  30.756  1.00  0.00     0.062 A 
ATOM     17  C   UNL     1      13.205  50.987  30.277  1.00  0.00     0.158 A 
BRANCH  15  18
ATOM     18  O   UNL     1      13.467  48.592  30.558  1.00  0.00    -0.504 OA
ATOM     19  H   UNL     1      13.388  48.394  29.567  1.00  0.00     0.293 HD
ENDBRANCH  15  18
BRANCH  17  20
ATOM     20  O   UNL     1      12.564  50.805  29.051  1.00  0.00    -0.504 OA
ATOM     21  H   UNL     1      12.058  51.553  28.592  1.00  0.00     0.293 HD
ENDBRANCH  17  20
ENDBRANCH   1  12
BRANCH   2  22
ATOM     22  O   UNL     1      12.007  53.923  33.467  1.00  0.00    -0.502 OA
ATOM     23  H   UNL     1      11.979  53.004  33.894  1.00  0.00     0.293 HD
ENDBRANCH   2  22
BRANCH   6  24
ATOM     24  O   UNL     1      14.063  58.788  34.155  1.00  0.00    -0.507 OA
ATOM     25  H   UNL     1      13.240  59.120  33.675  1.00  0.00     0.293 HD
ENDBRANCH   6  24
BRANCH   8  26
ATOM     26  O   UNL     1      18.527  58.049  32.549  1.00  0.00    -0.508 OA
ATOM     27  H   UNL     1      18.686  58.849  31.946  1.00  0.00     0.293 HD
ENDBRANCH   8  26
TORSDOF 6
ENDMDL
MODEL 8
REMARK VINA RESULT:    -4.744      5.179      7.072
REMARK INTER + INTRA:          -6.032
REMARK INTER:                  -5.698
REMARK INTRA:                  -0.333
REMARK UNBOUND:                -0.317
REMARK SMILES O=c1c(O)c(-c2ccc(O)c(O)c2)oc2cc(O)cc(O)c12
REMARK SMILES IDX 5 1 3 2 2 3 1 4 22 5 20 6 19 7 17 8 16 9 15 10 14 11 6 12
REMARK SMILES IDX 7 13 8 14 9 15 13 16 11 17 10 18 12 20 4 22 21 24 18 26
REMARK H PARENT 10 19 12 21 4 23 21 25 18 27
REMARK Flexibility Score: inf
ROOT
ATOM      1  C   UNL     1      14.535  50.482  32.102  1.00  0.00     0.180 A 
ATOM      2  C   UNL     1      13.432  50.940  31.360  1.00  0.00     0.208 A 
ATOM      3  C   UNL     1      12.804  52.135  31.741  1.00  0.00     0.238 A 
ATOM      4  O   UNL     1      11.785  52.512  31.106  1.00  0.00    -0.285 OA
ATOM      5  C   UNL     1      13.295  52.867  32.849  1.00  0.00     0.111 A 
ATOM      6  C   UNL     1      12.761  54.112  33.299  1.00  0.00     0.134 A 
ATOM      7  C   UNL     1      13.243  54.682  34.485  1.00  0.00     0.093 A 
ATOM      8  C   UNL     1      14.284  54.085  35.200  1.00  0.00     0.123 A 
ATOM      9  C   UNL     1      14.852  52.901  34.737  1.00  0.00     0.094 A 
ATOM     10  C   UNL     1      14.369  52.289  33.577  1.00  0.00     0.146 A 
ATOM     11  O   UNL     1      14.931  51.156  33.176  1.00  0.00    -0.452 OA
ENDROOT
BRANCH   1  12
ATOM     12  C   UNL     1      15.265  49.243  31.747  1.00  0.00     0.025 A 
ATOM     13  C   UNL     1      16.352  49.265  30.855  1.00  0.00     0.016 A 
ATOM     14  C   UNL     1      17.041  48.087  30.553  1.00  0.00     0.051 A 
ATOM     15  C   UNL     1      16.665  46.875  31.147  1.00  0.00     0.157 A 
ATOM     16  C   UNL     1      14.904  48.029  32.355  1.00  0.00     0.062 A 
ATOM     17  C   UNL     1      15.592  46.848  32.053  1.00  0.00     0.158 A 
BRANCH  15  18
ATOM     18  O   UNL     1      17.352  45.702  30.840  1.00  0.00    -0.504 OA
ATOM     19  H   UNL     1      18.227  45.466  31.294  1.00  0.00     0.293 HD
ENDBRANCH  15  18
BRANCH  17  20
ATOM     20  O   UNL     1      15.196  45.659  32.666  1.00  0.00    -0.504 OA
ATOM     21  H   UNL     1      15.640  44.772  32.457  1.00  0.00     0.293 HD
ENDBRANCH  17  20
ENDBRANCH   1  12
BRANCH   2  22
ATOM     22  O   UNL     1      12.950  50.190  30.283  1.00  0.00    -0.502 OA
ATOM     23  H   UNL     1      11.974  49.937  30.191  1.00  0.00     0.293 HD
ENDBRANCH   2  22
BRANCH   6  24
ATOM     24  O   UNL     1      11.785  54.837  32.610  1.00  0.00    -0.507 OA
ATOM     25  H   UNL     1      10.917  54.453  32.270  1.00  0.00     0.293 HD
ENDBRANCH   6  24
BRANCH   8  26
ATOM     26  O   UNL     1      14.768  54.667  36.369  1.00  0.00    -0.508 OA
ATOM     27  H   UNL     1      14.306  54.527  37.261  1.00  0.00     0.293 HD
ENDBRANCH   8  26
TORSDOF 6
ENDMDL
MODEL 9
REMARK VINA RESULT:    -4.696      2.494      3.624
REMARK INTER + INTRA:          -5.975
REMARK INTER:                  -5.696
REMARK INTRA:                  -0.279
REMARK UNBOUND:                -0.317
REMARK SMILES O=c1c(O)c(-c2ccc(O)c(O)c2)oc2cc(O)cc(O)c12
REMARK SMILES IDX 5 1 3 2 2 3 1 4 22 5 20 6 19 7 17 8 16 9 15 10 14 11 6 12
REMARK SMILES IDX 7 13 8 14 9 15 13 16 11 17 10 18 12 20 4 22 21 24 18 26
REMARK H PARENT 10 19 12 21 4 23 21 25 18 27
REMARK Flexibility Score: inf
ROOT
ATOM      1  C   UNL     1      14.474  53.856  32.551  1.00  0.00     0.180 A 
ATOM      2  C   UNL     1      14.572  52.882  31.543  1.00  0.00     0.208 A 
ATOM      3  C   UNL     1      14.997  53.268  30.262  1.00  0.00     0.238 A 
ATOM      4  O   UNL     1      15.032  52.402  29.350  1.00  0.00    -0.285 OA
ATOM      5  C   UNL     1      15.335  54.619  30.010  1.00  0.00     0.111 A 
ATOM      6  C   UNL     1      15.816  55.115  28.760  1.00  0.00     0.134 A 
ATOM      7  C   UNL     1      15.994  56.493  28.586  1.00  0.00     0.093 A 
ATOM      8  C   UNL     1      15.770  57.387  29.636  1.00  0.00     0.123 A 
ATOM      9  C   UNL     1      15.358  56.907  30.877  1.00  0.00     0.094 A 
ATOM     10  C   UNL     1      15.137  55.541  31.071  1.00  0.00     0.146 A 
ATOM     11  O   UNL     1      14.733  55.127  32.266  1.00  0.00    -0.452 OA
ENDROOT
BRANCH   1  12
ATOM     12  C   UNL     1      14.057  53.522  33.933  1.00  0.00     0.025 A 
ATOM     13  C   UNL     1      14.926  52.864  34.821  1.00  0.00     0.016 A 
ATOM     14  C   UNL     1      14.519  52.580  36.127  1.00  0.00     0.051 A 
ATOM     15  C   UNL     1      13.246  52.961  36.569  1.00  0.00     0.157 A 
ATOM     16  C   UNL     1      12.788  53.920  34.388  1.00  0.00     0.062 A 
ATOM     17  C   UNL     1      12.378  53.636  35.695  1.00  0.00     0.158 A 
BRANCH  15  18
ATOM     18  O   UNL     1      12.841  52.673  37.873  1.00  0.00    -0.504 OA
ATOM     19  H   UNL     1      13.085  51.798  38.322  1.00  0.00     0.293 HD
ENDBRANCH  15  18
BRANCH  17  20
ATOM     20  O   UNL     1      11.106  54.034  36.107  1.00  0.00    -0.504 OA
ATOM     21  H   UNL     1      10.965  54.668  36.884  1.00  0.00     0.293 HD
ENDBRANCH  17  20
ENDBRANCH   1  12
BRANCH   2  22
ATOM     22  O   UNL     1      14.213  51.557  31.809  1.00  0.00    -0.502 OA
ATOM     23  H   UNL     1      13.695  51.290  32.638  1.00  0.00     0.293 HD
ENDBRANCH   2  22
BRANCH   6  24
ATOM     24  O   UNL     1      16.158  54.300  27.678  1.00  0.00    -0.507 OA
ATOM     25  H   UNL     1      16.381  53.318  27.745  1.00  0.00     0.293 HD
ENDBRANCH   6  24
BRANCH   8  26
ATOM     26  O   UNL     1      15.965  58.754  29.460  1.00  0.00    -0.508 OA
ATOM     27  H   UNL     1      15.714  59.423  30.179  1.00  0.00     0.293 HD
ENDBRANCH   8  26
TORSDOF 6
ENDMDL
