MODEL 1
REMARK VINA RESULT:    -3.499      0.000      0.000
REMARK INTER + INTRA:          -9.261
REMARK INTER:                  -6.771
REMARK INTRA:                  -2.489
REMARK UNBOUND:                -2.489
REMARK SMILES CCCCCCCCCCCCCCCCCC(=O)[O-]
REMARK SMILES IDX 10 1 11 2 12 3 13 4 14 5 15 6 16 7 17 8 18 9 19 10 20 11
REMARK SMILES IDX 9 12 8 13 7 14 6 15 5 16 4 17 3 18 2 19 1 20
REMARK H PARENT
REMARK Flexibility Score: inf
ROOT
ATOM      1  C   UNL     1       9.220 -28.835  18.525  1.00  0.00     0.000 C 
ENDROOT
BRANCH   1   2
ATOM      2  C   UNL     1      10.077 -28.049  17.517  1.00  0.00     0.000 C 
BRANCH   2   3
ATOM      3  C   UNL     1      10.120 -28.706  16.125  1.00  0.00     0.000 C 
BRANCH   3   4
ATOM      4  C   UNL     1      11.343 -28.332  15.268  1.00  0.00     0.000 C 
BRANCH   4   5
ATOM      5  C   UNL     1      11.282 -28.920  13.849  1.00  0.00     0.000 C 
BRANCH   5   6
ATOM      6  C   UNL     1       9.876 -29.416  13.467  1.00  0.00     0.000 C 
BRANCH   6   7
ATOM      7  C   UNL     1       9.820 -30.301  12.205  1.00  0.00     0.006 C 
BRANCH   7   8
ATOM      8  C   UNL     1      10.980 -31.300  12.072  1.00  0.00     0.053 C 
BRANCH   8   9
ATOM      9  C   UNL     1      10.612 -32.659  12.582  1.00  0.00     0.041 C 
ATOM     10  O   UNL     1       9.727 -33.337  11.996  1.00  0.00    -0.550 OA
ATOM     11  O   UNL     1      11.222 -33.164  13.724  1.00  0.00    -0.550 OA
ENDBRANCH   8   9
ENDBRANCH   7   8
ENDBRANCH   6   7
ENDBRANCH   5   6
ENDBRANCH   4   5
ENDBRANCH   3   4
ENDBRANCH   2   3
ENDBRANCH   1   2
BRANCH   1  12
ATOM     12  C   UNL     1       8.322 -29.880  17.843  1.00  0.00     0.000 C 
BRANCH  12  13
ATOM     13  C   UNL     1       6.834 -29.692  18.187  1.00  0.00    -0.000 C 
BRANCH  13  14
ATOM     14  C   UNL     1       5.917 -29.768  16.953  1.00  0.00    -0.000 C 
BRANCH  14  15
ATOM     15  C   UNL     1       6.640 -29.950  15.605  1.00  0.00    -0.000 C 
BRANCH  15  16
ATOM     16  C   UNL     1       6.155 -31.183  14.825  1.00  0.00    -0.000 C 
BRANCH  16  17
ATOM     17  C   UNL     1       7.311 -32.018  14.245  1.00  0.00    -0.000 C 
BRANCH  17  18
ATOM     18  C   UNL     1       7.803 -33.175  15.138  1.00  0.00    -0.000 C 
BRANCH  18  19
ATOM     19  C   UNL     1       6.807 -33.633  16.218  1.00  0.00    -0.003 C 
ATOM     20  C   UNL     1       7.319 -33.400  17.638  1.00  0.00     0.004 C 
ENDBRANCH  18  19
ENDBRANCH  17  18
ENDBRANCH  16  17
ENDBRANCH  15  16
ENDBRANCH  14  15
ENDBRANCH  13  14
ENDBRANCH  12  13
ENDBRANCH   1  12
TORSDOF 16
ENDMDL
MODEL 2
REMARK VINA RESULT:    -3.479      1.271      1.824
REMARK INTER + INTRA:          -9.222
REMARK INTER:                  -6.746
REMARK INTRA:                  -2.476
REMARK UNBOUND:                -2.489
REMARK SMILES CCCCCCCCCCCCCCCCCC(=O)[O-]
REMARK SMILES IDX 10 1 11 2 12 3 13 4 14 5 15 6 16 7 17 8 18 9 19 10 20 11
REMARK SMILES IDX 9 12 8 13 7 14 6 15 5 16 4 17 3 18 2 19 1 20
REMARK H PARENT
REMARK Flexibility Score: inf
ROOT
ATOM      1  C   UNL     1       9.378 -28.738  17.946  1.00  0.00     0.000 C 
ENDROOT
BRANCH   1   2
ATOM      2  C   UNL     1      10.221 -28.454  16.689  1.00  0.00     0.000 C 
BRANCH   2   3
ATOM      3  C   UNL     1       9.695 -29.179  15.438  1.00  0.00     0.000 C 
BRANCH   3   4
ATOM      4  C   UNL     1      10.648 -29.163  14.229  1.00  0.00     0.000 C 
BRANCH   4   5
ATOM      5  C   UNL     1       9.912 -29.284  12.884  1.00  0.00     0.000 C 
BRANCH   5   6
ATOM      6  C   UNL     1      10.425 -30.453  12.024  1.00  0.00     0.000 C 
BRANCH   6   7
ATOM      7  C   UNL     1      11.238 -31.516  12.791  1.00  0.00     0.006 C 
BRANCH   7   8
ATOM      8  C   UNL     1      11.898 -32.581  11.901  1.00  0.00     0.053 C 
BRANCH   8   9
ATOM      9  C   UNL     1      12.002 -33.905  12.592  1.00  0.00     0.041 C 
ATOM     10  O   UNL     1      11.976 -34.972  11.924  1.00  0.00    -0.550 OA
ATOM     11  O   UNL     1      12.093 -33.963  13.978  1.00  0.00    -0.550 OA
ENDBRANCH   8   9
ENDBRANCH   7   8
ENDBRANCH   6   7
ENDBRANCH   5   6
ENDBRANCH   4   5
ENDBRANCH   3   4
ENDBRANCH   2   3
ENDBRANCH   1   2
BRANCH   1  12
ATOM     12  C   UNL     1       8.409 -29.914  17.749  1.00  0.00     0.000 C 
BRANCH  12  13
ATOM     13  C   UNL     1       6.994 -29.605  18.267  1.00  0.00    -0.000 C 
BRANCH  13  14
ATOM     14  C   UNL     1       5.935 -29.581  17.148  1.00  0.00    -0.000 C 
BRANCH  14  15
ATOM     15  C   UNL     1       5.993 -30.762  16.161  1.00  0.00    -0.000 C 
BRANCH  15  16
ATOM     16  C   UNL     1       6.375 -30.334  14.735  1.00  0.00    -0.000 C 
BRANCH  16  17
ATOM     17  C   UNL     1       7.160 -31.418  13.974  1.00  0.00    -0.000 C 
BRANCH  17  18
ATOM     18  C   UNL     1       7.756 -32.539  14.850  1.00  0.00    -0.000 C 
BRANCH  18  19
ATOM     19  C   UNL     1       8.611 -33.572  14.094  1.00  0.00    -0.003 C 
ATOM     20  C   UNL     1       8.156 -33.778  12.651  1.00  0.00     0.004 C 
ENDBRANCH  18  19
ENDBRANCH  17  18
ENDBRANCH  16  17
ENDBRANCH  15  16
ENDBRANCH  14  15
ENDBRANCH  13  14
ENDBRANCH  12  13
ENDBRANCH   1  12
TORSDOF 16
ENDMDL
MODEL 3
REMARK VINA RESULT:    -3.451      2.389      5.515
REMARK INTER + INTRA:          -9.169
REMARK INTER:                  -6.519
REMARK INTRA:                  -2.649
REMARK UNBOUND:                -2.489
REMARK SMILES CCCCCCCCCCCCCCCCCC(=O)[O-]
REMARK SMILES IDX 10 1 11 2 12 3 13 4 14 5 15 6 16 7 17 8 18 9 19 10 20 11
REMARK SMILES IDX 9 12 8 13 7 14 6 15 5 16 4 17 3 18 2 19 1 20
REMARK H PARENT
REMARK Flexibility Score: inf
ROOT
ATOM      1  C   UNL     1       7.490 -33.551  14.892  1.00  0.00     0.000 C 
ENDROOT
BRANCH   1   2
ATOM      2  C   UNL     1       7.834 -32.412  15.868  1.00  0.00     0.000 C 
BRANCH   2   3
ATOM      3  C   UNL     1       6.635 -31.980  16.732  1.00  0.00     0.000 C 
BRANCH   3   4
ATOM      4  C   UNL     1       6.155 -30.535  16.501  1.00  0.00     0.000 C 
BRANCH   4   5
ATOM      5  C   UNL     1       6.388 -29.625  17.719  1.00  0.00     0.000 C 
BRANCH   5   6
ATOM      6  C   UNL     1       7.549 -30.101  18.608  1.00  0.00     0.000 C 
BRANCH   6   7
ATOM      7  C   UNL     1       8.912 -29.447  18.302  1.00  0.00     0.006 C 
BRANCH   7   8
ATOM      8  C   UNL     1       9.128 -29.080  16.826  1.00  0.00     0.053 C 
BRANCH   8   9
ATOM      9  C   UNL     1      10.286 -28.149  16.641  1.00  0.00     0.041 C 
ATOM     10  O   UNL     1      10.393 -27.122  17.362  1.00  0.00    -0.550 OA
ATOM     11  O   UNL     1      11.228 -28.394  15.650  1.00  0.00    -0.550 OA
ENDBRANCH   8   9
ENDBRANCH   7   8
ENDBRANCH   6   7
ENDBRANCH   5   6
ENDBRANCH   4   5
ENDBRANCH   3   4
ENDBRANCH   2   3
ENDBRANCH   1   2
BRANCH   1  12
ATOM     12  C   UNL     1       6.361 -33.171  13.921  1.00  0.00     0.000 C 
BRANCH  12  13
ATOM     13  C   UNL     1       6.847 -33.063  12.465  1.00  0.00    -0.000 C 
BRANCH  13  14
ATOM     14  C   UNL     1       6.682 -31.649  11.879  1.00  0.00    -0.000 C 
BRANCH  14  15
ATOM     15  C   UNL     1       6.320 -30.552  12.898  1.00  0.00    -0.000 C 
BRANCH  15  16
ATOM     16  C   UNL     1       7.512 -29.650  13.258  1.00  0.00    -0.000 C 
BRANCH  16  17
ATOM     17  C   UNL     1       8.503 -29.473  12.093  1.00  0.00    -0.000 C 
BRANCH  17  18
ATOM     18  C   UNL     1       9.970 -29.822  12.417  1.00  0.00    -0.000 C 
BRANCH  18  19
ATOM     19  C   UNL     1      10.160 -30.899  13.499  1.00  0.00    -0.003 C 
ATOM     20  C   UNL     1      10.477 -32.277  12.919  1.00  0.00     0.004 C 
ENDBRANCH  18  19
ENDBRANCH  17  18
ENDBRANCH  16  17
ENDBRANCH  15  16
ENDBRANCH  14  15
ENDBRANCH  13  14
ENDBRANCH  12  13
ENDBRANCH   1  12
TORSDOF 16
ENDMDL
MODEL 4
REMARK VINA RESULT:    -3.354      1.971      4.723
REMARK INTER + INTRA:          -8.980
REMARK INTER:                  -6.898
REMARK INTRA:                  -2.082
REMARK UNBOUND:                -2.489
REMARK SMILES CCCCCCCCCCCCCCCCCC(=O)[O-]
REMARK SMILES IDX 10 1 11 2 12 3 13 4 14 5 15 6 16 7 17 8 18 9 19 10 20 11
REMARK SMILES IDX 9 12 8 13 7 14 6 15 5 16 4 17 3 18 2 19 1 20
REMARK H PARENT
REMARK Flexibility Score: inf
ROOT
ATOM      1  C   UNL     1       9.561 -28.701  17.904  1.00  0.00     0.000 C 
ENDROOT
BRANCH   1   2
ATOM      2  C   UNL     1       8.638 -29.927  17.784  1.00  0.00     0.000 C 
BRANCH   2   3
ATOM      3  C   UNL     1       7.304 -29.749  18.531  1.00  0.00     0.000 C 
BRANCH   3   4
ATOM      4  C   UNL     1       6.069 -29.592  17.625  1.00  0.00     0.000 C 
BRANCH   4   5
ATOM      5  C   UNL     1       6.412 -29.669  16.128  1.00  0.00     0.000 C 
BRANCH   5   6
ATOM      6  C   UNL     1       6.071 -31.034  15.505  1.00  0.00     0.000 C 
BRANCH   6   7
ATOM      7  C   UNL     1       7.198 -31.662  14.660  1.00  0.00     0.006 C 
BRANCH   7   8
ATOM      8  C   UNL     1       8.011 -32.746  15.384  1.00  0.00     0.053 C 
BRANCH   8   9
ATOM      9  C   UNL     1       7.198 -33.463  16.418  1.00  0.00     0.041 C 
ATOM     10  O   UNL     1       7.377 -33.224  17.641  1.00  0.00    -0.550 OA
ATOM     11  O   UNL     1       6.268 -34.420  16.032  1.00  0.00    -0.550 OA
ENDBRANCH   8   9
ENDBRANCH   7   8
ENDBRANCH   6   7
ENDBRANCH   5   6
ENDBRANCH   4   5
ENDBRANCH   3   4
ENDBRANCH   2   3
ENDBRANCH   1   2
BRANCH   1  12
ATOM     12  C   UNL     1      10.279 -28.376  16.584  1.00  0.00     0.000 C 
BRANCH  12  13
ATOM     13  C   UNL     1       9.721 -29.178  15.396  1.00  0.00    -0.000 C 
BRANCH  13  14
ATOM     14  C   UNL     1      10.653 -29.167  14.171  1.00  0.00    -0.000 C 
BRANCH  14  15
ATOM     15  C   UNL     1       9.956 -29.359  12.811  1.00  0.00    -0.000 C 
BRANCH  15  16
ATOM     16  C   UNL     1      10.299 -30.701  12.144  1.00  0.00    -0.000 C 
BRANCH  16  17
ATOM     17  C   UNL     1      11.396 -31.479  12.893  1.00  0.00    -0.000 C 
BRANCH  17  18
ATOM     18  C   UNL     1      11.689 -32.894  12.352  1.00  0.00    -0.000 C 
BRANCH  18  19
ATOM     19  C   UNL     1      11.743 -34.001  13.420  1.00  0.00    -0.003 C 
ATOM     20  C   UNL     1      10.731 -35.117  13.172  1.00  0.00     0.004 C 
ENDBRANCH  18  19
ENDBRANCH  17  18
ENDBRANCH  16  17
ENDBRANCH  15  16
ENDBRANCH  14  15
ENDBRANCH  13  14
ENDBRANCH  12  13
ENDBRANCH   1  12
TORSDOF 16
ENDMDL
MODEL 5
REMARK VINA RESULT:    -3.195      1.258      3.281
REMARK INTER + INTRA:          -8.672
REMARK INTER:                  -6.282
REMARK INTRA:                  -2.391
REMARK UNBOUND:                -2.489
REMARK SMILES CCCCCCCCCCCCCCCCCC(=O)[O-]
REMARK SMILES IDX 10 1 11 2 12 3 13 4 14 5 15 6 16 7 17 8 18 9 19 10 20 11
REMARK SMILES IDX 9 12 8 13 7 14 6 15 5 16 4 17 3 18 2 19 1 20
REMARK H PARENT
REMARK Flexibility Score: inf
ROOT
ATOM      1  C   UNL     1      10.772 -28.733  14.881  1.00  0.00     0.000 C 
ENDROOT
BRANCH   1   2
ATOM      2  C   UNL     1      10.608 -29.741  13.729  1.00  0.00     0.000 C 
BRANCH   2   3
ATOM      3  C   UNL     1       9.868 -29.149  12.515  1.00  0.00     0.000 C 
BRANCH   3   4
ATOM      4  C   UNL     1       8.613 -29.925  12.078  1.00  0.00     0.000 C 
BRANCH   4   5
ATOM      5  C   UNL     1       7.912 -30.636  13.248  1.00  0.00     0.000 C 
BRANCH   5   6
ATOM      6  C   UNL     1       7.612 -32.117  12.955  1.00  0.00     0.000 C 
BRANCH   6   7
ATOM      7  C   UNL     1       8.847 -32.973  12.602  1.00  0.00     0.006 C 
BRANCH   7   8
ATOM      8  C   UNL     1       9.798 -33.237  13.779  1.00  0.00     0.053 C 
BRANCH   8   9
ATOM      9  C   UNL     1      11.221 -33.369  13.333  1.00  0.00     0.041 C 
ATOM     10  O   UNL     1      12.038 -34.043  14.014  1.00  0.00    -0.550 OA
ATOM     11  O   UNL     1      11.655 -32.719  12.184  1.00  0.00    -0.550 OA
ENDBRANCH   8   9
ENDBRANCH   7   8
ENDBRANCH   6   7
ENDBRANCH   5   6
ENDBRANCH   4   5
ENDBRANCH   3   4
ENDBRANCH   2   3
ENDBRANCH   1   2
BRANCH   1  12
ATOM     12  C   UNL     1       9.686 -28.889  15.958  1.00  0.00     0.000 C 
BRANCH  12  13
ATOM     13  C   UNL     1      10.109 -28.293  17.312  1.00  0.00    -0.000 C 
BRANCH  13  14
ATOM     14  C   UNL     1       9.418 -28.971  18.509  1.00  0.00    -0.000 C 
BRANCH  14  15
ATOM     15  C   UNL     1       7.940 -28.592  18.718  1.00  0.00    -0.000 C 
BRANCH  15  16
ATOM     16  C   UNL     1       6.985 -29.787  18.557  1.00  0.00    -0.000 C 
BRANCH  16  17
ATOM     17  C   UNL     1       6.289 -29.817  17.184  1.00  0.00    -0.000 C 
BRANCH  17  18
ATOM     18  C   UNL     1       6.380 -31.158  16.427  1.00  0.00    -0.000 C 
BRANCH  18  19
ATOM     19  C   UNL     1       7.632 -31.997  16.737  1.00  0.00    -0.003 C 
ATOM     20  C   UNL     1       7.301 -33.354  17.356  1.00  0.00     0.004 C 
ENDBRANCH  18  19
ENDBRANCH  17  18
ENDBRANCH  16  17
ENDBRANCH  15  16
ENDBRANCH  14  15
ENDBRANCH  13  14
ENDBRANCH  12  13
ENDBRANCH   1  12
TORSDOF 16
ENDMDL
MODEL 6
REMARK VINA RESULT:    -3.186      2.544      5.547
REMARK INTER + INTRA:          -8.655
REMARK INTER:                  -6.354
REMARK INTRA:                  -2.301
REMARK UNBOUND:                -2.489
REMARK SMILES CCCCCCCCCCCCCCCCCC(=O)[O-]
REMARK SMILES IDX 10 1 11 2 12 3 13 4 14 5 15 6 16 7 17 8 18 9 19 10 20 11
REMARK SMILES IDX 9 12 8 13 7 14 6 15 5 16 4 17 3 18 2 19 1 20
REMARK H PARENT
REMARK Flexibility Score: inf
ROOT
ATOM      1  C   UNL     1       9.621 -29.463  14.349  1.00  0.00     0.000 C 
ENDROOT
BRANCH   1   2
ATOM      2  C   UNL     1       8.618 -30.620  14.197  1.00  0.00     0.000 C 
BRANCH   2   3
ATOM      3  C   UNL     1       7.322 -30.200  13.479  1.00  0.00     0.000 C 
BRANCH   3   4
ATOM      4  C   UNL     1       6.035 -30.386  14.304  1.00  0.00     0.000 C 
BRANCH   4   5
ATOM      5  C   UNL     1       6.311 -30.794  15.760  1.00  0.00     0.000 C 
BRANCH   5   6
ATOM      6  C   UNL     1       6.115 -29.636  16.754  1.00  0.00     0.000 C 
BRANCH   6   7
ATOM      7  C   UNL     1       6.869 -29.793  18.091  1.00  0.00     0.006 C 
BRANCH   7   8
ATOM      8  C   UNL     1       8.360 -30.134  17.948  1.00  0.00     0.053 C 
BRANCH   8   9
ATOM      9  C   UNL     1       9.239 -29.043  18.477  1.00  0.00     0.041 C 
ATOM     10  O   UNL     1       9.360 -28.873  19.719  1.00  0.00    -0.550 OA
ATOM     11  O   UNL     1       9.898 -28.191  17.599  1.00  0.00    -0.550 OA
ENDBRANCH   8   9
ENDBRANCH   7   8
ENDBRANCH   6   7
ENDBRANCH   5   6
ENDBRANCH   4   5
ENDBRANCH   3   4
ENDBRANCH   2   3
ENDBRANCH   1   2
BRANCH   1  12
ATOM     12  C   UNL     1      10.888 -29.668  13.503  1.00  0.00     0.000 C 
BRANCH  12  13
ATOM     13  C   UNL     1      10.701 -30.735  12.411  1.00  0.00    -0.000 C 
BRANCH  13  14
ATOM     14  C   UNL     1      11.344 -32.087  12.773  1.00  0.00    -0.000 C 
BRANCH  14  15
ATOM     15  C   UNL     1      10.752 -33.312  12.052  1.00  0.00    -0.000 C 
BRANCH  15  16
ATOM     16  C   UNL     1       9.633 -33.998  12.854  1.00  0.00    -0.000 C 
BRANCH  16  17
ATOM     17  C   UNL     1       8.230 -33.712  12.290  1.00  0.00    -0.000 C 
BRANCH  17  18
ATOM     18  C   UNL     1       7.062 -33.963  13.266  1.00  0.00    -0.000 C 
BRANCH  18  19
ATOM     19  C   UNL     1       7.466 -34.088  14.746  1.00  0.00    -0.003 C 
ATOM     20  C   UNL     1       6.303 -34.498  15.647  1.00  0.00     0.004 C 
ENDBRANCH  18  19
ENDBRANCH  17  18
ENDBRANCH  16  17
ENDBRANCH  15  16
ENDBRANCH  14  15
ENDBRANCH  13  14
ENDBRANCH  12  13
ENDBRANCH   1  12
TORSDOF 16
ENDMDL
MODEL 7
REMARK VINA RESULT:    -3.185      1.502      3.614
REMARK INTER + INTRA:          -8.654
REMARK INTER:                  -6.227
REMARK INTRA:                  -2.427
REMARK UNBOUND:                -2.489
REMARK SMILES CCCCCCCCCCCCCCCCCC(=O)[O-]
REMARK SMILES IDX 10 1 11 2 12 3 13 4 14 5 15 6 16 7 17 8 18 9 19 10 20 11
REMARK SMILES IDX 9 12 8 13 7 14 6 15 5 16 4 17 3 18 2 19 1 20
REMARK H PARENT
REMARK Flexibility Score: inf
ROOT
ATOM      1  C   UNL     1      11.106 -28.759  14.316  1.00  0.00     0.000 C 
ENDROOT
BRANCH   1   2
ATOM      2  C   UNL     1       9.865 -29.513  13.804  1.00  0.00     0.000 C 
BRANCH   2   3
ATOM      3  C   UNL     1       9.567 -29.238  12.318  1.00  0.00     0.000 C 
BRANCH   3   4
ATOM      4  C   UNL     1       8.079 -29.317  11.930  1.00  0.00     0.000 C 
BRANCH   4   5
ATOM      5  C   UNL     1       7.177 -29.745  13.099  1.00  0.00     0.000 C 
BRANCH   5   6
ATOM      6  C   UNL     1       6.060 -30.712  12.671  1.00  0.00     0.000 C 
BRANCH   6   7
ATOM      7  C   UNL     1       6.547 -32.008  11.990  1.00  0.00     0.006 C 
BRANCH   7   8
ATOM      8  C   UNL     1       6.862 -33.159  12.958  1.00  0.00     0.053 C 
BRANCH   8   9
ATOM      9  C   UNL     1       8.328 -33.459  13.017  1.00  0.00     0.041 C 
ATOM     10  O   UNL     1       9.149 -32.727  12.405  1.00  0.00    -0.550 OA
ATOM     11  O   UNL     1       8.784 -34.567  13.720  1.00  0.00    -0.550 OA
ENDBRANCH   8   9
ENDBRANCH   7   8
ENDBRANCH   6   7
ENDBRANCH   5   6
ENDBRANCH   4   5
ENDBRANCH   3   4
ENDBRANCH   2   3
ENDBRANCH   1   2
BRANCH   1  12
ATOM     12  C   UNL     1      10.966 -28.327  15.784  1.00  0.00     0.000 C 
BRANCH  12  13
ATOM     13  C   UNL     1       9.645 -28.801  16.415  1.00  0.00    -0.000 C 
BRANCH  13  14
ATOM     14  C   UNL     1       9.668 -28.770  17.954  1.00  0.00    -0.000 C 
BRANCH  14  15
ATOM     15  C   UNL     1       8.287 -28.692  18.631  1.00  0.00    -0.000 C 
BRANCH  15  16
ATOM     16  C   UNL     1       7.477 -29.992  18.496  1.00  0.00    -0.000 C 
BRANCH  16  17
ATOM     17  C   UNL     1       6.300 -29.865  17.511  1.00  0.00    -0.000 C 
BRANCH  17  18
ATOM     18  C   UNL     1       6.234 -30.952  16.418  1.00  0.00    -0.000 C 
BRANCH  18  19
ATOM     19  C   UNL     1       7.477 -31.854  16.321  1.00  0.00    -0.003 C 
ATOM     20  C   UNL     1       7.198 -33.298  16.735  1.00  0.00     0.004 C 
ENDBRANCH  18  19
ENDBRANCH  17  18
ENDBRANCH  16  17
ENDBRANCH  15  16
ENDBRANCH  14  15
ENDBRANCH  13  14
ENDBRANCH  12  13
ENDBRANCH   1  12
TORSDOF 16
ENDMDL
MODEL 8
REMARK VINA RESULT:    -3.054      2.528      6.242
REMARK INTER + INTRA:          -8.400
REMARK INTER:                  -6.314
REMARK INTRA:                  -2.087
REMARK UNBOUND:                -2.489
REMARK SMILES CCCCCCCCCCCCCCCCCC(=O)[O-]
REMARK SMILES IDX 10 1 11 2 12 3 13 4 14 5 15 6 16 7 17 8 18 9 19 10 20 11
REMARK SMILES IDX 9 12 8 13 7 14 6 15 5 16 4 17 3 18 2 19 1 20
REMARK H PARENT
REMARK Flexibility Score: inf
ROOT
ATOM      1  C   UNL     1       8.760 -33.393  13.930  1.00  0.00     0.000 C 
ENDROOT
BRANCH   1   2
ATOM      2  C   UNL     1       7.751 -34.547  13.797  1.00  0.00     0.000 C 
BRANCH   2   3
ATOM      3  C   UNL     1       6.682 -34.540  14.905  1.00  0.00     0.000 C 
BRANCH   3   4
ATOM      4  C   UNL     1       6.544 -33.208  15.666  1.00  0.00     0.000 C 
BRANCH   4   5
ATOM      5  C   UNL     1       7.076 -33.284  17.106  1.00  0.00     0.000 C 
BRANCH   5   6
ATOM      6  C   UNL     1       8.091 -32.172  17.428  1.00  0.00     0.000 C 
BRANCH   6   7
ATOM      7  C   UNL     1       7.482 -30.764  17.590  1.00  0.00     0.006 C 
BRANCH   7   8
ATOM      8  C   UNL     1       8.252 -29.648  16.866  1.00  0.00     0.053 C 
BRANCH   8   9
ATOM      9  C   UNL     1       9.235 -28.968  17.767  1.00  0.00     0.041 C 
ATOM     10  O   UNL     1       9.002 -28.873  19.001  1.00  0.00    -0.550 OA
ATOM     11  O   UNL     1      10.391 -28.407  17.240  1.00  0.00    -0.550 OA
ENDBRANCH   8   9
ENDBRANCH   7   8
ENDBRANCH   6   7
ENDBRANCH   5   6
ENDBRANCH   4   5
ENDBRANCH   3   4
ENDBRANCH   2   3
ENDBRANCH   1   2
BRANCH   1  12
ATOM     12  C   UNL     1      10.016 -33.609  13.070  1.00  0.00     0.000 C 
BRANCH  12  13
ATOM     13  C   UNL     1      10.089 -32.638  11.879  1.00  0.00    -0.000 C 
BRANCH  13  14
ATOM     14  C   UNL     1      11.067 -31.472  12.111  1.00  0.00    -0.000 C 
BRANCH  14  15
ATOM     15  C   UNL     1      10.807 -30.637  13.380  1.00  0.00    -0.000 C 
BRANCH  15  16
ATOM     16  C   UNL     1      10.335 -29.207  13.070  1.00  0.00    -0.000 C 
BRANCH  16  17
ATOM     17  C   UNL     1       9.040 -29.170  12.238  1.00  0.00    -0.000 C 
BRANCH  17  18
ATOM     18  C   UNL     1       7.827 -29.881  12.873  1.00  0.00    -0.000 C 
BRANCH  18  19
ATOM     19  C   UNL     1       6.760 -30.365  11.875  1.00  0.00    -0.003 C 
ATOM     20  C   UNL     1       5.875 -31.474  12.442  1.00  0.00     0.004 C 
ENDBRANCH  18  19
ENDBRANCH  17  18
ENDBRANCH  16  17
ENDBRANCH  15  16
ENDBRANCH  14  15
ENDBRANCH  13  14
ENDBRANCH  12  13
ENDBRANCH   1  12
TORSDOF 16
ENDMDL
MODEL 9
REMARK VINA RESULT:    -3.013      1.967      3.850
REMARK INTER + INTRA:          -8.320
REMARK INTER:                  -6.024
REMARK INTRA:                  -2.296
REMARK UNBOUND:                -2.489
REMARK SMILES CCCCCCCCCCCCCCCCCC(=O)[O-]
REMARK SMILES IDX 10 1 11 2 12 3 13 4 14 5 15 6 16 7 17 8 18 9 19 10 20 11
REMARK SMILES IDX 9 12 8 13 7 14 6 15 5 16 4 17 3 18 2 19 1 20
REMARK H PARENT
REMARK Flexibility Score: inf
ROOT
ATOM      1  C   UNL     1       7.908 -31.101  17.481  1.00  0.00     0.000 C 
ENDROOT
BRANCH   1   2
ATOM      2  C   UNL     1       6.625 -30.250  17.523  1.00  0.00     0.000 C 
BRANCH   2   3
ATOM      3  C   UNL     1       6.068 -29.937  16.123  1.00  0.00     0.000 C 
BRANCH   3   4
ATOM      4  C   UNL     1       7.129 -29.823  15.012  1.00  0.00     0.000 C 
BRANCH   4   5
ATOM      5  C   UNL     1       6.587 -30.208  13.626  1.00  0.00     0.000 C 
BRANCH   5   6
ATOM      6  C   UNL     1       7.273 -29.441  12.481  1.00  0.00     0.000 C 
BRANCH   6   7
ATOM      7  C   UNL     1       8.510 -30.141  11.881  1.00  0.00     0.006 C 
BRANCH   7   8
ATOM      8  C   UNL     1       9.825 -29.363  12.041  1.00  0.00     0.053 C 
BRANCH   8   9
ATOM      9  C   UNL     1      10.477 -29.625  13.363  1.00  0.00     0.041 C 
ATOM     10  O   UNL     1      10.271 -30.711  13.966  1.00  0.00    -0.550 OA
ATOM     11  O   UNL     1      11.283 -28.657  13.948  1.00  0.00    -0.550 OA
ENDBRANCH   8   9
ENDBRANCH   7   8
ENDBRANCH   6   7
ENDBRANCH   5   6
ENDBRANCH   4   5
ENDBRANCH   3   4
ENDBRANCH   2   3
ENDBRANCH   1   2
BRANCH   1  12
ATOM     12  C   UNL     1       7.612 -32.609  17.487  1.00  0.00     0.000 C 
BRANCH  12  13
ATOM     13  C   UNL     1       7.676 -33.228  16.080  1.00  0.00    -0.000 C 
BRANCH  13  14
ATOM     14  C   UNL     1       6.287 -33.562  15.506  1.00  0.00    -0.000 C 
BRANCH  14  15
ATOM     15  C   UNL     1       6.251 -33.851  13.993  1.00  0.00    -0.000 C 
BRANCH  15  16
ATOM     16  C   UNL     1       7.572 -34.431  13.462  1.00  0.00    -0.000 C 
BRANCH  16  17
ATOM     17  C   UNL     1       8.135 -33.641  12.266  1.00  0.00    -0.000 C 
BRANCH  17  18
ATOM     18  C   UNL     1       9.667 -33.705  12.095  1.00  0.00    -0.000 C 
BRANCH  18  19
ATOM     19  C   UNL     1      10.415 -34.467  13.203  1.00  0.00    -0.003 C 
ATOM     20  C   UNL     1      11.748 -33.821  13.574  1.00  0.00     0.004 C 
ENDBRANCH  18  19
ENDBRANCH  17  18
ENDBRANCH  16  17
ENDBRANCH  15  16
ENDBRANCH  14  15
ENDBRANCH  13  14
ENDBRANCH  12  13
ENDBRANCH   1  12
TORSDOF 16
ENDMDL
