MODEL 1
REMARK VINA RESULT:    -3.814      0.000      0.000
REMARK INTER + INTRA:         -10.154
REMARK INTER:                  -7.381
REMARK INTRA:                  -2.773
REMARK UNBOUND:                -2.773
REMARK SMILES CCCCCCCCCCCCCCCCCC(=O)[O-]
REMARK SMILES IDX 10 1 11 2 12 3 13 4 14 5 15 6 16 7 17 8 18 9 19 10 20 11
REMARK SMILES IDX 9 12 8 13 7 14 6 15 5 16 4 17 3 18 2 19 1 20
REMARK H PARENT
REMARK Flexibility Score: inf
ROOT
ATOM      1  C   UNL     1     -10.999   4.661 -20.756  1.00  0.00     0.000 C 
ENDROOT
BRANCH   1   2
ATOM      2  C   UNL     1     -12.133   5.699 -20.801  1.00  0.00     0.000 C 
BRANCH   2   3
ATOM      3  C   UNL     1     -12.108   6.655 -19.597  1.00  0.00     0.000 C 
BRANCH   3   4
ATOM      4  C   UNL     1     -12.785   8.003 -19.898  1.00  0.00     0.000 C 
BRANCH   4   5
ATOM      5  C   UNL     1     -11.960   9.201 -19.378  1.00  0.00     0.000 C 
BRANCH   5   6
ATOM      6  C   UNL     1     -10.514   8.836 -18.993  1.00  0.00     0.000 C 
BRANCH   6   7
ATOM      7  C   UNL     1      -9.783   9.893 -18.143  1.00  0.00     0.006 C 
BRANCH   7   8
ATOM      8  C   UNL     1      -9.153   9.340 -16.854  1.00  0.00     0.053 C 
BRANCH   8   9
ATOM      9  C   UNL     1      -8.287  10.355 -16.173  1.00  0.00     0.041 C 
ATOM     10  O   UNL     1      -7.544  11.112 -16.852  1.00  0.00    -0.550 OA
ATOM     11  O   UNL     1      -8.330  10.491 -14.792  1.00  0.00    -0.550 OA
ENDBRANCH   8   9
ENDBRANCH   7   8
ENDBRANCH   6   7
ENDBRANCH   5   6
ENDBRANCH   4   5
ENDBRANCH   3   4
ENDBRANCH   2   3
ENDBRANCH   1   2
BRANCH   1  12
ATOM     12  C   UNL     1      -9.606   5.303 -20.873  1.00  0.00     0.000 C 
BRANCH  12  13
ATOM     13  C   UNL     1      -8.762   5.117 -19.603  1.00  0.00    -0.000 C 
BRANCH  13  14
ATOM     14  C   UNL     1      -7.371   5.739 -19.773  1.00  0.00    -0.000 C 
BRANCH  14  15
ATOM     15  C   UNL     1      -7.210   6.978 -18.878  1.00  0.00    -0.000 C 
BRANCH  15  16
ATOM     16  C   UNL     1      -6.826   8.238 -19.670  1.00  0.00    -0.000 C 
BRANCH  16  17
ATOM     17  C   UNL     1      -6.929   8.035 -21.192  1.00  0.00    -0.000 C 
BRANCH  17  18
ATOM     18  C   UNL     1      -7.963   8.967 -21.843  1.00  0.00    -0.000 C 
BRANCH  18  19
ATOM     19  C   UNL     1      -8.775   8.273 -22.948  1.00  0.00    -0.003 C 
ATOM     20  C   UNL     1     -10.272   8.483 -22.742  1.00  0.00     0.004 C 
ENDBRANCH  18  19
ENDBRANCH  17  18
ENDBRANCH  16  17
ENDBRANCH  15  16
ENDBRANCH  14  15
ENDBRANCH  13  14
ENDBRANCH  12  13
ENDBRANCH   1  12
TORSDOF 16
ENDMDL
MODEL 2
REMARK VINA RESULT:    -3.734      2.824      4.668
REMARK INTER + INTRA:          -9.999
REMARK INTER:                  -6.926
REMARK INTRA:                  -3.072
REMARK UNBOUND:                -2.773
REMARK SMILES CCCCCCCCCCCCCCCCCC(=O)[O-]
REMARK SMILES IDX 10 1 11 2 12 3 13 4 14 5 15 6 16 7 17 8 18 9 19 10 20 11
REMARK SMILES IDX 9 12 8 13 7 14 6 15 5 16 4 17 3 18 2 19 1 20
REMARK H PARENT
REMARK Flexibility Score: inf
ROOT
ATOM      1  C   UNL     1     -12.969   8.127 -20.895  1.00  0.00     0.000 C 
ENDROOT
BRANCH   1   2
ATOM      2  C   UNL     1     -12.379   6.732 -21.168  1.00  0.00     0.000 C 
BRANCH   2   3
ATOM      3  C   UNL     1     -11.424   6.720 -22.372  1.00  0.00     0.000 C 
BRANCH   3   4
ATOM      4  C   UNL     1     -10.873   8.117 -22.704  1.00  0.00     0.000 C 
BRANCH   4   5
ATOM      5  C   UNL     1      -9.450   8.333 -22.145  1.00  0.00     0.000 C 
BRANCH   5   6
ATOM      6  C   UNL     1      -8.933   9.776 -22.306  1.00  0.00     0.000 C 
BRANCH   6   7
ATOM      7  C   UNL     1     -10.016  10.817 -22.649  1.00  0.00     0.006 C 
BRANCH   7   8
ATOM      8  C   UNL     1     -10.172  11.932 -21.602  1.00  0.00     0.053 C 
BRANCH   8   9
ATOM      9  C   UNL     1     -10.387  13.271 -22.238  1.00  0.00     0.041 C 
ATOM     10  O   UNL     1     -10.618  14.282 -21.524  1.00  0.00    -0.550 OA
ATOM     11  O   UNL     1     -10.297  13.408 -23.617  1.00  0.00    -0.550 OA
ENDBRANCH   8   9
ENDBRANCH   7   8
ENDBRANCH   6   7
ENDBRANCH   5   6
ENDBRANCH   4   5
ENDBRANCH   3   4
ENDBRANCH   2   3
ENDBRANCH   1   2
BRANCH   1  12
ATOM     12  C   UNL     1     -12.766   8.578 -19.439  1.00  0.00     0.000 C 
BRANCH  12  13
ATOM     13  C   UNL     1     -11.334   8.335 -18.940  1.00  0.00    -0.000 C 
BRANCH  13  14
ATOM     14  C   UNL     1     -10.585   9.660 -18.754  1.00  0.00    -0.000 C 
BRANCH  14  15
ATOM     15  C   UNL     1      -9.259   9.443 -18.009  1.00  0.00    -0.000 C 
BRANCH  15  16
ATOM     16  C   UNL     1      -8.046   9.984 -18.781  1.00  0.00    -0.000 C 
BRANCH  16  17
ATOM     17  C   UNL     1      -7.083   8.869 -19.226  1.00  0.00    -0.000 C 
BRANCH  17  18
ATOM     18  C   UNL     1      -7.424   7.509 -18.597  1.00  0.00    -0.000 C 
BRANCH  18  19
ATOM     19  C   UNL     1      -7.508   6.379 -19.634  1.00  0.00    -0.003 C 
ATOM     20  C   UNL     1      -8.853   5.663 -19.558  1.00  0.00     0.004 C 
ENDBRANCH  18  19
ENDBRANCH  17  18
ENDBRANCH  16  17
ENDBRANCH  15  16
ENDBRANCH  14  15
ENDBRANCH  13  14
ENDBRANCH  12  13
ENDBRANCH   1  12
TORSDOF 16
ENDMDL
MODEL 3
REMARK VINA RESULT:    -3.701      2.289      5.172
REMARK INTER + INTRA:          -9.936
REMARK INTER:                  -7.165
REMARK INTRA:                  -2.771
REMARK UNBOUND:                -2.773
REMARK SMILES CCCCCCCCCCCCCCCCCC(=O)[O-]
REMARK SMILES IDX 10 1 11 2 12 3 13 4 14 5 15 6 16 7 17 8 18 9 19 10 20 11
REMARK SMILES IDX 9 12 8 13 7 14 6 15 5 16 4 17 3 18 2 19 1 20
REMARK H PARENT
REMARK Flexibility Score: inf
ROOT
ATOM      1  C   UNL     1      -9.163   8.879 -17.392  1.00  0.00     0.000 C 
ENDROOT
BRANCH   1   2
ATOM      2  C   UNL     1      -8.900   9.602 -16.059  1.00  0.00     0.000 C 
BRANCH   2   3
ATOM      3  C   UNL     1      -8.494  11.072 -16.255  1.00  0.00     0.000 C 
BRANCH   3   4
ATOM      4  C   UNL     1      -7.093  11.377 -15.697  1.00  0.00     0.000 C 
BRANCH   4   5
ATOM      5  C   UNL     1      -6.124  11.876 -16.791  1.00  0.00     0.000 C 
BRANCH   5   6
ATOM      6  C   UNL     1      -6.501  11.411 -18.211  1.00  0.00     0.000 C 
BRANCH   6   7
ATOM      7  C   UNL     1      -5.470  10.486 -18.885  1.00  0.00     0.006 C 
BRANCH   7   8
ATOM      8  C   UNL     1      -5.384   9.080 -18.269  1.00  0.00     0.053 C 
BRANCH   8   9
ATOM      9  C   UNL     1      -4.171   8.919 -17.406  1.00  0.00     0.041 C 
ATOM     10  O   UNL     1      -4.291   8.804 -16.158  1.00  0.00    -0.550 OA
ATOM     11  O   UNL     1      -2.909   8.859 -17.985  1.00  0.00    -0.550 OA
ENDBRANCH   8   9
ENDBRANCH   7   8
ENDBRANCH   6   7
ENDBRANCH   5   6
ENDBRANCH   4   5
ENDBRANCH   3   4
ENDBRANCH   2   3
ENDBRANCH   1   2
BRANCH   1  12
ATOM     12  C   UNL     1      -9.823   9.793 -18.438  1.00  0.00     0.000 C 
BRANCH  12  13
ATOM     13  C   UNL     1      -9.307   9.529 -19.860  1.00  0.00    -0.000 C 
BRANCH  13  14
ATOM     14  C   UNL     1      -8.551   8.196 -19.932  1.00  0.00    -0.000 C 
BRANCH  14  15
ATOM     15  C   UNL     1      -9.279   7.199 -20.846  1.00  0.00    -0.000 C 
BRANCH  15  16
ATOM     16  C   UNL     1      -9.919   6.038 -20.069  1.00  0.00    -0.000 C 
BRANCH  16  17
ATOM     17  C   UNL     1     -11.451   6.000 -20.217  1.00  0.00    -0.000 C 
BRANCH  17  18
ATOM     18  C   UNL     1     -12.152   7.071 -19.365  1.00  0.00    -0.000 C 
BRANCH  18  19
ATOM     19  C   UNL     1     -12.817   8.164 -20.215  1.00  0.00    -0.003 C 
ATOM     20  C   UNL     1     -13.138   7.650 -21.615  1.00  0.00     0.004 C 
ENDBRANCH  18  19
ENDBRANCH  17  18
ENDBRANCH  16  17
ENDBRANCH  15  16
ENDBRANCH  14  15
ENDBRANCH  13  14
ENDBRANCH  12  13
ENDBRANCH   1  12
TORSDOF 16
ENDMDL
MODEL 4
REMARK VINA RESULT:    -3.683      3.169      5.276
REMARK INTER + INTRA:          -9.901
REMARK INTER:                  -7.114
REMARK INTRA:                  -2.787
REMARK UNBOUND:                -2.773
REMARK SMILES CCCCCCCCCCCCCCCCCC(=O)[O-]
REMARK SMILES IDX 10 1 11 2 12 3 13 4 14 5 15 6 16 7 17 8 18 9 19 10 20 11
REMARK SMILES IDX 9 12 8 13 7 14 6 15 5 16 4 17 3 18 2 19 1 20
REMARK H PARENT
REMARK Flexibility Score: inf
ROOT
ATOM      1  C   UNL     1     -10.125   9.423 -18.100  1.00  0.00     0.000 C 
ENDROOT
BRANCH   1   2
ATOM      2  C   UNL     1      -9.935   9.789 -19.582  1.00  0.00     0.000 C 
BRANCH   2   3
ATOM      3  C   UNL     1     -11.249   9.733 -20.378  1.00  0.00     0.000 C 
BRANCH   3   4
ATOM      4  C   UNL     1     -12.349   8.944 -19.647  1.00  0.00     0.000 C 
BRANCH   4   5
ATOM      5  C   UNL     1     -12.518   7.516 -20.211  1.00  0.00     0.000 C 
BRANCH   5   6
ATOM      6  C   UNL     1     -12.936   7.481 -21.693  1.00  0.00     0.000 C 
BRANCH   6   7
ATOM      7  C   UNL     1     -11.975   6.710 -22.619  1.00  0.00     0.006 C 
BRANCH   7   8
ATOM      8  C   UNL     1     -10.574   6.483 -22.028  1.00  0.00     0.053 C 
BRANCH   8   9
ATOM      9  C   UNL     1     -10.270   5.028 -21.851  1.00  0.00     0.041 C 
ATOM     10  O   UNL     1      -9.269   4.667 -21.177  1.00  0.00    -0.550 OA
ATOM     11  O   UNL     1     -11.113   4.069 -22.399  1.00  0.00    -0.550 OA
ENDBRANCH   8   9
ENDBRANCH   7   8
ENDBRANCH   6   7
ENDBRANCH   5   6
ENDBRANCH   4   5
ENDBRANCH   3   4
ENDBRANCH   2   3
ENDBRANCH   1   2
BRANCH   1  12
ATOM     12  C   UNL     1      -9.237   8.245 -17.666  1.00  0.00     0.000 C 
BRANCH  12  13
ATOM     13  C   UNL     1      -9.019   7.224 -18.792  1.00  0.00    -0.000 C 
BRANCH  13  14
ATOM     14  C   UNL     1      -7.536   6.852 -18.916  1.00  0.00    -0.000 C 
BRANCH  14  15
ATOM     15  C   UNL     1      -6.850   7.684 -20.011  1.00  0.00    -0.000 C 
BRANCH  15  16
ATOM     16  C   UNL     1      -5.929   8.773 -19.441  1.00  0.00    -0.000 C 
BRANCH  16  17
ATOM     17  C   UNL     1      -5.451   8.456 -18.012  1.00  0.00    -0.000 C 
BRANCH  17  18
ATOM     18  C   UNL     1      -5.625   9.645 -17.054  1.00  0.00    -0.000 C 
BRANCH  18  19
ATOM     19  C   UNL     1      -6.568  10.723 -17.612  1.00  0.00    -0.003 C 
ATOM     20  C   UNL     1      -7.375  11.377 -16.494  1.00  0.00     0.004 C 
ENDBRANCH  18  19
ENDBRANCH  17  18
ENDBRANCH  16  17
ENDBRANCH  15  16
ENDBRANCH  14  15
ENDBRANCH  13  14
ENDBRANCH  12  13
ENDBRANCH   1  12
TORSDOF 16
ENDMDL
MODEL 5
REMARK VINA RESULT:    -3.660      2.908      5.482
REMARK INTER + INTRA:          -9.856
REMARK INTER:                  -7.532
REMARK INTRA:                  -2.324
REMARK UNBOUND:                -2.773
REMARK SMILES CCCCCCCCCCCCCCCCCC(=O)[O-]
REMARK SMILES IDX 10 1 11 2 12 3 13 4 14 5 15 6 16 7 17 8 18 9 19 10 20 11
REMARK SMILES IDX 9 12 8 13 7 14 6 15 5 16 4 17 3 18 2 19 1 20
REMARK H PARENT
REMARK Flexibility Score: inf
ROOT
ATOM      1  C   UNL     1      -8.508  10.792 -16.496  1.00  0.00     0.000 C 
ENDROOT
BRANCH   1   2
ATOM      2  C   UNL     1      -9.073   9.577 -17.251  1.00  0.00     0.000 C 
BRANCH   2   3
ATOM      3  C   UNL     1      -9.621   9.946 -18.639  1.00  0.00     0.000 C 
BRANCH   3   4
ATOM      4  C   UNL     1     -10.964   9.262 -18.946  1.00  0.00     0.000 C 
BRANCH   4   5
ATOM      5  C   UNL     1     -10.880   7.725 -18.819  1.00  0.00     0.000 C 
BRANCH   5   6
ATOM      6  C   UNL     1     -12.003   6.979 -19.565  1.00  0.00     0.000 C 
BRANCH   6   7
ATOM      7  C   UNL     1     -12.939   7.879 -20.393  1.00  0.00     0.006 C 
BRANCH   7   8
ATOM      8  C   UNL     1     -13.064   7.470 -21.870  1.00  0.00     0.053 C 
BRANCH   8   9
ATOM      9  C   UNL     1     -11.737   7.122 -22.469  1.00  0.00     0.041 C 
ATOM     10  O   UNL     1     -11.507   5.947 -22.859  1.00  0.00    -0.550 OA
ATOM     11  O   UNL     1     -10.768   8.103 -22.631  1.00  0.00    -0.550 OA
ENDBRANCH   8   9
ENDBRANCH   7   8
ENDBRANCH   6   7
ENDBRANCH   5   6
ENDBRANCH   4   5
ENDBRANCH   3   4
ENDBRANCH   2   3
ENDBRANCH   1   2
BRANCH   1  12
ATOM     12  C   UNL     1      -7.059  10.575 -16.029  1.00  0.00     0.000 C 
BRANCH  12  13
ATOM     13  C   UNL     1      -6.035  10.830 -17.145  1.00  0.00    -0.000 C 
BRANCH  13  14
ATOM     14  C   UNL     1      -5.009   9.693 -17.219  1.00  0.00    -0.000 C 
BRANCH  14  15
ATOM     15  C   UNL     1      -5.591   8.473 -17.950  1.00  0.00    -0.000 C 
BRANCH  15  16
ATOM     16  C   UNL     1      -5.917   8.763 -19.424  1.00  0.00    -0.000 C 
BRANCH  16  17
ATOM     17  C   UNL     1      -6.842   7.700 -20.044  1.00  0.00    -0.000 C 
BRANCH  17  18
ATOM     18  C   UNL     1      -7.354   6.686 -19.009  1.00  0.00    -0.000 C 
BRANCH  18  19
ATOM     19  C   UNL     1      -7.593   5.293 -19.611  1.00  0.00    -0.003 C 
ATOM     20  C   UNL     1      -8.805   5.298 -20.539  1.00  0.00     0.004 C 
ENDBRANCH  18  19
ENDBRANCH  17  18
ENDBRANCH  16  17
ENDBRANCH  15  16
ENDBRANCH  14  15
ENDBRANCH  13  14
ENDBRANCH  12  13
ENDBRANCH   1  12
TORSDOF 16
ENDMDL
MODEL 6
REMARK VINA RESULT:    -3.654      1.449      4.029
REMARK INTER + INTRA:          -9.845
REMARK INTER:                  -6.816
REMARK INTRA:                  -3.029
REMARK UNBOUND:                -2.773
REMARK SMILES CCCCCCCCCCCCCCCCCC(=O)[O-]
REMARK SMILES IDX 10 1 11 2 12 3 13 4 14 5 15 6 16 7 17 8 18 9 19 10 20 11
REMARK SMILES IDX 9 12 8 13 7 14 6 15 5 16 4 17 3 18 2 19 1 20
REMARK H PARENT
REMARK Flexibility Score: inf
ROOT
ATOM      1  C   UNL     1     -10.882   9.002 -18.935  1.00  0.00     0.000 C 
ENDROOT
BRANCH   1   2
ATOM      2  C   UNL     1     -10.686   7.489 -18.734  1.00  0.00     0.000 C 
BRANCH   2   3
ATOM      3  C   UNL     1      -9.221   7.116 -18.451  1.00  0.00     0.000 C 
BRANCH   3   4
ATOM      4  C   UNL     1      -8.488   6.607 -19.704  1.00  0.00     0.000 C 
BRANCH   4   5
ATOM      5  C   UNL     1      -7.034   7.123 -19.780  1.00  0.00     0.000 C 
BRANCH   5   6
ATOM      6  C   UNL     1      -6.626   8.004 -18.584  1.00  0.00     0.000 C 
BRANCH   6   7
ATOM      7  C   UNL     1      -6.404   9.491 -18.920  1.00  0.00     0.006 C 
BRANCH   7   8
ATOM      8  C   UNL     1      -7.457  10.437 -18.321  1.00  0.00     0.053 C 
BRANCH   8   9
ATOM      9  C   UNL     1      -7.578  10.275 -16.837  1.00  0.00     0.041 C 
ATOM     10  O   UNL     1      -8.676   9.935 -16.324  1.00  0.00    -0.550 OA
ATOM     11  O   UNL     1      -6.467  10.462 -16.025  1.00  0.00    -0.550 OA
ENDBRANCH   8   9
ENDBRANCH   7   8
ENDBRANCH   6   7
ENDBRANCH   5   6
ENDBRANCH   4   5
ENDBRANCH   3   4
ENDBRANCH   2   3
ENDBRANCH   1   2
BRANCH   1  12
ATOM     12  C   UNL     1     -11.909   9.322 -20.034  1.00  0.00     0.000 C 
BRANCH  12  13
ATOM     13  C   UNL     1     -13.014   8.261 -20.136  1.00  0.00    -0.000 C 
BRANCH  13  14
ATOM     14  C   UNL     1     -13.132   7.726 -21.569  1.00  0.00    -0.000 C 
BRANCH  14  15
ATOM     15  C   UNL     1     -12.224   6.504 -21.777  1.00  0.00    -0.000 C 
BRANCH  15  16
ATOM     16  C   UNL     1     -11.387   6.597 -23.063  1.00  0.00    -0.000 C 
BRANCH  16  17
ATOM     17  C   UNL     1     -10.148   7.495 -22.899  1.00  0.00    -0.000 C 
BRANCH  17  18
ATOM     18  C   UNL     1     -10.245   8.790 -23.721  1.00  0.00    -0.000 C 
BRANCH  18  19
ATOM     19  C   UNL     1      -9.813  10.031 -22.927  1.00  0.00    -0.003 C 
ATOM     20  C   UNL     1      -8.718   9.685 -21.922  1.00  0.00     0.004 C 
ENDBRANCH  18  19
ENDBRANCH  17  18
ENDBRANCH  16  17
ENDBRANCH  15  16
ENDBRANCH  14  15
ENDBRANCH  13  14
ENDBRANCH  12  13
ENDBRANCH   1  12
TORSDOF 16
ENDMDL
MODEL 7
REMARK VINA RESULT:    -3.642     12.858     15.066
REMARK INTER + INTRA:          -9.822
REMARK INTER:                  -7.300
REMARK INTRA:                  -2.523
REMARK UNBOUND:                -2.773
REMARK SMILES CCCCCCCCCCCCCCCCCC(=O)[O-]
REMARK SMILES IDX 10 1 11 2 12 3 13 4 14 5 15 6 16 7 17 8 18 9 19 10 20 11
REMARK SMILES IDX 9 12 8 13 7 14 6 15 5 16 4 17 3 18 2 19 1 20
REMARK H PARENT
REMARK Flexibility Score: inf
ROOT
ATOM      1  C   UNL     1      -5.670  13.452  -4.720  1.00  0.00     0.000 C 
ENDROOT
BRANCH   1   2
ATOM      2  C   UNL     1      -7.191  13.658  -4.619  1.00  0.00     0.000 C 
BRANCH   2   3
ATOM      3  C   UNL     1      -7.601  15.130  -4.789  1.00  0.00     0.000 C 
BRANCH   3   4
ATOM      4  C   UNL     1      -8.542  15.347  -5.987  1.00  0.00     0.000 C 
BRANCH   4   5
ATOM      5  C   UNL     1      -8.476  14.183  -7.001  1.00  0.00     0.000 C 
BRANCH   5   6
ATOM      6  C   UNL     1      -8.651  14.628  -8.466  1.00  0.00     0.000 C 
BRANCH   6   7
ATOM      7  C   UNL     1      -7.355  14.643  -9.298  1.00  0.00     0.006 C 
BRANCH   7   8
ATOM      8  C   UNL     1      -6.109  14.163  -8.536  1.00  0.00     0.053 C 
BRANCH   8   9
ATOM      9  C   UNL     1      -5.053  15.222  -8.463  1.00  0.00     0.041 C 
ATOM     10  O   UNL     1      -4.588  15.726  -9.519  1.00  0.00    -0.550 OA
ATOM     11  O   UNL     1      -4.609  15.678  -7.229  1.00  0.00    -0.550 OA
ENDBRANCH   8   9
ENDBRANCH   7   8
ENDBRANCH   6   7
ENDBRANCH   5   6
ENDBRANCH   4   5
ENDBRANCH   3   4
ENDBRANCH   2   3
ENDBRANCH   1   2
BRANCH   1  12
ATOM     12  C   UNL     1      -5.296  12.233  -5.580  1.00  0.00     0.000 C 
BRANCH  12  13
ATOM     13  C   UNL     1      -5.241  10.932  -4.767  1.00  0.00    -0.000 C 
BRANCH  13  14
ATOM     14  C   UNL     1      -6.463  10.051  -5.057  1.00  0.00    -0.000 C 
BRANCH  14  15
ATOM     15  C   UNL     1      -7.104  10.425  -6.402  1.00  0.00    -0.000 C 
BRANCH  15  16
ATOM     16  C   UNL     1      -8.632  10.258  -6.401  1.00  0.00    -0.000 C 
BRANCH  16  17
ATOM     17  C   UNL     1      -9.284  10.794  -5.114  1.00  0.00    -0.000 C 
BRANCH  17  18
ATOM     18  C   UNL     1     -10.733  10.311  -4.942  1.00  0.00    -0.000 C 
BRANCH  18  19
ATOM     19  C   UNL     1     -11.661  11.404  -4.391  1.00  0.00    -0.003 C 
ATOM     20  C   UNL     1     -11.101  12.794  -4.677  1.00  0.00     0.004 C 
ENDBRANCH  18  19
ENDBRANCH  17  18
ENDBRANCH  16  17
ENDBRANCH  15  16
ENDBRANCH  14  15
ENDBRANCH  13  14
ENDBRANCH  12  13
ENDBRANCH   1  12
TORSDOF 16
ENDMDL
MODEL 8
REMARK VINA RESULT:    -3.608      1.333      3.975
REMARK INTER + INTRA:          -9.756
REMARK INTER:                  -7.136
REMARK INTRA:                  -2.620
REMARK UNBOUND:                -2.773
REMARK SMILES CCCCCCCCCCCCCCCCCC(=O)[O-]
REMARK SMILES IDX 10 1 11 2 12 3 13 4 14 5 15 6 16 7 17 8 18 9 19 10 20 11
REMARK SMILES IDX 9 12 8 13 7 14 6 15 5 16 4 17 3 18 2 19 1 20
REMARK H PARENT
REMARK Flexibility Score: inf
ROOT
ATOM      1  C   UNL     1      -9.762   5.097 -20.207  1.00  0.00     0.000 C 
ENDROOT
BRANCH   1   2
ATOM      2  C   UNL     1      -8.260   5.279 -20.486  1.00  0.00     0.000 C 
BRANCH   2   3
ATOM      3  C   UNL     1      -7.513   5.921 -19.306  1.00  0.00     0.000 C 
BRANCH   3   4
ATOM      4  C   UNL     1      -6.752   7.196 -19.710  1.00  0.00     0.000 C 
BRANCH   4   5
ATOM      5  C   UNL     1      -6.580   8.174 -18.527  1.00  0.00     0.000 C 
BRANCH   5   6
ATOM      6  C   UNL     1      -6.395   9.641 -18.959  1.00  0.00     0.000 C 
BRANCH   6   7
ATOM      7  C   UNL     1      -6.698  10.682 -17.865  1.00  0.00     0.006 C 
BRANCH   7   8
ATOM      8  C   UNL     1      -8.037  10.466 -17.141  1.00  0.00     0.053 C 
BRANCH   8   9
ATOM      9  C   UNL     1      -7.979  10.908 -15.711  1.00  0.00     0.041 C 
ATOM     10  O   UNL     1      -7.376  11.968 -15.399  1.00  0.00    -0.550 OA
ATOM     11  O   UNL     1      -8.622  10.166 -14.728  1.00  0.00    -0.550 OA
ENDBRANCH   8   9
ENDBRANCH   7   8
ENDBRANCH   6   7
ENDBRANCH   5   6
ENDBRANCH   4   5
ENDBRANCH   3   4
ENDBRANCH   2   3
ENDBRANCH   1   2
BRANCH   1  12
ATOM     12  C   UNL     1     -10.633   5.422 -21.432  1.00  0.00     0.000 C 
BRANCH  12  13
ATOM     13  C   UNL     1     -12.072   5.800 -21.049  1.00  0.00    -0.000 C 
BRANCH  13  14
ATOM     14  C   UNL     1     -12.573   6.979 -21.893  1.00  0.00    -0.000 C 
BRANCH  14  15
ATOM     15  C   UNL     1     -13.115   8.105 -20.999  1.00  0.00    -0.000 C 
BRANCH  15  16
ATOM     16  C   UNL     1     -12.630   7.996 -19.545  1.00  0.00    -0.000 C 
BRANCH  16  17
ATOM     17  C   UNL     1     -11.593   9.076 -19.185  1.00  0.00    -0.000 C 
BRANCH  17  18
ATOM     18  C   UNL     1     -10.151   8.629 -19.474  1.00  0.00    -0.000 C 
BRANCH  18  19
ATOM     19  C   UNL     1      -9.603   9.205 -20.788  1.00  0.00    -0.003 C 
ATOM     20  C   UNL     1      -9.728  10.726 -20.813  1.00  0.00     0.004 C 
ENDBRANCH  18  19
ENDBRANCH  17  18
ENDBRANCH  16  17
ENDBRANCH  15  16
ENDBRANCH  14  15
ENDBRANCH  13  14
ENDBRANCH  12  13
ENDBRANCH   1  12
TORSDOF 16
ENDMDL
MODEL 9
REMARK VINA RESULT:    -3.604      1.258      2.841
REMARK INTER + INTRA:          -9.747
REMARK INTER:                  -6.958
REMARK INTRA:                  -2.789
REMARK UNBOUND:                -2.773
REMARK SMILES CCCCCCCCCCCCCCCCCC(=O)[O-]
REMARK SMILES IDX 10 1 11 2 12 3 13 4 14 5 15 6 16 7 17 8 18 9 19 10 20 11
REMARK SMILES IDX 9 12 8 13 7 14 6 15 5 16 4 17 3 18 2 19 1 20
REMARK H PARENT
REMARK Flexibility Score: inf
ROOT
ATOM      1  C   UNL     1     -12.276   6.326 -20.701  1.00  0.00     0.000 C 
ENDROOT
BRANCH   1   2
ATOM      2  C   UNL     1     -12.003   7.047 -19.369  1.00  0.00     0.000 C 
BRANCH   2   3
ATOM      3  C   UNL     1     -12.222   8.565 -19.464  1.00  0.00     0.000 C 
BRANCH   3   4
ATOM      4  C   UNL     1     -11.226   9.248 -20.417  1.00  0.00     0.000 C 
BRANCH   4   5
ATOM      5  C   UNL     1     -10.135  10.035 -19.657  1.00  0.00     0.000 C 
BRANCH   5   6
ATOM      6  C   UNL     1     -10.260   9.942 -18.124  1.00  0.00     0.000 C 
BRANCH   6   7
ATOM      7  C   UNL     1      -8.985   9.471 -17.398  1.00  0.00     0.006 C 
BRANCH   7   8
ATOM      8  C   UNL     1      -8.627  10.298 -16.152  1.00  0.00     0.053 C 
BRANCH   8   9
ATOM      9  C   UNL     1      -7.345  11.052 -16.329  1.00  0.00     0.041 C 
ATOM     10  O   UNL     1      -6.474  10.640 -17.139  1.00  0.00    -0.550 OA
ATOM     11  O   UNL     1      -7.130  12.231 -15.626  1.00  0.00    -0.550 OA
ENDBRANCH   8   9
ENDBRANCH   7   8
ENDBRANCH   6   7
ENDBRANCH   5   6
ENDBRANCH   4   5
ENDBRANCH   3   4
ENDBRANCH   2   3
ENDBRANCH   1   2
BRANCH   1  12
ATOM     12  C   UNL     1     -11.542   4.978 -20.803  1.00  0.00     0.000 C 
BRANCH  12  13
ATOM     13  C   UNL     1     -10.648   4.886 -22.048  1.00  0.00    -0.000 C 
BRANCH  13  14
ATOM     14  C   UNL     1     -10.420   6.271 -22.665  1.00  0.00    -0.000 C 
BRANCH  14  15
ATOM     15  C   UNL     1      -8.921   6.589 -22.765  1.00  0.00    -0.000 C 
BRANCH  15  16
ATOM     16  C   UNL     1      -8.462   7.628 -21.730  1.00  0.00    -0.000 C 
BRANCH  16  17
ATOM     17  C   UNL     1      -7.533   7.027 -20.660  1.00  0.00    -0.000 C 
BRANCH  17  18
ATOM     18  C   UNL     1      -8.305   6.466 -19.456  1.00  0.00    -0.000 C 
BRANCH  18  19
ATOM     19  C   UNL     1      -8.086   4.958 -19.260  1.00  0.00    -0.003 C 
ATOM     20  C   UNL     1      -7.148   4.398 -20.325  1.00  0.00     0.004 C 
ENDBRANCH  18  19
ENDBRANCH  17  18
ENDBRANCH  16  17
ENDBRANCH  15  16
ENDBRANCH  14  15
ENDBRANCH  13  14
ENDBRANCH  12  13
ENDBRANCH   1  12
TORSDOF 16
ENDMDL
