MODEL 1
REMARK VINA RESULT:    -7.338      0.000      0.000
REMARK INTER + INTRA:         -12.113
REMARK INTER:                 -10.769
REMARK INTRA:                  -1.343
REMARK UNBOUND:                -1.343
REMARK SMILES O=c1c(O[C@@H]2O[C@@H](CO)[C@@H](O)[C@@H](O)[C@H]2O)c(-c2ccc(O)c(O)c2)oc2cc(O)cc(O)c12
REMARK SMILES IDX 4 1 3 2 16 3 25 4 2 5 26 6 1 7 33 8 27 9 31 10 28 11 30 12
REMARK SMILES IDX 17 13 18 14 19 15 20 16 24 17 22 18 21 19 23 21 32 23 29 25
REMARK SMILES IDX 5 27 14 28 6 29 12 30 7 31 10 32 15 33 13 35 8 37 9 38 11 40
REMARK H PARENT 21 20 23 22 32 24 29 26 15 34 13 36 9 39 11 41
REMARK Flexibility Score: inf
ROOT
ATOM      1  O   UNL     1      54.234   6.240  80.148  1.00  0.00    -0.454 OA
ENDROOT
BRANCH   1   2
ATOM      2  C   UNL     1      54.037   7.022  79.004  1.00  0.00     0.214 A 
ATOM      3  C   UNL     1      53.097   6.664  78.018  1.00  0.00     0.180 A 
ATOM      4  O   UNL     1      52.980   7.406  76.924  1.00  0.00    -0.452 OA
ATOM      5  C   UNL     1      54.789   8.190  78.836  1.00  0.00     0.239 A 
ATOM      6  C   UNL     1      53.696   8.503  76.703  1.00  0.00     0.146 A 
ATOM      7  O   UNL     1      55.555   8.544  79.770  1.00  0.00    -0.285 OA
ATOM      8  C   UNL     1      54.663   8.945  77.645  1.00  0.00     0.111 A 
ATOM      9  C   UNL     1      53.467   9.224  75.529  1.00  0.00     0.094 A 
ATOM     10  C   UNL     1      55.419  10.118  77.344  1.00  0.00     0.134 A 
ATOM     11  C   UNL     1      54.173  10.395  75.269  1.00  0.00     0.123 A 
ATOM     12  C   UNL     1      55.139  10.838  76.175  1.00  0.00     0.093 A 
BRANCH   3  13
ATOM     13  C   UNL     1      52.211   5.487  78.163  1.00  0.00     0.025 A 
ATOM     14  C   UNL     1      52.111   4.562  77.114  1.00  0.00     0.016 A 
ATOM     15  C   UNL     1      51.284   3.442  77.236  1.00  0.00     0.051 A 
ATOM     16  C   UNL     1      50.538   3.238  78.405  1.00  0.00     0.157 A 
ATOM     17  C   UNL     1      51.438   5.296  79.322  1.00  0.00     0.062 A 
ATOM     18  C   UNL     1      50.615   4.172  79.451  1.00  0.00     0.158 A 
BRANCH  16  19
ATOM     19  O   UNL     1      49.722   2.114  78.529  1.00  0.00    -0.504 OA
ATOM     20  H   UNL     1      50.057   1.187  78.294  1.00  0.00     0.293 HD
ENDBRANCH  16  19
BRANCH  18  21
ATOM     21  O   UNL     1      49.880   4.003  80.625  1.00  0.00    -0.504 OA
ATOM     22  H   UNL     1      49.158   3.298  80.710  1.00  0.00     0.293 HD
ENDBRANCH  18  21
ENDBRANCH   3  13
BRANCH  10  23
ATOM     23  O   UNL     1      56.466  10.601  78.136  1.00  0.00    -0.507 OA
ATOM     24  H   UNL     1      56.613  11.571  78.372  1.00  0.00     0.293 HD
ENDBRANCH  10  23
BRANCH  11  25
ATOM     25  O   UNL     1      53.913  11.110  74.102  1.00  0.00    -0.508 OA
ATOM     26  H   UNL     1      53.772  10.642  73.215  1.00  0.00     0.293 HD
ENDBRANCH  11  25
ENDBRANCH   1   2
BRANCH   1  27
ATOM     27  C   UNL     1      55.094   5.095  80.162  1.00  0.00     0.339 C 
ATOM     28  C   UNL     1      56.379   5.396  80.962  1.00  0.00     0.214 C 
ATOM     29  O   UNL     1      54.410   3.959  80.672  1.00  0.00    -0.332 OA
ATOM     30  C   UNL     1      56.065   5.518  82.469  1.00  0.00     0.180 C 
ATOM     31  C   UNL     1      53.973   4.171  82.005  1.00  0.00     0.179 C 
ATOM     32  C   UNL     1      55.177   4.359  82.964  1.00  0.00     0.177 C 
BRANCH  28  33
ATOM     33  O   UNL     1      57.332   4.388  80.745  1.00  0.00    -0.384 OA
ATOM     34  H   UNL     1      58.210   4.756  81.024  1.00  0.00     0.211 HD
ENDBRANCH  28  33
BRANCH  30  35
ATOM     35  O   UNL     1      57.251   5.565  83.220  1.00  0.00    -0.387 OA
ATOM     36  H   UNL     1      56.987   5.715  84.164  1.00  0.00     0.211 HD
ENDBRANCH  30  35
BRANCH  31  37
ATOM     37  C   UNL     1      53.064   3.010  82.433  1.00  0.00     0.191 C 
BRANCH  37  38
ATOM     38  O   UNL     1      53.627   1.778  82.074  1.00  0.00    -0.394 OA
ATOM     39  H   UNL     1      53.926   1.877  81.133  1.00  0.00     0.210 HD
ENDBRANCH  37  38
ENDBRANCH  31  37
BRANCH  32  40
ATOM     40  O   UNL     1      55.924   3.176  83.132  1.00  0.00    -0.387 OA
ATOM     41  H   UNL     1      56.622   3.342  83.815  1.00  0.00     0.211 HD
ENDBRANCH  32  40
ENDBRANCH   1  27
TORSDOF 12
ENDMDL
MODEL 2
REMARK VINA RESULT:    -6.797      2.400      6.181
REMARK INTER + INTRA:         -11.319
REMARK INTER:                 -10.689
REMARK INTRA:                  -0.630
REMARK UNBOUND:                -1.343
REMARK SMILES O=c1c(O[C@@H]2O[C@@H](CO)[C@@H](O)[C@@H](O)[C@H]2O)c(-c2ccc(O)c(O)c2)oc2cc(O)cc(O)c12
REMARK SMILES IDX 4 1 3 2 16 3 25 4 2 5 26 6 1 7 33 8 27 9 31 10 28 11 30 12
REMARK SMILES IDX 17 13 18 14 19 15 20 16 24 17 22 18 21 19 23 21 32 23 29 25
REMARK SMILES IDX 5 27 14 28 6 29 12 30 7 31 10 32 15 33 13 35 8 37 9 38 11 40
REMARK H PARENT 21 20 23 22 32 24 29 26 15 34 13 36 9 39 11 41
REMARK Flexibility Score: inf
ROOT
ATOM      1  O   UNL     1      54.684   6.327  81.724  1.00  0.00    -0.454 OA
ENDROOT
BRANCH   1   2
ATOM      2  C   UNL     1      54.020   5.702  80.662  1.00  0.00     0.214 A 
ATOM      3  C   UNL     1      54.562   5.684  79.362  1.00  0.00     0.180 A 
ATOM      4  O   UNL     1      53.874   5.127  78.373  1.00  0.00    -0.452 OA
ATOM      5  C   UNL     1      52.790   5.078  80.897  1.00  0.00     0.239 A 
ATOM      6  C   UNL     1      52.687   4.553  78.539  1.00  0.00     0.146 A 
ATOM      7  O   UNL     1      52.367   5.022  82.080  1.00  0.00    -0.285 OA
ATOM      8  C   UNL     1      52.066   4.518  79.816  1.00  0.00     0.111 A 
ATOM      9  C   UNL     1      52.067   3.970  77.432  1.00  0.00     0.094 A 
ATOM     10  C   UNL     1      50.780   3.908  79.930  1.00  0.00     0.134 A 
ATOM     11  C   UNL     1      50.837   3.332  77.564  1.00  0.00     0.123 A 
ATOM     12  C   UNL     1      50.203   3.299  78.808  1.00  0.00     0.093 A 
BRANCH   3  13
ATOM     13  C   UNL     1      55.891   6.255  79.053  1.00  0.00     0.025 A 
ATOM     14  C   UNL     1      57.035   5.452  79.171  1.00  0.00     0.016 A 
ATOM     15  C   UNL     1      58.297   5.973  78.877  1.00  0.00     0.051 A 
ATOM     16  C   UNL     1      58.435   7.308  78.472  1.00  0.00     0.157 A 
ATOM     17  C   UNL     1      56.036   7.602  78.676  1.00  0.00     0.062 A 
ATOM     18  C   UNL     1      57.297   8.126  78.374  1.00  0.00     0.158 A 
BRANCH  16  19
ATOM     19  O   UNL     1      59.695   7.822  78.169  1.00  0.00    -0.504 OA
ATOM     20  H   UNL     1      60.405   7.258  77.717  1.00  0.00     0.293 HD
ENDBRANCH  16  19
BRANCH  18  21
ATOM     21  O   UNL     1      57.400   9.460  77.981  1.00  0.00    -0.504 OA
ATOM     22  H   UNL     1      56.594  10.072  77.939  1.00  0.00     0.293 HD
ENDBRANCH  18  21
ENDBRANCH   3  13
BRANCH  10  23
ATOM     23  O   UNL     1      50.020   3.894  81.105  1.00  0.00    -0.507 OA
ATOM     24  H   UNL     1      50.165   4.503  81.895  1.00  0.00     0.293 HD
ENDBRANCH  10  23
BRANCH  11  25
ATOM     25  O   UNL     1      50.247   2.739  76.451  1.00  0.00    -0.508 OA
ATOM     26  H   UNL     1      49.990   3.281  75.635  1.00  0.00     0.293 HD
ENDBRANCH  11  25
ENDBRANCH   1   2
BRANCH   1  27
ATOM     27  C   UNL     1      55.045   5.634  82.924  1.00  0.00     0.339 C 
ATOM     28  C   UNL     1      55.850   4.361  82.590  1.00  0.00     0.214 C 
ATOM     29  O   UNL     1      55.756   6.492  83.805  1.00  0.00    -0.332 OA
ATOM     30  C   UNL     1      57.253   4.729  82.058  1.00  0.00     0.180 C 
ATOM     31  C   UNL     1      56.958   6.961  83.214  1.00  0.00     0.179 C 
ATOM     32  C   UNL     1      57.938   5.791  82.940  1.00  0.00     0.177 C 
BRANCH  28  33
ATOM     33  O   UNL     1      55.963   3.546  83.728  1.00  0.00    -0.384 OA
ATOM     34  H   UNL     1      56.806   3.031  83.632  1.00  0.00     0.211 HD
ENDBRANCH  28  33
BRANCH  30  35
ATOM     35  O   UNL     1      58.064   3.586  81.968  1.00  0.00    -0.387 OA
ATOM     36  H   UNL     1      57.518   2.822  82.287  1.00  0.00     0.211 HD
ENDBRANCH  30  35
BRANCH  31  37
ATOM     37  C   UNL     1      57.578   8.041  84.113  1.00  0.00     0.191 C 
BRANCH  37  38
ATOM     38  O   UNL     1      58.964   8.113  83.922  1.00  0.00    -0.394 OA
ATOM     39  H   UNL     1      59.161   9.059  83.694  1.00  0.00     0.210 HD
ENDBRANCH  37  38
ENDBRANCH  31  37
BRANCH  32  40
ATOM     40  O   UNL     1      58.448   5.224  84.125  1.00  0.00    -0.387 OA
ATOM     41  H   UNL     1      59.000   5.906  84.585  1.00  0.00     0.211 HD
ENDBRANCH  32  40
ENDBRANCH   1  27
TORSDOF 12
ENDMDL
MODEL 3
REMARK VINA RESULT:    -6.751      2.188      2.985
REMARK INTER + INTRA:         -11.252
REMARK INTER:                 -10.521
REMARK INTRA:                  -0.731
REMARK UNBOUND:                -1.343
REMARK SMILES O=c1c(O[C@@H]2O[C@@H](CO)[C@@H](O)[C@@H](O)[C@H]2O)c(-c2ccc(O)c(O)c2)oc2cc(O)cc(O)c12
REMARK SMILES IDX 4 1 3 2 16 3 25 4 2 5 26 6 1 7 33 8 27 9 31 10 28 11 30 12
REMARK SMILES IDX 17 13 18 14 19 15 20 16 24 17 22 18 21 19 23 21 32 23 29 25
REMARK SMILES IDX 5 27 14 28 6 29 12 30 7 31 10 32 15 33 13 35 8 37 9 38 11 40
REMARK H PARENT 21 20 23 22 32 24 29 26 15 34 13 36 9 39 11 41
REMARK Flexibility Score: inf
ROOT
ATOM      1  O   UNL     1      55.786   4.537  80.207  1.00  0.00    -0.454 OA
ENDROOT
BRANCH   1   2
ATOM      2  C   UNL     1      56.036   5.598  79.329  1.00  0.00     0.214 A 
ATOM      3  C   UNL     1      55.073   6.023  78.393  1.00  0.00     0.180 A 
ATOM      4  O   UNL     1      55.371   6.999  77.544  1.00  0.00    -0.452 OA
ATOM      5  C   UNL     1      57.269   6.256  79.385  1.00  0.00     0.239 A 
ATOM      6  C   UNL     1      56.540   7.629  77.534  1.00  0.00     0.146 A 
ATOM      7  O   UNL     1      58.080   5.927  80.289  1.00  0.00    -0.285 OA
ATOM      8  C   UNL     1      57.568   7.274  78.447  1.00  0.00     0.111 A 
ATOM      9  C   UNL     1      56.732   8.663  76.615  1.00  0.00     0.094 A 
ATOM     10  C   UNL     1      58.813   7.971  78.374  1.00  0.00     0.134 A 
ATOM     11  C   UNL     1      57.930   9.371  76.587  1.00  0.00     0.123 A 
ATOM     12  C   UNL     1      58.960   9.028  77.466  1.00  0.00     0.093 A 
BRANCH   3  13
ATOM     13  C   UNL     1      53.720   5.428  78.327  1.00  0.00     0.025 A 
ATOM     14  C   UNL     1      52.610   6.182  78.736  1.00  0.00     0.016 A 
ATOM     15  C   UNL     1      51.325   5.638  78.673  1.00  0.00     0.051 A 
ATOM     16  C   UNL     1      51.133   4.328  78.213  1.00  0.00     0.157 A 
ATOM     17  C   UNL     1      53.527   4.104  77.895  1.00  0.00     0.062 A 
ATOM     18  C   UNL     1      52.241   3.557  77.825  1.00  0.00     0.158 A 
BRANCH  16  19
ATOM     19  O   UNL     1      49.848   3.791  78.143  1.00  0.00    -0.504 OA
ATOM     20  H   UNL     1      49.688   2.791  78.174  1.00  0.00     0.293 HD
ENDBRANCH  16  19
BRANCH  18  21
ATOM     21  O   UNL     1      52.086   2.248  77.369  1.00  0.00    -0.504 OA
ATOM     22  H   UNL     1      51.787   2.039  76.424  1.00  0.00     0.293 HD
ENDBRANCH  18  21
ENDBRANCH   3  13
BRANCH  10  23
ATOM     23  O   UNL     1      59.936   7.653  79.146  1.00  0.00    -0.507 OA
ATOM     24  H   UNL     1      60.351   8.256  79.839  1.00  0.00     0.293 HD
ENDBRANCH  10  23
BRANCH  11  25
ATOM     25  O   UNL     1      58.092  10.413  75.677  1.00  0.00    -0.508 OA
ATOM     26  H   UNL     1      57.416  10.585  74.942  1.00  0.00     0.293 HD
ENDBRANCH  11  25
ENDBRANCH   1   2
BRANCH   1  27
ATOM     27  C   UNL     1      55.915   4.662  81.627  1.00  0.00     0.339 C 
ATOM     28  C   UNL     1      55.310   5.997  82.108  1.00  0.00     0.214 C 
ATOM     29  O   UNL     1      55.328   3.550  82.286  1.00  0.00    -0.332 OA
ATOM     30  C   UNL     1      53.771   5.975  81.978  1.00  0.00     0.180 C 
ATOM     31  C   UNL     1      53.941   3.450  81.999  1.00  0.00     0.179 C 
ATOM     32  C   UNL     1      53.168   4.676  82.548  1.00  0.00     0.177 C 
BRANCH  28  33
ATOM     33  O   UNL     1      55.679   6.245  83.440  1.00  0.00    -0.384 OA
ATOM     34  H   UNL     1      56.290   5.512  83.711  1.00  0.00     0.211 HD
ENDBRANCH  28  33
BRANCH  30  35
ATOM     35  O   UNL     1      53.203   7.088  82.619  1.00  0.00    -0.387 OA
ATOM     36  H   UNL     1      53.376   6.978  83.589  1.00  0.00     0.211 HD
ENDBRANCH  30  35
BRANCH  31  37
ATOM     37  C   UNL     1      53.402   2.124  82.554  1.00  0.00     0.191 C 
BRANCH  37  38
ATOM     38  O   UNL     1      53.915   1.875  83.834  1.00  0.00    -0.394 OA
ATOM     39  H   UNL     1      53.384   2.436  84.457  1.00  0.00     0.210 HD
ENDBRANCH  37  38
ENDBRANCH  31  37
BRANCH  32  40
ATOM     40  O   UNL     1      53.129   4.703  83.957  1.00  0.00    -0.387 OA
ATOM     41  H   UNL     1      54.046   4.541  84.297  1.00  0.00     0.211 HD
ENDBRANCH  32  40
ENDBRANCH   1  27
TORSDOF 12
ENDMDL
MODEL 4
REMARK VINA RESULT:    -6.749      2.087      6.832
REMARK INTER + INTRA:         -11.249
REMARK INTER:                  -9.864
REMARK INTRA:                  -1.386
REMARK UNBOUND:                -1.343
REMARK SMILES O=c1c(O[C@@H]2O[C@@H](CO)[C@@H](O)[C@@H](O)[C@H]2O)c(-c2ccc(O)c(O)c2)oc2cc(O)cc(O)c12
REMARK SMILES IDX 4 1 3 2 16 3 25 4 2 5 26 6 1 7 33 8 27 9 31 10 28 11 30 12
REMARK SMILES IDX 17 13 18 14 19 15 20 16 24 17 22 18 21 19 23 21 32 23 29 25
REMARK SMILES IDX 5 27 14 28 6 29 12 30 7 31 10 32 15 33 13 35 8 37 9 38 11 40
REMARK H PARENT 21 20 23 22 32 24 29 26 15 34 13 36 9 39 11 41
REMARK Flexibility Score: inf
ROOT
ATOM      1  O   UNL     1      55.556   6.573  79.031  1.00  0.00    -0.454 OA
ENDROOT
BRANCH   1   2
ATOM      2  C   UNL     1      54.547   5.860  79.690  1.00  0.00     0.214 A 
ATOM      3  C   UNL     1      53.184   6.092  79.421  1.00  0.00     0.180 A 
ATOM      4  O   UNL     1      52.260   5.431  80.106  1.00  0.00    -0.452 OA
ATOM      5  C   UNL     1      54.900   4.892  80.635  1.00  0.00     0.239 A 
ATOM      6  C   UNL     1      52.545   4.529  81.039  1.00  0.00     0.146 A 
ATOM      7  O   UNL     1      56.121   4.632  80.794  1.00  0.00    -0.285 OA
ATOM      8  C   UNL     1      53.892   4.224  81.371  1.00  0.00     0.111 A 
ATOM      9  C   UNL     1      51.490   3.871  81.675  1.00  0.00     0.094 A 
ATOM     10  C   UNL     1      54.138   3.262  82.397  1.00  0.00     0.134 A 
ATOM     11  C   UNL     1      51.741   2.897  82.637  1.00  0.00     0.123 A 
ATOM     12  C   UNL     1      53.058   2.594  82.990  1.00  0.00     0.093 A 
BRANCH   3  13
ATOM     13  C   UNL     1      52.736   7.044  78.380  1.00  0.00     0.025 A 
ATOM     14  C   UNL     1      51.805   8.041  78.706  1.00  0.00     0.016 A 
ATOM     15  C   UNL     1      51.377   8.951  77.738  1.00  0.00     0.051 A 
ATOM     16  C   UNL     1      51.863   8.870  76.426  1.00  0.00     0.157 A 
ATOM     17  C   UNL     1      53.199   6.946  77.056  1.00  0.00     0.062 A 
ATOM     18  C   UNL     1      52.777   7.860  76.084  1.00  0.00     0.158 A 
BRANCH  16  19
ATOM     19  O   UNL     1      51.440   9.786  75.463  1.00  0.00    -0.504 OA
ATOM     20  H   UNL     1      51.951  10.643  75.286  1.00  0.00     0.293 HD
ENDBRANCH  16  19
BRANCH  18  21
ATOM     21  O   UNL     1      53.275   7.746  74.786  1.00  0.00    -0.504 OA
ATOM     22  H   UNL     1      53.318   8.537  74.155  1.00  0.00     0.293 HD
ENDBRANCH  18  21
ENDBRANCH   3  13
BRANCH  10  23
ATOM     23  O   UNL     1      55.409   2.945  82.886  1.00  0.00    -0.507 OA
ATOM     24  H   UNL     1      55.677   2.050  83.266  1.00  0.00     0.293 HD
ENDBRANCH  10  23
BRANCH  11  25
ATOM     25  O   UNL     1      50.674   2.239  83.244  1.00  0.00    -0.508 OA
ATOM     26  H   UNL     1      50.703   1.973  84.221  1.00  0.00     0.293 HD
ENDBRANCH  11  25
ENDBRANCH   1   2
BRANCH   1  27
ATOM     27  C   UNL     1      56.209   7.706  79.614  1.00  0.00     0.339 C 
ATOM     28  C   UNL     1      57.740   7.517  79.589  1.00  0.00     0.214 C 
ATOM     29  O   UNL     1      55.815   8.905  78.963  1.00  0.00    -0.332 OA
ATOM     30  C   UNL     1      58.276   7.612  78.144  1.00  0.00     0.180 C 
ATOM     31  C   UNL     1      56.161   8.885  77.586  1.00  0.00     0.179 C 
ATOM     32  C   UNL     1      57.699   8.832  77.399  1.00  0.00     0.177 C 
BRANCH  28  33
ATOM     33  O   UNL     1      58.360   8.482  80.400  1.00  0.00    -0.384 OA
ATOM     34  H   UNL     1      59.265   8.138  80.617  1.00  0.00     0.211 HD
ENDBRANCH  28  33
BRANCH  30  35
ATOM     35  O   UNL     1      59.679   7.668  78.138  1.00  0.00    -0.387 OA
ATOM     36  H   UNL     1      59.945   8.103  77.288  1.00  0.00     0.211 HD
ENDBRANCH  30  35
BRANCH  31  37
ATOM     37  C   UNL     1      55.531  10.098  76.887  1.00  0.00     0.191 C 
BRANCH  37  38
ATOM     38  O   UNL     1      56.324  10.521  75.813  1.00  0.00    -0.394 OA
ATOM     39  H   UNL     1      56.289   9.792  75.141  1.00  0.00     0.210 HD
ENDBRANCH  37  38
ENDBRANCH  31  37
BRANCH  32  40
ATOM     40  O   UNL     1      58.334  10.025  77.799  1.00  0.00    -0.387 OA
ATOM     41  H   UNL     1      57.636  10.707  77.969  1.00  0.00     0.211 HD
ENDBRANCH  32  40
ENDBRANCH   1  27
TORSDOF 12
ENDMDL
MODEL 5
REMARK VINA RESULT:    -6.387      1.779      4.426
REMARK INTER + INTRA:         -10.717
REMARK INTER:                  -9.468
REMARK INTRA:                  -1.249
REMARK UNBOUND:                -1.343
REMARK SMILES O=c1c(O[C@@H]2O[C@@H](CO)[C@@H](O)[C@@H](O)[C@H]2O)c(-c2ccc(O)c(O)c2)oc2cc(O)cc(O)c12
REMARK SMILES IDX 4 1 3 2 16 3 25 4 2 5 26 6 1 7 33 8 27 9 31 10 28 11 30 12
REMARK SMILES IDX 17 13 18 14 19 15 20 16 24 17 22 18 21 19 23 21 32 23 29 25
REMARK SMILES IDX 5 27 14 28 6 29 12 30 7 31 10 32 15 33 13 35 8 37 9 38 11 40
REMARK H PARENT 21 20 23 22 32 24 29 26 15 34 13 36 9 39 11 41
REMARK Flexibility Score: inf
ROOT
ATOM      1  O   UNL     1      53.191   6.116  80.252  1.00  0.00    -0.454 OA
ENDROOT
BRANCH   1   2
ATOM      2  C   UNL     1      53.891   6.963  79.385  1.00  0.00     0.214 A 
ATOM      3  C   UNL     1      55.292   7.092  79.452  1.00  0.00     0.180 A 
ATOM      4  O   UNL     1      55.910   7.945  78.645  1.00  0.00    -0.452 OA
ATOM      5  C   UNL     1      53.184   7.696  78.426  1.00  0.00     0.239 A 
ATOM      6  C   UNL     1      55.280   8.690  77.744  1.00  0.00     0.146 A 
ATOM      7  O   UNL     1      51.946   7.497  78.318  1.00  0.00    -0.285 OA
ATOM      8  C   UNL     1      53.868   8.620  77.600  1.00  0.00     0.111 A 
ATOM      9  C   UNL     1      56.037   9.531  76.926  1.00  0.00     0.094 A 
ATOM     10  C   UNL     1      53.242   9.459  76.629  1.00  0.00     0.134 A 
ATOM     11  C   UNL     1      55.421  10.307  75.948  1.00  0.00     0.123 A 
ATOM     12  C   UNL     1      54.033  10.265  75.800  1.00  0.00     0.093 A 
BRANCH   3  13
ATOM     13  C   UNL     1      56.115   6.292  80.386  1.00  0.00     0.025 A 
ATOM     14  C   UNL     1      56.930   5.266  79.888  1.00  0.00     0.016 A 
ATOM     15  C   UNL     1      57.718   4.506  80.756  1.00  0.00     0.051 A 
ATOM     16  C   UNL     1      57.693   4.754  82.135  1.00  0.00     0.157 A 
ATOM     17  C   UNL     1      56.069   6.519  81.773  1.00  0.00     0.062 A 
ATOM     18  C   UNL     1      56.861   5.764  82.645  1.00  0.00     0.158 A 
BRANCH  16  19
ATOM     19  O   UNL     1      58.488   4.000  82.998  1.00  0.00    -0.504 OA
ATOM     20  H   UNL     1      58.678   4.303  83.946  1.00  0.00     0.293 HD
ENDBRANCH  16  19
BRANCH  18  21
ATOM     21  O   UNL     1      56.807   6.032  84.013  1.00  0.00    -0.504 OA
ATOM     22  H   UNL     1      57.394   5.546  84.680  1.00  0.00     0.293 HD
ENDBRANCH  18  21
ENDBRANCH   3  13
BRANCH  10  23
ATOM     23  O   UNL     1      51.857   9.560  76.456  1.00  0.00    -0.507 OA
ATOM     24  H   UNL     1      51.244  10.130  77.017  1.00  0.00     0.293 HD
ENDBRANCH  10  23
BRANCH  11  25
ATOM     25  O   UNL     1      56.198  11.124  75.129  1.00  0.00    -0.508 OA
ATOM     26  H   UNL     1      57.158  11.349  75.363  1.00  0.00     0.293 HD
ENDBRANCH  11  25
ENDBRANCH   1   2
BRANCH   1  27
ATOM     27  C   UNL     1      52.791   4.792  79.884  1.00  0.00     0.339 C 
ATOM     28  C   UNL     1      53.858   3.765  80.320  1.00  0.00     0.214 C 
ATOM     29  O   UNL     1      51.513   4.484  80.422  1.00  0.00    -0.332 OA
ATOM     30  C   UNL     1      53.879   3.623  81.857  1.00  0.00     0.180 C 
ATOM     31  C   UNL     1      51.520   4.540  81.840  1.00  0.00     0.179 C 
ATOM     32  C   UNL     1      52.460   3.460  82.436  1.00  0.00     0.177 C 
BRANCH  28  33
ATOM     33  O   UNL     1      53.605   2.520  79.722  1.00  0.00    -0.384 OA
ATOM     34  H   UNL     1      53.221   2.703  78.825  1.00  0.00     0.211 HD
ENDBRANCH  28  33
BRANCH  30  35
ATOM     35  O   UNL     1      54.680   2.536  82.243  1.00  0.00    -0.387 OA
ATOM     36  H   UNL     1      55.571   2.676  81.829  1.00  0.00     0.211 HD
ENDBRANCH  30  35
BRANCH  31  37
ATOM     37  C   UNL     1      50.081   4.412  82.361  1.00  0.00     0.191 C 
BRANCH  37  38
ATOM     38  O   UNL     1      49.269   3.762  81.423  1.00  0.00    -0.394 OA
ATOM     39  H   UNL     1      49.165   4.393  80.665  1.00  0.00     0.210 HD
ENDBRANCH  37  38
ENDBRANCH  31  37
BRANCH  32  40
ATOM     40  O   UNL     1      51.972   2.153  82.241  1.00  0.00    -0.387 OA
ATOM     41  H   UNL     1      51.696   1.788  83.120  1.00  0.00     0.211 HD
ENDBRANCH  32  40
ENDBRANCH   1  27
TORSDOF 12
ENDMDL
MODEL 6
REMARK VINA RESULT:    -6.369      2.273      6.593
REMARK INTER + INTRA:         -10.691
REMARK INTER:                  -9.511
REMARK INTRA:                  -1.180
REMARK UNBOUND:                -1.343
REMARK SMILES O=c1c(O[C@@H]2O[C@@H](CO)[C@@H](O)[C@@H](O)[C@H]2O)c(-c2ccc(O)c(O)c2)oc2cc(O)cc(O)c12
REMARK SMILES IDX 4 1 3 2 16 3 25 4 2 5 26 6 1 7 33 8 27 9 31 10 28 11 30 12
REMARK SMILES IDX 17 13 18 14 19 15 20 16 24 17 22 18 21 19 23 21 32 23 29 25
REMARK SMILES IDX 5 27 14 28 6 29 12 30 7 31 10 32 15 33 13 35 8 37 9 38 11 40
REMARK H PARENT 21 20 23 22 32 24 29 26 15 34 13 36 9 39 11 41
REMARK Flexibility Score: inf
ROOT
ATOM      1  O   UNL     1      55.328   6.234  79.664  1.00  0.00    -0.454 OA
ENDROOT
BRANCH   1   2
ATOM      2  C   UNL     1      54.229   5.533  80.175  1.00  0.00     0.214 A 
ATOM      3  C   UNL     1      52.918   5.793  79.732  1.00  0.00     0.180 A 
ATOM      4  O   UNL     1      51.900   5.143  80.282  1.00  0.00    -0.452 OA
ATOM      5  C   UNL     1      54.438   4.548  81.147  1.00  0.00     0.239 A 
ATOM      6  C   UNL     1      52.044   4.225  81.232  1.00  0.00     0.146 A 
ATOM      7  O   UNL     1      55.623   4.263  81.462  1.00  0.00    -0.285 OA
ATOM      8  C   UNL     1      53.330   3.892  81.735  1.00  0.00     0.111 A 
ATOM      9  C   UNL     1      50.903   3.581  81.715  1.00  0.00     0.094 A 
ATOM     10  C   UNL     1      53.422   2.915  82.772  1.00  0.00     0.134 A 
ATOM     11  C   UNL     1      51.009   2.593  82.690  1.00  0.00     0.123 A 
ATOM     12  C   UNL     1      52.262   2.261  83.209  1.00  0.00     0.093 A 
BRANCH   3  13
ATOM     13  C   UNL     1      52.627   6.763  78.654  1.00  0.00     0.025 A 
ATOM     14  C   UNL     1      51.760   7.837  78.902  1.00  0.00     0.016 A 
ATOM     15  C   UNL     1      51.480   8.766  77.897  1.00  0.00     0.051 A 
ATOM     16  C   UNL     1      52.054   8.627  76.626  1.00  0.00     0.157 A 
ATOM     17  C   UNL     1      53.178   6.610  77.369  1.00  0.00     0.062 A 
ATOM     18  C   UNL     1      52.905   7.542  76.361  1.00  0.00     0.158 A 
BRANCH  16  19
ATOM     19  O   UNL     1      51.780   9.562  75.627  1.00  0.00    -0.504 OA
ATOM     20  H   UNL     1      52.130   9.447  74.683  1.00  0.00     0.293 HD
ENDBRANCH  16  19
BRANCH  18  21
ATOM     21  O   UNL     1      53.487   7.370  75.105  1.00  0.00    -0.504 OA
ATOM     22  H   UNL     1      53.282   6.567  74.523  1.00  0.00     0.293 HD
ENDBRANCH  18  21
ENDBRANCH   3  13
BRANCH  10  23
ATOM     23  O   UNL     1      54.612   2.570  83.421  1.00  0.00    -0.507 OA
ATOM     24  H   UNL     1      55.509   2.474  82.971  1.00  0.00     0.293 HD
ENDBRANCH  10  23
BRANCH  11  25
ATOM     25  O   UNL     1      49.860   1.948  83.143  1.00  0.00    -0.508 OA
ATOM     26  H   UNL     1      49.862   1.394  83.991  1.00  0.00     0.293 HD
ENDBRANCH  11  25
ENDBRANCH   1   2
BRANCH   1  27
ATOM     27  C   UNL     1      55.590   7.603  79.988  1.00  0.00     0.339 C 
ATOM     28  C   UNL     1      56.089   7.727  81.444  1.00  0.00     0.214 C 
ATOM     29  O   UNL     1      56.509   8.172  79.067  1.00  0.00    -0.332 OA
ATOM     30  C   UNL     1      57.511   7.140  81.583  1.00  0.00     0.180 C 
ATOM     31  C   UNL     1      57.754   7.491  79.088  1.00  0.00     0.179 C 
ATOM     32  C   UNL     1      58.448   7.641  80.466  1.00  0.00     0.177 C 
BRANCH  28  33
ATOM     33  O   UNL     1      56.079   9.072  81.846  1.00  0.00    -0.384 OA
ATOM     34  H   UNL     1      55.216   9.458  81.544  1.00  0.00     0.211 HD
ENDBRANCH  28  33
BRANCH  30  35
ATOM     35  O   UNL     1      58.055   7.451  82.839  1.00  0.00    -0.387 OA
ATOM     36  H   UNL     1      59.041   7.405  82.744  1.00  0.00     0.211 HD
ENDBRANCH  30  35
BRANCH  31  37
ATOM     37  C   UNL     1      58.631   8.001  77.935  1.00  0.00     0.191 C 
BRANCH  37  38
ATOM     38  O   UNL     1      59.985   7.746  78.190  1.00  0.00    -0.394 OA
ATOM     39  H   UNL     1      60.432   7.723  77.304  1.00  0.00     0.210 HD
ENDBRANCH  37  38
ENDBRANCH  31  37
BRANCH  32  40
ATOM     40  O   UNL     1      58.880   8.959  80.712  1.00  0.00    -0.387 OA
ATOM     41  H   UNL     1      58.134   9.460  81.130  1.00  0.00     0.211 HD
ENDBRANCH  32  40
ENDBRANCH   1  27
TORSDOF 12
ENDMDL
MODEL 7
REMARK VINA RESULT:    -6.333      2.063      7.934
REMARK INTER + INTRA:         -10.638
REMARK INTER:                  -9.023
REMARK INTRA:                  -1.615
REMARK UNBOUND:                -1.343
REMARK SMILES O=c1c(O[C@@H]2O[C@@H](CO)[C@@H](O)[C@@H](O)[C@H]2O)c(-c2ccc(O)c(O)c2)oc2cc(O)cc(O)c12
REMARK SMILES IDX 4 1 3 2 16 3 25 4 2 5 26 6 1 7 33 8 27 9 31 10 28 11 30 12
REMARK SMILES IDX 17 13 18 14 19 15 20 16 24 17 22 18 21 19 23 21 32 23 29 25
REMARK SMILES IDX 5 27 14 28 6 29 12 30 7 31 10 32 15 33 13 35 8 37 9 38 11 40
REMARK H PARENT 21 20 23 22 32 24 29 26 15 34 13 36 9 39 11 41
REMARK Flexibility Score: inf
ROOT
ATOM      1  O   UNL     1      53.856   7.441  78.758  1.00  0.00    -0.454 OA
ENDROOT
BRANCH   1   2
ATOM      2  C   UNL     1      53.808   6.365  79.653  1.00  0.00     0.214 A 
ATOM      3  C   UNL     1      54.979   5.811  80.204  1.00  0.00     0.180 A 
ATOM      4  O   UNL     1      54.891   4.757  81.006  1.00  0.00    -0.452 OA
ATOM      5  C   UNL     1      52.566   5.828  80.010  1.00  0.00     0.239 A 
ATOM      6  C   UNL     1      53.739   4.191  81.347  1.00  0.00     0.146 A 
ATOM      7  O   UNL     1      51.527   6.395  79.583  1.00  0.00    -0.285 OA
ATOM      8  C   UNL     1      52.506   4.687  80.846  1.00  0.00     0.111 A 
ATOM      9  C   UNL     1      53.764   3.105  82.225  1.00  0.00     0.094 A 
ATOM     10  C   UNL     1      51.301   4.023  81.228  1.00  0.00     0.134 A 
ATOM     11  C   UNL     1      52.579   2.498  82.632  1.00  0.00     0.123 A 
ATOM     12  C   UNL     1      51.357   2.960  82.139  1.00  0.00     0.093 A 
BRANCH   3  13
ATOM     13  C   UNL     1      56.321   6.373  79.933  1.00  0.00     0.025 A 
ATOM     14  C   UNL     1      57.225   5.658  79.134  1.00  0.00     0.016 A 
ATOM     15  C   UNL     1      58.493   6.177  78.864  1.00  0.00     0.051 A 
ATOM     16  C   UNL     1      58.879   7.414  79.398  1.00  0.00     0.157 A 
ATOM     17  C   UNL     1      56.723   7.599  80.493  1.00  0.00     0.062 A 
ATOM     18  C   UNL     1      57.990   8.126  80.219  1.00  0.00     0.158 A 
BRANCH  16  19
ATOM     19  O   UNL     1      60.143   7.935  79.118  1.00  0.00    -0.504 OA
ATOM     20  H   UNL     1      60.262   8.875  78.761  1.00  0.00     0.293 HD
ENDBRANCH  16  19
BRANCH  18  21
ATOM     21  O   UNL     1      58.346   9.356  80.773  1.00  0.00    -0.504 OA
ATOM     22  H   UNL     1      59.287   9.549  81.093  1.00  0.00     0.293 HD
ENDBRANCH  18  21
ENDBRANCH   3  13
BRANCH  10  23
ATOM     23  O   UNL     1      50.035   4.348  80.729  1.00  0.00    -0.507 OA
ATOM     24  H   UNL     1      49.428   3.713  80.232  1.00  0.00     0.293 HD
ENDBRANCH  10  23
BRANCH  11  25
ATOM     25  O   UNL     1      52.626   1.429  83.525  1.00  0.00    -0.508 OA
ATOM     26  H   UNL     1      51.781   0.976  83.853  1.00  0.00     0.293 HD
ENDBRANCH  11  25
ENDBRANCH   1   2
BRANCH   1  27
ATOM     27  C   UNL     1      54.210   7.284  77.380  1.00  0.00     0.339 C 
ATOM     28  C   UNL     1      53.091   7.833  76.470  1.00  0.00     0.214 C 
ATOM     29  O   UNL     1      55.460   7.901  77.108  1.00  0.00    -0.332 OA
ATOM     30  C   UNL     1      53.025   9.374  76.559  1.00  0.00     0.180 C 
ATOM     31  C   UNL     1      55.420   9.294  77.374  1.00  0.00     0.179 C 
ATOM     32  C   UNL     1      54.422  10.014  76.431  1.00  0.00     0.177 C 
BRANCH  28  33
ATOM     33  O   UNL     1      53.306   7.434  75.141  1.00  0.00    -0.384 OA
ATOM     34  H   UNL     1      53.240   8.250  74.580  1.00  0.00     0.211 HD
ENDBRANCH  28  33
BRANCH  30  35
ATOM     35  O   UNL     1      52.170   9.891  75.572  1.00  0.00    -0.387 OA
ATOM     36  H   UNL     1      52.643   9.798  74.706  1.00  0.00     0.211 HD
ENDBRANCH  30  35
BRANCH  31  37
ATOM     37  C   UNL     1      56.839   9.872  77.271  1.00  0.00     0.191 C 
BRANCH  37  38
ATOM     38  O   UNL     1      57.631   9.096  76.416  1.00  0.00    -0.394 OA
ATOM     39  H   UNL     1      57.045   8.368  76.083  1.00  0.00     0.210 HD
ENDBRANCH  37  38
ENDBRANCH  31  37
BRANCH  32  40
ATOM     40  O   UNL     1      54.859  10.029  75.092  1.00  0.00    -0.387 OA
ATOM     41  H   UNL     1      54.908   9.093  74.769  1.00  0.00     0.211 HD
ENDBRANCH  32  40
ENDBRANCH   1  27
TORSDOF 12
ENDMDL
MODEL 8
REMARK VINA RESULT:    -6.255      2.049      6.262
REMARK INTER + INTRA:         -10.523
REMARK INTER:                  -9.654
REMARK INTRA:                  -0.869
REMARK UNBOUND:                -1.343
REMARK SMILES O=c1c(O[C@@H]2O[C@@H](CO)[C@@H](O)[C@@H](O)[C@H]2O)c(-c2ccc(O)c(O)c2)oc2cc(O)cc(O)c12
REMARK SMILES IDX 4 1 3 2 16 3 25 4 2 5 26 6 1 7 33 8 27 9 31 10 28 11 30 12
REMARK SMILES IDX 17 13 18 14 19 15 20 16 24 17 22 18 21 19 23 21 32 23 29 25
REMARK SMILES IDX 5 27 14 28 6 29 12 30 7 31 10 32 15 33 13 35 8 37 9 38 11 40
REMARK H PARENT 21 20 23 22 32 24 29 26 15 34 13 36 9 39 11 41
REMARK Flexibility Score: inf
ROOT
ATOM      1  O   UNL     1      53.227   7.867  79.463  1.00  0.00    -0.454 OA
ENDROOT
BRANCH   1   2
ATOM      2  C   UNL     1      54.176   7.058  80.100  1.00  0.00     0.214 A 
ATOM      3  C   UNL     1      54.123   5.653  80.015  1.00  0.00     0.180 A 
ATOM      4  O   UNL     1      55.012   4.923  80.678  1.00  0.00    -0.452 OA
ATOM      5  C   UNL     1      55.203   7.658  80.836  1.00  0.00     0.239 A 
ATOM      6  C   UNL     1      55.983   5.446  81.419  1.00  0.00     0.146 A 
ATOM      7  O   UNL     1      55.290   8.914  80.823  1.00  0.00    -0.285 OA
ATOM      8  C   UNL     1      56.118   6.853  81.556  1.00  0.00     0.111 A 
ATOM      9  C   UNL     1      56.882   4.581  82.047  1.00  0.00     0.094 A 
ATOM     10  C   UNL     1      57.168   7.358  82.383  1.00  0.00     0.134 A 
ATOM     11  C   UNL     1      57.932   5.084  82.809  1.00  0.00     0.123 A 
ATOM     12  C   UNL     1      58.074   6.465  82.969  1.00  0.00     0.093 A 
BRANCH   3  13
ATOM     13  C   UNL     1      53.114   4.949  79.194  1.00  0.00     0.025 A 
ATOM     14  C   UNL     1      53.305   4.833  77.809  1.00  0.00     0.016 A 
ATOM     15  C   UNL     1      52.366   4.165  77.020  1.00  0.00     0.051 A 
ATOM     16  C   UNL     1      51.216   3.615  77.602  1.00  0.00     0.157 A 
ATOM     17  C   UNL     1      51.945   4.423  79.770  1.00  0.00     0.062 A 
ATOM     18  C   UNL     1      51.004   3.748  78.984  1.00  0.00     0.158 A 
BRANCH  16  19
ATOM     19  O   UNL     1      50.284   2.941  76.813  1.00  0.00    -0.504 OA
ATOM     20  H   UNL     1      50.367   2.910  75.804  1.00  0.00     0.293 HD
ENDBRANCH  16  19
BRANCH  18  21
ATOM     21  O   UNL     1      49.867   3.219  79.594  1.00  0.00    -0.504 OA
ATOM     22  H   UNL     1      49.912   2.713  80.471  1.00  0.00     0.293 HD
ENDBRANCH  18  21
ENDBRANCH   3  13
BRANCH  10  23
ATOM     23  O   UNL     1      57.349   8.713  82.680  1.00  0.00    -0.507 OA
ATOM     24  H   UNL     1      57.598   9.078  83.586  1.00  0.00     0.293 HD
ENDBRANCH  10  23
BRANCH  11  25
ATOM     25  O   UNL     1      58.829   4.204  83.410  1.00  0.00    -0.508 OA
ATOM     26  H   UNL     1      59.086   4.293  84.386  1.00  0.00     0.293 HD
ENDBRANCH  11  25
ENDBRANCH   1   2
BRANCH   1  27
ATOM     27  C   UNL     1      53.590   8.969  78.625  1.00  0.00     0.339 C 
ATOM     28  C   UNL     1      54.068   8.464  77.247  1.00  0.00     0.214 C 
ATOM     29  O   UNL     1      52.512   9.886  78.505  1.00  0.00    -0.332 OA
ATOM     30  C   UNL     1      52.885   7.887  76.439  1.00  0.00     0.180 C 
ATOM     31  C   UNL     1      51.372   9.272  77.921  1.00  0.00     0.179 C 
ATOM     32  C   UNL     1      51.663   8.826  76.465  1.00  0.00     0.177 C 
BRANCH  28  33
ATOM     33  O   UNL     1      54.679   9.508  76.534  1.00  0.00    -0.384 OA
ATOM     34  H   UNL     1      54.046  10.273  76.544  1.00  0.00     0.211 HD
ENDBRANCH  28  33
BRANCH  30  35
ATOM     35  O   UNL     1      53.268   7.637  75.111  1.00  0.00    -0.387 OA
ATOM     36  H   UNL     1      53.086   8.468  74.600  1.00  0.00     0.211 HD
ENDBRANCH  30  35
BRANCH  31  37
ATOM     37  C   UNL     1      50.178  10.234  78.008  1.00  0.00     0.191 C 
BRANCH  37  38
ATOM     38  O   UNL     1      49.095   9.751  77.262  1.00  0.00    -0.394 OA
ATOM     39  H   UNL     1      48.887  10.454  76.594  1.00  0.00     0.210 HD
ENDBRANCH  37  38
ENDBRANCH  31  37
BRANCH  32  40
ATOM     40  O   UNL     1      51.835   9.917  75.590  1.00  0.00    -0.387 OA
ATOM     41  H   UNL     1      52.643  10.418  75.871  1.00  0.00     0.211 HD
ENDBRANCH  32  40
ENDBRANCH   1  27
TORSDOF 12
ENDMDL
