MODEL 1
REMARK VINA RESULT:    -8.775      0.000      0.000
REMARK INTER + INTRA:          -9.581
REMARK INTER:                  -9.544
REMARK INTRA:                  -0.037
REMARK UNBOUND:                -0.037
REMARK SMILES C[C@H]1[C@H](C)CC[C@@]2(C(=O)[O-])CC[C@]3(C)C(=CC[C@H]4[C@@]5(C)CC[C@@H](O)C(C)(C)[C@H]5CC[C@]43C)[C@@H]12
REMARK SMILES IDX 7 1 6 2 11 3 33 4 5 5 12 6 15 7 2 8 3 9 13 10 16 11 1 12
REMARK SMILES IDX 4 13 14 14 31 15 17 16 18 17 30 18 32 19 19 20 29 21 28 22
REMARK SMILES IDX 21 23 20 24 25 25 22 26 23 27 26 28 27 29 8 30 9 31 10 32
REMARK SMILES IDX 24 33
REMARK H PARENT 24 34
REMARK Flexibility Score: inf
ROOT
ATOM      1  C   UNL     1     169.528 150.558 148.720  1.00  0.00     0.017 C 
ATOM      2  C   UNL     1     168.668 151.295 149.780  1.00  0.00     0.014 C 
ATOM      3  C   UNL     1     170.028 149.212 149.367  1.00  0.00     0.014 C 
ATOM      4  C   UNL     1     168.669 150.260 147.432  1.00  0.00     0.030 C 
ATOM      5  C   UNL     1     167.995 152.549 149.223  1.00  0.00     0.004 C 
ATOM      6  C   UNL     1     170.346 148.092 148.344  1.00  0.00     0.013 C 
ATOM      7  C   UNL     1     168.109 148.833 147.520  1.00  0.00    -0.063 C 
ATOM      8  C   UNL     1     167.706 151.413 146.966  1.00  0.00    -0.003 C 
ATOM      9  C   UNL     1     166.996 152.188 148.115  1.00  0.00    -0.011 C 
ATOM     10  C   UNL     1     169.156 147.719 147.348  1.00  0.00    -0.006 C 
ATOM     11  C   UNL     1     166.992 148.626 148.235  1.00  0.00    -0.027 C 
ATOM     12  C   UNL     1     166.722 150.929 145.883  1.00  0.00     0.008 C 
ATOM     13  C   UNL     1     166.324 153.476 147.604  1.00  0.00     0.008 C 
ATOM     14  C   UNL     1     169.699 147.797 145.875  1.00  0.00     0.017 C 
ATOM     15  C   UNL     1     168.557 146.234 147.596  1.00  0.00    -0.020 C 
ATOM     16  C   UNL     1     166.527 147.296 148.716  1.00  0.00     0.032 C 
ATOM     17  C   UNL     1     167.637 146.213 148.870  1.00  0.00     0.006 C 
ATOM     18  C   UNL     1     167.668 145.772 146.388  1.00  0.00     0.008 C 
ATOM     19  C   UNL     1     169.769 145.241 147.738  1.00  0.00     0.012 C 
ATOM     20  C   UNL     1     167.047 144.749 149.248  1.00  0.00    -0.025 C 
ATOM     21  C   UNL     1     166.586 144.698 146.694  1.00  0.00     0.005 C 
ATOM     22  C   UNL     1     166.863 143.831 147.953  1.00  0.00     0.003 C 
ATOM     23  C   UNL     1     165.681 144.889 150.019  1.00  0.00     0.010 C 
ATOM     24  C   UNL     1     168.056 144.071 150.241  1.00  0.00     0.012 C 
ATOM     25  C   UNL     1     165.892 142.569 148.108  1.00  0.00    -0.006 C 
ATOM     26  C   UNL     1     164.914 143.585 150.239  1.00  0.00     0.033 C 
ATOM     27  C   UNL     1     164.599 142.913 148.899  1.00  0.00     0.120 C 
ATOM     28  C   UNL     1     165.471 141.976 146.733  1.00  0.00     0.014 C 
ATOM     29  C   UNL     1     166.638 141.402 148.821  1.00  0.00     0.014 C 
ENDROOT
BRANCH   1  30
ATOM     30  C   UNL     1     170.745 151.426 148.400  1.00  0.00     0.048 C 
ATOM     31  O   UNL     1     171.128 152.336 149.183  1.00  0.00    -0.550 OA
ATOM     32  O   UNL     1     171.497 151.172 147.258  1.00  0.00    -0.550 OA
ENDBRANCH   1  30
BRANCH  27  33
ATOM     33  O   UNL     1     163.764 143.749 148.134  1.00  0.00    -0.393 OA
ATOM     34  H   UNL     1     163.131 143.161 147.645  1.00  0.00     0.210 HD
ENDBRANCH  27  33
TORSDOF 2
ENDMDL
MODEL 2
REMARK VINA RESULT:    -7.960      1.487      7.775
REMARK INTER + INTRA:          -8.695
REMARK INTER:                  -8.618
REMARK INTRA:                  -0.077
REMARK UNBOUND:                -0.037
REMARK SMILES C[C@H]1[C@H](C)CC[C@@]2(C(=O)[O-])CC[C@]3(C)C(=CC[C@H]4[C@@]5(C)CC[C@@H](O)C(C)(C)[C@H]5CC[C@]43C)[C@@H]12
REMARK SMILES IDX 7 1 6 2 11 3 33 4 5 5 12 6 15 7 2 8 3 9 13 10 16 11 1 12
REMARK SMILES IDX 4 13 14 14 31 15 17 16 18 17 30 18 32 19 19 20 29 21 28 22
REMARK SMILES IDX 21 23 20 24 25 25 22 26 23 27 26 28 27 29 8 30 9 31 10 32
REMARK SMILES IDX 24 33
REMARK H PARENT 24 34
REMARK Flexibility Score: inf
ROOT
ATOM      1  C   UNL     1     166.359 144.053 147.057  1.00  0.00     0.017 C 
ATOM      2  C   UNL     1     164.875 144.131 147.499  1.00  0.00     0.014 C 
ATOM      3  C   UNL     1     166.593 145.175 145.977  1.00  0.00     0.014 C 
ATOM      4  C   UNL     1     167.310 144.278 148.294  1.00  0.00     0.030 C 
ATOM      5  C   UNL     1     164.556 143.189 148.659  1.00  0.00     0.004 C 
ATOM      6  C   UNL     1     168.060 145.668 145.875  1.00  0.00     0.013 C 
ATOM      7  C   UNL     1     167.725 145.755 148.347  1.00  0.00    -0.063 C 
ATOM      8  C   UNL     1     166.874 143.575 149.632  1.00  0.00    -0.003 C 
ATOM      9  C   UNL     1     165.343 143.584 149.917  1.00  0.00    -0.011 C 
ATOM     10  C   UNL     1     168.700 146.191 147.240  1.00  0.00    -0.006 C 
ATOM     11  C   UNL     1     166.885 146.636 148.912  1.00  0.00    -0.027 C 
ATOM     12  C   UNL     1     167.702 144.076 150.833  1.00  0.00     0.008 C 
ATOM     13  C   UNL     1     164.971 142.628 151.064  1.00  0.00     0.008 C 
ATOM     14  C   UNL     1     170.057 145.432 147.474  1.00  0.00     0.017 C 
ATOM     15  C   UNL     1     168.997 147.783 147.238  1.00  0.00    -0.020 C 
ATOM     16  C   UNL     1     166.957 148.113 148.732  1.00  0.00     0.032 C 
ATOM     17  C   UNL     1     167.665 148.595 147.430  1.00  0.00     0.006 C 
ATOM     18  C   UNL     1     169.947 148.185 148.421  1.00  0.00     0.008 C 
ATOM     19  C   UNL     1     169.705 148.142 145.879  1.00  0.00     0.012 C 
ATOM     20  C   UNL     1     167.846 150.207 147.366  1.00  0.00    -0.025 C 
ATOM     21  C   UNL     1     169.858 149.658 148.911  1.00  0.00     0.005 C 
ATOM     22  C   UNL     1     169.294 150.662 147.869  1.00  0.00     0.003 C 
ATOM     23  C   UNL     1     166.724 150.920 148.210  1.00  0.00     0.010 C 
ATOM     24  C   UNL     1     167.638 150.650 145.875  1.00  0.00     0.012 C 
ATOM     25  C   UNL     1     169.451 152.198 148.284  1.00  0.00    -0.006 C 
ATOM     26  C   UNL     1     166.909 152.424 148.412  1.00  0.00     0.033 C 
ATOM     27  C   UNL     1     168.241 152.714 149.112  1.00  0.00     0.120 C 
ATOM     28  C   UNL     1     170.743 152.456 149.112  1.00  0.00     0.014 C 
ATOM     29  C   UNL     1     169.622 153.083 147.014  1.00  0.00     0.014 C 
ENDROOT
BRANCH   1  30
ATOM     30  C   UNL     1     166.596 142.691 146.402  1.00  0.00     0.048 C 
ATOM     31  O   UNL     1     165.646 142.024 145.910  1.00  0.00    -0.550 OA
ATOM     32  O   UNL     1     167.890 142.196 146.278  1.00  0.00    -0.550 OA
ENDBRANCH   1  30
BRANCH  27  33
ATOM     33  O   UNL     1     168.239 152.131 150.393  1.00  0.00    -0.393 OA
ATOM     34  H   UNL     1     167.451 152.492 150.877  1.00  0.00     0.210 HD
ENDBRANCH  27  33
TORSDOF 2
ENDMDL
MODEL 3
REMARK VINA RESULT:    -6.726      1.447      2.315
REMARK INTER + INTRA:          -7.353
REMARK INTER:                  -7.267
REMARK INTRA:                  -0.087
REMARK UNBOUND:                -0.037
REMARK SMILES C[C@H]1[C@H](C)CC[C@@]2(C(=O)[O-])CC[C@]3(C)C(=CC[C@H]4[C@@]5(C)CC[C@@H](O)C(C)(C)[C@H]5CC[C@]43C)[C@@H]12
REMARK SMILES IDX 7 1 6 2 11 3 33 4 5 5 12 6 15 7 2 8 3 9 13 10 16 11 1 12
REMARK SMILES IDX 4 13 14 14 31 15 17 16 18 17 30 18 32 19 19 20 29 21 28 22
REMARK SMILES IDX 21 23 20 24 25 25 22 26 23 27 26 28 27 29 8 30 9 31 10 32
REMARK SMILES IDX 24 33
REMARK H PARENT 24 34
REMARK Flexibility Score: inf
ROOT
ATOM      1  C   UNL     1     170.244 150.871 147.884  1.00  0.00     0.017 C 
ATOM      2  C   UNL     1     170.993 151.011 149.234  1.00  0.00     0.014 C 
ATOM      3  C   UNL     1     170.564 149.440 147.308  1.00  0.00     0.014 C 
ATOM      4  C   UNL     1     168.691 151.038 148.101  1.00  0.00     0.030 C 
ATOM      5  C   UNL     1     170.643 152.303 149.971  1.00  0.00     0.004 C 
ATOM      6  C   UNL     1     169.481 148.880 146.351  1.00  0.00     0.013 C 
ATOM      7  C   UNL     1     168.052 149.650 148.247  1.00  0.00    -0.063 C 
ATOM      8  C   UNL     1     168.255 152.170 149.102  1.00  0.00    -0.003 C 
ATOM      9  C   UNL     1     169.158 152.324 150.362  1.00  0.00    -0.011 C 
ATOM     10  C   UNL     1     168.003 148.824 146.950  1.00  0.00    -0.006 C 
ATOM     11  C   UNL     1     168.091 149.049 149.447  1.00  0.00    -0.027 C 
ATOM     12  C   UNL     1     166.758 152.071 149.456  1.00  0.00     0.008 C 
ATOM     13  C   UNL     1     168.857 153.628 151.124  1.00  0.00     0.008 C 
ATOM     14  C   UNL     1     167.035 149.557 145.953  1.00  0.00     0.017 C 
ATOM     15  C   UNL     1     167.461 147.314 147.173  1.00  0.00    -0.020 C 
ATOM     16  C   UNL     1     167.853 147.597 149.677  1.00  0.00     0.032 C 
ATOM     17  C   UNL     1     168.116 146.673 148.450  1.00  0.00     0.006 C 
ATOM     18  C   UNL     1     165.908 147.296 147.403  1.00  0.00     0.008 C 
ATOM     19  C   UNL     1     167.788 146.486 145.875  1.00  0.00     0.012 C 
ATOM     20  C   UNL     1     167.694 145.128 148.718  1.00  0.00    -0.025 C 
ATOM     21  C   UNL     1     165.338 146.082 148.189  1.00  0.00     0.005 C 
ATOM     22  C   UNL     1     166.229 144.809 148.164  1.00  0.00     0.003 C 
ATOM     23  C   UNL     1     167.784 144.792 150.254  1.00  0.00     0.010 C 
ATOM     24  C   UNL     1     168.746 144.215 147.995  1.00  0.00     0.012 C 
ATOM     25  C   UNL     1     165.519 143.499 148.745  1.00  0.00    -0.006 C 
ATOM     26  C   UNL     1     167.204 143.439 150.665  1.00  0.00     0.033 C 
ATOM     27  C   UNL     1     165.724 143.347 150.279  1.00  0.00     0.120 C 
ATOM     28  C   UNL     1     163.990 143.481 148.462  1.00  0.00     0.014 C 
ATOM     29  C   UNL     1     166.061 142.229 148.023  1.00  0.00     0.014 C 
ENDROOT
BRANCH   1  30
ATOM     30  C   UNL     1     170.795 151.919 146.916  1.00  0.00     0.048 C 
ATOM     31  O   UNL     1     171.893 151.751 146.321  1.00  0.00    -0.550 OA
ATOM     32  O   UNL     1     170.048 153.054 146.623  1.00  0.00    -0.550 OA
ENDBRANCH   1  30
BRANCH  27  33
ATOM     33  O   UNL     1     164.992 144.329 150.971  1.00  0.00    -0.393 OA
ATOM     34  H   UNL     1     164.057 144.282 150.640  1.00  0.00     0.210 HD
ENDBRANCH  27  33
TORSDOF 2
ENDMDL
MODEL 4
REMARK VINA RESULT:    -6.447      1.596      7.889
REMARK INTER + INTRA:          -7.050
REMARK INTER:                  -6.830
REMARK INTRA:                  -0.220
REMARK UNBOUND:                -0.037
REMARK SMILES C[C@H]1[C@H](C)CC[C@@]2(C(=O)[O-])CC[C@]3(C)C(=CC[C@H]4[C@@]5(C)CC[C@@H](O)C(C)(C)[C@H]5CC[C@]43C)[C@@H]12
REMARK SMILES IDX 7 1 6 2 11 3 33 4 5 5 12 6 15 7 2 8 3 9 13 10 16 11 1 12
REMARK SMILES IDX 4 13 14 14 31 15 17 16 18 17 30 18 32 19 19 20 29 21 28 22
REMARK SMILES IDX 21 23 20 24 25 25 22 26 23 27 26 28 27 29 8 30 9 31 10 32
REMARK SMILES IDX 24 33
REMARK H PARENT 24 34
REMARK Flexibility Score: inf
ROOT
ATOM      1  C   UNL     1     166.760 144.091 148.624  1.00  0.00     0.017 C 
ATOM      2  C   UNL     1     166.421 143.919 150.127  1.00  0.00     0.014 C 
ATOM      3  C   UNL     1     165.958 145.340 148.096  1.00  0.00     0.014 C 
ATOM      4  C   UNL     1     168.310 144.318 148.437  1.00  0.00     0.030 C 
ATOM      5  C   UNL     1     167.255 142.829 150.798  1.00  0.00     0.004 C 
ATOM      6  C   UNL     1     166.598 146.037 146.869  1.00  0.00     0.013 C 
ATOM      7  C   UNL     1     168.591 145.825 148.357  1.00  0.00    -0.063 C 
ATOM      8  C   UNL     1     169.247 143.429 149.334  1.00  0.00    -0.003 C 
ATOM      9  C   UNL     1     168.746 143.198 150.791  1.00  0.00    -0.011 C 
ATOM     10  C   UNL     1     168.113 146.502 147.060  1.00  0.00    -0.006 C 
ATOM     11  C   UNL     1     168.692 146.520 149.501  1.00  0.00    -0.027 C 
ATOM     12  C   UNL     1     170.709 143.914 149.283  1.00  0.00     0.008 C 
ATOM     13  C   UNL     1     169.543 142.087 151.498  1.00  0.00     0.008 C 
ATOM     14  C   UNL     1     168.965 145.918 145.875  1.00  0.00     0.017 C 
ATOM     15  C   UNL     1     168.291 148.111 147.075  1.00  0.00    -0.020 C 
ATOM     16  C   UNL     1     168.602 148.003 149.604  1.00  0.00     0.032 C 
ATOM     17  C   UNL     1     167.824 148.708 148.451  1.00  0.00     0.006 C 
ATOM     18  C   UNL     1     169.796 148.518 146.893  1.00  0.00     0.008 C 
ATOM     19  C   UNL     1     167.461 148.701 145.875  1.00  0.00     0.012 C 
ATOM     20  C   UNL     1     167.892 150.327 148.540  1.00  0.00    -0.025 C 
ATOM     21  C   UNL     1     170.212 149.906 147.454  1.00  0.00     0.005 C 
ATOM     22  C   UNL     1     169.049 150.924 147.612  1.00  0.00     0.003 C 
ATOM     23  C   UNL     1     168.093 150.789 150.032  1.00  0.00     0.010 C 
ATOM     24  C   UNL     1     166.500 150.888 148.080  1.00  0.00     0.012 C 
ATOM     25  C   UNL     1     169.522 152.417 147.936  1.00  0.00    -0.006 C 
ATOM     26  C   UNL     1     168.393 152.276 150.224  1.00  0.00     0.033 C 
ATOM     27  C   UNL     1     169.662 152.674 149.463  1.00  0.00     0.120 C 
ATOM     28  C   UNL     1     170.881 152.765 147.265  1.00  0.00     0.014 C 
ATOM     29  C   UNL     1     168.517 153.442 147.331  1.00  0.00     0.014 C 
ENDROOT
BRANCH   1  30
ATOM     30  C   UNL     1     166.276 142.850 147.875  1.00  0.00     0.048 C 
ATOM     31  O   UNL     1     165.100 142.417 148.011  1.00  0.00    -0.550 OA
ATOM     32  O   UNL     1     167.118 142.214 146.969  1.00  0.00    -0.550 OA
ENDBRANCH   1  30
BRANCH  27  33
ATOM     33  O   UNL     1     170.765 151.968 149.980  1.00  0.00    -0.393 OA
ATOM     34  H   UNL     1     170.612 151.007 149.785  1.00  0.00     0.210 HD
ENDBRANCH  27  33
TORSDOF 2
ENDMDL
