MODEL 1
REMARK VINA RESULT:    -4.277      0.000      0.000
REMARK INTER + INTRA:          -8.022
REMARK INTER:                  -6.778
REMARK INTRA:                  -1.244
REMARK UNBOUND:                -1.244
REMARK SMILES CCCCCCCCCCCC(=O)[O-]
REMARK SMILES IDX 7 1 8 2 9 3 10 4 11 5 12 6 13 7 14 8 6 9 5 10 4 11 3 12 2 13
REMARK SMILES IDX 1 14
REMARK H PARENT
REMARK Flexibility Score: inf
ROOT
ATOM      1  C   UNL     1      14.130  -0.474  -1.282  1.00  0.00     0.000 C 
ENDROOT
BRANCH   1   2
ATOM      2  C   UNL     1      12.974  -0.843  -0.334  1.00  0.00     0.000 C 
BRANCH   2   3
ATOM      3  C   UNL     1      12.712   0.172   0.793  1.00  0.00     0.000 C 
BRANCH   3   4
ATOM      4  C   UNL     1      11.230   0.552   0.927  1.00  0.00     0.006 C 
BRANCH   4   5
ATOM      5  C   UNL     1      10.677   0.134   2.291  1.00  0.00     0.053 C 
BRANCH   5   6
ATOM      6  C   UNL     1       9.734  -1.018   2.145  1.00  0.00     0.041 C 
ATOM      7  O   UNL     1      10.118  -2.085   1.597  1.00  0.00    -0.550 OA
ATOM      8  O   UNL     1       8.447  -0.932   2.658  1.00  0.00    -0.550 OA
ENDBRANCH   5   6
ENDBRANCH   4   5
ENDBRANCH   3   4
ENDBRANCH   2   3
ENDBRANCH   1   2
BRANCH   1   9
ATOM      9  C   UNL     1      15.376   0.032  -0.535  1.00  0.00     0.000 C 
BRANCH   9  10
ATOM     10  C   UNL     1      16.040  -1.062   0.315  1.00  0.00    -0.000 C 
BRANCH  10  11
ATOM     11  C   UNL     1      16.239  -0.634   1.780  1.00  0.00    -0.000 C 
BRANCH  11  12
ATOM     12  C   UNL     1      15.566  -1.610   2.768  1.00  0.00    -0.000 C 
BRANCH  12  13
ATOM     13  C   UNL     1      14.919  -2.827   2.085  1.00  0.00    -0.003 C 
ATOM     14  C   UNL     1      13.488  -3.085   2.554  1.00  0.00     0.004 C 
ENDBRANCH  12  13
ENDBRANCH  11  12
ENDBRANCH  10  11
ENDBRANCH   9  10
ENDBRANCH   1   9
TORSDOF 10
ENDMDL
MODEL 2
REMARK VINA RESULT:    -4.269      1.492      3.097
REMARK INTER + INTRA:          -8.009
REMARK INTER:                  -6.523
REMARK INTRA:                  -1.486
REMARK UNBOUND:                -1.244
REMARK SMILES CCCCCCCCCCCC(=O)[O-]
REMARK SMILES IDX 7 1 8 2 9 3 10 4 11 5 12 6 13 7 14 8 6 9 5 10 4 11 3 12 2 13
REMARK SMILES IDX 1 14
REMARK H PARENT
REMARK Flexibility Score: inf
ROOT
ATOM      1  C   UNL     1      12.887  -0.223   4.352  1.00  0.00     0.000 C 
ENDROOT
BRANCH   1   2
ATOM      2  C   UNL     1      11.635   0.493   3.813  1.00  0.00     0.000 C 
BRANCH   2   3
ATOM      3  C   UNL     1      11.696   0.872   2.322  1.00  0.00     0.000 C 
BRANCH   3   4
ATOM      4  C   UNL     1      10.438   0.456   1.546  1.00  0.00     0.006 C 
BRANCH   4   5
ATOM      5  C   UNL     1       9.579  -0.508   2.368  1.00  0.00     0.053 C 
BRANCH   5   6
ATOM      6  C   UNL     1       9.602  -1.877   1.765  1.00  0.00     0.041 C 
ATOM      7  O   UNL     1      10.658  -2.319   1.239  1.00  0.00    -0.550 OA
ATOM      8  O   UNL     1       8.475  -2.684   1.828  1.00  0.00    -0.550 OA
ENDBRANCH   5   6
ENDBRANCH   4   5
ENDBRANCH   3   4
ENDBRANCH   2   3
ENDBRANCH   1   2
BRANCH   1   9
ATOM      9  C   UNL     1      13.013  -1.669   3.841  1.00  0.00     0.000 C 
BRANCH   9  10
ATOM     10  C   UNL     1      14.280  -1.890   3.001  1.00  0.00    -0.000 C 
BRANCH  10  11
ATOM     11  C   UNL     1      15.019  -0.576   2.690  1.00  0.00    -0.000 C 
BRANCH  11  12
ATOM     12  C   UNL     1      15.066  -0.279   1.176  1.00  0.00    -0.000 C 
BRANCH  12  13
ATOM     13  C   UNL     1      14.218  -1.247   0.333  1.00  0.00    -0.003 C 
ATOM     14  C   UNL     1      13.327  -0.534  -0.682  1.00  0.00     0.004 C 
ENDBRANCH  12  13
ENDBRANCH  11  12
ENDBRANCH  10  11
ENDBRANCH   9  10
ENDBRANCH   1   9
TORSDOF 10
ENDMDL
MODEL 3
REMARK VINA RESULT:    -4.196      2.934      5.207
REMARK INTER + INTRA:          -7.893
REMARK INTER:                  -6.445
REMARK INTRA:                  -1.448
REMARK UNBOUND:                -1.244
REMARK SMILES CCCCCCCCCCCC(=O)[O-]
REMARK SMILES IDX 7 1 8 2 9 3 10 4 11 5 12 6 13 7 14 8 6 9 5 10 4 11 3 12 2 13
REMARK SMILES IDX 1 14
REMARK H PARENT
REMARK Flexibility Score: inf
ROOT
ATOM      1  C   UNL     1      14.001  -2.338   3.644  1.00  0.00     0.000 C 
ENDROOT
BRANCH   1   2
ATOM      2  C   UNL     1      14.288  -2.424   2.133  1.00  0.00     0.000 C 
BRANCH   2   3
ATOM      3  C   UNL     1      13.041  -2.360   1.232  1.00  0.00     0.000 C 
BRANCH   3   4
ATOM      4  C   UNL     1      13.090  -1.204   0.223  1.00  0.00     0.006 C 
BRANCH   4   5
ATOM      5  C   UNL     1      14.294  -0.297   0.485  1.00  0.00     0.053 C 
BRANCH   5   6
ATOM      6  C   UNL     1      15.255  -0.356  -0.661  1.00  0.00     0.041 C 
ATOM      7  O   UNL     1      16.496  -0.392  -0.445  1.00  0.00    -0.550 OA
ATOM      8  O   UNL     1      14.780  -0.422  -1.963  1.00  0.00    -0.550 OA
ENDBRANCH   5   6
ENDBRANCH   4   5
ENDBRANCH   3   4
ENDBRANCH   2   3
ENDBRANCH   1   2
BRANCH   1   9
ATOM      9  C   UNL     1      12.666  -1.642   3.959  1.00  0.00     0.000 C 
BRANCH   9  10
ATOM     10  C   UNL     1      12.832  -0.137   4.221  1.00  0.00    -0.000 C 
BRANCH  10  11
ATOM     11  C   UNL     1      12.023   0.727   3.237  1.00  0.00    -0.000 C 
BRANCH  11  12
ATOM     12  C   UNL     1      10.502   0.548   3.421  1.00  0.00    -0.000 C 
BRANCH  12  13
ATOM     13  C   UNL     1       9.776   0.104   2.139  1.00  0.00    -0.003 C 
ATOM     14  C   UNL     1       9.530  -1.403   2.083  1.00  0.00     0.004 C 
ENDBRANCH  12  13
ENDBRANCH  11  12
ENDBRANCH  10  11
ENDBRANCH   9  10
ENDBRANCH   1   9
TORSDOF 10
ENDMDL
MODEL 4
REMARK VINA RESULT:    -4.148      2.065      4.480
REMARK INTER + INTRA:          -7.817
REMARK INTER:                  -6.507
REMARK INTRA:                  -1.310
REMARK UNBOUND:                -1.244
REMARK SMILES CCCCCCCCCCCC(=O)[O-]
REMARK SMILES IDX 7 1 8 2 9 3 10 4 11 5 12 6 13 7 14 8 6 9 5 10 4 11 3 12 2 13
REMARK SMILES IDX 1 14
REMARK H PARENT
REMARK Flexibility Score: inf
ROOT
ATOM      1  C   UNL     1      13.286  -0.530  -0.524  1.00  0.00     0.000 C 
ENDROOT
BRANCH   1   2
ATOM      2  C   UNL     1      14.713  -0.374   0.032  1.00  0.00     0.000 C 
BRANCH   2   3
ATOM      3  C   UNL     1      14.795  -0.152   1.553  1.00  0.00     0.000 C 
BRANCH   3   4
ATOM      4  C   UNL     1      15.745  -1.134   2.254  1.00  0.00     0.006 C 
BRANCH   4   5
ATOM      5  C   UNL     1      15.464  -2.574   1.817  1.00  0.00     0.053 C 
BRANCH   5   6
ATOM      6  C   UNL     1      14.232  -3.094   2.486  1.00  0.00     0.041 C 
ATOM      7  O   UNL     1      13.466  -3.886   1.875  1.00  0.00    -0.550 OA
ATOM      8  O   UNL     1      13.954  -2.745   3.801  1.00  0.00    -0.550 OA
ENDBRANCH   5   6
ENDBRANCH   4   5
ENDBRANCH   3   4
ENDBRANCH   2   3
ENDBRANCH   1   2
BRANCH   1   9
ATOM      9  C   UNL     1      12.203  -0.107   0.483  1.00  0.00     0.000 C 
BRANCH   9  10
ATOM     10  C   UNL     1      11.328  -1.284   0.938  1.00  0.00    -0.000 C 
BRANCH  10  11
ATOM     11  C   UNL     1      10.860  -1.143   2.398  1.00  0.00    -0.000 C 
BRANCH  11  12
ATOM     12  C   UNL     1      10.337   0.275   2.707  1.00  0.00    -0.000 C 
BRANCH  12  13
ATOM     13  C   UNL     1      11.098   0.977   3.845  1.00  0.00    -0.003 C 
ATOM     14  C   UNL     1      12.283   0.163   4.363  1.00  0.00     0.004 C 
ENDBRANCH  12  13
ENDBRANCH  11  12
ENDBRANCH  10  11
ENDBRANCH   9  10
ENDBRANCH   1   9
TORSDOF 10
ENDMDL
MODEL 5
REMARK VINA RESULT:    -4.122      1.556      2.280
REMARK INTER + INTRA:          -7.775
REMARK INTER:                  -6.307
REMARK INTRA:                  -1.468
REMARK UNBOUND:                -1.244
REMARK SMILES CCCCCCCCCCCC(=O)[O-]
REMARK SMILES IDX 7 1 8 2 9 3 10 4 11 5 12 6 13 7 14 8 6 9 5 10 4 11 3 12 2 13
REMARK SMILES IDX 1 14
REMARK H PARENT
REMARK Flexibility Score: inf
ROOT
ATOM      1  C   UNL     1      14.660  -0.335   0.787  1.00  0.00     0.000 C 
ENDROOT
BRANCH   1   2
ATOM      2  C   UNL     1      13.456  -0.379  -0.172  1.00  0.00     0.000 C 
BRANCH   2   3
ATOM      3  C   UNL     1      12.081  -0.246   0.507  1.00  0.00     0.000 C 
BRANCH   3   4
ATOM      4  C   UNL     1      11.237  -1.524   0.409  1.00  0.00     0.006 C 
BRANCH   4   5
ATOM      5  C   UNL     1      10.788  -1.993   1.796  1.00  0.00     0.053 C 
BRANCH   5   6
ATOM      6  C   UNL     1       9.380  -1.564   2.064  1.00  0.00     0.041 C 
ATOM      7  O   UNL     1       8.440  -2.400   1.995  1.00  0.00    -0.550 OA
ATOM      8  O   UNL     1       9.111  -0.255   2.438  1.00  0.00    -0.550 OA
ENDBRANCH   5   6
ENDBRANCH   4   5
ENDBRANCH   3   4
ENDBRANCH   2   3
ENDBRANCH   1   2
BRANCH   1   9
ATOM      9  C   UNL     1      15.395  -1.683   0.885  1.00  0.00     0.000 C 
BRANCH   9  10
ATOM     10  C   UNL     1      14.694  -2.669   1.831  1.00  0.00    -0.000 C 
BRANCH  10  11
ATOM     11  C   UNL     1      14.879  -2.298   3.314  1.00  0.00    -0.000 C 
BRANCH  11  12
ATOM     12  C   UNL     1      13.561  -1.823   3.963  1.00  0.00    -0.000 C 
BRANCH  12  13
ATOM     13  C   UNL     1      13.559  -0.327   4.324  1.00  0.00    -0.003 C 
ATOM     14  C   UNL     1      12.174   0.309   4.227  1.00  0.00     0.004 C 
ENDBRANCH  12  13
ENDBRANCH  11  12
ENDBRANCH  10  11
ENDBRANCH   9  10
ENDBRANCH   1   9
TORSDOF 10
ENDMDL
MODEL 6
REMARK VINA RESULT:    -4.113      1.788      3.670
REMARK INTER + INTRA:          -7.762
REMARK INTER:                  -6.422
REMARK INTRA:                  -1.341
REMARK UNBOUND:                -1.244
REMARK SMILES CCCCCCCCCCCC(=O)[O-]
REMARK SMILES IDX 7 1 8 2 9 3 10 4 11 5 12 6 13 7 14 8 6 9 5 10 4 11 3 12 2 13
REMARK SMILES IDX 1 14
REMARK H PARENT
REMARK Flexibility Score: inf
ROOT
ATOM      1  C   UNL     1      11.981   0.625   3.657  1.00  0.00     0.000 C 
ENDROOT
BRANCH   1   2
ATOM      2  C   UNL     1      10.577   0.366   3.081  1.00  0.00     0.000 C 
BRANCH   2   3
ATOM      3  C   UNL     1      10.518   0.239   1.548  1.00  0.00     0.000 C 
BRANCH   3   4
ATOM      4  C   UNL     1      11.904   0.292   0.888  1.00  0.00     0.006 C 
BRANCH   4   5
ATOM      5  C   UNL     1      12.075  -0.847  -0.119  1.00  0.00     0.053 C 
BRANCH   5   6
ATOM      6  C   UNL     1      11.750  -2.163   0.516  1.00  0.00     0.041 C 
ATOM      7  O   UNL     1      10.852  -2.897   0.026  1.00  0.00    -0.550 OA
ATOM      8  O   UNL     1      12.473  -2.600   1.617  1.00  0.00    -0.550 OA
ENDBRANCH   5   6
ENDBRANCH   4   5
ENDBRANCH   3   4
ENDBRANCH   2   3
ENDBRANCH   1   2
BRANCH   1   9
ATOM      9  C   UNL     1      12.477  -0.519   4.558  1.00  0.00     0.000 C 
BRANCH   9  10
ATOM     10  C   UNL     1      13.906  -0.964   4.214  1.00  0.00    -0.000 C 
BRANCH  10  11
ATOM     11  C   UNL     1      14.606  -0.002   3.237  1.00  0.00    -0.000 C 
BRANCH  11  12
ATOM     12  C   UNL     1      15.288  -0.750   2.072  1.00  0.00    -0.000 C 
BRANCH  12  13
ATOM     13  C   UNL     1      15.802   0.181   0.960  1.00  0.00    -0.003 C 
ATOM     14  C   UNL     1      15.858  -0.496  -0.408  1.00  0.00     0.004 C 
ENDBRANCH  12  13
ENDBRANCH  11  12
ENDBRANCH  10  11
ENDBRANCH   9  10
ENDBRANCH   1   9
TORSDOF 10
ENDMDL
MODEL 7
REMARK VINA RESULT:    -4.094      1.294      2.960
REMARK INTER + INTRA:          -7.731
REMARK INTER:                  -6.557
REMARK INTRA:                  -1.174
REMARK UNBOUND:                -1.244
REMARK SMILES CCCCCCCCCCCC(=O)[O-]
REMARK SMILES IDX 7 1 8 2 9 3 10 4 11 5 12 6 13 7 14 8 6 9 5 10 4 11 3 12 2 13
REMARK SMILES IDX 1 14
REMARK H PARENT
REMARK Flexibility Score: inf
ROOT
ATOM      1  C   UNL     1      14.137  -2.918   2.162  1.00  0.00     0.000 C 
ENDROOT
BRANCH   1   2
ATOM      2  C   UNL     1      12.731  -2.374   2.473  1.00  0.00     0.000 C 
BRANCH   2   3
ATOM      3  C   UNL     1      12.668  -1.369   3.637  1.00  0.00     0.000 C 
BRANCH   3   4
ATOM      4  C   UNL     1      12.445   0.077   3.170  1.00  0.00     0.006 C 
BRANCH   4   5
ATOM      5  C   UNL     1      11.002   0.519   3.424  1.00  0.00     0.053 C 
BRANCH   5   6
ATOM      6  C   UNL     1      10.137   0.187   2.249  1.00  0.00     0.041 C 
ATOM      7  O   UNL     1      10.502   0.503   1.086  1.00  0.00    -0.550 OA
ATOM      8  O   UNL     1       8.954  -0.515   2.433  1.00  0.00    -0.550 OA
ENDBRANCH   5   6
ENDBRANCH   4   5
ENDBRANCH   3   4
ENDBRANCH   2   3
ENDBRANCH   1   2
BRANCH   1   9
ATOM      9  C   UNL     1      15.227  -2.301   3.055  1.00  0.00     0.000 C 
BRANCH   9  10
ATOM     10  C   UNL     1      16.238  -1.462   2.259  1.00  0.00    -0.000 C 
BRANCH  10  11
ATOM     11  C   UNL     1      15.557  -0.511   1.257  1.00  0.00    -0.000 C 
BRANCH  11  12
ATOM     12  C   UNL     1      15.990  -0.792  -0.198  1.00  0.00    -0.000 C 
BRANCH  12  13
ATOM     13  C   UNL     1      14.925  -0.410  -1.240  1.00  0.00    -0.003 C 
ATOM     14  C   UNL     1      13.496  -0.594  -0.731  1.00  0.00     0.004 C 
ENDBRANCH  12  13
ENDBRANCH  11  12
ENDBRANCH  10  11
ENDBRANCH   9  10
ENDBRANCH   1   9
TORSDOF 10
ENDMDL
MODEL 8
REMARK VINA RESULT:    -4.087      1.504      3.019
REMARK INTER + INTRA:          -7.720
REMARK INTER:                  -6.172
REMARK INTRA:                  -1.548
REMARK UNBOUND:                -1.244
REMARK SMILES CCCCCCCCCCCC(=O)[O-]
REMARK SMILES IDX 7 1 8 2 9 3 10 4 11 5 12 6 13 7 14 8 6 9 5 10 4 11 3 12 2 13
REMARK SMILES IDX 1 14
REMARK H PARENT
REMARK Flexibility Score: inf
ROOT
ATOM      1  C   UNL     1      13.393  -2.929   2.703  1.00  0.00     0.000 C 
ENDROOT
BRANCH   1   2
ATOM      2  C   UNL     1      13.051  -2.611   1.236  1.00  0.00     0.000 C 
BRANCH   2   3
ATOM      3  C   UNL     1      11.624  -2.082   1.003  1.00  0.00     0.000 C 
BRANCH   3   4
ATOM      4  C   UNL     1      11.598  -0.656   0.436  1.00  0.00     0.006 C 
BRANCH   4   5
ATOM      5  C   UNL     1      12.012   0.365   1.500  1.00  0.00     0.053 C 
BRANCH   5   6
ATOM      6  C   UNL     1      11.071   0.322   2.662  1.00  0.00     0.041 C 
ATOM      7  O   UNL     1      11.513   0.151   3.829  1.00  0.00    -0.550 OA
ATOM      8  O   UNL     1       9.712   0.522   2.463  1.00  0.00    -0.550 OA
ENDBRANCH   5   6
ENDBRANCH   4   5
ENDBRANCH   3   4
ENDBRANCH   2   3
ENDBRANCH   1   2
BRANCH   1   9
ATOM      9  C   UNL     1      14.474  -1.998   3.279  1.00  0.00     0.000 C 
BRANCH   9  10
ATOM     10  C   UNL     1      15.554  -1.638   2.248  1.00  0.00    -0.000 C 
BRANCH  10  11
ATOM     11  C   UNL     1      15.613  -0.128   1.955  1.00  0.00    -0.000 C 
BRANCH  11  12
ATOM     12  C   UNL     1      16.267   0.176   0.591  1.00  0.00    -0.000 C 
BRANCH  12  13
ATOM     13  C   UNL     1      15.981  -0.891  -0.479  1.00  0.00    -0.003 C 
ATOM     14  C   UNL     1      14.900  -0.468  -1.472  1.00  0.00     0.004 C 
ENDBRANCH  12  13
ENDBRANCH  11  12
ENDBRANCH  10  11
ENDBRANCH   9  10
ENDBRANCH   1   9
TORSDOF 10
ENDMDL
MODEL 9
REMARK VINA RESULT:    -4.066      1.678      3.585
REMARK INTER + INTRA:          -7.688
REMARK INTER:                  -6.523
REMARK INTRA:                  -1.165
REMARK UNBOUND:                -1.244
REMARK SMILES CCCCCCCCCCCC(=O)[O-]
REMARK SMILES IDX 7 1 8 2 9 3 10 4 11 5 12 6 13 7 14 8 6 9 5 10 4 11 3 12 2 13
REMARK SMILES IDX 1 14
REMARK H PARENT
REMARK Flexibility Score: inf
ROOT
ATOM      1  C   UNL     1      12.610  -1.563   4.034  1.00  0.00     0.000 C 
ENDROOT
BRANCH   1   2
ATOM      2  C   UNL     1      12.687  -0.071   3.663  1.00  0.00     0.000 C 
BRANCH   2   3
ATOM      3  C   UNL     1      11.327   0.605   3.411  1.00  0.00     0.000 C 
BRANCH   3   4
ATOM      4  C   UNL     1      10.591   0.036   2.190  1.00  0.00     0.006 C 
BRANCH   4   5
ATOM      5  C   UNL     1      11.260   0.483   0.888  1.00  0.00     0.053 C 
BRANCH   5   6
ATOM      6  C   UNL     1      11.832  -0.693   0.161  1.00  0.00     0.041 C 
ATOM      7  O   UNL     1      11.264  -1.816   0.229  1.00  0.00    -0.550 OA
ATOM      8  O   UNL     1      12.961  -0.539  -0.631  1.00  0.00    -0.550 OA
ENDBRANCH   5   6
ENDBRANCH   4   5
ENDBRANCH   3   4
ENDBRANCH   2   3
ENDBRANCH   1   2
BRANCH   1   9
ATOM      9  C   UNL     1      13.905  -2.327   3.707  1.00  0.00     0.000 C 
BRANCH   9  10
ATOM     10  C   UNL     1      13.997  -2.727   2.226  1.00  0.00    -0.000 C 
BRANCH  10  11
ATOM     11  C   UNL     1      15.370  -2.402   1.610  1.00  0.00    -0.000 C 
BRANCH  11  12
ATOM     12  C   UNL     1      16.044  -1.195   2.297  1.00  0.00    -0.000 C 
BRANCH  12  13
ATOM     13  C   UNL     1      15.749   0.148   1.608  1.00  0.00    -0.003 C 
ATOM     14  C   UNL     1      16.259   0.207   0.169  1.00  0.00     0.004 C 
ENDBRANCH  12  13
ENDBRANCH  11  12
ENDBRANCH  10  11
ENDBRANCH   9  10
ENDBRANCH   1   9
TORSDOF 10
ENDMDL
