MODEL 1
REMARK VINA RESULT:    -3.537      0.000      0.000
REMARK INTER + INTRA:         -15.812
REMARK INTER:                  -9.326
REMARK INTRA:                  -6.486
REMARK UNBOUND:                -6.486
REMARK SMILES CCCCCCCCCCCCCCCCCCCCCCCCCCCCCC(=O)[O-]
REMARK SMILES IDX 16 1 17 2 18 3 19 4 20 5 21 6 22 7 23 8 24 9 25 10 26 11
REMARK SMILES IDX 27 12 28 13 29 14 30 15 31 16 32 17 15 18 14 19 13 20 12 21
REMARK SMILES IDX 11 22 10 23 9 24 8 25 7 26 6 27 5 28 4 29 3 30 2 31 1 32
REMARK H PARENT
REMARK Flexibility Score: inf
ROOT
ATOM      1  C   UNL     1      28.596  19.172  57.450  1.00  0.00     0.000 C 
ENDROOT
BRANCH   1   2
ATOM      2  C   UNL     1      27.298  18.348  57.584  1.00  0.00     0.000 C 
BRANCH   2   3
ATOM      3  C   UNL     1      26.240  18.661  56.511  1.00  0.00     0.000 C 
BRANCH   3   4
ATOM      4  C   UNL     1      25.434  17.423  56.087  1.00  0.00     0.000 C 
BRANCH   4   5
ATOM      5  C   UNL     1      26.313  16.183  55.825  1.00  0.00     0.000 C 
BRANCH   5   6
ATOM      6  C   UNL     1      26.205  15.053  56.869  1.00  0.00     0.000 C 
BRANCH   6   7
ATOM      7  C   UNL     1      27.468  14.180  56.956  1.00  0.00     0.000 C 
BRANCH   7   8
ATOM      8  C   UNL     1      28.764  15.007  56.876  1.00  0.00     0.000 C 
BRANCH   8   9
ATOM      9  C   UNL     1      29.929  14.224  56.247  1.00  0.00     0.000 C 
BRANCH   9  10
ATOM     10  C   UNL     1      29.453  13.020  55.415  1.00  0.00     0.000 C 
BRANCH  10  11
ATOM     11  C   UNL     1      29.591  13.256  53.901  1.00  0.00     0.000 C 
BRANCH  11  12
ATOM     12  C   UNL     1      28.548  14.241  53.355  1.00  0.00     0.000 C 
BRANCH  12  13
ATOM     13  C   UNL     1      27.493  13.555  52.473  1.00  0.00     0.006 C 
BRANCH  13  14
ATOM     14  C   UNL     1      26.096  13.678  53.092  1.00  0.00     0.053 C 
BRANCH  14  15
ATOM     15  C   UNL     1      25.625  12.361  53.629  1.00  0.00     0.041 C 
ATOM     16  O   UNL     1      24.716  11.724  53.032  1.00  0.00    -0.550 OA
ATOM     17  O   UNL     1      26.211  11.819  54.769  1.00  0.00    -0.550 OA
ENDBRANCH  14  15
ENDBRANCH  13  14
ENDBRANCH  12  13
ENDBRANCH  11  12
ENDBRANCH  10  11
ENDBRANCH   9  10
ENDBRANCH   8   9
ENDBRANCH   7   8
ENDBRANCH   6   7
ENDBRANCH   5   6
ENDBRANCH   4   5
ENDBRANCH   3   4
ENDBRANCH   2   3
ENDBRANCH   1   2
BRANCH   1  18
ATOM     18  C   UNL     1      28.370  20.508  56.720  1.00  0.00     0.000 C 
BRANCH  18  19
ATOM     19  C   UNL     1      29.627  20.987  55.974  1.00  0.00     0.000 C 
BRANCH  19  20
ATOM     20  C   UNL     1      29.361  21.213  54.475  1.00  0.00     0.000 C 
BRANCH  20  21
ATOM     21  C   UNL     1      27.862  21.299  54.148  1.00  0.00     0.000 C 
BRANCH  21  22
ATOM     22  C   UNL     1      27.496  20.530  52.866  1.00  0.00     0.000 C 
BRANCH  22  23
ATOM     23  C   UNL     1      26.489  19.398  53.128  1.00  0.00     0.000 C 
BRANCH  23  24
ATOM     24  C   UNL     1      27.034  18.019  52.719  1.00  0.00    -0.000 C 
BRANCH  24  25
ATOM     25  C   UNL     1      28.574  17.950  52.799  1.00  0.00    -0.000 C 
BRANCH  25  26
ATOM     26  C   UNL     1      29.113  17.576  54.191  1.00  0.00    -0.000 C 
BRANCH  26  27
ATOM     27  C   UNL     1      30.623  17.284  54.195  1.00  0.00    -0.000 C 
BRANCH  27  28
ATOM     28  C   UNL     1      31.273  17.532  55.565  1.00  0.00    -0.000 C 
BRANCH  28  29
ATOM     29  C   UNL     1      32.339  18.637  55.527  1.00  0.00    -0.000 C 
BRANCH  29  30
ATOM     30  C   UNL     1      32.648  19.044  54.078  1.00  0.00    -0.000 C 
BRANCH  30  31
ATOM     31  C   UNL     1      34.150  19.009  53.762  1.00  0.00    -0.003 C 
ATOM     32  C   UNL     1      35.010  19.542  54.910  1.00  0.00     0.004 C 
ENDBRANCH  30  31
ENDBRANCH  29  30
ENDBRANCH  28  29
ENDBRANCH  27  28
ENDBRANCH  26  27
ENDBRANCH  25  26
ENDBRANCH  24  25
ENDBRANCH  23  24
ENDBRANCH  22  23
ENDBRANCH  21  22
ENDBRANCH  20  21
ENDBRANCH  19  20
ENDBRANCH  18  19
ENDBRANCH   1  18
TORSDOF 28
ENDMDL
MODEL 2
REMARK VINA RESULT:    -3.454      2.223      6.187
REMARK INTER + INTRA:         -15.594
REMARK INTER:                  -9.319
REMARK INTRA:                  -6.276
REMARK UNBOUND:                -6.486
REMARK SMILES CCCCCCCCCCCCCCCCCCCCCCCCCCCCCC(=O)[O-]
REMARK SMILES IDX 16 1 17 2 18 3 19 4 20 5 21 6 22 7 23 8 24 9 25 10 26 11
REMARK SMILES IDX 27 12 28 13 29 14 30 15 31 16 32 17 15 18 14 19 13 20 12 21
REMARK SMILES IDX 11 22 10 23 9 24 8 25 7 26 6 27 5 28 4 29 3 30 2 31 1 32
REMARK H PARENT
REMARK Flexibility Score: inf
ROOT
ATOM      1  C   UNL     1      32.058  16.424  55.880  1.00  0.00     0.000 C 
ENDROOT
BRANCH   1   2
ATOM      2  C   UNL     1      32.511  17.029  54.534  1.00  0.00     0.000 C 
BRANCH   2   3
ATOM      3  C   UNL     1      31.692  18.255  54.088  1.00  0.00     0.000 C 
BRANCH   3   4
ATOM      4  C   UNL     1      30.694  18.728  55.156  1.00  0.00     0.000 C 
BRANCH   4   5
ATOM      5  C   UNL     1      31.196  19.941  55.967  1.00  0.00     0.000 C 
BRANCH   5   6
ATOM      6  C   UNL     1      30.111  20.734  56.724  1.00  0.00     0.000 C 
BRANCH   6   7
ATOM      7  C   UNL     1      29.513  21.886  55.901  1.00  0.00     0.000 C 
BRANCH   7   8
ATOM      8  C   UNL     1      28.195  21.497  55.210  1.00  0.00     0.000 C 
BRANCH   8   9
ATOM      9  C   UNL     1      28.304  21.505  53.675  1.00  0.00     0.000 C 
BRANCH   9  10
ATOM     10  C   UNL     1      27.527  20.349  53.020  1.00  0.00     0.000 C 
BRANCH  10  11
ATOM     11  C   UNL     1      26.328  20.839  52.189  1.00  0.00     0.000 C 
BRANCH  11  12
ATOM     12  C   UNL     1      25.408  19.695  51.741  1.00  0.00     0.000 C 
BRANCH  12  13
ATOM     13  C   UNL     1      26.135  18.659  50.870  1.00  0.00     0.006 C 
BRANCH  13  14
ATOM     14  C   UNL     1      25.252  17.431  50.624  1.00  0.00     0.053 C 
BRANCH  14  15
ATOM     15  C   UNL     1      25.858  16.525  49.596  1.00  0.00     0.041 C 
ATOM     16  O   UNL     1      25.897  16.879  48.387  1.00  0.00    -0.550 OA
ATOM     17  O   UNL     1      26.411  15.305  49.975  1.00  0.00    -0.550 OA
ENDBRANCH  14  15
ENDBRANCH  13  14
ENDBRANCH  12  13
ENDBRANCH  11  12
ENDBRANCH  10  11
ENDBRANCH   9  10
ENDBRANCH   8   9
ENDBRANCH   7   8
ENDBRANCH   6   7
ENDBRANCH   5   6
ENDBRANCH   4   5
ENDBRANCH   3   4
ENDBRANCH   2   3
ENDBRANCH   1   2
BRANCH   1  18
ATOM     18  C   UNL     1      31.842  14.902  55.795  1.00  0.00     0.000 C 
BRANCH  18  19
ATOM     19  C   UNL     1      30.697  14.424  56.704  1.00  0.00     0.000 C 
BRANCH  19  20
ATOM     20  C   UNL     1      29.314  14.691  56.085  1.00  0.00     0.000 C 
BRANCH  20  21
ATOM     21  C   UNL     1      28.356  15.391  57.060  1.00  0.00     0.000 C 
BRANCH  21  22
ATOM     22  C   UNL     1      28.763  16.849  57.338  1.00  0.00     0.000 C 
BRANCH  22  23
ATOM     23  C   UNL     1      27.636  17.656  58.003  1.00  0.00     0.000 C 
BRANCH  23  24
ATOM     24  C   UNL     1      27.088  18.766  57.089  1.00  0.00    -0.000 C 
BRANCH  24  25
ATOM     25  C   UNL     1      25.723  18.394  56.471  1.00  0.00    -0.000 C 
BRANCH  25  26
ATOM     26  C   UNL     1      25.793  18.011  54.982  1.00  0.00    -0.000 C 
BRANCH  26  27
ATOM     27  C   UNL     1      25.739  16.492  54.747  1.00  0.00    -0.000 C 
BRANCH  27  28
ATOM     28  C   UNL     1      26.716  16.024  53.657  1.00  0.00    -0.000 C 
BRANCH  28  29
ATOM     29  C   UNL     1      27.992  16.877  53.596  1.00  0.00    -0.000 C 
BRANCH  29  30
ATOM     30  C   UNL     1      28.821  16.526  52.352  1.00  0.00    -0.000 C 
BRANCH  30  31
ATOM     31  C   UNL     1      29.817  15.385  52.608  1.00  0.00    -0.003 C 
ATOM     32  C   UNL     1      29.807  14.330  51.501  1.00  0.00     0.004 C 
ENDBRANCH  30  31
ENDBRANCH  29  30
ENDBRANCH  28  29
ENDBRANCH  27  28
ENDBRANCH  26  27
ENDBRANCH  25  26
ENDBRANCH  24  25
ENDBRANCH  23  24
ENDBRANCH  22  23
ENDBRANCH  21  22
ENDBRANCH  20  21
ENDBRANCH  19  20
ENDBRANCH  18  19
ENDBRANCH   1  18
TORSDOF 28
ENDMDL
MODEL 3
REMARK VINA RESULT:    -3.400      2.997      5.562
REMARK INTER + INTRA:         -15.451
REMARK INTER:                  -9.112
REMARK INTRA:                  -6.340
REMARK UNBOUND:                -6.486
REMARK SMILES CCCCCCCCCCCCCCCCCCCCCCCCCCCCCC(=O)[O-]
REMARK SMILES IDX 16 1 17 2 18 3 19 4 20 5 21 6 22 7 23 8 24 9 25 10 26 11
REMARK SMILES IDX 27 12 28 13 29 14 30 15 31 16 32 17 15 18 14 19 13 20 12 21
REMARK SMILES IDX 11 22 10 23 9 24 8 25 7 26 6 27 5 28 4 29 3 30 2 31 1 32
REMARK H PARENT
REMARK Flexibility Score: inf
ROOT
ATOM      1  C   UNL     1      30.307  19.881  54.665  1.00  0.00     0.000 C 
ENDROOT
BRANCH   1   2
ATOM      2  C   UNL     1      30.282  20.419  56.112  1.00  0.00     0.000 C 
BRANCH   2   3
ATOM      3  C   UNL     1      28.898  20.361  56.781  1.00  0.00     0.000 C 
BRANCH   3   4
ATOM      4  C   UNL     1      27.818  19.754  55.871  1.00  0.00     0.000 C 
BRANCH   4   5
ATOM      5  C   UNL     1      26.701  19.029  56.649  1.00  0.00     0.000 C 
BRANCH   5   6
ATOM      6  C   UNL     1      26.349  17.612  56.149  1.00  0.00     0.000 C 
BRANCH   6   7
ATOM      7  C   UNL     1      25.301  17.607  55.024  1.00  0.00     0.000 C 
BRANCH   7   8
ATOM      8  C   UNL     1      25.842  17.004  53.716  1.00  0.00     0.000 C 
BRANCH   8   9
ATOM      9  C   UNL     1      27.373  16.852  53.721  1.00  0.00     0.000 C 
BRANCH   9  10
ATOM     10  C   UNL     1      28.059  17.736  52.664  1.00  0.00     0.000 C 
BRANCH  10  11
ATOM     11  C   UNL     1      27.075  18.693  51.966  1.00  0.00     0.000 C 
BRANCH  11  12
ATOM     12  C   UNL     1      27.203  20.140  52.461  1.00  0.00     0.000 C 
BRANCH  12  13
ATOM     13  C   UNL     1      26.085  21.048  51.925  1.00  0.00     0.006 C 
BRANCH  13  14
ATOM     14  C   UNL     1      24.818  20.239  51.623  1.00  0.00     0.053 C 
BRANCH  14  15
ATOM     15  C   UNL     1      24.298  20.541  50.251  1.00  0.00     0.041 C 
ATOM     16  O   UNL     1      23.348  19.864  49.773  1.00  0.00    -0.550 OA
ATOM     17  O   UNL     1      24.836  21.590  49.512  1.00  0.00    -0.550 OA
ENDBRANCH  14  15
ENDBRANCH  13  14
ENDBRANCH  12  13
ENDBRANCH  11  12
ENDBRANCH  10  11
ENDBRANCH   9  10
ENDBRANCH   8   9
ENDBRANCH   7   8
ENDBRANCH   6   7
ENDBRANCH   5   6
ENDBRANCH   4   5
ENDBRANCH   3   4
ENDBRANCH   2   3
ENDBRANCH   1   2
BRANCH   1  18
ATOM     18  C   UNL     1      31.074  18.552  54.546  1.00  0.00     0.000 C 
BRANCH  18  19
ATOM     19  C   UNL     1      31.785  18.169  55.855  1.00  0.00     0.000 C 
BRANCH  19  20
ATOM     20  C   UNL     1      31.345  16.788  56.371  1.00  0.00     0.000 C 
BRANCH  20  21
ATOM     21  C   UNL     1      29.887  16.775  56.855  1.00  0.00     0.000 C 
BRANCH  21  22
ATOM     22  C   UNL     1      29.257  15.372  56.787  1.00  0.00     0.000 C 
BRANCH  22  23
ATOM     23  C   UNL     1      30.313  14.259  56.718  1.00  0.00     0.000 C 
BRANCH  23  24
ATOM     24  C   UNL     1      29.856  13.065  55.862  1.00  0.00    -0.000 C 
BRANCH  24  25
ATOM     25  C   UNL     1      28.929  13.495  54.706  1.00  0.00    -0.000 C 
BRANCH  25  26
ATOM     26  C   UNL     1      29.427  13.072  53.313  1.00  0.00    -0.000 C 
BRANCH  26  27
ATOM     27  C   UNL     1      29.741  14.266  52.396  1.00  0.00    -0.000 C 
BRANCH  27  28
ATOM     28  C   UNL     1      30.676  15.292  53.056  1.00  0.00    -0.000 C 
BRANCH  28  29
ATOM     29  C   UNL     1      32.159  15.024  52.759  1.00  0.00    -0.000 C 
BRANCH  29  30
ATOM     30  C   UNL     1      32.868  14.457  53.997  1.00  0.00    -0.000 C 
BRANCH  30  31
ATOM     31  C   UNL     1      34.111  15.270  54.390  1.00  0.00    -0.003 C 
ATOM     32  C   UNL     1      34.254  16.561  53.583  1.00  0.00     0.004 C 
ENDBRANCH  30  31
ENDBRANCH  29  30
ENDBRANCH  28  29
ENDBRANCH  27  28
ENDBRANCH  26  27
ENDBRANCH  25  26
ENDBRANCH  24  25
ENDBRANCH  23  24
ENDBRANCH  22  23
ENDBRANCH  21  22
ENDBRANCH  20  21
ENDBRANCH  19  20
ENDBRANCH  18  19
ENDBRANCH   1  18
TORSDOF 28
ENDMDL
MODEL 4
REMARK VINA RESULT:    -3.367      2.269      4.614
REMARK INTER + INTRA:         -15.364
REMARK INTER:                  -8.832
REMARK INTRA:                  -6.533
REMARK UNBOUND:                -6.486
REMARK SMILES CCCCCCCCCCCCCCCCCCCCCCCCCCCCCC(=O)[O-]
REMARK SMILES IDX 16 1 17 2 18 3 19 4 20 5 21 6 22 7 23 8 24 9 25 10 26 11
REMARK SMILES IDX 27 12 28 13 29 14 30 15 31 16 32 17 15 18 14 19 13 20 12 21
REMARK SMILES IDX 11 22 10 23 9 24 8 25 7 26 6 27 5 28 4 29 3 30 2 31 1 32
REMARK H PARENT
REMARK Flexibility Score: inf
ROOT
ATOM      1  C   UNL     1      27.542  20.073  56.397  1.00  0.00     0.000 C 
ENDROOT
BRANCH   1   2
ATOM      2  C   UNL     1      27.090  18.681  56.889  1.00  0.00     0.000 C 
BRANCH   2   3
ATOM      3  C   UNL     1      28.015  18.056  57.948  1.00  0.00     0.000 C 
BRANCH   3   4
ATOM      4  C   UNL     1      28.944  16.978  57.370  1.00  0.00     0.000 C 
BRANCH   4   5
ATOM      5  C   UNL     1      28.611  16.604  55.911  1.00  0.00     0.000 C 
BRANCH   5   6
ATOM      6  C   UNL     1      27.930  15.234  55.709  1.00  0.00     0.000 C 
BRANCH   6   7
ATOM      7  C   UNL     1      26.579  15.327  54.981  1.00  0.00     0.000 C 
BRANCH   7   8
ATOM      8  C   UNL     1      26.480  14.355  53.793  1.00  0.00     0.000 C 
BRANCH   8   9
ATOM      9  C   UNL     1      27.814  14.196  53.043  1.00  0.00     0.000 C 
BRANCH   9  10
ATOM     10  C   UNL     1      27.914  15.114  51.812  1.00  0.00     0.000 C 
BRANCH  10  11
ATOM     11  C   UNL     1      28.539  16.481  52.144  1.00  0.00     0.000 C 
BRANCH  11  12
ATOM     12  C   UNL     1      27.841  17.643  51.424  1.00  0.00     0.000 C 
BRANCH  12  13
ATOM     13  C   UNL     1      27.506  18.807  52.370  1.00  0.00     0.006 C 
BRANCH  13  14
ATOM     14  C   UNL     1      26.294  18.472  53.245  1.00  0.00     0.053 C 
BRANCH  14  15
ATOM     15  C   UNL     1      25.082  18.197  52.409  1.00  0.00     0.041 C 
ATOM     16  O   UNL     1      24.581  19.113  51.703  1.00  0.00    -0.550 OA
ATOM     17  O   UNL     1      24.524  16.922  52.380  1.00  0.00    -0.550 OA
ENDBRANCH  14  15
ENDBRANCH  13  14
ENDBRANCH  12  13
ENDBRANCH  11  12
ENDBRANCH  10  11
ENDBRANCH   9  10
ENDBRANCH   8   9
ENDBRANCH   7   8
ENDBRANCH   6   7
ENDBRANCH   5   6
ENDBRANCH   4   5
ENDBRANCH   3   4
ENDBRANCH   2   3
ENDBRANCH   1   2
BRANCH   1  18
ATOM     18  C   UNL     1      28.838  20.544  57.082  1.00  0.00     0.000 C 
BRANCH  18  19
ATOM     19  C   UNL     1      29.981  20.768  56.077  1.00  0.00     0.000 C 
BRANCH  19  20
ATOM     20  C   UNL     1      29.746  20.017  54.755  1.00  0.00     0.000 C 
BRANCH  20  21
ATOM     21  C   UNL     1      30.822  18.956  54.480  1.00  0.00     0.000 C 
BRANCH  21  22
ATOM     22  C   UNL     1      32.064  19.133  55.373  1.00  0.00     0.000 C 
BRANCH  22  23
ATOM     23  C   UNL     1      32.354  17.890  56.228  1.00  0.00     0.000 C 
BRANCH  23  24
ATOM     24  C   UNL     1      33.745  17.295  55.950  1.00  0.00    -0.000 C 
BRANCH  24  25
ATOM     25  C   UNL     1      34.416  17.928  54.712  1.00  0.00    -0.000 C 
BRANCH  25  26
ATOM     26  C   UNL     1      34.494  16.992  53.494  1.00  0.00    -0.000 C 
BRANCH  26  27
ATOM     27  C   UNL     1      33.742  15.667  53.702  1.00  0.00    -0.000 C 
BRANCH  27  28
ATOM     28  C   UNL     1      32.282  15.731  53.229  1.00  0.00    -0.000 C 
BRANCH  28  29
ATOM     29  C   UNL     1      31.373  14.739  53.969  1.00  0.00    -0.000 C 
BRANCH  29  30
ATOM     30  C   UNL     1      32.119  14.090  55.144  1.00  0.00    -0.000 C 
BRANCH  30  31
ATOM     31  C   UNL     1      31.377  14.256  56.479  1.00  0.00    -0.003 C 
ATOM     32  C   UNL     1      31.025  12.919  57.132  1.00  0.00     0.004 C 
ENDBRANCH  30  31
ENDBRANCH  29  30
ENDBRANCH  28  29
ENDBRANCH  27  28
ENDBRANCH  26  27
ENDBRANCH  25  26
ENDBRANCH  24  25
ENDBRANCH  23  24
ENDBRANCH  22  23
ENDBRANCH  21  22
ENDBRANCH  20  21
ENDBRANCH  19  20
ENDBRANCH  18  19
ENDBRANCH   1  18
TORSDOF 28
ENDMDL
MODEL 5
REMARK VINA RESULT:    -3.354      3.103      6.004
REMARK INTER + INTRA:         -15.331
REMARK INTER:                  -9.424
REMARK INTRA:                  -5.907
REMARK UNBOUND:                -6.486
REMARK SMILES CCCCCCCCCCCCCCCCCCCCCCCCCCCCCC(=O)[O-]
REMARK SMILES IDX 16 1 17 2 18 3 19 4 20 5 21 6 22 7 23 8 24 9 25 10 26 11
REMARK SMILES IDX 27 12 28 13 29 14 30 15 31 16 32 17 15 18 14 19 13 20 12 21
REMARK SMILES IDX 11 22 10 23 9 24 8 25 7 26 6 27 5 28 4 29 3 30 2 31 1 32
REMARK H PARENT
REMARK Flexibility Score: inf
ROOT
ATOM      1  C   UNL     1      27.023  15.323  55.291  1.00  0.00     0.000 C 
ENDROOT
BRANCH   1   2
ATOM      2  C   UNL     1      26.349  16.205  54.218  1.00  0.00     0.000 C 
BRANCH   2   3
ATOM      3  C   UNL     1      25.433  17.302  54.789  1.00  0.00     0.000 C 
BRANCH   3   4
ATOM      4  C   UNL     1      25.569  17.462  56.312  1.00  0.00     0.000 C 
BRANCH   4   5
ATOM      5  C   UNL     1      26.322  18.743  56.727  1.00  0.00     0.000 C 
BRANCH   5   6
ATOM      6  C   UNL     1      27.706  18.527  57.372  1.00  0.00     0.000 C 
BRANCH   6   7
ATOM      7  C   UNL     1      28.654  19.725  57.195  1.00  0.00     0.000 C 
BRANCH   7   8
ATOM      8  C   UNL     1      28.080  20.799  56.255  1.00  0.00     0.000 C 
BRANCH   8   9
ATOM      9  C   UNL     1      29.078  21.231  55.167  1.00  0.00     0.000 C 
BRANCH   9  10
ATOM     10  C   UNL     1      28.487  21.135  53.749  1.00  0.00     0.000 C 
BRANCH  10  11
ATOM     11  C   UNL     1      27.438  20.016  53.622  1.00  0.00     0.000 C 
BRANCH  11  12
ATOM     12  C   UNL     1      27.545  19.249  52.296  1.00  0.00     0.000 C 
BRANCH  12  13
ATOM     13  C   UNL     1      26.434  19.627  51.305  1.00  0.00     0.006 C 
BRANCH  13  14
ATOM     14  C   UNL     1      25.285  20.351  52.016  1.00  0.00     0.053 C 
BRANCH  14  15
ATOM     15  C   UNL     1      24.536  21.239  51.070  1.00  0.00     0.041 C 
ATOM     16  O   UNL     1      24.971  21.427  49.902  1.00  0.00    -0.550 OA
ATOM     17  O   UNL     1      23.340  21.832  51.463  1.00  0.00    -0.550 OA
ENDBRANCH  14  15
ENDBRANCH  13  14
ENDBRANCH  12  13
ENDBRANCH  11  12
ENDBRANCH  10  11
ENDBRANCH   9  10
ENDBRANCH   8   9
ENDBRANCH   7   8
ENDBRANCH   6   7
ENDBRANCH   5   6
ENDBRANCH   4   5
ENDBRANCH   3   4
ENDBRANCH   2   3
ENDBRANCH   1   2
BRANCH   1  18
ATOM     18  C   UNL     1      28.553  15.488  55.309  1.00  0.00     0.000 C 
BRANCH  18  19
ATOM     19  C   UNL     1      29.041  16.519  54.277  1.00  0.00     0.000 C 
BRANCH  19  20
ATOM     20  C   UNL     1      30.116  17.456  54.857  1.00  0.00     0.000 C 
BRANCH  20  21
ATOM     21  C   UNL     1      30.871  18.234  53.768  1.00  0.00     0.000 C 
BRANCH  21  22
ATOM     22  C   UNL     1      32.001  19.105  54.344  1.00  0.00     0.000 C 
BRANCH  22  23
ATOM     23  C   UNL     1      32.466  18.623  55.727  1.00  0.00     0.000 C 
BRANCH  23  24
ATOM     24  C   UNL     1      33.587  19.500  56.311  1.00  0.00    -0.000 C 
BRANCH  24  25
ATOM     25  C   UNL     1      34.648  19.874  55.254  1.00  0.00    -0.000 C 
BRANCH  25  26
ATOM     26  C   UNL     1      35.596  18.721  54.881  1.00  0.00    -0.000 C 
BRANCH  26  27
ATOM     27  C   UNL     1      35.522  18.338  53.393  1.00  0.00    -0.000 C 
BRANCH  27  28
ATOM     28  C   UNL     1      36.024  16.911  53.122  1.00  0.00    -0.000 C 
BRANCH  28  29
ATOM     29  C   UNL     1      35.249  15.847  53.915  1.00  0.00    -0.000 C 
BRANCH  29  30
ATOM     30  C   UNL     1      33.807  15.729  53.401  1.00  0.00    -0.000 C 
BRANCH  30  31
ATOM     31  C   UNL     1      32.847  15.164  54.459  1.00  0.00    -0.003 C 
ATOM     32  C   UNL     1      33.501  15.018  55.834  1.00  0.00     0.004 C 
ENDBRANCH  30  31
ENDBRANCH  29  30
ENDBRANCH  28  29
ENDBRANCH  27  28
ENDBRANCH  26  27
ENDBRANCH  25  26
ENDBRANCH  24  25
ENDBRANCH  23  24
ENDBRANCH  22  23
ENDBRANCH  21  22
ENDBRANCH  20  21
ENDBRANCH  19  20
ENDBRANCH  18  19
ENDBRANCH   1  18
TORSDOF 28
ENDMDL
MODEL 6
REMARK VINA RESULT:    -3.350      1.757      1.997
REMARK INTER + INTRA:         -15.320
REMARK INTER:                  -9.149
REMARK INTRA:                  -6.171
REMARK UNBOUND:                -6.486
REMARK SMILES CCCCCCCCCCCCCCCCCCCCCCCCCCCCCC(=O)[O-]
REMARK SMILES IDX 16 1 17 2 18 3 19 4 20 5 21 6 22 7 23 8 24 9 25 10 26 11
REMARK SMILES IDX 27 12 28 13 29 14 30 15 31 16 32 17 15 18 14 19 13 20 12 21
REMARK SMILES IDX 11 22 10 23 9 24 8 25 7 26 6 27 5 28 4 29 3 30 2 31 1 32
REMARK H PARENT
REMARK Flexibility Score: inf
ROOT
ATOM      1  C   UNL     1      28.614  19.144  57.434  1.00  0.00     0.000 C 
ENDROOT
BRANCH   1   2
ATOM      2  C   UNL     1      27.316  18.320  57.576  1.00  0.00     0.000 C 
BRANCH   2   3
ATOM      3  C   UNL     1      26.248  18.643  56.516  1.00  0.00     0.000 C 
BRANCH   3   4
ATOM      4  C   UNL     1      25.474  17.400  56.049  1.00  0.00     0.000 C 
BRANCH   4   5
ATOM      5  C   UNL     1      26.384  16.189  55.757  1.00  0.00     0.000 C 
BRANCH   5   6
ATOM      6  C   UNL     1      26.261  15.006  56.739  1.00  0.00     0.000 C 
BRANCH   6   7
ATOM      7  C   UNL     1      27.545  14.166  56.845  1.00  0.00     0.000 C 
BRANCH   7   8
ATOM      8  C   UNL     1      28.817  15.030  56.857  1.00  0.00     0.000 C 
BRANCH   8   9
ATOM      9  C   UNL     1      30.051  14.277  56.331  1.00  0.00     0.000 C 
BRANCH   9  10
ATOM     10  C   UNL     1      29.677  13.060  55.466  1.00  0.00     0.000 C 
BRANCH  10  11
ATOM     11  C   UNL     1      30.021  13.264  53.980  1.00  0.00     0.000 C 
BRANCH  11  12
ATOM     12  C   UNL     1      28.965  14.093  53.234  1.00  0.00     0.000 C 
BRANCH  12  13
ATOM     13  C   UNL     1      29.487  14.652  51.902  1.00  0.00     0.006 C 
BRANCH  13  14
ATOM     14  C   UNL     1      28.781  13.990  50.714  1.00  0.00     0.053 C 
BRANCH  14  15
ATOM     15  C   UNL     1      29.662  12.969  50.061  1.00  0.00     0.041 C 
ATOM     16  O   UNL     1      30.159  13.198  48.925  1.00  0.00    -0.550 OA
ATOM     17  O   UNL     1      29.964  11.781  50.719  1.00  0.00    -0.550 OA
ENDBRANCH  14  15
ENDBRANCH  13  14
ENDBRANCH  12  13
ENDBRANCH  11  12
ENDBRANCH  10  11
ENDBRANCH   9  10
ENDBRANCH   8   9
ENDBRANCH   7   8
ENDBRANCH   6   7
ENDBRANCH   5   6
ENDBRANCH   4   5
ENDBRANCH   3   4
ENDBRANCH   2   3
ENDBRANCH   1   2
BRANCH   1  18
ATOM     18  C   UNL     1      28.377  20.496  56.736  1.00  0.00     0.000 C 
BRANCH  18  19
ATOM     19  C   UNL     1      29.632  21.003  56.005  1.00  0.00     0.000 C 
BRANCH  19  20
ATOM     20  C   UNL     1      29.368  21.260  54.511  1.00  0.00     0.000 C 
BRANCH  20  21
ATOM     21  C   UNL     1      27.869  21.334  54.181  1.00  0.00     0.000 C 
BRANCH  21  22
ATOM     22  C   UNL     1      27.515  20.582  52.885  1.00  0.00     0.000 C 
BRANCH  22  23
ATOM     23  C   UNL     1      26.519  19.437  53.126  1.00  0.00     0.000 C 
BRANCH  23  24
ATOM     24  C   UNL     1      27.074  18.071  52.687  1.00  0.00    -0.000 C 
BRANCH  24  25
ATOM     25  C   UNL     1      28.614  18.007  52.779  1.00  0.00    -0.000 C 
BRANCH  25  26
ATOM     26  C   UNL     1      29.142  17.629  54.174  1.00  0.00    -0.000 C 
BRANCH  26  27
ATOM     27  C   UNL     1      30.653  17.339  54.188  1.00  0.00    -0.000 C 
BRANCH  27  28
ATOM     28  C   UNL     1      31.296  17.604  55.558  1.00  0.00    -0.000 C 
BRANCH  28  29
ATOM     29  C   UNL     1      32.368  18.703  55.509  1.00  0.00    -0.000 C 
BRANCH  29  30
ATOM     30  C   UNL     1      32.713  19.062  54.056  1.00  0.00    -0.000 C 
BRANCH  30  31
ATOM     31  C   UNL     1      34.217  18.957  53.762  1.00  0.00    -0.003 C 
ATOM     32  C   UNL     1      35.083  19.450  54.922  1.00  0.00     0.004 C 
ENDBRANCH  30  31
ENDBRANCH  29  30
ENDBRANCH  28  29
ENDBRANCH  27  28
ENDBRANCH  26  27
ENDBRANCH  25  26
ENDBRANCH  24  25
ENDBRANCH  23  24
ENDBRANCH  22  23
ENDBRANCH  21  22
ENDBRANCH  20  21
ENDBRANCH  19  20
ENDBRANCH  18  19
ENDBRANCH   1  18
TORSDOF 28
ENDMDL
MODEL 7
REMARK VINA RESULT:    -3.322      2.404      4.964
REMARK INTER + INTRA:         -15.245
REMARK INTER:                  -9.130
REMARK INTRA:                  -6.115
REMARK UNBOUND:                -6.486
REMARK SMILES CCCCCCCCCCCCCCCCCCCCCCCCCCCCCC(=O)[O-]
REMARK SMILES IDX 16 1 17 2 18 3 19 4 20 5 21 6 22 7 23 8 24 9 25 10 26 11
REMARK SMILES IDX 27 12 28 13 29 14 30 15 31 16 32 17 15 18 14 19 13 20 12 21
REMARK SMILES IDX 11 22 10 23 9 24 8 25 7 26 6 27 5 28 4 29 3 30 2 31 1 32
REMARK H PARENT
REMARK Flexibility Score: inf
ROOT
ATOM      1  C   UNL     1      32.236  18.560  54.436  1.00  0.00     0.000 C 
ENDROOT
BRANCH   1   2
ATOM      2  C   UNL     1      32.182  17.082  54.878  1.00  0.00     0.000 C 
BRANCH   2   3
ATOM      3  C   UNL     1      31.903  16.884  56.379  1.00  0.00     0.000 C 
BRANCH   3   4
ATOM      4  C   UNL     1      30.518  16.279  56.655  1.00  0.00     0.000 C 
BRANCH   4   5
ATOM      5  C   UNL     1      30.474  14.748  56.473  1.00  0.00     0.000 C 
BRANCH   5   6
ATOM      6  C   UNL     1      29.086  14.094  56.636  1.00  0.00     0.000 C 
BRANCH   6   7
ATOM      7  C   UNL     1      27.994  15.084  57.075  1.00  0.00     0.000 C 
BRANCH   7   8
ATOM      8  C   UNL     1      26.591  14.454  57.077  1.00  0.00     0.000 C 
BRANCH   8   9
ATOM      9  C   UNL     1      26.513  13.176  56.224  1.00  0.00     0.000 C 
BRANCH   9  10
ATOM     10  C   UNL     1      25.973  11.970  57.013  1.00  0.00     0.000 C 
BRANCH  10  11
ATOM     11  C   UNL     1      27.064  10.929  57.321  1.00  0.00     0.000 C 
BRANCH  11  12
ATOM     12  C   UNL     1      27.737  10.382  56.054  1.00  0.00     0.000 C 
BRANCH  12  13
ATOM     13  C   UNL     1      29.260  10.582  56.062  1.00  0.00     0.006 C 
BRANCH  13  14
ATOM     14  C   UNL     1      29.838  10.344  57.461  1.00  0.00     0.053 C 
BRANCH  14  15
ATOM     15  C   UNL     1      31.211  10.931  57.587  1.00  0.00     0.041 C 
ATOM     16  O   UNL     1      32.153  10.490  56.874  1.00  0.00    -0.550 OA
ATOM     17  O   UNL     1      31.445  11.986  58.463  1.00  0.00    -0.550 OA
ENDBRANCH  14  15
ENDBRANCH  13  14
ENDBRANCH  12  13
ENDBRANCH  11  12
ENDBRANCH  10  11
ENDBRANCH   9  10
ENDBRANCH   8   9
ENDBRANCH   7   8
ENDBRANCH   6   7
ENDBRANCH   5   6
ENDBRANCH   4   5
ENDBRANCH   3   4
ENDBRANCH   2   3
ENDBRANCH   1   2
BRANCH   1  18
ATOM     18  C   UNL     1      31.631  19.509  55.486  1.00  0.00     0.000 C 
BRANCH  18  19
ATOM     19  C   UNL     1      30.227  19.997  55.092  1.00  0.00     0.000 C 
BRANCH  19  20
ATOM     20  C   UNL     1      29.649  20.989  56.117  1.00  0.00     0.000 C 
BRANCH  20  21
ATOM     21  C   UNL     1      28.326  20.501  56.729  1.00  0.00     0.000 C 
BRANCH  21  22
ATOM     22  C   UNL     1      28.470  19.136  57.426  1.00  0.00     0.000 C 
BRANCH  22  23
ATOM     23  C   UNL     1      27.140  18.369  57.492  1.00  0.00     0.000 C 
BRANCH  23  24
ATOM     24  C   UNL     1      26.168  18.778  56.372  1.00  0.00    -0.000 C 
BRANCH  24  25
ATOM     25  C   UNL     1      25.371  17.576  55.821  1.00  0.00    -0.000 C 
BRANCH  25  26
ATOM     26  C   UNL     1      25.840  17.096  54.437  1.00  0.00    -0.000 C 
BRANCH  26  27
ATOM     27  C   UNL     1      27.028  17.903  53.889  1.00  0.00    -0.000 C 
BRANCH  27  28
ATOM     28  C   UNL     1      28.356  17.134  53.966  1.00  0.00    -0.000 C 
BRANCH  28  29
ATOM     29  C   UNL     1      28.266  15.729  53.351  1.00  0.00    -0.000 C 
BRANCH  29  30
ATOM     30  C   UNL     1      29.644  15.262  52.858  1.00  0.00    -0.000 C 
BRANCH  30  31
ATOM     31  C   UNL     1      29.790  13.734  52.871  1.00  0.00    -0.003 C 
ATOM     32  C   UNL     1      28.493  13.018  53.254  1.00  0.00     0.004 C 
ENDBRANCH  30  31
ENDBRANCH  29  30
ENDBRANCH  28  29
ENDBRANCH  27  28
ENDBRANCH  26  27
ENDBRANCH  25  26
ENDBRANCH  24  25
ENDBRANCH  23  24
ENDBRANCH  22  23
ENDBRANCH  21  22
ENDBRANCH  20  21
ENDBRANCH  19  20
ENDBRANCH  18  19
ENDBRANCH   1  18
TORSDOF 28
ENDMDL
MODEL 8
REMARK VINA RESULT:    -3.291      2.378      5.055
REMARK INTER + INTRA:         -15.164
REMARK INTER:                  -8.608
REMARK INTRA:                  -6.556
REMARK UNBOUND:                -6.486
REMARK SMILES CCCCCCCCCCCCCCCCCCCCCCCCCCCCCC(=O)[O-]
REMARK SMILES IDX 16 1 17 2 18 3 19 4 20 5 21 6 22 7 23 8 24 9 25 10 26 11
REMARK SMILES IDX 27 12 28 13 29 14 30 15 31 16 32 17 15 18 14 19 13 20 12 21
REMARK SMILES IDX 11 22 10 23 9 24 8 25 7 26 6 27 5 28 4 29 3 30 2 31 1 32
REMARK H PARENT
REMARK Flexibility Score: inf
ROOT
ATOM      1  C   UNL     1      28.115  17.350  53.439  1.00  0.00     0.000 C 
ENDROOT
BRANCH   1   2
ATOM      2  C   UNL     1      27.400  18.654  53.854  1.00  0.00     0.000 C 
BRANCH   2   3
ATOM      3  C   UNL     1      26.022  18.437  54.505  1.00  0.00     0.000 C 
BRANCH   3   4
ATOM      4  C   UNL     1      26.026  18.709  56.017  1.00  0.00     0.000 C 
BRANCH   4   5
ATOM      5  C   UNL     1      27.236  19.544  56.484  1.00  0.00     0.000 C 
BRANCH   5   6
ATOM      6  C   UNL     1      28.172  18.856  57.500  1.00  0.00     0.000 C 
BRANCH   6   7
ATOM      7  C   UNL     1      27.563  17.593  58.131  1.00  0.00     0.000 C 
BRANCH   7   8
ATOM      8  C   UNL     1      28.066  16.299  57.469  1.00  0.00     0.000 C 
BRANCH   8   9
ATOM      9  C   UNL     1      26.942  15.273  57.241  1.00  0.00     0.000 C 
BRANCH   9  10
ATOM     10  C   UNL     1      26.671  15.013  55.748  1.00  0.00     0.000 C 
BRANCH  10  11
ATOM     11  C   UNL     1      26.445  13.522  55.441  1.00  0.00     0.000 C 
BRANCH  11  12
ATOM     12  C   UNL     1      26.342  12.663  56.709  1.00  0.00     0.000 C 
BRANCH  12  13
ATOM     13  C   UNL     1      26.683  11.187  56.451  1.00  0.00     0.006 C 
BRANCH  13  14
ATOM     14  C   UNL     1      27.908  10.756  57.266  1.00  0.00     0.053 C 
BRANCH  14  15
ATOM     15  C   UNL     1      27.500  10.039  58.517  1.00  0.00     0.041 C 
ATOM     16  O   UNL     1      28.346   9.364  59.162  1.00  0.00    -0.550 OA
ATOM     17  O   UNL     1      26.196  10.144  58.992  1.00  0.00    -0.550 OA
ENDBRANCH  14  15
ENDBRANCH  13  14
ENDBRANCH  12  13
ENDBRANCH  11  12
ENDBRANCH  10  11
ENDBRANCH   9  10
ENDBRANCH   8   9
ENDBRANCH   7   8
ENDBRANCH   6   7
ENDBRANCH   5   6
ENDBRANCH   4   5
ENDBRANCH   3   4
ENDBRANCH   2   3
ENDBRANCH   1   2
BRANCH   1  18
ATOM     18  C   UNL     1      29.478  17.182  54.134  1.00  0.00     0.000 C 
BRANCH  18  19
ATOM     19  C   UNL     1      30.149  18.533  54.438  1.00  0.00     0.000 C 
BRANCH  19  20
ATOM     20  C   UNL     1      31.167  18.428  55.588  1.00  0.00     0.000 C 
BRANCH  20  21
ATOM     21  C   UNL     1      31.399  16.979  56.041  1.00  0.00     0.000 C 
BRANCH  21  22
ATOM     22  C   UNL     1      32.836  16.500  55.766  1.00  0.00     0.000 C 
BRANCH  22  23
ATOM     23  C   UNL     1      33.206  16.582  54.278  1.00  0.00     0.000 C 
BRANCH  23  24
ATOM     24  C   UNL     1      34.084  15.402  53.823  1.00  0.00    -0.000 C 
BRANCH  24  25
ATOM     25  C   UNL     1      33.285  14.352  53.022  1.00  0.00    -0.000 C 
BRANCH  25  26
ATOM     26  C   UNL     1      31.860  14.799  52.651  1.00  0.00    -0.000 C 
BRANCH  26  27
ATOM     27  C   UNL     1      30.850  13.640  52.633  1.00  0.00    -0.000 C 
BRANCH  27  28
ATOM     28  C   UNL     1      29.800  13.748  53.749  1.00  0.00    -0.000 C 
BRANCH  28  29
ATOM     29  C   UNL     1      30.066  12.782  54.913  1.00  0.00    -0.000 C 
BRANCH  29  30
ATOM     30  C   UNL     1      30.125  13.541  56.247  1.00  0.00    -0.000 C 
BRANCH  30  31
ATOM     31  C   UNL     1      31.309  13.105  57.123  1.00  0.00    -0.003 C 
ATOM     32  C   UNL     1      32.583  12.852  56.315  1.00  0.00     0.004 C 
ENDBRANCH  30  31
ENDBRANCH  29  30
ENDBRANCH  28  29
ENDBRANCH  27  28
ENDBRANCH  26  27
ENDBRANCH  25  26
ENDBRANCH  24  25
ENDBRANCH  23  24
ENDBRANCH  22  23
ENDBRANCH  21  22
ENDBRANCH  20  21
ENDBRANCH  19  20
ENDBRANCH  18  19
ENDBRANCH   1  18
TORSDOF 28
ENDMDL
MODEL 9
REMARK VINA RESULT:    -3.270      3.115      6.696
REMARK INTER + INTRA:         -15.110
REMARK INTER:                  -8.697
REMARK INTRA:                  -6.413
REMARK UNBOUND:                -6.486
REMARK SMILES CCCCCCCCCCCCCCCCCCCCCCCCCCCCCC(=O)[O-]
REMARK SMILES IDX 16 1 17 2 18 3 19 4 20 5 21 6 22 7 23 8 24 9 25 10 26 11
REMARK SMILES IDX 27 12 28 13 29 14 30 15 31 16 32 17 15 18 14 19 13 20 12 21
REMARK SMILES IDX 11 22 10 23 9 24 8 25 7 26 6 27 5 28 4 29 3 30 2 31 1 32
REMARK H PARENT
REMARK Flexibility Score: inf
ROOT
ATOM      1  C   UNL     1      27.635  16.168  57.337  1.00  0.00     0.000 C 
ENDROOT
BRANCH   1   2
ATOM      2  C   UNL     1      27.268  17.660  57.488  1.00  0.00     0.000 C 
BRANCH   2   3
ATOM      3  C   UNL     1      28.482  18.599  57.601  1.00  0.00     0.000 C 
BRANCH   3   4
ATOM      4  C   UNL     1      28.196  20.013  57.073  1.00  0.00     0.000 C 
BRANCH   4   5
ATOM      5  C   UNL     1      29.458  20.746  56.574  1.00  0.00     0.000 C 
BRANCH   5   6
ATOM      6  C   UNL     1      29.499  21.058  55.064  1.00  0.00     0.000 C 
BRANCH   6   7
ATOM      7  C   UNL     1      28.107  21.288  54.452  1.00  0.00     0.000 C 
BRANCH   7   8
ATOM      8  C   UNL     1      27.769  20.268  53.352  1.00  0.00     0.000 C 
BRANCH   8   9
ATOM      9  C   UNL     1      26.748  19.213  53.813  1.00  0.00     0.000 C 
BRANCH   9  10
ATOM     10  C   UNL     1      27.357  17.803  53.909  1.00  0.00     0.000 C 
BRANCH  10  11
ATOM     11  C   UNL     1      28.808  17.750  53.399  1.00  0.00     0.000 C 
BRANCH  11  12
ATOM     12  C   UNL     1      29.775  17.137  54.423  1.00  0.00     0.000 C 
BRANCH  12  13
ATOM     13  C   UNL     1      31.112  17.891  54.496  1.00  0.00     0.006 C 
BRANCH  13  14
ATOM     14  C   UNL     1      31.670  17.880  55.924  1.00  0.00     0.053 C 
BRANCH  14  15
ATOM     15  C   UNL     1      32.968  18.625  56.003  1.00  0.00     0.041 C 
ATOM     16  O   UNL     1      32.970  19.878  56.142  1.00  0.00    -0.550 OA
ATOM     17  O   UNL     1      34.176  17.935  55.959  1.00  0.00    -0.550 OA
ENDBRANCH  14  15
ENDBRANCH  13  14
ENDBRANCH  12  13
ENDBRANCH  11  12
ENDBRANCH  10  11
ENDBRANCH   9  10
ENDBRANCH   8   9
ENDBRANCH   7   8
ENDBRANCH   6   7
ENDBRANCH   5   6
ENDBRANCH   4   5
ENDBRANCH   3   4
ENDBRANCH   2   3
ENDBRANCH   1   2
BRANCH   1  18
ATOM     18  C   UNL     1      26.412  15.245  57.484  1.00  0.00     0.000 C 
BRANCH  18  19
ATOM     19  C   UNL     1      26.457  14.058  56.508  1.00  0.00     0.000 C 
BRANCH  19  20
ATOM     20  C   UNL     1      27.204  14.404  55.207  1.00  0.00     0.000 C 
BRANCH  20  21
ATOM     21  C   UNL     1      28.457  13.539  54.999  1.00  0.00     0.000 C 
BRANCH  21  22
ATOM     22  C   UNL     1      28.587  12.428  56.057  1.00  0.00     0.000 C 
BRANCH  22  23
ATOM     23  C   UNL     1      29.901  12.523  56.848  1.00  0.00     0.000 C 
BRANCH  23  24
ATOM     24  C   UNL     1      30.698  13.796  56.515  1.00  0.00    -0.000 C 
BRANCH  24  25
ATOM     25  C   UNL     1      32.147  13.483  56.084  1.00  0.00    -0.000 C 
BRANCH  25  26
ATOM     26  C   UNL     1      33.004  14.732  55.811  1.00  0.00    -0.000 C 
BRANCH  26  27
ATOM     27  C   UNL     1      33.811  14.636  54.506  1.00  0.00    -0.000 C 
BRANCH  27  28
ATOM     28  C   UNL     1      33.019  15.116  53.281  1.00  0.00    -0.000 C 
BRANCH  28  29
ATOM     29  C   UNL     1      32.662  13.974  52.318  1.00  0.00    -0.000 C 
BRANCH  29  30
ATOM     30  C   UNL     1      31.193  13.559  52.487  1.00  0.00    -0.000 C 
BRANCH  30  31
ATOM     31  C   UNL     1      30.217  14.591  51.902  1.00  0.00    -0.003 C 
ATOM     32  C   UNL     1      29.550  14.110  50.613  1.00  0.00     0.004 C 
ENDBRANCH  30  31
ENDBRANCH  29  30
ENDBRANCH  28  29
ENDBRANCH  27  28
ENDBRANCH  26  27
ENDBRANCH  25  26
ENDBRANCH  24  25
ENDBRANCH  23  24
ENDBRANCH  22  23
ENDBRANCH  21  22
ENDBRANCH  20  21
ENDBRANCH  19  20
ENDBRANCH  18  19
ENDBRANCH   1  18
TORSDOF 28
ENDMDL
