MODEL 1
REMARK VINA RESULT:    -2.384      0.000      0.000
REMARK INTER + INTRA:          -3.118
REMARK INTER:                  -2.802
REMARK INTRA:                  -0.317
REMARK UNBOUND:                -0.317
REMARK SMILES O=c1cc(-c2ccc(O)c(O)c2)oc2cc(O)cc(O)c12
REMARK SMILES IDX 4 1 3 2 2 3 1 4 21 5 19 6 18 7 16 8 15 9 14 10 13 11 5 12
REMARK SMILES IDX 6 13 7 14 8 15 12 16 10 17 9 18 11 20 20 22 17 24
REMARK H PARENT 9 19 11 21 20 23 17 25
REMARK Flexibility Score: inf
ROOT
ATOM      1  C   UNL     1       6.765 -22.529  12.736  1.00  0.00     0.138 A 
ATOM      2  C   UNL     1       7.631 -22.217  13.794  1.00  0.00     0.100 A 
ATOM      3  C   UNL     1       7.122 -22.090  15.088  1.00  0.00     0.197 A 
ATOM      4  O   UNL     1       7.932 -21.871  16.025  1.00  0.00    -0.289 OA
ATOM      5  C   UNL     1       5.734 -22.245  15.315  1.00  0.00     0.107 A 
ATOM      6  C   UNL     1       5.097 -22.097  16.584  1.00  0.00     0.134 A 
ATOM      7  C   UNL     1       3.733 -22.388  16.710  1.00  0.00     0.093 A 
ATOM      8  C   UNL     1       2.971 -22.763  15.604  1.00  0.00     0.123 A 
ATOM      9  C   UNL     1       3.572 -22.858  14.348  1.00  0.00     0.094 A 
ATOM     10  C   UNL     1       4.937 -22.607  14.196  1.00  0.00     0.146 A 
ATOM     11  O   UNL     1       5.475 -22.723  12.986  1.00  0.00    -0.456 OA
ENDROOT
BRANCH   1  12
ATOM     12  C   UNL     1       7.253 -22.676  11.342  1.00  0.00     0.021 A 
ATOM     13  C   UNL     1       8.637 -22.695  11.092  1.00  0.00     0.016 A 
ATOM     14  C   UNL     1       9.121 -22.840   9.789  1.00  0.00     0.051 A 
ATOM     15  C   UNL     1       8.233 -22.979   8.716  1.00  0.00     0.157 A 
ATOM     16  C   UNL     1       6.366 -22.830  10.259  1.00  0.00     0.062 A 
ATOM     17  C   UNL     1       6.849 -22.978   8.953  1.00  0.00     0.158 A 
BRANCH  15  18
ATOM     18  O   UNL     1       8.720 -23.121   7.417  1.00  0.00    -0.504 OA
ATOM     19  H   UNL     1       9.649 -22.807   7.161  1.00  0.00     0.293 HD
ENDBRANCH  15  18
BRANCH  17  20
ATOM     20  O   UNL     1       5.939 -23.125   7.907  1.00  0.00    -0.504 OA
ATOM     21  H   UNL     1       5.218 -22.438   7.720  1.00  0.00     0.293 HD
ENDBRANCH  17  20
ENDBRANCH   1  12
BRANCH   6  22
ATOM     22  O   UNL     1       5.748 -21.645  17.736  1.00  0.00    -0.507 OA
ATOM     23  H   UNL     1       5.727 -20.696  18.076  1.00  0.00     0.293 HD
ENDBRANCH   6  22
BRANCH   8  24
ATOM     24  O   UNL     1       1.614 -23.030  15.764  1.00  0.00    -0.508 OA
ATOM     25  H   UNL     1       1.233 -23.322  16.657  1.00  0.00     0.293 HD
ENDBRANCH   8  24
TORSDOF 5
ENDMDL
MODEL 2
REMARK VINA RESULT:    -1.087     15.284     17.872
REMARK INTER + INTRA:          -1.594
REMARK INTER:                  -1.331
REMARK INTRA:                  -0.264
REMARK UNBOUND:                -0.317
REMARK SMILES O=c1cc(-c2ccc(O)c(O)c2)oc2cc(O)cc(O)c12
REMARK SMILES IDX 4 1 3 2 2 3 1 4 21 5 19 6 18 7 16 8 15 9 14 10 13 11 5 12
REMARK SMILES IDX 6 13 7 14 8 15 12 16 10 17 9 18 11 20 20 22 17 24
REMARK H PARENT 9 19 11 21 20 23 17 25
REMARK Flexibility Score: inf
ROOT
ATOM      1  C   UNL     1     -10.270 -20.823  18.928  1.00  0.00     0.138 A 
ATOM      2  C   UNL     1     -10.601 -22.025  19.569  1.00  0.00     0.100 A 
ATOM      3  C   UNL     1     -10.767 -22.046  20.955  1.00  0.00     0.197 A 
ATOM      4  O   UNL     1     -11.124 -23.125  21.493  1.00  0.00    -0.289 OA
ATOM      5  C   UNL     1     -10.569 -20.862  21.704  1.00  0.00     0.107 A 
ATOM      6  C   UNL     1     -10.670 -20.774  23.125  1.00  0.00     0.134 A 
ATOM      7  C   UNL     1     -10.568 -19.524  23.748  1.00  0.00     0.093 A 
ATOM      8  C   UNL     1     -10.308 -18.370  23.010  1.00  0.00     0.123 A 
ATOM      9  C   UNL     1     -10.153 -18.453  21.625  1.00  0.00     0.094 A 
ATOM     10  C   UNL     1     -10.284 -19.680  20.971  1.00  0.00     0.146 A 
ATOM     11  O   UNL     1     -10.144 -19.714  19.649  1.00  0.00    -0.456 OA
ENDROOT
BRANCH   1  12
ATOM     12  C   UNL     1     -10.082 -20.744  17.458  1.00  0.00     0.021 A 
ATOM     13  C   UNL     1     -11.092 -20.178  16.660  1.00  0.00     0.016 A 
ATOM     14  C   UNL     1     -10.935 -20.086  15.275  1.00  0.00     0.051 A 
ATOM     15  C   UNL     1      -9.763 -20.547  14.664  1.00  0.00     0.157 A 
ATOM     16  C   UNL     1      -8.900 -21.194  16.838  1.00  0.00     0.062 A 
ATOM     17  C   UNL     1      -8.740 -21.101  15.450  1.00  0.00     0.158 A 
BRANCH  15  18
ATOM     18  O   UNL     1      -9.611 -20.455  13.281  1.00  0.00    -0.504 OA
ATOM     19  H   UNL     1      -9.440 -21.275  12.710  1.00  0.00     0.293 HD
ENDBRANCH  15  18
BRANCH  17  20
ATOM     20  O   UNL     1      -7.556 -21.559  14.873  1.00  0.00    -0.504 OA
ATOM     21  H   UNL     1      -7.534 -21.979  13.951  1.00  0.00     0.293 HD
ENDBRANCH  17  20
ENDBRANCH   1  12
BRANCH   6  22
ATOM     22  O   UNL     1     -10.844 -21.877  23.966  1.00  0.00    -0.507 OA
ATOM     23  H   UNL     1     -11.193 -22.777  23.672  1.00  0.00     0.293 HD
ENDBRANCH   6  22
BRANCH   8  24
ATOM     24  O   UNL     1     -10.197 -17.146  23.665  1.00  0.00    -0.508 OA
ATOM     25  H   UNL     1     -10.117 -17.090  24.673  1.00  0.00     0.293 HD
ENDBRANCH   8  24
TORSDOF 5
ENDMDL
MODEL 3
REMARK VINA RESULT:    -0.081      2.790      7.188
REMARK INTER + INTRA:          -0.412
REMARK INTER:                  -0.104
REMARK INTRA:                  -0.307
REMARK UNBOUND:                -0.317
REMARK SMILES O=c1cc(-c2ccc(O)c(O)c2)oc2cc(O)cc(O)c12
REMARK SMILES IDX 4 1 3 2 2 3 1 4 21 5 19 6 18 7 16 8 15 9 14 10 13 11 5 12
REMARK SMILES IDX 6 13 7 14 8 15 12 16 10 17 9 18 11 20 20 22 17 24
REMARK H PARENT 9 19 11 21 20 23 17 25
REMARK Flexibility Score: inf
ROOT
ATOM      1  C   UNL     1       3.674 -22.485  14.783  1.00  0.00     0.138 A 
ATOM      2  C   UNL     1       4.035 -22.752  13.455  1.00  0.00     0.100 A 
ATOM      3  C   UNL     1       5.386 -22.822  13.109  1.00  0.00     0.197 A 
ATOM      4  O   UNL     1       5.680 -23.125  11.923  1.00  0.00    -0.289 OA
ATOM      5  C   UNL     1       6.377 -22.592  14.092  1.00  0.00     0.107 A 
ATOM      6  C   UNL     1       7.783 -22.597  13.845  1.00  0.00     0.134 A 
ATOM      7  C   UNL     1       8.672 -22.472  14.920  1.00  0.00     0.093 A 
ATOM      8  C   UNL     1       8.209 -22.281  16.221  1.00  0.00     0.123 A 
ATOM      9  C   UNL     1       6.836 -22.220  16.466  1.00  0.00     0.094 A 
ATOM     10  C   UNL     1       5.923 -22.376  15.421  1.00  0.00     0.146 A 
ATOM     11  O   UNL     1       4.624 -22.326  15.698  1.00  0.00    -0.456 OA
ENDROOT
BRANCH   1  12
ATOM     12  C   UNL     1       2.253 -22.398  15.206  1.00  0.00     0.021 A 
ATOM     13  C   UNL     1       1.277 -23.125  14.502  1.00  0.00     0.016 A 
ATOM     14  C   UNL     1      -0.066 -23.067  14.885  1.00  0.00     0.051 A 
ATOM     15  C   UNL     1      -0.455 -22.291  15.983  1.00  0.00     0.157 A 
ATOM     16  C   UNL     1       1.857 -21.630  16.318  1.00  0.00     0.062 A 
ATOM     17  C   UNL     1       0.513 -21.572  16.704  1.00  0.00     0.158 A 
BRANCH  15  18
ATOM     18  O   UNL     1      -1.795 -22.233  16.361  1.00  0.00    -0.504 OA
ATOM     19  H   UNL     1      -2.453 -21.622  15.893  1.00  0.00     0.293 HD
ENDBRANCH  15  18
BRANCH  17  20
ATOM     20  O   UNL     1       0.159 -20.799  17.810  1.00  0.00    -0.504 OA
ATOM     21  H   UNL     1      -0.326 -19.915  17.715  1.00  0.00     0.293 HD
ENDBRANCH  17  20
ENDBRANCH   1  12
BRANCH   6  22
ATOM     22  O   UNL     1       8.352 -22.696  12.573  1.00  0.00    -0.507 OA
ATOM     23  H   UNL     1       8.892 -21.971  12.124  1.00  0.00     0.293 HD
ENDBRANCH   6  22
BRANCH   8  24
ATOM     24  O   UNL     1       9.123 -22.145  17.263  1.00  0.00    -0.508 OA
ATOM     25  H   UNL     1       9.826 -21.415  17.259  1.00  0.00     0.293 HD
ENDBRANCH   8  24
TORSDOF 5
ENDMDL
