MODEL 1
REMARK VINA RESULT:    -5.516      0.000      0.000
REMARK INTER + INTRA:          -6.975
REMARK INTER:                  -6.644
REMARK INTRA:                  -0.330
REMARK UNBOUND:                -0.330
REMARK SMILES O=c1c(O)c(-c2ccc(O)c(O)c2)oc2cc(O)cc(O)c12
REMARK SMILES IDX 5 1 3 2 2 3 1 4 22 5 20 6 19 7 17 8 16 9 15 10 14 11 6 12
REMARK SMILES IDX 7 13 8 14 9 15 13 16 11 17 10 18 12 20 4 22 21 24 18 26
REMARK H PARENT 10 19 12 21 4 23 21 25 18 27
REMARK Flexibility Score: inf
ROOT
ATOM      1  C   UNL     1      22.789  29.391  21.966  1.00  0.00     0.180 A 
ATOM      2  C   UNL     1      23.003  30.451  22.863  1.00  0.00     0.208 A 
ATOM      3  C   UNL     1      23.099  30.171  24.236  1.00  0.00     0.238 A 
ATOM      4  O   UNL     1      23.344  31.117  25.030  1.00  0.00    -0.285 OA
ATOM      5  C   UNL     1      22.964  28.839  24.695  1.00  0.00     0.111 A 
ATOM      6  C   UNL     1      23.004  28.446  26.066  1.00  0.00     0.134 A 
ATOM      7  C   UNL     1      22.991  27.085  26.396  1.00  0.00     0.093 A 
ATOM      8  C   UNL     1      22.873  26.107  25.410  1.00  0.00     0.123 A 
ATOM      9  C   UNL     1      22.774  26.482  24.070  1.00  0.00     0.094 A 
ATOM     10  C   UNL     1      22.821  27.831  23.707  1.00  0.00     0.146 A 
ATOM     11  O   UNL     1      22.733  28.144  22.420  1.00  0.00    -0.452 OA
ENDROOT
BRANCH   1  12
ATOM     12  C   UNL     1      22.652  29.610  20.508  1.00  0.00     0.025 A 
ATOM     13  C   UNL     1      23.788  29.530  19.687  1.00  0.00     0.016 A 
ATOM     14  C   UNL     1      23.680  29.712  18.306  1.00  0.00     0.051 A 
ATOM     15  C   UNL     1      22.430  29.961  17.724  1.00  0.00     0.157 A 
ATOM     16  C   UNL     1      21.397  29.840  19.916  1.00  0.00     0.062 A 
ATOM     17  C   UNL     1      21.286  30.021  18.530  1.00  0.00     0.158 A 
BRANCH  15  18
ATOM     18  O   UNL     1      22.316  30.145  16.347  1.00  0.00    -0.504 OA
ATOM     19  H   UNL     1      22.568  29.414  15.692  1.00  0.00     0.293 HD
ENDBRANCH  15  18
BRANCH  17  20
ATOM     20  O   UNL     1      20.042  30.256  17.946  1.00  0.00    -0.504 OA
ATOM     21  H   UNL     1      19.243  29.666  18.146  1.00  0.00     0.293 HD
ENDBRANCH  17  20
ENDBRANCH   1  12
BRANCH   2  22
ATOM     22  O   UNL     1      23.155  31.756  22.387  1.00  0.00    -0.502 OA
ATOM     23  H   UNL     1      24.052  32.131  22.102  1.00  0.00     0.293 HD
ENDBRANCH   2  22
BRANCH   6  24
ATOM     24  O   UNL     1      23.029  29.346  27.136  1.00  0.00    -0.507 OA
ATOM     25  H   UNL     1      22.796  29.112  28.090  1.00  0.00     0.293 HD
ENDBRANCH   6  24
BRANCH   8  26
ATOM     26  O   UNL     1      22.848  24.762  25.774  1.00  0.00    -0.508 OA
ATOM     27  H   UNL     1      22.043  24.177  25.586  1.00  0.00     0.293 HD
ENDBRANCH   8  26
TORSDOF 6
ENDMDL
MODEL 2
REMARK VINA RESULT:    -5.421      1.560      1.698
REMARK INTER + INTRA:          -6.861
REMARK INTER:                  -6.527
REMARK INTRA:                  -0.334
REMARK UNBOUND:                -0.330
REMARK SMILES O=c1c(O)c(-c2ccc(O)c(O)c2)oc2cc(O)cc(O)c12
REMARK SMILES IDX 5 1 3 2 2 3 1 4 22 5 20 6 19 7 17 8 16 9 15 10 14 11 6 12
REMARK SMILES IDX 7 13 8 14 9 15 13 16 11 17 10 18 12 20 4 22 21 24 18 26
REMARK H PARENT 10 19 12 21 4 23 21 25 18 27
REMARK Flexibility Score: inf
ROOT
ATOM      1  C   UNL     1      22.618  29.859  21.972  1.00  0.00     0.180 A 
ATOM      2  C   UNL     1      23.333  30.988  22.406  1.00  0.00     0.208 A 
ATOM      3  C   UNL     1      23.433  31.242  23.784  1.00  0.00     0.238 A 
ATOM      4  O   UNL     1      24.119  32.225  24.169  1.00  0.00    -0.285 OA
ATOM      5  C   UNL     1      22.804  30.374  24.707  1.00  0.00     0.111 A 
ATOM      6  C   UNL     1      22.807  30.557  26.123  1.00  0.00     0.134 A 
ATOM      7  C   UNL     1      22.265  29.565  26.949  1.00  0.00     0.093 A 
ATOM      8  C   UNL     1      21.662  28.429  26.410  1.00  0.00     0.123 A 
ATOM      9  C   UNL     1      21.602  28.268  25.025  1.00  0.00     0.094 A 
ATOM     10  C   UNL     1      22.167  29.223  24.176  1.00  0.00     0.146 A 
ATOM     11  O   UNL     1      22.096  29.027  22.865  1.00  0.00    -0.452 OA
ENDROOT
BRANCH   1  12
ATOM     12  C   UNL     1      22.448  29.539  20.536  1.00  0.00     0.025 A 
ATOM     13  C   UNL     1      23.343  28.655  19.914  1.00  0.00     0.016 A 
ATOM     14  C   UNL     1      23.189  28.322  18.565  1.00  0.00     0.051 A 
ATOM     15  C   UNL     1      22.128  28.857  17.824  1.00  0.00     0.157 A 
ATOM     16  C   UNL     1      21.372  30.058  19.793  1.00  0.00     0.062 A 
ATOM     17  C   UNL     1      21.216  29.724  18.440  1.00  0.00     0.158 A 
BRANCH  15  18
ATOM     18  O   UNL     1      21.971  28.530  16.478  1.00  0.00    -0.504 OA
ATOM     19  H   UNL     1      22.735  28.621  15.818  1.00  0.00     0.293 HD
ENDBRANCH  15  18
BRANCH  17  20
ATOM     20  O   UNL     1      20.153  30.244  17.702  1.00  0.00    -0.504 OA
ATOM     21  H   UNL     1      20.297  30.952  16.992  1.00  0.00     0.293 HD
ENDBRANCH  17  20
ENDBRANCH   1  12
BRANCH   2  22
ATOM     22  O   UNL     1      23.964  31.821  21.477  1.00  0.00    -0.502 OA
ATOM     23  H   UNL     1      23.758  31.785  20.487  1.00  0.00     0.293 HD
ENDBRANCH   2  22
BRANCH   6  24
ATOM     24  O   UNL     1      23.301  31.699  26.761  1.00  0.00    -0.507 OA
ATOM     25  H   UNL     1      24.226  31.782  27.156  1.00  0.00     0.293 HD
ENDBRANCH   6  24
BRANCH   8  26
ATOM     26  O   UNL     1      21.119  27.469  27.261  1.00  0.00    -0.508 OA
ATOM     27  H   UNL     1      21.546  27.249  28.153  1.00  0.00     0.293 HD
ENDBRANCH   8  26
TORSDOF 6
ENDMDL
MODEL 3
REMARK VINA RESULT:    -5.269      4.406      8.536
REMARK INTER + INTRA:          -6.677
REMARK INTER:                  -6.460
REMARK INTRA:                  -0.217
REMARK UNBOUND:                -0.330
REMARK SMILES O=c1c(O)c(-c2ccc(O)c(O)c2)oc2cc(O)cc(O)c12
REMARK SMILES IDX 5 1 3 2 2 3 1 4 22 5 20 6 19 7 17 8 16 9 15 10 14 11 6 12
REMARK SMILES IDX 7 13 8 14 9 15 13 16 11 17 10 18 12 20 4 22 21 24 18 26
REMARK H PARENT 10 19 12 21 4 23 21 25 18 27
REMARK Flexibility Score: inf
ROOT
ATOM      1  C   UNL     1      20.995  29.579  28.770  1.00  0.00     0.180 A 
ATOM      2  C   UNL     1      21.663  28.633  29.568  1.00  0.00     0.208 A 
ATOM      3  C   UNL     1      22.258  27.521  28.950  1.00  0.00     0.238 A 
ATOM      4  O   UNL     1      22.900  26.706  29.663  1.00  0.00    -0.285 OA
ATOM      5  C   UNL     1      22.163  27.360  27.547  1.00  0.00     0.111 A 
ATOM      6  C   UNL     1      22.693  26.251  26.821  1.00  0.00     0.134 A 
ATOM      7  C   UNL     1      22.657  26.261  25.421  1.00  0.00     0.093 A 
ATOM      8  C   UNL     1      22.051  27.305  24.725  1.00  0.00     0.123 A 
ATOM      9  C   UNL     1      21.477  28.366  25.426  1.00  0.00     0.094 A 
ATOM     10  C   UNL     1      21.531  28.402  26.821  1.00  0.00     0.146 A 
ATOM     11  O   UNL     1      20.981  29.434  27.450  1.00  0.00    -0.452 OA
ENDROOT
BRANCH   1  12
ATOM     12  C   UNL     1      20.322  30.763  29.350  1.00  0.00     0.025 A 
ATOM     13  C   UNL     1      18.920  30.808  29.398  1.00  0.00     0.016 A 
ATOM     14  C   UNL     1      18.264  31.906  29.959  1.00  0.00     0.051 A 
ATOM     15  C   UNL     1      19.001  32.969  30.496  1.00  0.00     0.157 A 
ATOM     16  C   UNL     1      21.058  31.824  29.909  1.00  0.00     0.062 A 
ATOM     17  C   UNL     1      20.401  32.926  30.474  1.00  0.00     0.158 A 
BRANCH  15  18
ATOM     18  O   UNL     1      18.352  34.068  31.056  1.00  0.00    -0.504 OA
ATOM     19  H   UNL     1      17.750  34.666  30.502  1.00  0.00     0.293 HD
ENDBRANCH  15  18
BRANCH  17  20
ATOM     20  O   UNL     1      21.132  33.980  31.022  1.00  0.00    -0.504 OA
ATOM     21  H   UNL     1      21.903  34.406  30.520  1.00  0.00     0.293 HD
ENDBRANCH  17  20
ENDBRANCH   1  12
BRANCH   2  22
ATOM     22  O   UNL     1      21.762  28.823  30.949  1.00  0.00    -0.502 OA
ATOM     23  H   UNL     1      21.820  29.743  31.369  1.00  0.00     0.293 HD
ENDBRANCH   2  22
BRANCH   6  24
ATOM     24  O   UNL     1      23.238  25.113  27.423  1.00  0.00    -0.507 OA
ATOM     25  H   UNL     1      24.205  25.012  27.692  1.00  0.00     0.293 HD
ENDBRANCH   6  24
BRANCH   8  26
ATOM     26  O   UNL     1      22.019  27.275  23.332  1.00  0.00    -0.508 OA
ATOM     27  H   UNL     1      22.706  26.758  22.796  1.00  0.00     0.293 HD
ENDBRANCH   8  26
TORSDOF 6
ENDMDL
MODEL 4
REMARK VINA RESULT:    -5.242      4.620      7.708
REMARK INTER + INTRA:          -6.644
REMARK INTER:                  -6.337
REMARK INTRA:                  -0.308
REMARK UNBOUND:                -0.330
REMARK SMILES O=c1c(O)c(-c2ccc(O)c(O)c2)oc2cc(O)cc(O)c12
REMARK SMILES IDX 5 1 3 2 2 3 1 4 22 5 20 6 19 7 17 8 16 9 15 10 14 11 6 12
REMARK SMILES IDX 7 13 8 14 9 15 13 16 11 17 10 18 12 20 4 22 21 24 18 26
REMARK H PARENT 10 19 12 21 4 23 21 25 18 27
REMARK Flexibility Score: inf
ROOT
ATOM      1  C   UNL     1      20.571  29.571  27.367  1.00  0.00     0.180 A 
ATOM      2  C   UNL     1      20.224  29.520  26.006  1.00  0.00     0.208 A 
ATOM      3  C   UNL     1      20.784  28.516  25.199  1.00  0.00     0.238 A 
ATOM      4  O   UNL     1      20.429  28.442  23.993  1.00  0.00    -0.285 OA
ATOM      5  C   UNL     1      21.695  27.588  25.758  1.00  0.00     0.111 A 
ATOM      6  C   UNL     1      22.353  26.556  25.025  1.00  0.00     0.134 A 
ATOM      7  C   UNL     1      23.132  25.613  25.706  1.00  0.00     0.093 A 
ATOM      8  C   UNL     1      23.331  25.704  27.083  1.00  0.00     0.123 A 
ATOM      9  C   UNL     1      22.740  26.744  27.802  1.00  0.00     0.094 A 
ATOM     10  C   UNL     1      21.927  27.678  27.155  1.00  0.00     0.146 A 
ATOM     11  O   UNL     1      21.376  28.646  27.877  1.00  0.00    -0.452 OA
ENDROOT
BRANCH   1  12
ATOM     12  C   UNL     1      20.042  30.614  28.275  1.00  0.00     0.025 A 
ATOM     13  C   UNL     1      20.645  31.882  28.298  1.00  0.00     0.016 A 
ATOM     14  C   UNL     1      20.149  32.888  29.132  1.00  0.00     0.051 A 
ATOM     15  C   UNL     1      19.034  32.645  29.944  1.00  0.00     0.157 A 
ATOM     16  C   UNL     1      18.910  30.381  29.078  1.00  0.00     0.062 A 
ATOM     17  C   UNL     1      18.411  31.390  29.914  1.00  0.00     0.158 A 
BRANCH  15  18
ATOM     18  O   UNL     1      18.537  33.644  30.779  1.00  0.00    -0.504 OA
ATOM     19  H   UNL     1      17.560  33.676  31.044  1.00  0.00     0.293 HD
ENDBRANCH  15  18
BRANCH  17  20
ATOM     20  O   UNL     1      17.293  31.156  30.714  1.00  0.00    -0.504 OA
ATOM     21  H   UNL     1      16.586  30.480  30.450  1.00  0.00     0.293 HD
ENDBRANCH  17  20
ENDBRANCH   1  12
BRANCH   2  22
ATOM     22  O   UNL     1      19.307  30.433  25.479  1.00  0.00    -0.502 OA
ATOM     23  H   UNL     1      18.338  30.193  25.309  1.00  0.00     0.293 HD
ENDBRANCH   2  22
BRANCH   6  24
ATOM     24  O   UNL     1      22.296  26.429  23.634  1.00  0.00    -0.507 OA
ATOM     25  H   UNL     1      22.681  27.094  22.979  1.00  0.00     0.293 HD
ENDBRANCH   6  24
BRANCH   8  26
ATOM     26  O   UNL     1      24.125  24.757  27.728  1.00  0.00    -0.508 OA
ATOM     27  H   UNL     1      23.721  24.040  28.318  1.00  0.00     0.293 HD
ENDBRANCH   8  26
TORSDOF 6
ENDMDL
MODEL 5
REMARK VINA RESULT:    -5.042      3.789      8.088
REMARK INTER + INTRA:          -6.404
REMARK INTER:                  -6.082
REMARK INTRA:                  -0.322
REMARK UNBOUND:                -0.330
REMARK SMILES O=c1c(O)c(-c2ccc(O)c(O)c2)oc2cc(O)cc(O)c12
REMARK SMILES IDX 5 1 3 2 2 3 1 4 22 5 20 6 19 7 17 8 16 9 15 10 14 11 6 12
REMARK SMILES IDX 7 13 8 14 9 15 13 16 11 17 10 18 12 20 4 22 21 24 18 26
REMARK H PARENT 10 19 12 21 4 23 21 25 18 27
REMARK Flexibility Score: inf
ROOT
ATOM      1  C   UNL     1      21.160  29.717  27.526  1.00  0.00     0.180 A 
ATOM      2  C   UNL     1      21.564  28.446  27.971  1.00  0.00     0.208 A 
ATOM      3  C   UNL     1      22.050  27.520  27.034  1.00  0.00     0.238 A 
ATOM      4  O   UNL     1      22.460  26.403  27.445  1.00  0.00    -0.285 OA
ATOM      5  C   UNL     1      22.111  27.870  25.663  1.00  0.00     0.111 A 
ATOM      6  C   UNL     1      22.549  26.996  24.623  1.00  0.00     0.134 A 
ATOM      7  C   UNL     1      22.693  27.490  23.321  1.00  0.00     0.093 A 
ATOM      8  C   UNL     1      22.353  28.806  23.009  1.00  0.00     0.123 A 
ATOM      9  C   UNL     1      21.869  29.652  24.007  1.00  0.00     0.094 A 
ATOM     10  C   UNL     1      21.749  29.198  25.322  1.00  0.00     0.146 A 
ATOM     11  O   UNL     1      21.292  30.038  26.244  1.00  0.00    -0.452 OA
ENDROOT
BRANCH   1  12
ATOM     12  C   UNL     1      20.614  30.737  28.449  1.00  0.00     0.025 A 
ATOM     13  C   UNL     1      19.242  30.735  28.748  1.00  0.00     0.016 A 
ATOM     14  C   UNL     1      18.708  31.676  29.632  1.00  0.00     0.051 A 
ATOM     15  C   UNL     1      19.541  32.623  30.243  1.00  0.00     0.157 A 
ATOM     16  C   UNL     1      21.450  31.677  29.080  1.00  0.00     0.062 A 
ATOM     17  C   UNL     1      20.915  32.620  29.969  1.00  0.00     0.158 A 
BRANCH  15  18
ATOM     18  O   UNL     1      19.013  33.564  31.124  1.00  0.00    -0.504 OA
ATOM     19  H   UNL     1      19.533  34.393  31.389  1.00  0.00     0.293 HD
ENDBRANCH  15  18
BRANCH  17  20
ATOM     20  O   UNL     1      21.743  33.555  30.588  1.00  0.00    -0.504 OA
ATOM     21  H   UNL     1      22.045  33.441  31.549  1.00  0.00     0.293 HD
ENDBRANCH  17  20
ENDBRANCH   1  12
BRANCH   2  22
ATOM     22  O   UNL     1      21.515  28.129  29.331  1.00  0.00    -0.502 OA
ATOM     23  H   UNL     1      20.791  27.541  29.726  1.00  0.00     0.293 HD
ENDBRANCH   2  22
BRANCH   6  24
ATOM     24  O   UNL     1      22.826  25.638  24.808  1.00  0.00    -0.507 OA
ATOM     25  H   UNL     1      23.752  25.238  24.824  1.00  0.00     0.293 HD
ENDBRANCH   6  24
BRANCH   8  26
ATOM     26  O   UNL     1      22.495  29.261  21.699  1.00  0.00    -0.508 OA
ATOM     27  H   UNL     1      22.822  30.198  21.496  1.00  0.00     0.293 HD
ENDBRANCH   8  26
TORSDOF 6
ENDMDL
MODEL 6
REMARK VINA RESULT:    -4.943      4.781      7.415
REMARK INTER + INTRA:          -6.285
REMARK INTER:                  -5.966
REMARK INTRA:                  -0.319
REMARK UNBOUND:                -0.330
REMARK SMILES O=c1c(O)c(-c2ccc(O)c(O)c2)oc2cc(O)cc(O)c12
REMARK SMILES IDX 5 1 3 2 2 3 1 4 22 5 20 6 19 7 17 8 16 9 15 10 14 11 6 12
REMARK SMILES IDX 7 13 8 14 9 15 13 16 11 17 10 18 12 20 4 22 21 24 18 26
REMARK H PARENT 10 19 12 21 4 23 21 25 18 27
REMARK Flexibility Score: inf
ROOT
ATOM      1  C   UNL     1      21.065  30.295  27.733  1.00  0.00     0.180 A 
ATOM      2  C   UNL     1      22.048  31.171  28.224  1.00  0.00     0.208 A 
ATOM      3  C   UNL     1      21.694  32.110  29.207  1.00  0.00     0.238 A 
ATOM      4  O   UNL     1      22.591  32.856  29.681  1.00  0.00    -0.285 OA
ATOM      5  C   UNL     1      20.359  32.172  29.673  1.00  0.00     0.111 A 
ATOM      6  C   UNL     1      19.880  33.110  30.636  1.00  0.00     0.134 A 
ATOM      7  C   UNL     1      18.572  32.995  31.122  1.00  0.00     0.093 A 
ATOM      8  C   UNL     1      17.706  32.019  30.631  1.00  0.00     0.123 A 
ATOM      9  C   UNL     1      18.145  31.134  29.646  1.00  0.00     0.094 A 
ATOM     10  C   UNL     1      19.456  31.200  29.169  1.00  0.00     0.146 A 
ATOM     11  O   UNL     1      19.838  30.333  28.239  1.00  0.00    -0.452 OA
ENDROOT
BRANCH   1  12
ATOM     12  C   UNL     1      21.356  29.295  26.681  1.00  0.00     0.025 A 
ATOM     13  C   UNL     1      21.170  29.638  25.332  1.00  0.00     0.016 A 
ATOM     14  C   UNL     1      21.457  28.718  24.320  1.00  0.00     0.051 A 
ATOM     15  C   UNL     1      21.950  27.447  24.643  1.00  0.00     0.157 A 
ATOM     16  C   UNL     1      21.870  28.025  26.998  1.00  0.00     0.062 A 
ATOM     17  C   UNL     1      22.160  27.101  25.984  1.00  0.00     0.158 A 
BRANCH  15  18
ATOM     18  O   UNL     1      22.237  26.524  23.638  1.00  0.00    -0.504 OA
ATOM     19  H   UNL     1      23.163  26.127  23.532  1.00  0.00     0.293 HD
ENDBRANCH  15  18
BRANCH  17  20
ATOM     20  O   UNL     1      22.664  25.840  26.301  1.00  0.00    -0.504 OA
ATOM     21  H   UNL     1      23.314  25.361  25.689  1.00  0.00     0.293 HD
ENDBRANCH  17  20
ENDBRANCH   1  12
BRANCH   2  22
ATOM     22  O   UNL     1      23.365  31.078  27.765  1.00  0.00    -0.502 OA
ATOM     23  H   UNL     1      24.092  31.717  28.065  1.00  0.00     0.293 HD
ENDBRANCH   2  22
BRANCH   6  24
ATOM     24  O   UNL     1      20.634  34.181  31.125  1.00  0.00    -0.507 OA
ATOM     25  H   UNL     1      20.727  35.075  30.666  1.00  0.00     0.293 HD
ENDBRANCH   6  24
BRANCH   8  26
ATOM     26  O   UNL     1      16.405  31.943  31.125  1.00  0.00    -0.508 OA
ATOM     27  H   UNL     1      16.183  32.209  32.077  1.00  0.00     0.293 HD
ENDBRANCH   8  26
TORSDOF 6
ENDMDL
MODEL 7
REMARK VINA RESULT:    -4.907      3.049      7.566
REMARK INTER + INTRA:          -6.241
REMARK INTER:                  -5.922
REMARK INTRA:                  -0.319
REMARK UNBOUND:                -0.330
REMARK SMILES O=c1c(O)c(-c2ccc(O)c(O)c2)oc2cc(O)cc(O)c12
REMARK SMILES IDX 5 1 3 2 2 3 1 4 22 5 20 6 19 7 17 8 16 9 15 10 14 11 6 12
REMARK SMILES IDX 7 13 8 14 9 15 13 16 11 17 10 18 12 20 4 22 21 24 18 26
REMARK H PARENT 10 19 12 21 4 23 21 25 18 27
REMARK Flexibility Score: inf
ROOT
ATOM      1  C   UNL     1      21.932  28.619  26.733  1.00  0.00     0.180 A 
ATOM      2  C   UNL     1      22.082  27.288  27.158  1.00  0.00     0.208 A 
ATOM      3  C   UNL     1      22.500  26.320  26.230  1.00  0.00     0.238 A 
ATOM      4  O   UNL     1      22.684  25.140  26.628  1.00  0.00    -0.285 OA
ATOM      5  C   UNL     1      22.748  26.693  24.887  1.00  0.00     0.111 A 
ATOM      6  C   UNL     1      23.137  25.788  23.854  1.00  0.00     0.134 A 
ATOM      7  C   UNL     1      23.484  26.287  22.592  1.00  0.00     0.093 A 
ATOM      8  C   UNL     1      23.391  27.649  22.307  1.00  0.00     0.123 A 
ATOM      9  C   UNL     1      22.955  28.535  23.292  1.00  0.00     0.094 A 
ATOM     10  C   UNL     1      22.638  28.071  24.571  1.00  0.00     0.146 A 
ATOM     11  O   UNL     1      22.236  28.949  25.483  1.00  0.00    -0.452 OA
ENDROOT
BRANCH   1  12
ATOM     12  C   UNL     1      21.471  29.689  27.645  1.00  0.00     0.025 A 
ATOM     13  C   UNL     1      20.099  29.975  27.739  1.00  0.00     0.016 A 
ATOM     14  C   UNL     1      19.639  30.967  28.609  1.00  0.00     0.051 A 
ATOM     15  C   UNL     1      20.543  31.677  29.409  1.00  0.00     0.157 A 
ATOM     16  C   UNL     1      22.372  30.391  28.466  1.00  0.00     0.062 A 
ATOM     17  C   UNL     1      21.911  31.386  29.341  1.00  0.00     0.158 A 
BRANCH  15  18
ATOM     18  O   UNL     1      20.089  32.669  30.277  1.00  0.00    -0.504 OA
ATOM     19  H   UNL     1      20.098  32.538  31.282  1.00  0.00     0.293 HD
ENDBRANCH  15  18
BRANCH  17  20
ATOM     20  O   UNL     1      22.807  32.086  30.149  1.00  0.00    -0.504 OA
ATOM     21  H   UNL     1      22.583  33.003  30.516  1.00  0.00     0.293 HD
ENDBRANCH  17  20
ENDBRANCH   1  12
BRANCH   2  22
ATOM     22  O   UNL     1      21.852  26.946  28.493  1.00  0.00    -0.502 OA
ATOM     23  H   UNL     1      22.600  26.685  29.124  1.00  0.00     0.293 HD
ENDBRANCH   2  22
BRANCH   6  24
ATOM     24  O   UNL     1      23.174  24.398  24.005  1.00  0.00    -0.507 OA
ATOM     25  H   UNL     1      22.612  23.747  23.477  1.00  0.00     0.293 HD
ENDBRANCH   6  24
BRANCH   8  26
ATOM     26  O   UNL     1      23.729  28.110  21.036  1.00  0.00    -0.508 OA
ATOM     27  H   UNL     1      24.366  27.597  20.438  1.00  0.00     0.293 HD
ENDBRANCH   8  26
TORSDOF 6
ENDMDL
MODEL 8
REMARK VINA RESULT:    -3.476      2.146      7.160
REMARK INTER + INTRA:          -4.517
REMARK INTER:                  -4.183
REMARK INTRA:                  -0.334
REMARK UNBOUND:                -0.330
REMARK SMILES O=c1c(O)c(-c2ccc(O)c(O)c2)oc2cc(O)cc(O)c12
REMARK SMILES IDX 5 1 3 2 2 3 1 4 22 5 20 6 19 7 17 8 16 9 15 10 14 11 6 12
REMARK SMILES IDX 7 13 8 14 9 15 13 16 11 17 10 18 12 20 4 22 21 24 18 26
REMARK H PARENT 10 19 12 21 4 23 21 25 18 27
REMARK Flexibility Score: inf
ROOT
ATOM      1  C   UNL     1      22.469  29.246  21.390  1.00  0.00     0.180 A 
ATOM      2  C   UNL     1      23.284  28.209  20.905  1.00  0.00     0.208 A 
ATOM      3  C   UNL     1      23.352  27.988  19.520  1.00  0.00     0.238 A 
ATOM      4  O   UNL     1      24.125  27.093  19.088  1.00  0.00    -0.285 OA
ATOM      5  C   UNL     1      22.592  28.795  18.640  1.00  0.00     0.111 A 
ATOM      6  C   UNL     1      22.554  28.634  17.222  1.00  0.00     0.134 A 
ATOM      7  C   UNL     1      21.871  29.572  16.438  1.00  0.00     0.093 A 
ATOM      8  C   UNL     1      21.171  30.626  17.024  1.00  0.00     0.123 A 
ATOM      9  C   UNL     1      21.153  30.760  18.413  1.00  0.00     0.094 A 
ATOM     10  C   UNL     1      21.855  29.861  19.219  1.00  0.00     0.146 A 
ATOM     11  O   UNL     1      21.820  30.028  20.535  1.00  0.00    -0.452 OA
ENDROOT
BRANCH   1  12
ATOM     12  C   UNL     1      22.326  29.524  22.838  1.00  0.00     0.025 A 
ATOM     13  C   UNL     1      23.147  30.491  23.440  1.00  0.00     0.016 A 
ATOM     14  C   UNL     1      23.015  30.784  24.800  1.00  0.00     0.051 A 
ATOM     15  C   UNL     1      22.051  30.126  25.573  1.00  0.00     0.157 A 
ATOM     16  C   UNL     1      21.346  28.880  23.614  1.00  0.00     0.062 A 
ATOM     17  C   UNL     1      21.213  29.175  24.979  1.00  0.00     0.158 A 
BRANCH  15  18
ATOM     18  O   UNL     1      21.917  30.414  26.931  1.00  0.00    -0.504 OA
ATOM     19  H   UNL     1      21.328  29.854  27.536  1.00  0.00     0.293 HD
ENDBRANCH  15  18
BRANCH  17  20
ATOM     20  O   UNL     1      20.245  28.531  25.749  1.00  0.00    -0.504 OA
ATOM     21  H   UNL     1      20.498  27.876  26.479  1.00  0.00     0.293 HD
ENDBRANCH  17  20
ENDBRANCH   1  12
BRANCH   2  22
ATOM     22  O   UNL     1      24.043  27.438  21.790  1.00  0.00    -0.502 OA
ATOM     23  H   UNL     1      25.022  27.233  21.632  1.00  0.00     0.293 HD
ENDBRANCH   2  22
BRANCH   6  24
ATOM     24  O   UNL     1      23.142  27.564  16.542  1.00  0.00    -0.507 OA
ATOM     25  H   UNL     1      22.893  27.269  15.609  1.00  0.00     0.293 HD
ENDBRANCH   6  24
BRANCH   8  26
ATOM     26  O   UNL     1      20.490  31.533  16.215  1.00  0.00    -0.508 OA
ATOM     27  H   UNL     1      20.898  31.893  15.361  1.00  0.00     0.293 HD
ENDBRANCH   8  26
TORSDOF 6
ENDMDL
