MODEL 1
REMARK VINA RESULT:     3.494      0.000      0.000
REMARK INTER + INTRA:           5.389
REMARK INTER:                   5.945
REMARK INTRA:                  -0.555
REMARK UNBOUND:                -0.555
REMARK SMILES CCCCCCCCCCCCCC(=O)[O-]
REMARK SMILES IDX 8 1 9 2 10 3 11 4 12 5 13 6 14 7 15 8 16 9 7 10 6 11 5 12
REMARK SMILES IDX 4 13 3 14 2 15 1 16
REMARK H PARENT
REMARK Flexibility Score: inf
ROOT
ATOM      1  C   UNL     1      87.799  82.326  19.171  1.00  0.00     0.000 C 
ENDROOT
BRANCH   1   2
ATOM      2  C   UNL     1      89.112  82.242  19.969  1.00  0.00     0.000 C 
BRANCH   2   3
ATOM      3  C   UNL     1      90.357  82.211  19.069  1.00  0.00     0.000 C 
BRANCH   3   4
ATOM      4  C   UNL     1      90.444  80.886  18.299  1.00  0.00     0.000 C 
BRANCH   4   5
ATOM      5  C   UNL     1      90.095  81.029  16.807  1.00  0.00     0.006 C 
BRANCH   5   6
ATOM      6  C   UNL     1      91.304  80.875  15.864  1.00  0.00     0.053 C 
BRANCH   6   7
ATOM      7  C   UNL     1      90.959  81.146  14.431  1.00  0.00     0.041 C 
ATOM      8  O   UNL     1      91.832  81.587  13.639  1.00  0.00    -0.550 OA
ATOM      9  O   UNL     1      89.678  80.879  13.962  1.00  0.00    -0.550 OA
ENDBRANCH   6   7
ENDBRANCH   5   6
ENDBRANCH   4   5
ENDBRANCH   3   4
ENDBRANCH   2   3
ENDBRANCH   1   2
BRANCH   1  10
ATOM     10  C   UNL     1      86.961  81.029  19.141  1.00  0.00     0.000 C 
BRANCH  10  11
ATOM     11  C   UNL     1      85.713  81.023  20.046  1.00  0.00    -0.000 C 
BRANCH  11  12
ATOM     12  C   UNL     1      84.370  80.917  19.288  1.00  0.00    -0.000 C 
BRANCH  12  13
ATOM     13  C   UNL     1      84.522  80.876  17.755  1.00  0.00    -0.000 C 
BRANCH  13  14
ATOM     14  C   UNL     1      83.198  80.885  16.970  1.00  0.00    -0.000 C 
BRANCH  14  15
ATOM     15  C   UNL     1      83.171  81.829  15.754  1.00  0.00    -0.003 C 
ATOM     16  C   UNL     1      83.472  81.113  14.438  1.00  0.00     0.004 C 
ENDBRANCH  14  15
ENDBRANCH  13  14
ENDBRANCH  12  13
ENDBRANCH  11  12
ENDBRANCH  10  11
ENDBRANCH   1  10
TORSDOF 12
ENDMDL
MODEL 2
REMARK VINA RESULT:     3.542      4.366      7.564
REMARK INTER + INTRA:           5.471
REMARK INTER:                   5.764
REMARK INTRA:                  -0.293
REMARK UNBOUND:                -0.555
REMARK SMILES CCCCCCCCCCCCCC(=O)[O-]
REMARK SMILES IDX 8 1 9 2 10 3 11 4 12 5 13 6 14 7 15 8 16 9 7 10 6 11 5 12
REMARK SMILES IDX 4 13 3 14 2 15 1 16
REMARK H PARENT
REMARK Flexibility Score: inf
ROOT
ATOM      1  C   UNL     1      89.646  82.100  19.305  1.00  0.00     0.000 C 
ENDROOT
BRANCH   1   2
ATOM      2  C   UNL     1      88.528  81.044  19.267  1.00  0.00     0.000 C 
BRANCH   2   3
ATOM      3  C   UNL     1      87.762  81.033  17.935  1.00  0.00     0.000 C 
BRANCH   3   4
ATOM      4  C   UNL     1      86.248  80.951  18.173  1.00  0.00     0.000 C 
BRANCH   4   5
ATOM      5  C   UNL     1      85.766  81.857  19.320  1.00  0.00     0.006 C 
BRANCH   5   6
ATOM      6  C   UNL     1      84.325  81.567  19.782  1.00  0.00     0.053 C 
BRANCH   6   7
ATOM      7  C   UNL     1      83.316  82.456  19.121  1.00  0.00     0.041 C 
ATOM      8  O   UNL     1      82.875  83.473  19.719  1.00  0.00    -0.550 OA
ATOM      9  O   UNL     1      82.887  82.180  17.828  1.00  0.00    -0.550 OA
ENDBRANCH   6   7
ENDBRANCH   5   6
ENDBRANCH   4   5
ENDBRANCH   3   4
ENDBRANCH   2   3
ENDBRANCH   1   2
BRANCH   1  10
ATOM     10  C   UNL     1      89.169  83.563  19.444  1.00  0.00     0.000 C 
BRANCH  10  11
ATOM     11  C   UNL     1      90.284  84.608  19.647  1.00  0.00    -0.000 C 
BRANCH  11  12
ATOM     12  C   UNL     1      90.616  85.446  18.391  1.00  0.00    -0.000 C 
BRANCH  12  13
ATOM     13  C   UNL     1      92.079  85.926  18.333  1.00  0.00    -0.000 C 
BRANCH  13  14
ATOM     14  C   UNL     1      92.263  87.402  17.935  1.00  0.00    -0.000 C 
BRANCH  14  15
ATOM     15  C   UNL     1      92.285  87.667  16.418  1.00  0.00    -0.003 C 
ATOM     16  C   UNL     1      91.079  87.072  15.691  1.00  0.00     0.004 C 
ENDBRANCH  14  15
ENDBRANCH  13  14
ENDBRANCH  12  13
ENDBRANCH  11  12
ENDBRANCH  10  11
ENDBRANCH   1  10
TORSDOF 12
ENDMDL
MODEL 3
REMARK VINA RESULT:     5.094      3.578      4.387
REMARK INTER + INTRA:           8.112
REMARK INTER:                   8.746
REMARK INTRA:                  -0.634
REMARK UNBOUND:                -0.555
REMARK SMILES CCCCCCCCCCCCCC(=O)[O-]
REMARK SMILES IDX 8 1 9 2 10 3 11 4 12 5 13 6 14 7 15 8 16 9 7 10 6 11 5 12
REMARK SMILES IDX 4 13 3 14 2 15 1 16
REMARK H PARENT
REMARK Flexibility Score: inf
ROOT
ATOM      1  C   UNL     1      89.754  82.745  18.587  1.00  0.00     0.000 C 
ENDROOT
BRANCH   1   2
ATOM      2  C   UNL     1      89.604  83.758  19.736  1.00  0.00     0.000 C 
BRANCH   2   3
ATOM      3  C   UNL     1      89.800  85.211  19.279  1.00  0.00     0.000 C 
BRANCH   3   4
ATOM      4  C   UNL     1      90.926  85.313  18.240  1.00  0.00     0.000 C 
BRANCH   4   5
ATOM      5  C   UNL     1      91.860  86.514  18.475  1.00  0.00     0.006 C 
BRANCH   5   6
ATOM      6  C   UNL     1      92.315  87.214  17.182  1.00  0.00     0.053 C 
BRANCH   6   7
ATOM      7  C   UNL     1      91.239  87.260  16.139  1.00  0.00     0.041 C 
ATOM      8  O   UNL     1      91.333  86.560  15.097  1.00  0.00    -0.550 OA
ATOM      9  O   UNL     1      90.114  88.052  16.336  1.00  0.00    -0.550 OA
ENDBRANCH   6   7
ENDBRANCH   5   6
ENDBRANCH   4   5
ENDBRANCH   3   4
ENDBRANCH   2   3
ENDBRANCH   1   2
BRANCH   1  10
ATOM     10  C   UNL     1      89.493  81.271  18.969  1.00  0.00     0.000 C 
BRANCH  10  11
ATOM     11  C   UNL     1      88.035  80.928  19.334  1.00  0.00    -0.000 C 
BRANCH  11  12
ATOM     12  C   UNL     1      86.976  81.532  18.383  1.00  0.00    -0.000 C 
BRANCH  12  13
ATOM     13  C   UNL     1      85.704  82.022  19.102  1.00  0.00    -0.000 C 
BRANCH  13  14
ATOM     14  C   UNL     1      84.567  80.986  19.188  1.00  0.00    -0.000 C 
BRANCH  14  15
ATOM     15  C   UNL     1      83.146  81.577  19.126  1.00  0.00    -0.003 C 
ATOM     16  C   UNL     1      83.138  83.101  19.011  1.00  0.00     0.004 C 
ENDBRANCH  14  15
ENDBRANCH  13  14
ENDBRANCH  12  13
ENDBRANCH  11  12
ENDBRANCH  10  11
ENDBRANCH   1  10
TORSDOF 12
ENDMDL
MODEL 4
REMARK VINA RESULT:     5.941      3.536      4.169
REMARK INTER + INTRA:           9.554
REMARK INTER:                   9.765
REMARK INTRA:                  -0.211
REMARK UNBOUND:                -0.555
REMARK SMILES CCCCCCCCCCCCCC(=O)[O-]
REMARK SMILES IDX 8 1 9 2 10 3 11 4 12 5 13 6 14 7 15 8 16 9 7 10 6 11 5 12
REMARK SMILES IDX 4 13 3 14 2 15 1 16
REMARK H PARENT
REMARK Flexibility Score: inf
ROOT
ATOM      1  C   UNL     1      87.657  82.731  19.103  1.00  0.00     0.000 C 
ENDROOT
BRANCH   1   2
ATOM      2  C   UNL     1      89.191  82.837  19.171  1.00  0.00     0.000 C 
BRANCH   2   3
ATOM      3  C   UNL     1      89.675  84.235  19.582  1.00  0.00     0.000 C 
BRANCH   3   4
ATOM      4  C   UNL     1      90.868  84.678  18.725  1.00  0.00     0.000 C 
BRANCH   4   5
ATOM      5  C   UNL     1      90.724  86.112  18.183  1.00  0.00     0.006 C 
BRANCH   5   6
ATOM      6  C   UNL     1      90.671  86.196  16.646  1.00  0.00     0.053 C 
BRANCH   6   7
ATOM      7  C   UNL     1      91.441  87.362  16.104  1.00  0.00     0.041 C 
ATOM      8  O   UNL     1      90.950  88.082  15.195  1.00  0.00    -0.550 OA
ATOM      9  O   UNL     1      92.690  87.675  16.628  1.00  0.00    -0.550 OA
ENDBRANCH   6   7
ENDBRANCH   5   6
ENDBRANCH   4   5
ENDBRANCH   3   4
ENDBRANCH   2   3
ENDBRANCH   1   2
BRANCH   1  10
ATOM     10  C   UNL     1      87.098  81.294  18.998  1.00  0.00     0.000 C 
BRANCH  10  11
ATOM     11  C   UNL     1      86.107  80.885  20.106  1.00  0.00    -0.000 C 
BRANCH  11  12
ATOM     12  C   UNL     1      84.623  80.883  19.671  1.00  0.00    -0.000 C 
BRANCH  12  13
ATOM     13  C   UNL     1      84.400  81.352  18.220  1.00  0.00    -0.000 C 
BRANCH  13  14
ATOM     14  C   UNL     1      83.029  82.000  17.951  1.00  0.00    -0.000 C 
BRANCH  14  15
ATOM     15  C   UNL     1      82.875  83.436  18.487  1.00  0.00    -0.003 C 
ATOM     16  C   UNL     1      82.966  83.516  20.010  1.00  0.00     0.004 C 
ENDBRANCH  14  15
ENDBRANCH  13  14
ENDBRANCH  12  13
ENDBRANCH  11  12
ENDBRANCH  10  11
ENDBRANCH   1  10
TORSDOF 12
ENDMDL
MODEL 5
REMARK VINA RESULT:     6.141      4.543      7.366
REMARK INTER + INTRA:           9.893
REMARK INTER:                   9.328
REMARK INTRA:                   0.565
REMARK UNBOUND:                -0.555
REMARK SMILES CCCCCCCCCCCCCC(=O)[O-]
REMARK SMILES IDX 8 1 9 2 10 3 11 4 12 5 13 6 14 7 15 8 16 9 7 10 6 11 5 12
REMARK SMILES IDX 4 13 3 14 2 15 1 16
REMARK H PARENT
REMARK Flexibility Score: inf
ROOT
ATOM      1  C   UNL     1      89.212  84.522  18.906  1.00  0.00     0.000 C 
ENDROOT
BRANCH   1   2
ATOM      2  C   UNL     1      88.813  83.266  19.702  1.00  0.00     0.000 C 
BRANCH   2   3
ATOM      3  C   UNL     1      89.728  82.066  19.422  1.00  0.00     0.000 C 
BRANCH   3   4
ATOM      4  C   UNL     1      88.939  80.907  18.797  1.00  0.00     0.000 C 
BRANCH   4   5
ATOM      5  C   UNL     1      87.535  81.319  18.319  1.00  0.00     0.006 C 
BRANCH   5   6
ATOM      6  C   UNL     1      86.634  81.879  19.435  1.00  0.00     0.053 C 
BRANCH   6   7
ATOM      7  C   UNL     1      85.178  81.625  19.186  1.00  0.00     0.041 C 
ATOM      8  O   UNL     1      84.331  81.831  20.095  1.00  0.00    -0.550 OA
ATOM      9  O   UNL     1      84.752  81.194  17.935  1.00  0.00    -0.550 OA
ENDBRANCH   6   7
ENDBRANCH   5   6
ENDBRANCH   4   5
ENDBRANCH   3   4
ENDBRANCH   2   3
ENDBRANCH   1   2
BRANCH   1  10
ATOM     10  C   UNL     1      90.498  85.228  19.389  1.00  0.00     0.000 C 
BRANCH  10  11
ATOM     11  C   UNL     1      91.507  85.599  18.283  1.00  0.00    -0.000 C 
BRANCH  11  12
ATOM     12  C   UNL     1      92.430  86.790  18.628  1.00  0.00    -0.000 C 
BRANCH  12  13
ATOM     13  C   UNL     1      92.497  87.865  17.526  1.00  0.00    -0.000 C 
BRANCH  13  14
ATOM     14  C   UNL     1      92.494  87.319  16.086  1.00  0.00    -0.000 C 
BRANCH  14  15
ATOM     15  C   UNL     1      91.186  87.552  15.307  1.00  0.00    -0.003 C 
ATOM     16  C   UNL     1      90.007  87.904  16.213  1.00  0.00     0.004 C 
ENDBRANCH  14  15
ENDBRANCH  13  14
ENDBRANCH  12  13
ENDBRANCH  11  12
ENDBRANCH  10  11
ENDBRANCH   1  10
TORSDOF 12
ENDMDL
