MODEL 1
REMARK VINA RESULT:    -5.598      0.000      0.000
REMARK INTER + INTRA:          -7.186
REMARK INTER:                  -6.743
REMARK INTRA:                  -0.442
REMARK UNBOUND:                -0.442
REMARK SMILES O=c1c(O)c(-c2ccc(O)cc2O)oc2cc(O)cc(O)c12
REMARK SMILES IDX 5 1 3 2 2 3 1 4 22 5 20 6 19 7 17 8 16 9 15 10 14 11 6 12
REMARK SMILES IDX 8 13 7 14 9 15 11 16 12 17 10 18 13 20 4 22 21 24 18 26
REMARK H PARENT 10 19 13 21 4 23 21 25 18 27
REMARK Flexibility Score: inf
ROOT
ATOM      1  C   UNL     1      18.811 -20.856  -3.957  1.00  0.00     0.184 A 
ATOM      2  C   UNL     1      19.648 -20.972  -5.080  1.00  0.00     0.208 A 
ATOM      3  C   UNL     1      19.527 -22.099  -5.907  1.00  0.00     0.238 A 
ATOM      4  O   UNL     1      20.317 -22.223  -6.879  1.00  0.00    -0.285 OA
ATOM      5  C   UNL     1      18.556 -23.087  -5.612  1.00  0.00     0.111 A 
ATOM      6  C   UNL     1      18.318 -24.250  -6.405  1.00  0.00     0.134 A 
ATOM      7  C   UNL     1      17.421 -25.224  -5.949  1.00  0.00     0.093 A 
ATOM      8  C   UNL     1      16.706 -25.048  -4.765  1.00  0.00     0.123 A 
ATOM      9  C   UNL     1      16.888 -23.886  -4.012  1.00  0.00     0.094 A 
ATOM     10  C   UNL     1      17.802 -22.913  -4.423  1.00  0.00     0.146 A 
ATOM     11  O   UNL     1      17.953 -21.828  -3.673  1.00  0.00    -0.451 OA
ENDROOT
BRANCH   1  12
ATOM     12  C   UNL     1      18.870 -19.682  -3.055  1.00  0.00     0.063 A 
ATOM     13  C   UNL     1      18.144 -17.433  -2.471  1.00  0.00     0.047 A 
ATOM     14  C   UNL     1      18.111 -18.530  -3.335  1.00  0.00     0.020 A 
ATOM     15  C   UNL     1      18.926 -17.474  -1.310  1.00  0.00     0.119 A 
ATOM     16  C   UNL     1      19.673 -18.618  -1.018  1.00  0.00     0.093 A 
ATOM     17  C   UNL     1      19.649 -19.724  -1.880  1.00  0.00     0.130 A 
BRANCH  15  18
ATOM     18  O   UNL     1      18.966 -16.386  -0.443  1.00  0.00    -0.508 OA
ATOM     19  H   UNL     1      19.208 -15.457  -0.768  1.00  0.00     0.293 HD
ENDBRANCH  15  18
BRANCH  17  20
ATOM     20  O   UNL     1      20.404 -20.857  -1.579  1.00  0.00    -0.507 OA
ATOM     21  H   UNL     1      21.394 -20.907  -1.788  1.00  0.00     0.293 HD
ENDBRANCH  17  20
ENDBRANCH   1  12
BRANCH   2  22
ATOM     22  O   UNL     1      20.607 -19.989  -5.342  1.00  0.00    -0.502 OA
ATOM     23  H   UNL     1      20.771 -19.208  -4.719  1.00  0.00     0.293 HD
ENDBRANCH   2  22
BRANCH   6  24
ATOM     24  O   UNL     1      18.912 -24.482  -7.649  1.00  0.00    -0.507 OA
ATOM     25  H   UNL     1      18.623 -24.051  -8.514  1.00  0.00     0.293 HD
ENDBRANCH   6  24
BRANCH   8  26
ATOM     26  O   UNL     1      15.810 -26.030  -4.349  1.00  0.00    -0.508 OA
ATOM     27  H   UNL     1      14.821 -25.967  -4.555  1.00  0.00     0.293 HD
ENDBRANCH   8  26
TORSDOF 6
ENDMDL
MODEL 2
REMARK VINA RESULT:    -5.580     16.409     20.388
REMARK INTER + INTRA:          -7.164
REMARK INTER:                  -6.743
REMARK INTRA:                  -0.421
REMARK UNBOUND:                -0.442
REMARK SMILES O=c1c(O)c(-c2ccc(O)cc2O)oc2cc(O)cc(O)c12
REMARK SMILES IDX 5 1 3 2 2 3 1 4 22 5 20 6 19 7 17 8 16 9 15 10 14 11 6 12
REMARK SMILES IDX 8 13 7 14 9 15 11 16 12 17 10 18 13 20 4 22 21 24 18 26
REMARK H PARENT 10 19 13 21 4 23 21 25 18 27
REMARK Flexibility Score: inf
ROOT
ATOM      1  C   UNL     1       6.806  -8.700   6.451  1.00  0.00     0.184 A 
ATOM      2  C   UNL     1       7.174  -9.715   7.350  1.00  0.00     0.208 A 
ATOM      3  C   UNL     1       8.405 -10.368   7.175  1.00  0.00     0.238 A 
ATOM      4  O   UNL     1       8.703 -11.314   7.951  1.00  0.00    -0.285 OA
ATOM      5  C   UNL     1       9.260  -9.983   6.114  1.00  0.00     0.111 A 
ATOM      6  C   UNL     1      10.547 -10.548   5.866  1.00  0.00     0.134 A 
ATOM      7  C   UNL     1      11.252 -10.181   4.713  1.00  0.00     0.093 A 
ATOM      8  C   UNL     1      10.747  -9.224   3.834  1.00  0.00     0.123 A 
ATOM      9  C   UNL     1       9.516  -8.622   4.098  1.00  0.00     0.094 A 
ATOM     10  C   UNL     1       8.773  -8.994   5.222  1.00  0.00     0.146 A 
ATOM     11  O   UNL     1       7.601  -8.405   5.431  1.00  0.00    -0.451 OA
ENDROOT
BRANCH   1  12
ATOM     12  C   UNL     1       5.533  -7.955   6.592  1.00  0.00     0.063 A 
ATOM     13  C   UNL     1       3.116  -7.843   6.333  1.00  0.00     0.047 A 
ATOM     14  C   UNL     1       4.320  -8.533   6.175  1.00  0.00     0.020 A 
ATOM     15  C   UNL     1       3.104  -6.572   6.920  1.00  0.00     0.119 A 
ATOM     16  C   UNL     1       4.303  -5.995   7.348  1.00  0.00     0.093 A 
ATOM     17  C   UNL     1       5.517  -6.679   7.192  1.00  0.00     0.130 A 
BRANCH  15  18
ATOM     18  O   UNL     1       1.909  -5.875   7.081  1.00  0.00    -0.508 OA
ATOM     19  H   UNL     1       1.291  -6.057   7.863  1.00  0.00     0.293 HD
ENDBRANCH  15  18
BRANCH  17  20
ATOM     20  O   UNL     1       6.706  -6.089   7.620  1.00  0.00    -0.507 OA
ATOM     21  H   UNL     1       6.957  -6.048   8.601  1.00  0.00     0.293 HD
ENDBRANCH  17  20
ENDBRANCH   1  12
BRANCH   2  22
ATOM     22  O   UNL     1       6.307 -10.085   8.382  1.00  0.00    -0.502 OA
ATOM     23  H   UNL     1       5.608 -10.810   8.272  1.00  0.00     0.293 HD
ENDBRANCH   2  22
BRANCH   6  24
ATOM     24  O   UNL     1      11.185 -11.446   6.727  1.00  0.00    -0.507 OA
ATOM     25  H   UNL     1      11.027 -12.443   6.739  1.00  0.00     0.293 HD
ENDBRANCH   6  24
BRANCH   8  26
ATOM     26  O   UNL     1      11.482  -8.871   2.704  1.00  0.00    -0.508 OA
ATOM     27  H   UNL     1      11.298  -9.288   1.800  1.00  0.00     0.293 HD
ENDBRANCH   8  26
TORSDOF 6
ENDMDL
MODEL 3
REMARK VINA RESULT:    -5.516     11.394     13.772
REMARK INTER + INTRA:          -7.088
REMARK INTER:                  -6.729
REMARK INTRA:                  -0.359
REMARK UNBOUND:                -0.442
REMARK SMILES O=c1c(O)c(-c2ccc(O)cc2O)oc2cc(O)cc(O)c12
REMARK SMILES IDX 5 1 3 2 2 3 1 4 22 5 20 6 19 7 17 8 16 9 15 10 14 11 6 12
REMARK SMILES IDX 8 13 7 14 9 15 11 16 12 17 10 18 13 20 4 22 21 24 18 26
REMARK H PARENT 10 19 13 21 4 23 21 25 18 27
REMARK Flexibility Score: inf
ROOT
ATOM      1  C   UNL     1       6.466 -20.481  -4.291  1.00  0.00     0.184 A 
ATOM      2  C   UNL     1       5.816 -19.949  -5.417  1.00  0.00     0.208 A 
ATOM      3  C   UNL     1       5.330 -18.633  -5.367  1.00  0.00     0.238 A 
ATOM      4  O   UNL     1       4.701 -18.183  -6.360  1.00  0.00    -0.285 OA
ATOM      5  C   UNL     1       5.518 -17.859  -4.197  1.00  0.00     0.111 A 
ATOM      6  C   UNL     1       5.102 -16.501  -4.049  1.00  0.00     0.134 A 
ATOM      7  C   UNL     1       5.224 -15.873  -2.803  1.00  0.00     0.093 A 
ATOM      8  C   UNL     1       5.805 -16.530  -1.719  1.00  0.00     0.123 A 
ATOM      9  C   UNL     1       6.269 -17.838  -1.869  1.00  0.00     0.094 A 
ATOM     10  C   UNL     1       6.128 -18.503  -3.090  1.00  0.00     0.146 A 
ATOM     11  O   UNL     1       6.572 -19.751  -3.187  1.00  0.00    -0.451 OA
ENDROOT
BRANCH   1  12
ATOM     12  C   UNL     1       7.023 -21.853  -4.284  1.00  0.00     0.063 A 
ATOM     13  C   UNL     1       6.708 -24.258  -4.481  1.00  0.00     0.047 A 
ATOM     14  C   UNL     1       6.180 -22.966  -4.459  1.00  0.00     0.020 A 
ATOM     15  C   UNL     1       8.086 -24.458  -4.341  1.00  0.00     0.119 A 
ATOM     16  C   UNL     1       8.934 -23.359  -4.180  1.00  0.00     0.093 A 
ATOM     17  C   UNL     1       8.413 -22.057  -4.154  1.00  0.00     0.130 A 
BRANCH  15  18
ATOM     18  O   UNL     1       8.623 -25.743  -4.362  1.00  0.00    -0.508 OA
ATOM     19  H   UNL     1       9.115 -26.099  -5.172  1.00  0.00     0.293 HD
ENDBRANCH  15  18
BRANCH  17  20
ATOM     20  O   UNL     1       9.270 -20.970  -3.988  1.00  0.00    -0.507 OA
ATOM     21  H   UNL     1      10.257 -21.095  -3.794  1.00  0.00     0.293 HD
ENDBRANCH  17  20
ENDBRANCH   1  12
BRANCH   2  22
ATOM     22  O   UNL     1       5.633 -20.738  -6.557  1.00  0.00    -0.502 OA
ATOM     23  H   UNL     1       5.163 -20.395  -7.386  1.00  0.00     0.293 HD
ENDBRANCH   2  22
BRANCH   6  24
ATOM     24  O   UNL     1       4.592 -15.722  -5.092  1.00  0.00    -0.507 OA
ATOM     25  H   UNL     1       5.107 -15.462  -5.920  1.00  0.00     0.293 HD
ENDBRANCH   6  24
BRANCH   8  26
ATOM     26  O   UNL     1       5.925 -15.870  -0.498  1.00  0.00    -0.508 OA
ATOM     27  H   UNL     1       6.092 -14.873  -0.448  1.00  0.00     0.293 HD
ENDBRANCH   8  26
TORSDOF 6
ENDMDL
MODEL 4
REMARK VINA RESULT:    -5.513      2.898      5.284
REMARK INTER + INTRA:          -7.083
REMARK INTER:                  -6.682
REMARK INTRA:                  -0.401
REMARK UNBOUND:                -0.442
REMARK SMILES O=c1c(O)c(-c2ccc(O)cc2O)oc2cc(O)cc(O)c12
REMARK SMILES IDX 5 1 3 2 2 3 1 4 22 5 20 6 19 7 17 8 16 9 15 10 14 11 6 12
REMARK SMILES IDX 8 13 7 14 9 15 11 16 12 17 10 18 13 20 4 22 21 24 18 26
REMARK H PARENT 10 19 13 21 4 23 21 25 18 27
REMARK Flexibility Score: inf
ROOT
ATOM      1  C   UNL     1      17.577 -17.594  -3.114  1.00  0.00     0.184 A 
ATOM      2  C   UNL     1      18.375 -17.510  -1.960  1.00  0.00     0.208 A 
ATOM      3  C   UNL     1      19.252 -18.563  -1.659  1.00  0.00     0.238 A 
ATOM      4  O   UNL     1      19.923 -18.507  -0.595  1.00  0.00    -0.285 OA
ATOM      5  C   UNL     1      19.335 -19.680  -2.526  1.00  0.00     0.111 A 
ATOM      6  C   UNL     1      20.218 -20.786  -2.341  1.00  0.00     0.134 A 
ATOM      7  C   UNL     1      20.123 -21.895  -3.191  1.00  0.00     0.093 A 
ATOM      8  C   UNL     1      19.225 -21.911  -4.257  1.00  0.00     0.123 A 
ATOM      9  C   UNL     1      18.398 -20.809  -4.484  1.00  0.00     0.094 A 
ATOM     10  C   UNL     1      18.444 -19.704  -3.630  1.00  0.00     0.146 A 
ATOM     11  O   UNL     1      17.633 -18.681  -3.874  1.00  0.00    -0.451 OA
ENDROOT
BRANCH   1  12
ATOM     12  C   UNL     1      16.648 -16.508  -3.503  1.00  0.00     0.063 A 
ATOM     13  C   UNL     1      14.649 -15.188  -3.074  1.00  0.00     0.047 A 
ATOM     14  C   UNL     1      15.511 -16.230  -2.723  1.00  0.00     0.020 A 
ATOM     15  C   UNL     1      14.917 -14.402  -4.200  1.00  0.00     0.119 A 
ATOM     16  C   UNL     1      16.051 -14.662  -4.974  1.00  0.00     0.093 A 
ATOM     17  C   UNL     1      16.921 -15.708  -4.632  1.00  0.00     0.130 A 
BRANCH  15  18
ATOM     18  O   UNL     1      14.064 -13.361  -4.558  1.00  0.00    -0.508 OA
ATOM     19  H   UNL     1      14.323 -12.681  -5.263  1.00  0.00     0.293 HD
ENDBRANCH  15  18
BRANCH  17  20
ATOM     20  O   UNL     1      18.046 -15.960  -5.416  1.00  0.00    -0.507 OA
ATOM     21  H   UNL     1      18.863 -15.361  -5.382  1.00  0.00     0.293 HD
ENDBRANCH  17  20
ENDBRANCH   1  12
BRANCH   2  22
ATOM     22  O   UNL     1      18.266 -16.403  -1.113  1.00  0.00    -0.502 OA
ATOM     23  H   UNL     1      17.527 -15.717  -1.206  1.00  0.00     0.293 HD
ENDBRANCH   2  22
BRANCH   6  24
ATOM     24  O   UNL     1      21.214 -20.834  -1.362  1.00  0.00    -0.507 OA
ATOM     25  H   UNL     1      21.630 -20.026  -0.924  1.00  0.00     0.293 HD
ENDBRANCH   6  24
BRANCH   8  26
ATOM     26  O   UNL     1      19.169 -23.024  -5.093  1.00  0.00    -0.508 OA
ATOM     27  H   UNL     1      18.821 -23.917  -4.765  1.00  0.00     0.293 HD
ENDBRANCH   8  26
TORSDOF 6
ENDMDL
MODEL 5
REMARK VINA RESULT:    -5.473     11.078     12.375
REMARK INTER + INTRA:          -7.035
REMARK INTER:                  -6.639
REMARK INTRA:                  -0.396
REMARK UNBOUND:                -0.442
REMARK SMILES O=c1c(O)c(-c2ccc(O)cc2O)oc2cc(O)cc(O)c12
REMARK SMILES IDX 5 1 3 2 2 3 1 4 22 5 20 6 19 7 17 8 16 9 15 10 14 11 6 12
REMARK SMILES IDX 8 13 7 14 9 15 11 16 12 17 10 18 13 20 4 22 21 24 18 26
REMARK H PARENT 10 19 13 21 4 23 21 25 18 27
REMARK Flexibility Score: inf
ROOT
ATOM      1  C   UNL     1       6.500 -20.549  -4.050  1.00  0.00     0.184 A 
ATOM      2  C   UNL     1       7.890 -20.664  -3.880  1.00  0.00     0.208 A 
ATOM      3  C   UNL     1       8.516 -21.882  -4.186  1.00  0.00     0.238 A 
ATOM      4  O   UNL     1       9.753 -21.995  -3.979  1.00  0.00    -0.285 OA
ATOM      5  C   UNL     1       7.747 -22.965  -4.677  1.00  0.00     0.111 A 
ATOM      6  C   UNL     1       8.282 -24.232  -5.057  1.00  0.00     0.134 A 
ATOM      7  C   UNL     1       7.412 -25.272  -5.408  1.00  0.00     0.093 A 
ATOM      8  C   UNL     1       6.033 -25.073  -5.456  1.00  0.00     0.123 A 
ATOM      9  C   UNL     1       5.502 -23.819  -5.143  1.00  0.00     0.094 A 
ATOM     10  C   UNL     1       6.343 -22.774  -4.754  1.00  0.00     0.146 A 
ATOM     11  O   UNL     1       5.797 -21.600  -4.454  1.00  0.00    -0.451 OA
ENDROOT
BRANCH   1  12
ATOM     12  C   UNL     1       5.779 -19.286  -3.769  1.00  0.00     0.063 A 
ATOM     13  C   UNL     1       4.564 -17.849  -2.225  1.00  0.00     0.047 A 
ATOM     14  C   UNL     1       5.220 -19.052  -2.500  1.00  0.00     0.020 A 
ATOM     15  C   UNL     1       4.469 -16.858  -3.209  1.00  0.00     0.119 A 
ATOM     16  C   UNL     1       5.033 -17.076  -4.469  1.00  0.00     0.093 A 
ATOM     17  C   UNL     1       5.691 -18.281  -4.755  1.00  0.00     0.130 A 
BRANCH  15  18
ATOM     18  O   UNL     1       3.817 -15.656  -2.945  1.00  0.00    -0.508 OA
ATOM     19  H   UNL     1       3.075 -15.314  -3.543  1.00  0.00     0.293 HD
ENDBRANCH  15  18
BRANCH  17  20
ATOM     20  O   UNL     1       6.244 -18.487  -6.019  1.00  0.00    -0.507 OA
ATOM     21  H   UNL     1       7.112 -18.997  -6.143  1.00  0.00     0.293 HD
ENDBRANCH  17  20
ENDBRANCH   1  12
BRANCH   2  22
ATOM     22  O   UNL     1       8.626 -19.585  -3.382  1.00  0.00    -0.502 OA
ATOM     23  H   UNL     1       9.467 -19.245  -3.834  1.00  0.00     0.293 HD
ENDBRANCH   2  22
BRANCH   6  24
ATOM     24  O   UNL     1       9.649 -24.512  -5.132  1.00  0.00    -0.507 OA
ATOM     25  H   UNL     1      10.201 -24.892  -4.378  1.00  0.00     0.293 HD
ENDBRANCH   6  24
BRANCH   8  26
ATOM     26  O   UNL     1       5.197 -26.125  -5.824  1.00  0.00    -0.508 OA
ATOM     27  H   UNL     1       4.875 -26.237  -6.777  1.00  0.00     0.293 HD
ENDBRANCH   8  26
TORSDOF 6
ENDMDL
MODEL 6
REMARK VINA RESULT:    -5.260      1.825      6.830
REMARK INTER + INTRA:          -6.778
REMARK INTER:                  -6.297
REMARK INTRA:                  -0.482
REMARK UNBOUND:                -0.442
REMARK SMILES O=c1c(O)c(-c2ccc(O)cc2O)oc2cc(O)cc(O)c12
REMARK SMILES IDX 5 1 3 2 2 3 1 4 22 5 20 6 19 7 17 8 16 9 15 10 14 11 6 12
REMARK SMILES IDX 8 13 7 14 9 15 11 16 12 17 10 18 13 20 4 22 21 24 18 26
REMARK H PARENT 10 19 13 21 4 23 21 25 18 27
REMARK Flexibility Score: inf
ROOT
ATOM      1  C   UNL     1      18.881 -19.884  -3.991  1.00  0.00     0.184 A 
ATOM      2  C   UNL     1      19.150 -18.753  -4.780  1.00  0.00     0.208 A 
ATOM      3  C   UNL     1      19.576 -17.571  -4.155  1.00  0.00     0.238 A 
ATOM      4  O   UNL     1      19.761 -16.546  -4.862  1.00  0.00    -0.285 OA
ATOM      5  C   UNL     1      19.747 -17.541  -2.750  1.00  0.00     0.111 A 
ATOM      6  C   UNL     1      20.213 -16.409  -2.015  1.00  0.00     0.134 A 
ATOM      7  C   UNL     1      20.222 -16.451  -0.615  1.00  0.00     0.093 A 
ATOM      8  C   UNL     1      19.845 -17.603   0.074  1.00  0.00     0.123 A 
ATOM      9  C   UNL     1      19.444 -18.736  -0.637  1.00  0.00     0.094 A 
ATOM     10  C   UNL     1      19.390 -18.712  -2.033  1.00  0.00     0.146 A 
ATOM     11  O   UNL     1      18.992 -19.807  -2.671  1.00  0.00    -0.451 OA
ENDROOT
BRANCH   1  12
ATOM     12  C   UNL     1      18.451 -21.170  -4.588  1.00  0.00     0.063 A 
ATOM     13  C   UNL     1      18.990 -23.243  -5.744  1.00  0.00     0.047 A 
ATOM     14  C   UNL     1      19.389 -22.018  -5.205  1.00  0.00     0.020 A 
ATOM     15  C   UNL     1      17.651 -23.645  -5.664  1.00  0.00     0.119 A 
ATOM     16  C   UNL     1      16.715 -22.815  -5.042  1.00  0.00     0.093 A 
ATOM     17  C   UNL     1      17.105 -21.582  -4.500  1.00  0.00     0.130 A 
BRANCH  15  18
ATOM     18  O   UNL     1      17.243 -24.864  -6.198  1.00  0.00    -0.508 OA
ATOM     19  H   UNL     1      16.263 -25.112  -6.265  1.00  0.00     0.293 HD
ENDBRANCH  15  18
BRANCH  17  20
ATOM     20  O   UNL     1      16.159 -20.762  -3.887  1.00  0.00    -0.507 OA
ATOM     21  H   UNL     1      15.192 -21.049  -3.784  1.00  0.00     0.293 HD
ENDBRANCH  17  20
ENDBRANCH   1  12
BRANCH   2  22
ATOM     22  O   UNL     1      18.961 -18.804  -6.164  1.00  0.00    -0.502 OA
ATOM     23  H   UNL     1      18.494 -19.578  -6.621  1.00  0.00     0.293 HD
ENDBRANCH   2  22
BRANCH   6  24
ATOM     24  O   UNL     1      20.698 -15.240  -2.606  1.00  0.00    -0.507 OA
ATOM     25  H   UNL     1      20.768 -15.084  -3.601  1.00  0.00     0.293 HD
ENDBRANCH   6  24
BRANCH   8  26
ATOM     26  O   UNL     1      19.881 -17.615   1.467  1.00  0.00    -0.508 OA
ATOM     27  H   UNL     1      20.500 -18.234   1.976  1.00  0.00     0.293 HD
ENDBRANCH   8  26
TORSDOF 6
ENDMDL
MODEL 7
REMARK VINA RESULT:    -5.173      1.376      2.881
REMARK INTER + INTRA:          -6.674
REMARK INTER:                  -6.304
REMARK INTRA:                  -0.370
REMARK UNBOUND:                -0.442
REMARK SMILES O=c1c(O)c(-c2ccc(O)cc2O)oc2cc(O)cc(O)c12
REMARK SMILES IDX 5 1 3 2 2 3 1 4 22 5 20 6 19 7 17 8 16 9 15 10 14 11 6 12
REMARK SMILES IDX 8 13 7 14 9 15 11 16 12 17 10 18 13 20 4 22 21 24 18 26
REMARK H PARENT 10 19 13 21 4 23 21 25 18 27
REMARK Flexibility Score: inf
ROOT
ATOM      1  C   UNL     1      18.514 -20.959  -4.221  1.00  0.00     0.184 A 
ATOM      2  C   UNL     1      17.316 -21.681  -4.364  1.00  0.00     0.208 A 
ATOM      3  C   UNL     1      17.299 -22.818  -5.186  1.00  0.00     0.238 A 
ATOM      4  O   UNL     1      16.210 -23.427  -5.353  1.00  0.00    -0.285 OA
ATOM      5  C   UNL     1      18.485 -23.232  -5.839  1.00  0.00     0.111 A 
ATOM      6  C   UNL     1      18.593 -24.392  -6.664  1.00  0.00     0.134 A 
ATOM      7  C   UNL     1      19.782 -24.634  -7.363  1.00  0.00     0.093 A 
ATOM      8  C   UNL     1      20.887 -23.795  -7.219  1.00  0.00     0.123 A 
ATOM      9  C   UNL     1      20.811 -22.690  -6.368  1.00  0.00     0.094 A 
ATOM     10  C   UNL     1      19.627 -22.403  -5.685  1.00  0.00     0.146 A 
ATOM     11  O   UNL     1      19.593 -21.336  -4.895  1.00  0.00    -0.451 OA
ENDROOT
BRANCH   1  12
ATOM     12  C   UNL     1      18.607 -19.764  -3.351  1.00  0.00     0.063 A 
ATOM     13  C   UNL     1      17.916 -17.496  -2.802  1.00  0.00     0.047 A 
ATOM     14  C   UNL     1      17.849 -18.613  -3.637  1.00  0.00     0.020 A 
ATOM     15  C   UNL     1      18.731 -17.515  -1.664  1.00  0.00     0.119 A 
ATOM     16  C   UNL     1      19.477 -18.658  -1.365  1.00  0.00     0.093 A 
ATOM     17  C   UNL     1      19.419 -19.784  -2.198  1.00  0.00     0.130 A 
BRANCH  15  18
ATOM     18  O   UNL     1      18.804 -16.406  -0.825  1.00  0.00    -0.508 OA
ATOM     19  H   UNL     1      19.676 -15.914  -0.672  1.00  0.00     0.293 HD
ENDBRANCH  15  18
BRANCH  17  20
ATOM     20  O   UNL     1      20.174 -20.915  -1.890  1.00  0.00    -0.507 OA
ATOM     21  H   UNL     1      21.161 -20.973  -2.114  1.00  0.00     0.293 HD
ENDBRANCH  17  20
ENDBRANCH   1  12
BRANCH   2  22
ATOM     22  O   UNL     1      16.156 -21.245  -3.718  1.00  0.00    -0.502 OA
ATOM     23  H   UNL     1      15.279 -21.109  -4.207  1.00  0.00     0.293 HD
ENDBRANCH   2  22
BRANCH   6  24
ATOM     24  O   UNL     1      17.580 -25.344  -6.808  1.00  0.00    -0.507 OA
ATOM     25  H   UNL     1      16.766 -25.234  -7.394  1.00  0.00     0.293 HD
ENDBRANCH   6  24
BRANCH   8  26
ATOM     26  O   UNL     1      22.059 -24.074  -7.917  1.00  0.00    -0.508 OA
ATOM     27  H   UNL     1      22.053 -24.257  -8.913  1.00  0.00     0.293 HD
ENDBRANCH   8  26
TORSDOF 6
ENDMDL
MODEL 8
REMARK VINA RESULT:    -5.171      1.611      6.725
REMARK INTER + INTRA:          -6.672
REMARK INTER:                  -6.277
REMARK INTRA:                  -0.395
REMARK UNBOUND:                -0.442
REMARK SMILES O=c1c(O)c(-c2ccc(O)cc2O)oc2cc(O)cc(O)c12
REMARK SMILES IDX 5 1 3 2 2 3 1 4 22 5 20 6 19 7 17 8 16 9 15 10 14 11 6 12
REMARK SMILES IDX 8 13 7 14 9 15 11 16 12 17 10 18 13 20 4 22 21 24 18 26
REMARK H PARENT 10 19 13 21 4 23 21 25 18 27
REMARK Flexibility Score: inf
ROOT
ATOM      1  C   UNL     1      18.745 -21.751  -4.121  1.00  0.00     0.184 A 
ATOM      2  C   UNL     1      19.853 -21.864  -3.265  1.00  0.00     0.208 A 
ATOM      3  C   UNL     1      20.208 -20.771  -2.460  1.00  0.00     0.238 A 
ATOM      4  O   UNL     1      21.234 -20.860  -1.736  1.00  0.00    -0.285 OA
ATOM      5  C   UNL     1      19.437 -19.584  -2.507  1.00  0.00     0.111 A 
ATOM      6  C   UNL     1      19.681 -18.428  -1.705  1.00  0.00     0.134 A 
ATOM      7  C   UNL     1      18.934 -17.264  -1.927  1.00  0.00     0.093 A 
ATOM      8  C   UNL     1      17.911 -17.233  -2.873  1.00  0.00     0.123 A 
ATOM      9  C   UNL     1      17.625 -18.377  -3.622  1.00  0.00     0.094 A 
ATOM     10  C   UNL     1      18.377 -19.542  -3.448  1.00  0.00     0.146 A 
ATOM     11  O   UNL     1      18.080 -20.604  -4.188  1.00  0.00    -0.451 OA
ENDROOT
BRANCH   1  12
ATOM     12  C   UNL     1      18.302 -22.873  -4.980  1.00  0.00     0.063 A 
ATOM     13  C   UNL     1      18.709 -24.400  -6.832  1.00  0.00     0.047 A 
ATOM     14  C   UNL     1      19.113 -23.323  -6.039  1.00  0.00     0.020 A 
ATOM     15  C   UNL     1      17.497 -25.050  -6.572  1.00  0.00     0.119 A 
ATOM     16  C   UNL     1      16.692 -24.619  -5.514  1.00  0.00     0.093 A 
ATOM     17  C   UNL     1      17.087 -23.537  -4.714  1.00  0.00     0.130 A 
BRANCH  15  18
ATOM     18  O   UNL     1      17.085 -26.125  -7.357  1.00  0.00    -0.508 OA
ATOM     19  H   UNL     1      16.271 -26.062  -7.956  1.00  0.00     0.293 HD
ENDBRANCH  15  18
BRANCH  17  20
ATOM     20  O   UNL     1      16.270 -23.115  -3.666  1.00  0.00    -0.507 OA
ATOM     21  H   UNL     1      16.657 -22.817  -2.777  1.00  0.00     0.293 HD
ENDBRANCH  17  20
ENDBRANCH   1  12
BRANCH   2  22
ATOM     22  O   UNL     1      20.606 -23.042  -3.246  1.00  0.00    -0.502 OA
ATOM     23  H   UNL     1      21.481 -23.120  -2.743  1.00  0.00     0.293 HD
ENDBRANCH   2  22
BRANCH   6  24
ATOM     24  O   UNL     1      20.618 -18.379  -0.670  1.00  0.00    -0.507 OA
ATOM     25  H   UNL     1      20.430 -18.631   0.289  1.00  0.00     0.293 HD
ENDBRANCH   6  24
BRANCH   8  26
ATOM     26  O   UNL     1      17.177 -16.064  -3.057  1.00  0.00    -0.508 OA
ATOM     27  H   UNL     1      16.828 -15.528  -2.272  1.00  0.00     0.293 HD
ENDBRANCH   8  26
TORSDOF 6
ENDMDL
MODEL 9
REMARK VINA RESULT:    -5.079      2.260      7.045
REMARK INTER + INTRA:          -6.561
REMARK INTER:                  -6.143
REMARK INTRA:                  -0.418
REMARK UNBOUND:                -0.442
REMARK SMILES O=c1c(O)c(-c2ccc(O)cc2O)oc2cc(O)cc(O)c12
REMARK SMILES IDX 5 1 3 2 2 3 1 4 22 5 20 6 19 7 17 8 16 9 15 10 14 11 6 12
REMARK SMILES IDX 8 13 7 14 9 15 11 16 12 17 10 18 13 20 4 22 21 24 18 26
REMARK H PARENT 10 19 13 21 4 23 21 25 18 27
REMARK Flexibility Score: inf
ROOT
ATOM      1  C   UNL     1      18.910 -20.130  -4.410  1.00  0.00     0.184 A 
ATOM      2  C   UNL     1      19.640 -20.001  -3.216  1.00  0.00     0.208 A 
ATOM      3  C   UNL     1      20.012 -18.720  -2.779  1.00  0.00     0.238 A 
ATOM      4  O   UNL     1      20.713 -18.616  -1.739  1.00  0.00    -0.285 OA
ATOM      5  C   UNL     1      19.633 -17.582  -3.532  1.00  0.00     0.111 A 
ATOM      6  C   UNL     1      19.921 -16.234  -3.163  1.00  0.00     0.134 A 
ATOM      7  C   UNL     1      19.610 -15.194  -4.048  1.00  0.00     0.093 A 
ATOM      8  C   UNL     1      18.964 -15.446  -5.257  1.00  0.00     0.123 A 
ATOM      9  C   UNL     1      18.624 -16.756  -5.602  1.00  0.00     0.094 A 
ATOM     10  C   UNL     1      18.954 -17.817  -4.756  1.00  0.00     0.146 A 
ATOM     11  O   UNL     1      18.623 -19.049  -5.125  1.00  0.00    -0.451 OA
ENDROOT
BRANCH   1  12
ATOM     12  C   UNL     1      18.465 -21.449  -4.916  1.00  0.00     0.063 A 
ATOM     13  C   UNL     1      18.951 -23.545  -6.053  1.00  0.00     0.047 A 
ATOM     14  C   UNL     1      19.362 -22.290  -5.600  1.00  0.00     0.020 A 
ATOM     15  C   UNL     1      17.643 -23.984  -5.819  1.00  0.00     0.119 A 
ATOM     16  C   UNL     1      16.748 -23.162  -5.129  1.00  0.00     0.093 A 
ATOM     17  C   UNL     1      17.151 -21.899  -4.673  1.00  0.00     0.130 A 
BRANCH  15  18
ATOM     18  O   UNL     1      17.223 -25.235  -6.267  1.00  0.00    -0.508 OA
ATOM     19  H   UNL     1      17.554 -26.090  -5.836  1.00  0.00     0.293 HD
ENDBRANCH  15  18
BRANCH  17  20
ATOM     20  O   UNL     1      16.245 -21.086  -3.990  1.00  0.00    -0.507 OA
ATOM     21  H   UNL     1      15.469 -20.639  -4.464  1.00  0.00     0.293 HD
ENDBRANCH  17  20
ENDBRANCH   1  12
BRANCH   2  22
ATOM     22  O   UNL     1      20.012 -21.140  -2.497  1.00  0.00    -0.502 OA
ATOM     23  H   UNL     1      19.718 -21.300  -1.541  1.00  0.00     0.293 HD
ENDBRANCH   2  22
BRANCH   6  24
ATOM     24  O   UNL     1      20.484 -15.863  -1.938  1.00  0.00    -0.507 OA
ATOM     25  H   UNL     1      21.342 -15.343  -1.833  1.00  0.00     0.293 HD
ENDBRANCH   6  24
BRANCH   8  26
ATOM     26  O   UNL     1      18.655 -14.386  -6.107  1.00  0.00    -0.508 OA
ATOM     27  H   UNL     1      18.844 -13.426  -5.847  1.00  0.00     0.293 HD
ENDBRANCH   8  26
TORSDOF 6
ENDMDL
