MODEL 1
REMARK VINA RESULT:    -2.645      0.000      0.000
REMARK INTER + INTRA:          -3.471
REMARK INTER:                  -3.187
REMARK INTRA:                  -0.284
REMARK UNBOUND:                -0.284
REMARK SMILES O=c1c(O)c(-c2ccc(O)c(O)c2)oc2cc(O)cc(O)c12
REMARK SMILES IDX 5 1 3 2 2 3 1 4 22 5 20 6 19 7 17 8 16 9 15 10 14 11 6 12
REMARK SMILES IDX 7 13 8 14 9 15 13 16 11 17 10 18 12 20 4 22 21 24 18 26
REMARK H PARENT 10 19 12 21 4 23 21 25 18 27
REMARK Flexibility Score: inf
ROOT
ATOM      1  C   UNL     1      20.606 -15.171   3.030  1.00  0.00     0.180 A 
ATOM      2  C   UNL     1      20.381 -14.401   1.877  1.00  0.00     0.208 A 
ATOM      3  C   UNL     1      20.151 -15.055   0.655  1.00  0.00     0.238 A 
ATOM      4  O   UNL     1      19.897 -14.360  -0.364  1.00  0.00    -0.285 OA
ATOM      5  C   UNL     1      20.164 -16.470   0.601  1.00  0.00     0.111 A 
ATOM      6  C   UNL     1      19.982 -17.236  -0.590  1.00  0.00     0.134 A 
ATOM      7  C   UNL     1      19.884 -18.630  -0.506  1.00  0.00     0.093 A 
ATOM      8  C   UNL     1      20.025 -19.289   0.718  1.00  0.00     0.123 A 
ATOM      9  C   UNL     1      20.262 -18.554   1.876  1.00  0.00     0.094 A 
ATOM     10  C   UNL     1      20.329 -17.159   1.829  1.00  0.00     0.146 A 
ATOM     11  O   UNL     1      20.546 -16.496   2.959  1.00  0.00    -0.452 OA
ENDROOT
BRANCH   1  12
ATOM     12  C   UNL     1      20.880 -14.555   4.349  1.00  0.00     0.025 A 
ATOM     13  C   UNL     1      19.889 -14.580   5.343  1.00  0.00     0.016 A 
ATOM     14  C   UNL     1      20.135 -14.023   6.601  1.00  0.00     0.051 A 
ATOM     15  C   UNL     1      21.379 -13.446   6.887  1.00  0.00     0.157 A 
ATOM     16  C   UNL     1      22.135 -13.994   4.647  1.00  0.00     0.062 A 
ATOM     17  C   UNL     1      22.382 -13.436   5.910  1.00  0.00     0.158 A 
BRANCH  15  18
ATOM     18  O   UNL     1      21.628 -12.888   8.139  1.00  0.00    -0.504 OA
ATOM     19  H   UNL     1      22.010 -13.439   8.899  1.00  0.00     0.293 HD
ENDBRANCH  15  18
BRANCH  17  20
ATOM     20  O   UNL     1      23.625 -12.875   6.203  1.00  0.00    -0.504 OA
ATOM     21  H   UNL     1      23.738 -11.876   6.335  1.00  0.00     0.293 HD
ENDBRANCH  17  20
ENDBRANCH   1  12
BRANCH   2  22
ATOM     22  O   UNL     1      20.351 -13.006   1.957  1.00  0.00    -0.502 OA
ATOM     23  H   UNL     1      20.708 -12.411   1.220  1.00  0.00     0.293 HD
ENDBRANCH   2  22
BRANCH   6  24
ATOM     24  O   UNL     1      19.921 -16.683  -1.873  1.00  0.00    -0.507 OA
ATOM     25  H   UNL     1      20.085 -15.710  -2.087  1.00  0.00     0.293 HD
ENDBRANCH   6  24
BRANCH   8  26
ATOM     26  O   UNL     1      19.941 -20.678   0.791  1.00  0.00    -0.508 OA
ATOM     27  H   UNL     1      20.367 -21.272   0.089  1.00  0.00     0.293 HD
ENDBRANCH   8  26
TORSDOF 6
ENDMDL
MODEL 2
REMARK VINA RESULT:    -1.996      1.805      6.882
REMARK INTER + INTRA:          -2.688
REMARK INTER:                  -3.090
REMARK INTRA:                   0.402
REMARK UNBOUND:                -0.284
REMARK SMILES O=c1c(O)c(-c2ccc(O)c(O)c2)oc2cc(O)cc(O)c12
REMARK SMILES IDX 5 1 3 2 2 3 1 4 22 5 20 6 19 7 17 8 16 9 15 10 14 11 6 12
REMARK SMILES IDX 7 13 8 14 9 15 13 16 11 17 10 18 12 20 4 22 21 24 18 26
REMARK H PARENT 10 19 12 21 4 23 21 25 18 27
REMARK Flexibility Score: inf
ROOT
ATOM      1  C   UNL     1      20.198 -17.506   1.692  1.00  0.00     0.180 A 
ATOM      2  C   UNL     1      20.308 -16.220   1.137  1.00  0.00     0.208 A 
ATOM      3  C   UNL     1      20.259 -15.103   1.987  1.00  0.00     0.238 A 
ATOM      4  O   UNL     1      20.413 -13.957   1.490  1.00  0.00    -0.285 OA
ATOM      5  C   UNL     1      20.083 -15.287   3.380  1.00  0.00     0.111 A 
ATOM      6  C   UNL     1      19.979 -14.226   4.330  1.00  0.00     0.134 A 
ATOM      7  C   UNL     1      19.938 -14.525   5.697  1.00  0.00     0.093 A 
ATOM      8  C   UNL     1      19.931 -15.849   6.145  1.00  0.00     0.123 A 
ATOM      9  C   UNL     1      19.973 -16.891   5.222  1.00  0.00     0.094 A 
ATOM     10  C   UNL     1      20.051 -16.624   3.853  1.00  0.00     0.146 A 
ATOM     11  O   UNL     1      20.100 -17.647   3.009  1.00  0.00    -0.452 OA
ENDROOT
BRANCH   1  12
ATOM     12  C   UNL     1      20.216 -18.730   0.858  1.00  0.00     0.025 A 
ATOM     13  C   UNL     1      19.880 -18.644  -0.502  1.00  0.00     0.016 A 
ATOM     14  C   UNL     1      19.911 -19.783  -1.311  1.00  0.00     0.051 A 
ATOM     15  C   UNL     1      20.293 -21.020  -0.776  1.00  0.00     0.157 A 
ATOM     16  C   UNL     1      20.620 -19.969   1.387  1.00  0.00     0.062 A 
ATOM     17  C   UNL     1      20.652 -21.112   0.575  1.00  0.00     0.158 A 
BRANCH  15  18
ATOM     18  O   UNL     1      20.324 -22.158  -1.579  1.00  0.00    -0.504 OA
ATOM     19  H   UNL     1      20.873 -22.192  -2.430  1.00  0.00     0.293 HD
ENDBRANCH  15  18
BRANCH  17  20
ATOM     20  O   UNL     1      21.046 -22.341   1.102  1.00  0.00    -0.504 OA
ATOM     21  H   UNL     1      20.531 -23.192   0.905  1.00  0.00     0.293 HD
ENDBRANCH  17  20
ENDBRANCH   1  12
BRANCH   2  22
ATOM     22  O   UNL     1      20.503 -16.062  -0.239  1.00  0.00    -0.502 OA
ATOM     23  H   UNL     1      20.102 -16.695  -0.921  1.00  0.00     0.293 HD
ENDBRANCH   2  22
BRANCH   6  24
ATOM     24  O   UNL     1      19.884 -12.875   3.984  1.00  0.00    -0.507 OA
ATOM     25  H   UNL     1      19.132 -12.471   3.446  1.00  0.00     0.293 HD
ENDBRANCH   6  24
BRANCH   8  26
ATOM     26  O   UNL     1      19.875 -16.138   7.506  1.00  0.00    -0.508 OA
ATOM     27  H   UNL     1      19.258 -16.853   7.872  1.00  0.00     0.293 HD
ENDBRANCH   8  26
TORSDOF 6
ENDMDL
MODEL 3
REMARK VINA RESULT:    -1.304      1.933      6.893
REMARK INTER + INTRA:          -1.855
REMARK INTER:                  -2.121
REMARK INTRA:                   0.266
REMARK UNBOUND:                -0.284
REMARK SMILES O=c1c(O)c(-c2ccc(O)c(O)c2)oc2cc(O)cc(O)c12
REMARK SMILES IDX 5 1 3 2 2 3 1 4 22 5 20 6 19 7 17 8 16 9 15 10 14 11 6 12
REMARK SMILES IDX 7 13 8 14 9 15 13 16 11 17 10 18 12 20 4 22 21 24 18 26
REMARK H PARENT 10 19 12 21 4 23 21 25 18 27
REMARK Flexibility Score: inf
ROOT
ATOM      1  C   UNL     1      21.015 -16.115   3.497  1.00  0.00     0.180 A 
ATOM      2  C   UNL     1      20.581 -14.786   3.634  1.00  0.00     0.208 A 
ATOM      3  C   UNL     1      20.900 -14.083   4.807  1.00  0.00     0.238 A 
ATOM      4  O   UNL     1      20.555 -12.876   4.901  1.00  0.00    -0.285 OA
ATOM      5  C   UNL     1      21.634 -14.723   5.834  1.00  0.00     0.111 A 
ATOM      6  C   UNL     1      21.978 -14.120   7.081  1.00  0.00     0.134 A 
ATOM      7  C   UNL     1      22.819 -14.800   7.969  1.00  0.00     0.093 A 
ATOM      8  C   UNL     1      23.275 -16.091   7.684  1.00  0.00     0.123 A 
ATOM      9  C   UNL     1      22.896 -16.711   6.497  1.00  0.00     0.094 A 
ATOM     10  C   UNL     1      22.088 -16.042   5.574  1.00  0.00     0.146 A 
ATOM     11  O   UNL     1      21.758 -16.666   4.449  1.00  0.00    -0.452 OA
ENDROOT
BRANCH   1  12
ATOM     12  C   UNL     1      20.698 -16.929   2.301  1.00  0.00     0.025 A 
ATOM     13  C   UNL     1      20.651 -16.315   1.039  1.00  0.00     0.016 A 
ATOM     14  C   UNL     1      20.374 -17.069  -0.105  1.00  0.00     0.051 A 
ATOM     15  C   UNL     1      20.154 -18.448  -0.005  1.00  0.00     0.157 A 
ATOM     16  C   UNL     1      20.497 -18.319   2.394  1.00  0.00     0.062 A 
ATOM     17  C   UNL     1      20.220 -19.075   1.245  1.00  0.00     0.158 A 
BRANCH  15  18
ATOM     18  O   UNL     1      19.876 -19.203  -1.143  1.00  0.00    -0.504 OA
ATOM     19  H   UNL     1      19.524 -18.774  -1.991  1.00  0.00     0.293 HD
ENDBRANCH  15  18
BRANCH  17  20
ATOM     20  O   UNL     1      20.015 -20.451   1.340  1.00  0.00    -0.504 OA
ATOM     21  H   UNL     1      19.111 -20.867   1.146  1.00  0.00     0.293 HD
ENDBRANCH  17  20
ENDBRANCH   1  12
BRANCH   2  22
ATOM     22  O   UNL     1      19.876 -14.166   2.598  1.00  0.00    -0.502 OA
ATOM     23  H   UNL     1      19.984 -14.437   1.628  1.00  0.00     0.293 HD
ENDBRANCH   2  22
BRANCH   6  24
ATOM     24  O   UNL     1      21.502 -12.875   7.504  1.00  0.00    -0.507 OA
ATOM     25  H   UNL     1      20.556 -12.547   7.373  1.00  0.00     0.293 HD
ENDBRANCH   6  24
BRANCH   8  26
ATOM     26  O   UNL     1      24.099 -16.767   8.580  1.00  0.00    -0.508 OA
ATOM     27  H   UNL     1      25.109 -16.733   8.502  1.00  0.00     0.293 HD
ENDBRANCH   8  26
TORSDOF 6
ENDMDL
