MODEL 1
REMARK VINA RESULT:    -7.946      0.000      0.000
REMARK INTER + INTRA:         -10.185
REMARK INTER:                  -9.804
REMARK INTRA:                  -0.381
REMARK UNBOUND:                -0.381
REMARK SMILES Oc1cc(O)c2cc(O)c(-c3cc(O)c(O)c(O)c3)[o+]c2c1
REMARK SMILES IDX 10 1 20 2 21 3 22 4 2 5 3 6 4 7 6 8 7 9 8 10 11 11 12 12
REMARK SMILES IDX 13 13 19 14 15 15 17 16 14 17 16 19 18 21 9 23 1 25 5 27
REMARK H PARENT 14 18 16 20 18 22 9 24 1 26 5 28
REMARK Flexibility Score: inf
ROOT
ATOM      1  C   UNL     1     -25.198 -19.200 -13.464  1.00  0.00     0.402 A 
ATOM      2  O   UNL     1     -24.866 -20.210 -14.263  1.00  0.00    -0.202 OA
ATOM      3  C   UNL     1     -25.283 -21.458 -14.072  1.00  0.00     0.368 A 
ATOM      4  C   UNL     1     -24.881 -22.453 -14.968  1.00  0.00     0.162 A 
ATOM      5  C   UNL     1     -25.307 -23.773 -14.793  1.00  0.00     0.128 A 
ATOM      6  C   UNL     1     -26.139 -24.098 -13.720  1.00  0.00     0.093 A 
ATOM      7  C   UNL     1     -26.555 -23.120 -12.808  1.00  0.00     0.136 A 
ATOM      8  C   UNL     1     -26.122 -21.779 -12.979  1.00  0.00     0.125 A 
ATOM      9  C   UNL     1     -26.479 -20.736 -12.109  1.00  0.00     0.078 A 
ATOM     10  C   UNL     1     -26.010 -19.439 -12.340  1.00  0.00     0.223 A 
ENDROOT
BRANCH   1  11
ATOM     11  C   UNL     1     -24.677 -17.851 -13.787  1.00  0.00     0.091 A 
ATOM     12  C   UNL     1     -23.440 -17.446 -13.264  1.00  0.00     0.068 A 
ATOM     13  C   UNL     1     -22.916 -16.183 -13.571  1.00  0.00     0.162 A 
ATOM     14  C   UNL     1     -25.369 -16.988 -14.656  1.00  0.00     0.068 A 
ATOM     15  C   UNL     1     -23.619 -15.319 -14.419  1.00  0.00     0.200 A 
ATOM     16  C   UNL     1     -24.848 -15.725 -14.967  1.00  0.00     0.162 A 
BRANCH  13  17
ATOM     17  O   UNL     1     -21.693 -15.780 -13.036  1.00  0.00    -0.504 OA
ATOM     18  H   UNL     1     -21.608 -15.486 -12.070  1.00  0.00     0.293 HD
ENDBRANCH  13  17
BRANCH  15  19
ATOM     19  O   UNL     1     -23.084 -14.064 -14.711  1.00  0.00    -0.502 OA
ATOM     20  H   UNL     1     -22.748 -13.822 -15.635  1.00  0.00     0.293 HD
ENDBRANCH  15  19
BRANCH  16  21
ATOM     21  O   UNL     1     -25.545 -14.873 -15.824  1.00  0.00    -0.504 OA
ATOM     22  H   UNL     1     -25.109 -14.475 -16.647  1.00  0.00     0.293 HD
ENDBRANCH  16  21
ENDBRANCH   1  11
BRANCH  10  23
ATOM     23  O   UNL     1     -26.321 -18.413 -11.448  1.00  0.00    -0.500 OA
ATOM     24  H   UNL     1     -27.261 -18.040 -11.372  1.00  0.00     0.294 HD
ENDBRANCH  10  23
BRANCH   5  25
ATOM     25  O   UNL     1     -24.911 -24.769 -15.682  1.00  0.00    -0.507 OA
ATOM     26  H   UNL     1     -24.165 -25.416 -15.455  1.00  0.00     0.293 HD
ENDBRANCH   5  25
BRANCH   7  27
ATOM     27  O   UNL     1     -27.389 -23.527 -11.762  1.00  0.00    -0.507 OA
ATOM     28  H   UNL     1     -27.062 -23.933 -10.897  1.00  0.00     0.293 HD
ENDBRANCH   7  27
TORSDOF 7
ENDMDL
MODEL 2
REMARK VINA RESULT:    -7.883      0.096      1.790
REMARK INTER + INTRA:         -10.108
REMARK INTER:                  -9.728
REMARK INTRA:                  -0.380
REMARK UNBOUND:                -0.381
REMARK SMILES Oc1cc(O)c2cc(O)c(-c3cc(O)c(O)c(O)c3)[o+]c2c1
REMARK SMILES IDX 10 1 20 2 21 3 22 4 2 5 3 6 4 7 6 8 7 9 8 10 11 11 12 12
REMARK SMILES IDX 13 13 19 14 15 15 17 16 14 17 16 19 18 21 9 23 1 25 5 27
REMARK H PARENT 14 18 16 20 18 22 9 24 1 26 5 28
REMARK Flexibility Score: inf
ROOT
ATOM      1  C   UNL     1     -25.178 -19.273 -13.460  1.00  0.00     0.402 A 
ATOM      2  O   UNL     1     -24.861 -20.288 -14.260  1.00  0.00    -0.202 OA
ATOM      3  C   UNL     1     -25.287 -21.532 -14.064  1.00  0.00     0.368 A 
ATOM      4  C   UNL     1     -24.900 -22.531 -14.961  1.00  0.00     0.162 A 
ATOM      5  C   UNL     1     -25.336 -23.847 -14.781  1.00  0.00     0.128 A 
ATOM      6  C   UNL     1     -26.162 -24.164 -13.701  1.00  0.00     0.093 A 
ATOM      7  C   UNL     1     -26.563 -23.181 -12.787  1.00  0.00     0.136 A 
ATOM      8  C   UNL     1     -26.121 -21.844 -12.964  1.00  0.00     0.125 A 
ATOM      9  C   UNL     1     -26.462 -20.797 -12.093  1.00  0.00     0.078 A 
ATOM     10  C   UNL     1     -25.983 -19.504 -12.330  1.00  0.00     0.223 A 
ENDROOT
BRANCH   1  11
ATOM     11  C   UNL     1     -24.649 -17.930 -13.789  1.00  0.00     0.091 A 
ATOM     12  C   UNL     1     -25.415 -17.061 -14.581  1.00  0.00     0.068 A 
ATOM     13  C   UNL     1     -24.946 -15.777 -14.890  1.00  0.00     0.162 A 
ATOM     14  C   UNL     1     -23.418 -17.483 -13.277  1.00  0.00     0.068 A 
ATOM     15  C   UNL     1     -23.710 -15.344 -14.394  1.00  0.00     0.200 A 
ATOM     16  C   UNL     1     -22.945 -16.199 -13.582  1.00  0.00     0.162 A 
BRANCH  13  17
ATOM     17  O   UNL     1     -25.706 -14.924 -15.689  1.00  0.00    -0.504 OA
ATOM     18  H   UNL     1     -26.650 -14.659 -15.434  1.00  0.00     0.293 HD
ENDBRANCH  13  17
BRANCH  15  19
ATOM     19  O   UNL     1     -23.257 -14.064 -14.715  1.00  0.00    -0.502 OA
ATOM     20  H   UNL     1     -23.269 -13.304 -14.046  1.00  0.00     0.293 HD
ENDBRANCH  15  19
BRANCH  16  21
ATOM     21  O   UNL     1     -21.720 -15.767 -13.075  1.00  0.00    -0.504 OA
ATOM     22  H   UNL     1     -20.858 -15.887 -13.594  1.00  0.00     0.293 HD
ENDBRANCH  16  21
ENDBRANCH   1  11
BRANCH  10  23
ATOM     23  O   UNL     1     -26.280 -18.474 -11.437  1.00  0.00    -0.500 OA
ATOM     24  H   UNL     1     -25.740 -18.330 -10.591  1.00  0.00     0.294 HD
ENDBRANCH  10  23
BRANCH   5  25
ATOM     25  O   UNL     1     -24.955 -24.848 -15.671  1.00  0.00    -0.507 OA
ATOM     26  H   UNL     1     -24.988 -24.707 -16.674  1.00  0.00     0.293 HD
ENDBRANCH   5  25
BRANCH   7  27
ATOM     27  O   UNL     1     -27.392 -23.580 -11.735  1.00  0.00    -0.507 OA
ATOM     28  H   UNL     1     -27.421 -23.131 -10.830  1.00  0.00     0.293 HD
ENDBRANCH   7  27
TORSDOF 7
ENDMDL
MODEL 3
REMARK VINA RESULT:    -7.092      1.516      3.010
REMARK INTER + INTRA:          -9.132
REMARK INTER:                  -9.198
REMARK INTRA:                   0.067
REMARK UNBOUND:                -0.381
REMARK SMILES Oc1cc(O)c2cc(O)c(-c3cc(O)c(O)c(O)c3)[o+]c2c1
REMARK SMILES IDX 10 1 20 2 21 3 22 4 2 5 3 6 4 7 6 8 7 9 8 10 11 11 12 12
REMARK SMILES IDX 13 13 19 14 15 15 17 16 14 17 16 19 18 21 9 23 1 25 5 27
REMARK H PARENT 14 18 16 20 18 22 9 24 1 26 5 28
REMARK Flexibility Score: inf
ROOT
ATOM      1  C   UNL     1     -24.031 -19.409 -13.513  1.00  0.00     0.402 A 
ATOM      2  O   UNL     1     -25.248 -19.877 -13.253  1.00  0.00    -0.202 OA
ATOM      3  C   UNL     1     -25.490 -21.145 -12.936  1.00  0.00     0.368 A 
ATOM      4  C   UNL     1     -26.805 -21.543 -12.677  1.00  0.00     0.162 A 
ATOM      5  C   UNL     1     -27.087 -22.869 -12.338  1.00  0.00     0.128 A 
ATOM      6  C   UNL     1     -26.050 -23.801 -12.257  1.00  0.00     0.093 A 
ATOM      7  C   UNL     1     -24.724 -23.429 -12.512  1.00  0.00     0.136 A 
ATOM      8  C   UNL     1     -24.433 -22.084 -12.859  1.00  0.00     0.125 A 
ATOM      9  C   UNL     1     -23.137 -21.624 -13.143  1.00  0.00     0.078 A 
ATOM     10  C   UNL     1     -22.928 -20.283 -13.483  1.00  0.00     0.223 A 
ENDROOT
BRANCH   1  11
ATOM     11  C   UNL     1     -23.889 -17.973 -13.846  1.00  0.00     0.091 A 
ATOM     12  C   UNL     1     -24.900 -17.331 -14.577  1.00  0.00     0.068 A 
ATOM     13  C   UNL     1     -24.798 -15.967 -14.886  1.00  0.00     0.162 A 
ATOM     14  C   UNL     1     -22.788 -17.223 -13.394  1.00  0.00     0.068 A 
ATOM     15  C   UNL     1     -23.690 -15.230 -14.453  1.00  0.00     0.200 A 
ATOM     16  C   UNL     1     -22.683 -15.859 -13.700  1.00  0.00     0.162 A 
BRANCH  13  17
ATOM     17  O   UNL     1     -25.799 -15.338 -15.625  1.00  0.00    -0.504 OA
ATOM     18  H   UNL     1     -25.583 -14.631 -16.317  1.00  0.00     0.293 HD
ENDBRANCH  13  17
BRANCH  15  19
ATOM     19  O   UNL     1     -23.605 -13.875 -14.774  1.00  0.00    -0.502 OA
ATOM     20  H   UNL     1     -23.203 -13.195 -14.140  1.00  0.00     0.293 HD
ENDBRANCH  15  19
BRANCH  16  21
ATOM     21  O   UNL     1     -21.585 -15.125 -13.255  1.00  0.00    -0.504 OA
ATOM     22  H   UNL     1     -21.084 -15.378 -12.411  1.00  0.00     0.293 HD
ENDBRANCH  16  21
ENDBRANCH   1  11
BRANCH  10  23
ATOM     23  O   UNL     1     -21.649 -19.837 -13.814  1.00  0.00    -0.500 OA
ATOM     24  H   UNL     1     -21.239 -19.020 -13.375  1.00  0.00     0.294 HD
ENDBRANCH  10  23
BRANCH   5  25
ATOM     25  O   UNL     1     -28.395 -23.272 -12.079  1.00  0.00    -0.507 OA
ATOM     26  H   UNL     1     -28.758 -24.150 -12.429  1.00  0.00     0.293 HD
ENDBRANCH   5  25
BRANCH   7  27
ATOM     27  O   UNL     1     -23.745 -24.421 -12.406  1.00  0.00    -0.507 OA
ATOM     28  H   UNL     1     -22.964 -24.386 -11.767  1.00  0.00     0.293 HD
ENDBRANCH   7  27
TORSDOF 7
ENDMDL
MODEL 4
REMARK VINA RESULT:    -7.082      1.918      2.406
REMARK INTER + INTRA:          -9.119
REMARK INTER:                  -9.571
REMARK INTRA:                   0.452
REMARK UNBOUND:                -0.381
REMARK SMILES Oc1cc(O)c2cc(O)c(-c3cc(O)c(O)c(O)c3)[o+]c2c1
REMARK SMILES IDX 10 1 20 2 21 3 22 4 2 5 3 6 4 7 6 8 7 9 8 10 11 11 12 12
REMARK SMILES IDX 13 13 19 14 15 15 17 16 14 17 16 19 18 21 9 23 1 25 5 27
REMARK H PARENT 14 18 16 20 18 22 9 24 1 26 5 28
REMARK Flexibility Score: inf
ROOT
ATOM      1  C   UNL     1     -24.148 -20.461 -13.988  1.00  0.00     0.402 A 
ATOM      2  O   UNL     1     -25.212 -21.138 -14.412  1.00  0.00    -0.202 OA
ATOM      3  C   UNL     1     -25.299 -22.463 -14.366  1.00  0.00     0.368 A 
ATOM      4  C   UNL     1     -26.461 -23.085 -14.834  1.00  0.00     0.162 A 
ATOM      5  C   UNL     1     -26.580 -24.477 -14.795  1.00  0.00     0.128 A 
ATOM      6  C   UNL     1     -25.536 -25.250 -14.284  1.00  0.00     0.093 A 
ATOM      7  C   UNL     1     -24.361 -24.652 -13.809  1.00  0.00     0.136 A 
ATOM      8  C   UNL     1     -24.234 -23.239 -13.851  1.00  0.00     0.125 A 
ATOM      9  C   UNL     1     -23.090 -22.554 -13.408  1.00  0.00     0.078 A 
ATOM     10  C   UNL     1     -23.035 -21.159 -13.484  1.00  0.00     0.223 A 
ENDROOT
BRANCH   1  11
ATOM     11  C   UNL     1     -24.174 -18.983 -14.083  1.00  0.00     0.091 A 
ATOM     12  C   UNL     1     -23.003 -18.254 -13.826  1.00  0.00     0.068 A 
ATOM     13  C   UNL     1     -22.996 -16.857 -13.929  1.00  0.00     0.162 A 
ATOM     14  C   UNL     1     -25.334 -18.296 -14.482  1.00  0.00     0.068 A 
ATOM     15  C   UNL     1     -24.160 -16.176 -14.306  1.00  0.00     0.200 A 
ATOM     16  C   UNL     1     -25.332 -16.898 -14.588  1.00  0.00     0.162 A 
BRANCH  13  17
ATOM     17  O   UNL     1     -21.833 -16.137 -13.658  1.00  0.00    -0.504 OA
ATOM     18  H   UNL     1     -21.656 -15.741 -12.743  1.00  0.00     0.293 HD
ENDBRANCH  13  17
BRANCH  15  19
ATOM     19  O   UNL     1     -24.136 -14.784 -14.400  1.00  0.00    -0.502 OA
ATOM     20  H   UNL     1     -24.496 -14.291 -15.208  1.00  0.00     0.293 HD
ENDBRANCH  15  19
BRANCH  16  21
ATOM     21  O   UNL     1     -26.489 -16.225 -14.977  1.00  0.00    -0.504 OA
ATOM     22  H   UNL     1     -27.394 -16.682 -14.984  1.00  0.00     0.293 HD
ENDBRANCH  16  21
ENDBRANCH   1  11
BRANCH  10  23
ATOM     23  O   UNL     1     -21.880 -20.482 -13.093  1.00  0.00    -0.500 OA
ATOM     24  H   UNL     1     -20.974 -20.696 -13.494  1.00  0.00     0.294 HD
ENDBRANCH  10  23
BRANCH   5  25
ATOM     25  O   UNL     1     -27.735 -25.102 -15.259  1.00  0.00    -0.507 OA
ATOM     26  H   UNL     1     -28.181 -25.847 -14.737  1.00  0.00     0.293 HD
ENDBRANCH   5  25
BRANCH   7  27
ATOM     27  O   UNL     1     -23.364 -25.496 -13.313  1.00  0.00    -0.507 OA
ATOM     28  H   UNL     1     -22.400 -25.477 -13.611  1.00  0.00     0.293 HD
ENDBRANCH   7  27
TORSDOF 7
ENDMDL
MODEL 5
REMARK VINA RESULT:    -7.043      1.251      7.230
REMARK INTER + INTRA:          -9.072
REMARK INTER:                  -8.906
REMARK INTRA:                  -0.165
REMARK UNBOUND:                -0.381
REMARK SMILES Oc1cc(O)c2cc(O)c(-c3cc(O)c(O)c(O)c3)[o+]c2c1
REMARK SMILES IDX 10 1 20 2 21 3 22 4 2 5 3 6 4 7 6 8 7 9 8 10 11 11 12 12
REMARK SMILES IDX 13 13 19 14 15 15 17 16 14 17 16 19 18 21 9 23 1 25 5 27
REMARK H PARENT 14 18 16 20 18 22 9 24 1 26 5 28
REMARK Flexibility Score: inf
ROOT
ATOM      1  C   UNL     1     -24.546 -19.892 -14.103  1.00  0.00     0.402 A 
ATOM      2  O   UNL     1     -25.274 -18.822 -14.409  1.00  0.00    -0.202 OA
ATOM      3  C   UNL     1     -24.798 -17.581 -14.371  1.00  0.00     0.368 A 
ATOM      4  C   UNL     1     -25.641 -16.520 -14.714  1.00  0.00     0.162 A 
ATOM      5  C   UNL     1     -25.166 -15.205 -14.686  1.00  0.00     0.128 A 
ATOM      6  C   UNL     1     -23.844 -14.952 -14.315  1.00  0.00     0.093 A 
ATOM      7  C   UNL     1     -22.979 -15.998 -13.967  1.00  0.00     0.136 A 
ATOM      8  C   UNL     1     -23.458 -17.334 -13.991  1.00  0.00     0.125 A 
ATOM      9  C   UNL     1     -22.668 -18.443 -13.647  1.00  0.00     0.078 A 
ATOM     10  C   UNL     1     -23.211 -19.731 -13.690  1.00  0.00     0.223 A 
ENDROOT
BRANCH   1  11
ATOM     11  C   UNL     1     -25.188 -21.225 -14.193  1.00  0.00     0.091 A 
ATOM     12  C   UNL     1     -24.635 -22.201 -15.035  1.00  0.00     0.068 A 
ATOM     13  C   UNL     1     -25.211 -23.476 -15.123  1.00  0.00     0.162 A 
ATOM     14  C   UNL     1     -26.307 -21.552 -13.407  1.00  0.00     0.068 A 
ATOM     15  C   UNL     1     -26.338 -23.790 -14.354  1.00  0.00     0.200 A 
ATOM     16  C   UNL     1     -26.885 -22.827 -13.489  1.00  0.00     0.162 A 
BRANCH  13  17
ATOM     17  O   UNL     1     -24.665 -24.437 -15.973  1.00  0.00    -0.504 OA
ATOM     18  H   UNL     1     -24.619 -25.414 -15.708  1.00  0.00     0.293 HD
ENDBRANCH  13  17
BRANCH  15  19
ATOM     19  O   UNL     1     -26.900 -25.063 -14.456  1.00  0.00    -0.502 OA
ATOM     20  H   UNL     1     -27.699 -25.346 -13.903  1.00  0.00     0.293 HD
ENDBRANCH  15  19
BRANCH  16  21
ATOM     21  O   UNL     1     -27.999 -23.140 -12.711  1.00  0.00    -0.504 OA
ATOM     22  H   UNL     1     -28.307 -24.098 -12.586  1.00  0.00     0.293 HD
ENDBRANCH  16  21
ENDBRANCH   1  11
BRANCH  10  23
ATOM     23  O   UNL     1     -22.442 -20.828 -13.300  1.00  0.00    -0.500 OA
ATOM     24  H   UNL     1     -21.614 -20.721 -12.725  1.00  0.00     0.294 HD
ENDBRANCH  10  23
BRANCH   5  25
ATOM     25  O   UNL     1     -26.000 -14.143 -15.026  1.00  0.00    -0.507 OA
ATOM     26  H   UNL     1     -26.997 -14.176 -14.853  1.00  0.00     0.293 HD
ENDBRANCH   5  25
BRANCH   7  27
ATOM     27  O   UNL     1     -21.671 -15.660 -13.611  1.00  0.00    -0.507 OA
ATOM     28  H   UNL     1     -21.111 -14.966 -14.085  1.00  0.00     0.293 HD
ENDBRANCH   7  27
TORSDOF 7
ENDMDL
MODEL 6
REMARK VINA RESULT:    -6.855      1.268      7.267
REMARK INTER + INTRA:          -8.839
REMARK INTER:                  -8.594
REMARK INTRA:                  -0.245
REMARK UNBOUND:                -0.381
REMARK SMILES Oc1cc(O)c2cc(O)c(-c3cc(O)c(O)c(O)c3)[o+]c2c1
REMARK SMILES IDX 10 1 20 2 21 3 22 4 2 5 3 6 4 7 6 8 7 9 8 10 11 11 12 12
REMARK SMILES IDX 13 13 19 14 15 15 17 16 14 17 16 19 18 21 9 23 1 25 5 27
REMARK H PARENT 14 18 16 20 18 22 9 24 1 26 5 28
REMARK Flexibility Score: inf
ROOT
ATOM      1  C   UNL     1     -24.450 -19.589 -14.086  1.00  0.00     0.402 A 
ATOM      2  O   UNL     1     -25.208 -18.540 -14.390  1.00  0.00    -0.202 OA
ATOM      3  C   UNL     1     -24.757 -17.290 -14.393  1.00  0.00     0.368 A 
ATOM      4  C   UNL     1     -25.631 -16.252 -14.729  1.00  0.00     0.162 A 
ATOM      5  C   UNL     1     -25.182 -14.928 -14.744  1.00  0.00     0.128 A 
ATOM      6  C   UNL     1     -23.853 -14.642 -14.424  1.00  0.00     0.093 A 
ATOM      7  C   UNL     1     -22.957 -15.663 -14.084  1.00  0.00     0.136 A 
ATOM      8  C   UNL     1     -23.409 -17.009 -14.064  1.00  0.00     0.125 A 
ATOM      9  C   UNL     1     -22.586 -18.095 -13.725  1.00  0.00     0.078 A 
ATOM     10  C   UNL     1     -23.105 -19.393 -13.723  1.00  0.00     0.223 A 
ENDROOT
BRANCH   1  11
ATOM     11  C   UNL     1     -25.067 -20.935 -14.126  1.00  0.00     0.091 A 
ATOM     12  C   UNL     1     -26.156 -21.221 -13.288  1.00  0.00     0.068 A 
ATOM     13  C   UNL     1     -26.770 -22.480 -13.322  1.00  0.00     0.162 A 
ATOM     14  C   UNL     1     -24.622 -21.917 -15.029  1.00  0.00     0.068 A 
ATOM     15  C   UNL     1     -26.309 -23.461 -14.208  1.00  0.00     0.200 A 
ATOM     16  C   UNL     1     -25.234 -23.178 -15.067  1.00  0.00     0.162 A 
BRANCH  13  17
ATOM     17  O   UNL     1     -27.842 -22.762 -12.477  1.00  0.00    -0.504 OA
ATOM     18  H   UNL     1     -28.484 -22.038 -12.174  1.00  0.00     0.293 HD
ENDBRANCH  13  17
BRANCH  15  19
ATOM     19  O   UNL     1     -26.931 -24.710 -14.225  1.00  0.00    -0.502 OA
ATOM     20  H   UNL     1     -26.614 -25.463 -14.824  1.00  0.00     0.293 HD
ENDBRANCH  15  19
BRANCH  16  21
ATOM     21  O   UNL     1     -24.781 -24.148 -15.961  1.00  0.00    -0.504 OA
ATOM     22  H   UNL     1     -23.941 -24.684 -15.782  1.00  0.00     0.293 HD
ENDBRANCH  16  21
ENDBRANCH   1  11
BRANCH  10  23
ATOM     23  O   UNL     1     -22.302 -20.466 -13.336  1.00  0.00    -0.500 OA
ATOM     24  H   UNL     1     -22.157 -21.269 -13.939  1.00  0.00     0.294 HD
ENDBRANCH  10  23
BRANCH   5  25
ATOM     25  O   UNL     1     -26.048 -13.890 -15.077  1.00  0.00    -0.507 OA
ATOM     26  H   UNL     1     -26.276 -13.157 -14.416  1.00  0.00     0.293 HD
ENDBRANCH   5  25
BRANCH   7  27
ATOM     27  O   UNL     1     -21.644 -15.293 -13.780  1.00  0.00    -0.507 OA
ATOM     28  H   UNL     1     -21.250 -14.382 -13.967  1.00  0.00     0.293 HD
ENDBRANCH   7  27
TORSDOF 7
ENDMDL
MODEL 7
REMARK VINA RESULT:    -6.854      1.808      7.332
REMARK INTER + INTRA:          -8.838
REMARK INTER:                  -8.946
REMARK INTRA:                   0.108
REMARK UNBOUND:                -0.381
REMARK SMILES Oc1cc(O)c2cc(O)c(-c3cc(O)c(O)c(O)c3)[o+]c2c1
REMARK SMILES IDX 10 1 20 2 21 3 22 4 2 5 3 6 4 7 6 8 7 9 8 10 11 11 12 12
REMARK SMILES IDX 13 13 19 14 15 15 17 16 14 17 16 19 18 21 9 23 1 25 5 27
REMARK H PARENT 14 18 16 20 18 22 9 24 1 26 5 28
REMARK Flexibility Score: inf
ROOT
ATOM      1  C   UNL     1     -24.328 -18.682 -13.727  1.00  0.00     0.402 A 
ATOM      2  O   UNL     1     -23.217 -18.014 -13.432  1.00  0.00    -0.202 OA
ATOM      3  C   UNL     1     -23.019 -16.743 -13.769  1.00  0.00     0.368 A 
ATOM      4  C   UNL     1     -21.817 -16.125 -13.411  1.00  0.00     0.162 A 
ATOM      5  C   UNL     1     -21.583 -14.789 -13.750  1.00  0.00     0.128 A 
ATOM      6  C   UNL     1     -22.555 -14.069 -14.448  1.00  0.00     0.093 A 
ATOM      7  C   UNL     1     -23.767 -14.665 -14.818  1.00  0.00     0.136 A 
ATOM      8  C   UNL     1     -24.008 -16.022 -14.479  1.00  0.00     0.125 A 
ATOM      9  C   UNL     1     -25.187 -16.705 -14.819  1.00  0.00     0.078 A 
ATOM     10  C   UNL     1     -25.351 -18.045 -14.454  1.00  0.00     0.223 A 
ENDROOT
BRANCH   1  11
ATOM     11  C   UNL     1     -24.435 -20.093 -13.288  1.00  0.00     0.091 A 
ATOM     12  C   UNL     1     -25.668 -20.581 -12.830  1.00  0.00     0.068 A 
ATOM     13  C   UNL     1     -25.800 -21.917 -12.428  1.00  0.00     0.162 A 
ATOM     14  C   UNL     1     -23.340 -20.971 -13.375  1.00  0.00     0.068 A 
ATOM     15  C   UNL     1     -24.701 -22.782 -12.497  1.00  0.00     0.200 A 
ATOM     16  C   UNL     1     -23.468 -22.308 -12.976  1.00  0.00     0.162 A 
BRANCH  13  17
ATOM     17  O   UNL     1     -27.024 -22.393 -11.960  1.00  0.00    -0.504 OA
ATOM     18  H   UNL     1     -27.903 -22.067 -12.346  1.00  0.00     0.293 HD
ENDBRANCH  13  17
BRANCH  15  19
ATOM     19  O   UNL     1     -24.851 -24.108 -12.089  1.00  0.00    -0.502 OA
ATOM     20  H   UNL     1     -24.897 -24.370 -11.112  1.00  0.00     0.293 HD
ENDBRANCH  15  19
BRANCH  16  21
ATOM     21  O   UNL     1     -22.375 -23.170 -13.059  1.00  0.00    -0.504 OA
ATOM     22  H   UNL     1     -22.178 -23.850 -12.334  1.00  0.00     0.293 HD
ENDBRANCH  16  21
ENDBRANCH   1  11
BRANCH  10  23
ATOM     23  O   UNL     1     -26.500 -18.738 -14.835  1.00  0.00    -0.500 OA
ATOM     24  H   UNL     1     -26.562 -19.748 -14.764  1.00  0.00     0.294 HD
ENDBRANCH  10  23
BRANCH   5  25
ATOM     25  O   UNL     1     -20.389 -14.167 -13.397  1.00  0.00    -0.507 OA
ATOM     26  H   UNL     1     -19.630 -14.681 -12.965  1.00  0.00     0.293 HD
ENDBRANCH   5  25
BRANCH   7  27
ATOM     27  O   UNL     1     -24.688 -13.875 -15.512  1.00  0.00    -0.507 OA
ATOM     28  H   UNL     1     -24.986 -14.047 -16.462  1.00  0.00     0.293 HD
ENDBRANCH   7  27
TORSDOF 7
ENDMDL
MODEL 8
REMARK VINA RESULT:    -6.836      1.889      7.165
REMARK INTER + INTRA:          -8.816
REMARK INTER:                  -8.936
REMARK INTRA:                   0.119
REMARK UNBOUND:                -0.381
REMARK SMILES Oc1cc(O)c2cc(O)c(-c3cc(O)c(O)c(O)c3)[o+]c2c1
REMARK SMILES IDX 10 1 20 2 21 3 22 4 2 5 3 6 4 7 6 8 7 9 8 10 11 11 12 12
REMARK SMILES IDX 13 13 19 14 15 15 17 16 14 17 16 19 18 21 9 23 1 25 5 27
REMARK H PARENT 14 18 16 20 18 22 9 24 1 26 5 28
REMARK Flexibility Score: inf
ROOT
ATOM      1  C   UNL     1     -24.278 -18.758 -13.741  1.00  0.00     0.402 A 
ATOM      2  O   UNL     1     -23.159 -18.081 -13.501  1.00  0.00    -0.202 OA
ATOM      3  C   UNL     1     -23.006 -16.794 -13.798  1.00  0.00     0.368 A 
ATOM      4  C   UNL     1     -21.791 -16.168 -13.505  1.00  0.00     0.162 A 
ATOM      5  C   UNL     1     -21.605 -14.816 -13.804  1.00  0.00     0.128 A 
ATOM      6  C   UNL     1     -22.638 -14.086 -14.396  1.00  0.00     0.093 A 
ATOM      7  C   UNL     1     -23.865 -14.689 -14.700  1.00  0.00     0.136 A 
ATOM      8  C   UNL     1     -24.058 -16.064 -14.401  1.00  0.00     0.125 A 
ATOM      9  C   UNL     1     -25.248 -16.754 -14.681  1.00  0.00     0.078 A 
ATOM     10  C   UNL     1     -25.363 -18.111 -14.362  1.00  0.00     0.223 A 
ENDROOT
BRANCH   1  11
ATOM     11  C   UNL     1     -24.329 -20.187 -13.355  1.00  0.00     0.091 A 
ATOM     12  C   UNL     1     -23.153 -20.952 -13.382  1.00  0.00     0.068 A 
ATOM     13  C   UNL     1     -23.170 -22.300 -13.003  1.00  0.00     0.162 A 
ATOM     14  C   UNL     1     -25.522 -20.782 -12.906  1.00  0.00     0.068 A 
ATOM     15  C   UNL     1     -24.365 -22.893 -12.576  1.00  0.00     0.200 A 
ATOM     16  C   UNL     1     -25.544 -22.130 -12.524  1.00  0.00     0.162 A 
BRANCH  13  17
ATOM     17  O   UNL     1     -22.001 -23.058 -13.046  1.00  0.00    -0.504 OA
ATOM     18  H   UNL     1     -21.110 -22.675 -12.754  1.00  0.00     0.293 HD
ENDBRANCH  13  17
BRANCH  15  19
ATOM     19  O   UNL     1     -24.364 -24.238 -12.206  1.00  0.00    -0.502 OA
ATOM     20  H   UNL     1     -23.642 -24.635 -11.617  1.00  0.00     0.293 HD
ENDBRANCH  15  19
BRANCH  16  21
ATOM     21  O   UNL     1     -26.733 -22.713 -12.086  1.00  0.00    -0.504 OA
ATOM     22  H   UNL     1     -26.743 -23.611 -11.616  1.00  0.00     0.293 HD
ENDBRANCH  16  21
ENDBRANCH   1  11
BRANCH  10  23
ATOM     23  O   UNL     1     -26.526 -18.810 -14.685  1.00  0.00    -0.500 OA
ATOM     24  H   UNL     1     -26.494 -19.733 -15.103  1.00  0.00     0.294 HD
ENDBRANCH  10  23
BRANCH   5  25
ATOM     25  O   UNL     1     -20.397 -14.186 -13.515  1.00  0.00    -0.507 OA
ATOM     26  H   UNL     1     -20.272 -13.641 -12.670  1.00  0.00     0.293 HD
ENDBRANCH   5  25
BRANCH   7  27
ATOM     27  O   UNL     1     -24.848 -13.889 -15.289  1.00  0.00    -0.507 OA
ATOM     28  H   UNL     1     -25.567 -14.233 -15.910  1.00  0.00     0.293 HD
ENDBRANCH   7  27
TORSDOF 7
ENDMDL
MODEL 9
REMARK VINA RESULT:    -6.702      1.806      7.262
REMARK INTER + INTRA:          -8.651
REMARK INTER:                  -8.742
REMARK INTRA:                   0.091
REMARK UNBOUND:                -0.381
REMARK SMILES Oc1cc(O)c2cc(O)c(-c3cc(O)c(O)c(O)c3)[o+]c2c1
REMARK SMILES IDX 10 1 20 2 21 3 22 4 2 5 3 6 4 7 6 8 7 9 8 10 11 11 12 12
REMARK SMILES IDX 13 13 19 14 15 15 17 16 14 17 16 19 18 21 9 23 1 25 5 27
REMARK H PARENT 14 18 16 20 18 22 9 24 1 26 5 28
REMARK Flexibility Score: inf
ROOT
ATOM      1  C   UNL     1     -24.408 -19.225 -13.959  1.00  0.00     0.402 A 
ATOM      2  O   UNL     1     -23.237 -18.614 -13.804  1.00  0.00    -0.202 OA
ATOM      3  C   UNL     1     -23.084 -17.296 -13.895  1.00  0.00     0.368 A 
ATOM      4  C   UNL     1     -21.812 -16.746 -13.714  1.00  0.00     0.162 A 
ATOM      5  C   UNL     1     -21.623 -15.363 -13.801  1.00  0.00     0.128 A 
ATOM      6  C   UNL     1     -22.711 -14.529 -14.067  1.00  0.00     0.093 A 
ATOM      7  C   UNL     1     -23.995 -15.055 -14.252  1.00  0.00     0.136 A 
ATOM      8  C   UNL     1     -24.191 -16.459 -14.169  1.00  0.00     0.125 A 
ATOM      9  C   UNL     1     -25.440 -17.076 -14.352  1.00  0.00     0.078 A 
ATOM     10  C   UNL     1     -25.554 -18.466 -14.259  1.00  0.00     0.223 A 
ENDROOT
BRANCH   1  11
ATOM     11  C   UNL     1     -24.452 -20.700 -13.825  1.00  0.00     0.091 A 
ATOM     12  C   UNL     1     -25.194 -21.454 -14.746  1.00  0.00     0.068 A 
ATOM     13  C   UNL     1     -25.234 -22.852 -14.653  1.00  0.00     0.162 A 
ATOM     14  C   UNL     1     -23.718 -21.366 -12.827  1.00  0.00     0.068 A 
ATOM     15  C   UNL     1     -24.519 -23.509 -13.645  1.00  0.00     0.200 A 
ATOM     16  C   UNL     1     -23.755 -22.764 -12.731  1.00  0.00     0.162 A 
BRANCH  13  17
ATOM     17  O   UNL     1     -25.985 -23.595 -15.563  1.00  0.00    -0.504 OA
ATOM     18  H   UNL     1     -26.936 -23.340 -15.800  1.00  0.00     0.293 HD
ENDBRANCH  13  17
BRANCH  15  19
ATOM     19  O   UNL     1     -24.575 -24.901 -13.566  1.00  0.00    -0.502 OA
ATOM     20  H   UNL     1     -24.975 -25.380 -12.769  1.00  0.00     0.293 HD
ENDBRANCH  15  19
BRANCH  16  21
ATOM     21  O   UNL     1     -23.030 -23.415 -11.734  1.00  0.00    -0.504 OA
ATOM     22  H   UNL     1     -22.783 -24.395 -11.811  1.00  0.00     0.293 HD
ENDBRANCH  16  21
ENDBRANCH   1  11
BRANCH  10  23
ATOM     23  O   UNL     1     -26.783 -19.084 -14.491  1.00  0.00    -0.500 OA
ATOM     24  H   UNL     1     -27.315 -18.912 -15.337  1.00  0.00     0.294 HD
ENDBRANCH  10  23
BRANCH   5  25
ATOM     25  O   UNL     1     -20.359 -14.808 -13.622  1.00  0.00    -0.507 OA
ATOM     26  H   UNL     1     -19.683 -14.775 -14.376  1.00  0.00     0.293 HD
ENDBRANCH   5  25
BRANCH   7  27
ATOM     27  O   UNL     1     -25.030 -14.153 -14.513  1.00  0.00    -0.507 OA
ATOM     28  H   UNL     1     -25.807 -14.339 -15.130  1.00  0.00     0.293 HD
ENDBRANCH   7  27
TORSDOF 7
ENDMDL
