MODEL 1
REMARK VINA RESULT:    -5.125      0.000      0.000
REMARK INTER + INTRA:          -6.501
REMARK INTER:                  -6.173
REMARK INTRA:                  -0.328
REMARK UNBOUND:                -0.328
REMARK SMILES O=c1c(O)c(-c2ccc(O)c(O)c2)oc2cc(O)cc(O)c12
REMARK SMILES IDX 5 1 3 2 2 3 1 4 22 5 20 6 19 7 17 8 16 9 15 10 14 11 6 12
REMARK SMILES IDX 7 13 8 14 9 15 13 16 11 17 10 18 12 20 4 22 21 24 18 26
REMARK H PARENT 10 19 12 21 4 23 21 25 18 27
REMARK Flexibility Score: inf
ROOT
ATOM      1  C   UNL     1       8.794  11.984  61.335  1.00  0.00     0.180 A 
ATOM      2  C   UNL     1       9.624  13.039  61.760  1.00  0.00     0.208 A 
ATOM      3  C   UNL     1       9.042  14.144  62.403  1.00  0.00     0.238 A 
ATOM      4  O   UNL     1       9.774  15.100  62.778  1.00  0.00    -0.285 OA
ATOM      5  C   UNL     1       7.651  14.166  62.626  1.00  0.00     0.111 A 
ATOM      6  C   UNL     1       6.986  15.238  63.270  1.00  0.00     0.134 A 
ATOM      7  C   UNL     1       5.598  15.181  63.463  1.00  0.00     0.093 A 
ATOM      8  C   UNL     1       4.862  14.077  63.028  1.00  0.00     0.123 A 
ATOM      9  C   UNL     1       5.513  13.015  62.392  1.00  0.00     0.094 A 
ATOM     10  C   UNL     1       6.896  13.053  62.188  1.00  0.00     0.146 A 
ATOM     11  O   UNL     1       7.487  12.033  61.576  1.00  0.00    -0.452 OA
ENDROOT
BRANCH   1  12
ATOM     12  C   UNL     1       9.331  10.795  60.635  1.00  0.00     0.025 A 
ATOM     13  C   UNL     1       9.374  10.729  59.231  1.00  0.00     0.016 A 
ATOM     14  C   UNL     1       9.862   9.586  58.593  1.00  0.00     0.051 A 
ATOM     15  C   UNL     1      10.300   8.488  59.345  1.00  0.00     0.157 A 
ATOM     16  C   UNL     1       9.750   9.683  61.383  1.00  0.00     0.062 A 
ATOM     17  C   UNL     1      10.240   8.537  60.747  1.00  0.00     0.158 A 
BRANCH  15  18
ATOM     18  O   UNL     1      10.788   7.350  58.704  1.00  0.00    -0.504 OA
ATOM     19  H   UNL     1      11.738   7.028  58.845  1.00  0.00     0.293 HD
ENDBRANCH  15  18
BRANCH  17  20
ATOM     20  O   UNL     1      10.662   7.458  61.525  1.00  0.00    -0.504 OA
ATOM     21  H   UNL     1      10.308   7.299  62.460  1.00  0.00     0.293 HD
ENDBRANCH  17  20
ENDBRANCH   1  12
BRANCH   2  22
ATOM     22  O   UNL     1      11.006  12.970  61.572  1.00  0.00    -0.502 OA
ATOM     23  H   UNL     1      11.611  12.427  62.176  1.00  0.00     0.293 HD
ENDBRANCH   2  22
BRANCH   6  24
ATOM     24  O   UNL     1       7.693  16.356  63.715  1.00  0.00    -0.507 OA
ATOM     25  H   UNL     1       7.337  17.297  63.590  1.00  0.00     0.293 HD
ENDBRANCH   6  24
BRANCH   8  26
ATOM     26  O   UNL     1       3.485  14.045  63.233  1.00  0.00    -0.508 OA
ATOM     27  H   UNL     1       3.004  14.795  63.717  1.00  0.00     0.293 HD
ENDBRANCH   8  26
TORSDOF 6
ENDMDL
MODEL 2
REMARK VINA RESULT:    -4.942     12.611     14.692
REMARK INTER + INTRA:          -6.281
REMARK INTER:                  -5.957
REMARK INTRA:                  -0.325
REMARK UNBOUND:                -0.328
REMARK SMILES O=c1c(O)c(-c2ccc(O)c(O)c2)oc2cc(O)cc(O)c12
REMARK SMILES IDX 5 1 3 2 2 3 1 4 22 5 20 6 19 7 17 8 16 9 15 10 14 11 6 12
REMARK SMILES IDX 7 13 8 14 9 15 13 16 11 17 10 18 12 20 4 22 21 24 18 26
REMARK H PARENT 10 19 12 21 4 23 21 25 18 27
REMARK Flexibility Score: inf
ROOT
ATOM      1  C   UNL     1       4.163  14.165  75.043  1.00  0.00     0.180 A 
ATOM      2  C   UNL     1       4.399  15.553  74.998  1.00  0.00     0.208 A 
ATOM      3  C   UNL     1       3.325  16.431  75.216  1.00  0.00     0.238 A 
ATOM      4  O   UNL     1       3.522  17.676  75.167  1.00  0.00    -0.285 OA
ATOM      5  C   UNL     1       2.046  15.910  75.496  1.00  0.00     0.111 A 
ATOM      6  C   UNL     1       0.912  16.726  75.732  1.00  0.00     0.134 A 
ATOM      7  C   UNL     1      -0.327  16.130  76.012  1.00  0.00     0.093 A 
ATOM      8  C   UNL     1      -0.456  14.741  76.062  1.00  0.00     0.123 A 
ATOM      9  C   UNL     1       0.660  13.930  75.829  1.00  0.00     0.094 A 
ATOM     10  C   UNL     1       1.904  14.504  75.546  1.00  0.00     0.146 A 
ATOM     11  O   UNL     1       2.946  13.711  75.324  1.00  0.00    -0.452 OA
ENDROOT
BRANCH   1  12
ATOM     12  C   UNL     1       5.240  13.177  74.805  1.00  0.00     0.025 A 
ATOM     13  C   UNL     1       5.458  12.624  73.531  1.00  0.00     0.016 A 
ATOM     14  C   UNL     1       6.464  11.675  73.336  1.00  0.00     0.051 A 
ATOM     15  C   UNL     1       7.257  11.253  74.411  1.00  0.00     0.157 A 
ATOM     16  C   UNL     1       6.023  12.735  75.883  1.00  0.00     0.062 A 
ATOM     17  C   UNL     1       7.032  11.784  75.692  1.00  0.00     0.158 A 
BRANCH  15  18
ATOM     18  O   UNL     1       8.261  10.307  74.212  1.00  0.00    -0.504 OA
ATOM     19  H   UNL     1       9.181  10.571  73.879  1.00  0.00     0.293 HD
ENDBRANCH  15  18
BRANCH  17  20
ATOM     20  O   UNL     1       7.799  11.380  76.784  1.00  0.00    -0.504 OA
ATOM     21  H   UNL     1       8.068  10.414  76.925  1.00  0.00     0.293 HD
ENDBRANCH  17  20
ENDBRANCH   1  12
BRANCH   2  22
ATOM     22  O   UNL     1       5.687  16.044  74.769  1.00  0.00    -0.502 OA
ATOM     23  H   UNL     1       5.946  17.003  74.969  1.00  0.00     0.293 HD
ENDBRANCH   2  22
BRANCH   6  24
ATOM     24  O   UNL     1       1.007  18.117  75.690  1.00  0.00    -0.507 OA
ATOM     25  H   UNL     1       1.892  18.586  75.532  1.00  0.00     0.293 HD
ENDBRANCH   6  24
BRANCH   8  26
ATOM     26  O   UNL     1      -1.697  14.175  76.343  1.00  0.00    -0.508 OA
ATOM     27  H   UNL     1      -2.558  14.693  76.207  1.00  0.00     0.293 HD
ENDBRANCH   8  26
TORSDOF 6
ENDMDL
MODEL 3
REMARK VINA RESULT:    -4.910      1.953      3.627
REMARK INTER + INTRA:          -6.243
REMARK INTER:                  -6.071
REMARK INTRA:                  -0.171
REMARK UNBOUND:                -0.328
REMARK SMILES O=c1c(O)c(-c2ccc(O)c(O)c2)oc2cc(O)cc(O)c12
REMARK SMILES IDX 5 1 3 2 2 3 1 4 22 5 20 6 19 7 17 8 16 9 15 10 14 11 6 12
REMARK SMILES IDX 7 13 8 14 9 15 13 16 11 17 10 18 12 20 4 22 21 24 18 26
REMARK H PARENT 10 19 12 21 4 23 21 25 18 27
REMARK Flexibility Score: inf
ROOT
ATOM      1  C   UNL     1       8.073  13.448  62.141  1.00  0.00     0.180 A 
ATOM      2  C   UNL     1       6.706  13.780  62.189  1.00  0.00     0.208 A 
ATOM      3  C   UNL     1       6.332  15.049  62.663  1.00  0.00     0.238 A 
ATOM      4  O   UNL     1       5.109  15.354  62.722  1.00  0.00    -0.285 OA
ATOM      5  C   UNL     1       7.327  15.965  63.058  1.00  0.00     0.111 A 
ATOM      6  C   UNL     1       7.036  17.264  63.542  1.00  0.00     0.134 A 
ATOM      7  C   UNL     1       8.084  18.121  63.908  1.00  0.00     0.093 A 
ATOM      8  C   UNL     1       9.414  17.710  63.799  1.00  0.00     0.123 A 
ATOM      9  C   UNL     1       9.708  16.428  63.321  1.00  0.00     0.094 A 
ATOM     10  C   UNL     1       8.677  15.557  62.954  1.00  0.00     0.146 A 
ATOM     11  O   UNL     1       8.984  14.344  62.508  1.00  0.00    -0.452 OA
ENDROOT
BRANCH   1  12
ATOM     12  C   UNL     1       8.545  12.125  61.672  1.00  0.00     0.025 A 
ATOM     13  C   UNL     1       9.269  11.988  60.475  1.00  0.00     0.016 A 
ATOM     14  C   UNL     1       9.682  10.726  60.040  1.00  0.00     0.051 A 
ATOM     15  C   UNL     1       9.366   9.583  60.785  1.00  0.00     0.157 A 
ATOM     16  C   UNL     1       8.212  10.974  62.403  1.00  0.00     0.062 A 
ATOM     17  C   UNL     1       8.624   9.708  61.971  1.00  0.00     0.158 A 
BRANCH  15  18
ATOM     18  O   UNL     1       9.782   8.326  60.349  1.00  0.00    -0.504 OA
ATOM     19  H   UNL     1       9.522   7.479  60.843  1.00  0.00     0.293 HD
ENDBRANCH  15  18
BRANCH  17  20
ATOM     20  O   UNL     1       8.287   8.589  62.732  1.00  0.00    -0.504 OA
ATOM     21  H   UNL     1       7.454   8.560  63.306  1.00  0.00     0.293 HD
ENDBRANCH  17  20
ENDBRANCH   1  12
BRANCH   2  22
ATOM     22  O   UNL     1       5.742  12.872  61.745  1.00  0.00    -0.502 OA
ATOM     23  H   UNL     1       5.077  12.434  62.373  1.00  0.00     0.293 HD
ENDBRANCH   2  22
BRANCH   6  24
ATOM     24  O   UNL     1       5.718  17.706  63.664  1.00  0.00    -0.507 OA
ATOM     25  H   UNL     1       5.084  17.311  64.349  1.00  0.00     0.293 HD
ENDBRANCH   6  24
BRANCH   8  26
ATOM     26  O   UNL     1      10.435  18.581  64.167  1.00  0.00    -0.508 OA
ATOM     27  H   UNL     1      10.993  19.067  63.474  1.00  0.00     0.293 HD
ENDBRANCH   8  26
TORSDOF 6
ENDMDL
MODEL 4
REMARK VINA RESULT:    -4.778      1.169      1.844
REMARK INTER + INTRA:          -6.083
REMARK INTER:                  -5.760
REMARK INTRA:                  -0.322
REMARK UNBOUND:                -0.328
REMARK SMILES O=c1c(O)c(-c2ccc(O)c(O)c2)oc2cc(O)cc(O)c12
REMARK SMILES IDX 5 1 3 2 2 3 1 4 22 5 20 6 19 7 17 8 16 9 15 10 14 11 6 12
REMARK SMILES IDX 7 13 8 14 9 15 13 16 11 17 10 18 12 20 4 22 21 24 18 26
REMARK H PARENT 10 19 12 21 4 23 21 25 18 27
REMARK Flexibility Score: inf
ROOT
ATOM      1  C   UNL     1       7.933  12.390  61.987  1.00  0.00     0.180 A 
ATOM      2  C   UNL     1       8.608  13.613  62.161  1.00  0.00     0.208 A 
ATOM      3  C   UNL     1       7.868  14.751  62.525  1.00  0.00     0.238 A 
ATOM      4  O   UNL     1       8.460  15.855  62.673  1.00  0.00    -0.285 OA
ATOM      5  C   UNL     1       6.478  14.641  62.728  1.00  0.00     0.111 A 
ATOM      6  C   UNL     1       5.660  15.736  63.100  1.00  0.00     0.134 A 
ATOM      7  C   UNL     1       4.284  15.544  63.291  1.00  0.00     0.093 A 
ATOM      8  C   UNL     1       3.710  14.283  63.120  1.00  0.00     0.123 A 
ATOM      9  C   UNL     1       4.512  13.197  62.753  1.00  0.00     0.094 A 
ATOM     10  C   UNL     1       5.885  13.368  62.555  1.00  0.00     0.146 A 
ATOM     11  O   UNL     1       6.623  12.322  62.201  1.00  0.00    -0.452 OA
ENDROOT
BRANCH   1  12
ATOM     12  C   UNL     1       8.641  11.152  61.586  1.00  0.00     0.025 A 
ATOM     13  C   UNL     1       9.244  10.312  62.538  1.00  0.00     0.016 A 
ATOM     14  C   UNL     1       9.927   9.163  62.134  1.00  0.00     0.051 A 
ATOM     15  C   UNL     1      10.030   8.843  60.774  1.00  0.00     0.157 A 
ATOM     16  C   UNL     1       8.765  10.839  60.223  1.00  0.00     0.062 A 
ATOM     17  C   UNL     1       9.448   9.688  59.814  1.00  0.00     0.158 A 
BRANCH  15  18
ATOM     18  O   UNL     1      10.711   7.694  60.374  1.00  0.00    -0.504 OA
ATOM     19  H   UNL     1      11.422   7.268  60.957  1.00  0.00     0.293 HD
ENDBRANCH  15  18
BRANCH  17  20
ATOM     20  O   UNL     1       9.538   9.401  58.452  1.00  0.00    -0.504 OA
ATOM     21  H   UNL     1      10.376   9.592  57.917  1.00  0.00     0.293 HD
ENDBRANCH  17  20
ENDBRANCH   1  12
BRANCH   2  22
ATOM     22  O   UNL     1       9.994  13.685  62.003  1.00  0.00    -0.502 OA
ATOM     23  H   UNL     1      10.452  13.485  61.121  1.00  0.00     0.293 HD
ENDBRANCH   2  22
BRANCH   6  24
ATOM     24  O   UNL     1       6.204  17.009  63.279  1.00  0.00    -0.507 OA
ATOM     25  H   UNL     1       5.650  17.848  63.150  1.00  0.00     0.293 HD
ENDBRANCH   6  24
BRANCH   8  26
ATOM     26  O   UNL     1       2.341  14.119  63.318  1.00  0.00    -0.508 OA
ATOM     27  H   UNL     1       1.750  14.892  63.600  1.00  0.00     0.293 HD
ENDBRANCH   8  26
TORSDOF 6
ENDMDL
MODEL 5
REMARK VINA RESULT:    -4.763      2.873      4.035
REMARK INTER + INTRA:          -6.065
REMARK INTER:                  -5.741
REMARK INTRA:                  -0.324
REMARK UNBOUND:                -0.328
REMARK SMILES O=c1c(O)c(-c2ccc(O)c(O)c2)oc2cc(O)cc(O)c12
REMARK SMILES IDX 5 1 3 2 2 3 1 4 22 5 20 6 19 7 17 8 16 9 15 10 14 11 6 12
REMARK SMILES IDX 7 13 8 14 9 15 13 16 11 17 10 18 12 20 4 22 21 24 18 26
REMARK H PARENT 10 19 12 21 4 23 21 25 18 27
REMARK Flexibility Score: inf
ROOT
ATOM      1  C   UNL     1       7.433  12.396  63.016  1.00  0.00     0.180 A 
ATOM      2  C   UNL     1       6.083  12.753  62.840  1.00  0.00     0.208 A 
ATOM      3  C   UNL     1       5.321  13.106  63.966  1.00  0.00     0.238 A 
ATOM      4  O   UNL     1       4.107  13.416  63.822  1.00  0.00    -0.285 OA
ATOM      5  C   UNL     1       5.926  13.117  65.240  1.00  0.00     0.111 A 
ATOM      6  C   UNL     1       5.231  13.464  66.424  1.00  0.00     0.134 A 
ATOM      7  C   UNL     1       5.906  13.459  67.653  1.00  0.00     0.093 A 
ATOM      8  C   UNL     1       7.258  13.116  67.723  1.00  0.00     0.123 A 
ATOM      9  C   UNL     1       7.949  12.772  66.557  1.00  0.00     0.094 A 
ATOM     10  C   UNL     1       7.294  12.768  65.322  1.00  0.00     0.146 A 
ATOM     11  O   UNL     1       7.973  12.432  64.231  1.00  0.00    -0.452 OA
ENDROOT
BRANCH   1  12
ATOM     12  C   UNL     1       8.295  11.994  61.881  1.00  0.00     0.025 A 
ATOM     13  C   UNL     1       9.054  12.938  61.167  1.00  0.00     0.016 A 
ATOM     14  C   UNL     1       9.840  12.539  60.084  1.00  0.00     0.051 A 
ATOM     15  C   UNL     1       9.869  11.195  59.689  1.00  0.00     0.157 A 
ATOM     16  C   UNL     1       8.311  10.653  61.467  1.00  0.00     0.062 A 
ATOM     17  C   UNL     1       9.098  10.249  60.383  1.00  0.00     0.158 A 
BRANCH  15  18
ATOM     18  O   UNL     1      10.657  10.800  58.609  1.00  0.00    -0.504 OA
ATOM     19  H   UNL     1      10.419  11.052  57.657  1.00  0.00     0.293 HD
ENDBRANCH  15  18
BRANCH  17  20
ATOM     20  O   UNL     1       9.100   8.904  60.011  1.00  0.00    -0.504 OA
ATOM     21  H   UNL     1       8.345   8.277  60.257  1.00  0.00     0.293 HD
ENDBRANCH  17  20
ENDBRANCH   1  12
BRANCH   2  22
ATOM     22  O   UNL     1       5.521  12.783  61.562  1.00  0.00    -0.502 OA
ATOM     23  H   UNL     1       4.718  13.359  61.334  1.00  0.00     0.293 HD
ENDBRANCH   2  22
BRANCH   6  24
ATOM     24  O   UNL     1       3.880  13.812  66.388  1.00  0.00    -0.507 OA
ATOM     25  H   UNL     1       3.550  14.615  65.865  1.00  0.00     0.293 HD
ENDBRANCH   6  24
BRANCH   8  26
ATOM     26  O   UNL     1       7.905  13.120  68.957  1.00  0.00    -0.508 OA
ATOM     27  H   UNL     1       8.191  12.259  69.407  1.00  0.00     0.293 HD
ENDBRANCH   8  26
TORSDOF 6
ENDMDL
MODEL 6
REMARK VINA RESULT:    -4.729      9.355     11.101
REMARK INTER + INTRA:          -6.024
REMARK INTER:                  -5.742
REMARK INTRA:                  -0.282
REMARK UNBOUND:                -0.328
REMARK SMILES O=c1c(O)c(-c2ccc(O)c(O)c2)oc2cc(O)cc(O)c12
REMARK SMILES IDX 5 1 3 2 2 3 1 4 22 5 20 6 19 7 17 8 16 9 15 10 14 11 6 12
REMARK SMILES IDX 7 13 8 14 9 15 13 16 11 17 10 18 12 20 4 22 21 24 18 26
REMARK H PARENT 10 19 12 21 4 23 21 25 18 27
REMARK Flexibility Score: inf
ROOT
ATOM      1  C   UNL     1      -1.888  13.751  60.433  1.00  0.00     0.180 A 
ATOM      2  C   UNL     1      -1.046  14.853  60.677  1.00  0.00     0.208 A 
ATOM      3  C   UNL     1      -1.567  16.149  60.535  1.00  0.00     0.238 A 
ATOM      4  O   UNL     1      -0.820  17.144  60.740  1.00  0.00    -0.285 OA
ATOM      5  C   UNL     1      -2.919  16.321  60.175  1.00  0.00     0.111 A 
ATOM      6  C   UNL     1      -3.523  17.591  60.015  1.00  0.00     0.134 A 
ATOM      7  C   UNL     1      -4.878  17.678  59.663  1.00  0.00     0.093 A 
ATOM      8  C   UNL     1      -5.640  16.524  59.468  1.00  0.00     0.123 A 
ATOM      9  C   UNL     1      -5.049  15.266  59.624  1.00  0.00     0.094 A 
ATOM     10  C   UNL     1      -3.699  15.158  59.973  1.00  0.00     0.146 A 
ATOM     11  O   UNL     1      -3.162  13.951  60.109  1.00  0.00    -0.452 OA
ENDROOT
BRANCH   1  12
ATOM     12  C   UNL     1      -1.407  12.354  60.544  1.00  0.00     0.025 A 
ATOM     13  C   UNL     1      -1.126  11.584  59.402  1.00  0.00     0.016 A 
ATOM     14  C   UNL     1      -0.697  10.261  59.531  1.00  0.00     0.051 A 
ATOM     15  C   UNL     1      -0.556   9.684  60.800  1.00  0.00     0.157 A 
ATOM     16  C   UNL     1      -1.285  11.764  61.812  1.00  0.00     0.062 A 
ATOM     17  C   UNL     1      -0.855  10.439  61.945  1.00  0.00     0.158 A 
BRANCH  15  18
ATOM     18  O   UNL     1      -0.125   8.364  60.925  1.00  0.00    -0.504 OA
ATOM     19  H   UNL     1       0.640   8.110  61.540  1.00  0.00     0.293 HD
ENDBRANCH  15  18
BRANCH  17  20
ATOM     20  O   UNL     1      -0.731   9.892  63.223  1.00  0.00    -0.504 OA
ATOM     21  H   UNL     1      -0.538  10.463  64.036  1.00  0.00     0.293 HD
ENDBRANCH  17  20
ENDBRANCH   1  12
BRANCH   2  22
ATOM     22  O   UNL     1       0.276  14.656  61.082  1.00  0.00    -0.502 OA
ATOM     23  H   UNL     1       1.000  15.350  60.930  1.00  0.00     0.293 HD
ENDBRANCH   2  22
BRANCH   6  24
ATOM     24  O   UNL     1      -2.789  18.763  60.202  1.00  0.00    -0.507 OA
ATOM     25  H   UNL     1      -1.793  18.745  60.388  1.00  0.00     0.293 HD
ENDBRANCH   6  24
BRANCH   8  26
ATOM     26  O   UNL     1      -6.984  16.639  59.120  1.00  0.00    -0.508 OA
ATOM     27  H   UNL     1      -7.700  16.095  59.587  1.00  0.00     0.293 HD
ENDBRANCH   8  26
TORSDOF 6
ENDMDL
MODEL 7
REMARK VINA RESULT:    -4.724      9.600     12.455
REMARK INTER + INTRA:          -6.018
REMARK INTER:                  -5.828
REMARK INTRA:                  -0.191
REMARK UNBOUND:                -0.328
REMARK SMILES O=c1c(O)c(-c2ccc(O)c(O)c2)oc2cc(O)cc(O)c12
REMARK SMILES IDX 5 1 3 2 2 3 1 4 22 5 20 6 19 7 17 8 16 9 15 10 14 11 6 12
REMARK SMILES IDX 7 13 8 14 9 15 13 16 11 17 10 18 12 20 4 22 21 24 18 26
REMARK H PARENT 10 19 12 21 4 23 21 25 18 27
REMARK Flexibility Score: inf
ROOT
ATOM      1  C   UNL     1      -1.505   8.071  61.216  1.00  0.00     0.180 A 
ATOM      2  C   UNL     1      -2.325   6.980  60.866  1.00  0.00     0.208 A 
ATOM      3  C   UNL     1      -1.919   5.684  61.224  1.00  0.00     0.238 A 
ATOM      4  O   UNL     1      -2.640   4.699  60.906  1.00  0.00    -0.285 OA
ATOM      5  C   UNL     1      -0.719   5.503  61.940  1.00  0.00     0.111 A 
ATOM      6  C   UNL     1      -0.241   4.232  62.343  1.00  0.00     0.134 A 
ATOM      7  C   UNL     1       0.960   4.136  63.061  1.00  0.00     0.093 A 
ATOM      8  C   UNL     1       1.691   5.281  63.385  1.00  0.00     0.123 A 
ATOM      9  C   UNL     1       1.224   6.539  62.990  1.00  0.00     0.094 A 
ATOM     10  C   UNL     1       0.031   6.656  62.272  1.00  0.00     0.146 A 
ATOM     11  O   UNL     1      -0.387   7.862  61.904  1.00  0.00    -0.452 OA
ENDROOT
BRANCH   1  12
ATOM     12  C   UNL     1      -1.856   9.464  60.858  1.00  0.00     0.025 A 
ATOM     13  C   UNL     1      -2.970  10.108  61.423  1.00  0.00     0.016 A 
ATOM     14  C   UNL     1      -3.295  11.414  61.051  1.00  0.00     0.051 A 
ATOM     15  C   UNL     1      -2.521  12.092  60.100  1.00  0.00     0.157 A 
ATOM     16  C   UNL     1      -1.096  10.140  59.889  1.00  0.00     0.062 A 
ATOM     17  C   UNL     1      -1.418  11.449  59.514  1.00  0.00     0.158 A 
BRANCH  15  18
ATOM     18  O   UNL     1      -2.847  13.397  59.733  1.00  0.00    -0.504 OA
ATOM     19  H   UNL     1      -2.156  14.028  59.344  1.00  0.00     0.293 HD
ENDBRANCH  15  18
BRANCH  17  20
ATOM     20  O   UNL     1      -0.632  12.094  58.560  1.00  0.00    -0.504 OA
ATOM     21  H   UNL     1      -0.065  11.581  57.895  1.00  0.00     0.293 HD
ENDBRANCH  17  20
ENDBRANCH   1  12
BRANCH   2  22
ATOM     22  O   UNL     1      -3.535   7.191  60.201  1.00  0.00    -0.502 OA
ATOM     23  H   UNL     1      -3.885   8.118  59.989  1.00  0.00     0.293 HD
ENDBRANCH   2  22
BRANCH   6  24
ATOM     24  O   UNL     1      -0.948   3.069  62.035  1.00  0.00    -0.507 OA
ATOM     25  H   UNL     1      -0.978   2.698  61.092  1.00  0.00     0.293 HD
ENDBRANCH   6  24
BRANCH   8  26
ATOM     26  O   UNL     1       2.879   5.157  64.100  1.00  0.00    -0.508 OA
ATOM     27  H   UNL     1       3.780   5.148  63.634  1.00  0.00     0.293 HD
ENDBRANCH   8  26
TORSDOF 6
ENDMDL
MODEL 8
REMARK VINA RESULT:    -4.719      2.190      2.743
REMARK INTER + INTRA:          -6.012
REMARK INTER:                  -5.679
REMARK INTRA:                  -0.332
REMARK UNBOUND:                -0.328
REMARK SMILES O=c1c(O)c(-c2ccc(O)c(O)c2)oc2cc(O)cc(O)c12
REMARK SMILES IDX 5 1 3 2 2 3 1 4 22 5 20 6 19 7 17 8 16 9 15 10 14 11 6 12
REMARK SMILES IDX 7 13 8 14 9 15 13 16 11 17 10 18 12 20 4 22 21 24 18 26
REMARK H PARENT 10 19 12 21 4 23 21 25 18 27
REMARK Flexibility Score: inf
ROOT
ATOM      1  C   UNL     1       7.621  12.246  62.578  1.00  0.00     0.180 A 
ATOM      2  C   UNL     1       8.054  12.359  63.913  1.00  0.00     0.208 A 
ATOM      3  C   UNL     1       7.142  12.792  64.889  1.00  0.00     0.238 A 
ATOM      4  O   UNL     1       7.522  12.907  66.086  1.00  0.00    -0.285 OA
ATOM      5  C   UNL     1       5.813  13.083  64.519  1.00  0.00     0.111 A 
ATOM      6  C   UNL     1       4.831  13.521  65.441  1.00  0.00     0.134 A 
ATOM      7  C   UNL     1       3.527  13.782  64.996  1.00  0.00     0.093 A 
ATOM      8  C   UNL     1       3.185  13.615  63.652  1.00  0.00     0.123 A 
ATOM      9  C   UNL     1       4.151  13.184  62.737  1.00  0.00     0.094 A 
ATOM     10  C   UNL     1       5.457  12.920  63.160  1.00  0.00     0.146 A 
ATOM     11  O   UNL     1       6.356  12.516  62.270  1.00  0.00    -0.452 OA
ENDROOT
BRANCH   1  12
ATOM     12  C   UNL     1       8.528  11.814  61.490  1.00  0.00     0.025 A 
ATOM     13  C   UNL     1       9.344  12.734  60.809  1.00  0.00     0.016 A 
ATOM     14  C   UNL     1      10.174  12.307  59.770  1.00  0.00     0.051 A 
ATOM     15  C   UNL     1      10.191  10.960  59.386  1.00  0.00     0.157 A 
ATOM     16  C   UNL     1       8.533  10.469  61.088  1.00  0.00     0.062 A 
ATOM     17  C   UNL     1       9.363  10.038  60.047  1.00  0.00     0.158 A 
BRANCH  15  18
ATOM     18  O   UNL     1      11.022  10.537  58.350  1.00  0.00    -0.504 OA
ATOM     19  H   UNL     1      10.683  10.452  57.398  1.00  0.00     0.293 HD
ENDBRANCH  15  18
BRANCH  17  20
ATOM     20  O   UNL     1       9.351   8.690  59.685  1.00  0.00    -0.504 OA
ATOM     21  H   UNL     1       9.714   8.370  58.796  1.00  0.00     0.293 HD
ENDBRANCH  17  20
ENDBRANCH   1  12
BRANCH   2  22
ATOM     22  O   UNL     1       9.363  12.016  64.262  1.00  0.00    -0.502 OA
ATOM     23  H   UNL     1       9.735  11.083  64.126  1.00  0.00     0.293 HD
ENDBRANCH   2  22
BRANCH   6  24
ATOM     24  O   UNL     1       5.141  13.698  66.790  1.00  0.00    -0.507 OA
ATOM     25  H   UNL     1       5.793  13.090  67.271  1.00  0.00     0.293 HD
ENDBRANCH   6  24
BRANCH   8  26
ATOM     26  O   UNL     1       1.882  13.881  63.237  1.00  0.00    -0.508 OA
ATOM     27  H   UNL     1       1.203  13.138  63.117  1.00  0.00     0.293 HD
ENDBRANCH   8  26
TORSDOF 6
ENDMDL
MODEL 9
REMARK VINA RESULT:    -4.683     12.673     15.068
REMARK INTER + INTRA:          -5.968
REMARK INTER:                  -5.663
REMARK INTRA:                  -0.306
REMARK UNBOUND:                -0.328
REMARK SMILES O=c1c(O)c(-c2ccc(O)c(O)c2)oc2cc(O)cc(O)c12
REMARK SMILES IDX 5 1 3 2 2 3 1 4 22 5 20 6 19 7 17 8 16 9 15 10 14 11 6 12
REMARK SMILES IDX 7 13 8 14 9 15 13 16 11 17 10 18 12 20 4 22 21 24 18 26
REMARK H PARENT 10 19 12 21 4 23 21 25 18 27
REMARK Flexibility Score: inf
ROOT
ATOM      1  C   UNL     1       3.470  13.079  75.179  1.00  0.00     0.180 A 
ATOM      2  C   UNL     1       2.402  12.231  75.531  1.00  0.00     0.208 A 
ATOM      3  C   UNL     1       1.154  12.801  75.834  1.00  0.00     0.238 A 
ATOM      4  O   UNL     1       0.193  12.053  76.161  1.00  0.00    -0.285 OA
ATOM      5  C   UNL     1       0.991  14.200  75.760  1.00  0.00     0.111 A 
ATOM      6  C   UNL     1      -0.232  14.853  76.045  1.00  0.00     0.134 A 
ATOM      7  C   UNL     1      -0.316  16.249  75.940  1.00  0.00     0.093 A 
ATOM      8  C   UNL     1       0.795  17.004  75.556  1.00  0.00     0.123 A 
ATOM      9  C   UNL     1       2.006  16.364  75.274  1.00  0.00     0.094 A 
ATOM     10  C   UNL     1       2.111  14.974  75.375  1.00  0.00     0.146 A 
ATOM     11  O   UNL     1       3.275  14.392  75.106  1.00  0.00    -0.452 OA
ENDROOT
BRANCH   1  12
ATOM     12  C   UNL     1       4.819  12.554  74.865  1.00  0.00     0.025 A 
ATOM     13  C   UNL     1       5.222  12.320  73.539  1.00  0.00     0.016 A 
ATOM     14  C   UNL     1       6.491  11.802  73.269  1.00  0.00     0.051 A 
ATOM     15  C   UNL     1       7.369  11.497  74.317  1.00  0.00     0.157 A 
ATOM     16  C   UNL     1       5.694  12.227  75.913  1.00  0.00     0.062 A 
ATOM     17  C   UNL     1       6.965  11.707  75.646  1.00  0.00     0.158 A 
BRANCH  15  18
ATOM     18  O   UNL     1       8.635  10.982  74.043  1.00  0.00    -0.504 OA
ATOM     19  H   UNL     1       8.844  10.525  73.163  1.00  0.00     0.293 HD
ENDBRANCH  15  18
BRANCH  17  20
ATOM     20  O   UNL     1       7.813  11.408  76.712  1.00  0.00    -0.504 OA
ATOM     21  H   UNL     1       8.491  12.072  77.063  1.00  0.00     0.293 HD
ENDBRANCH  17  20
ENDBRANCH   1  12
BRANCH   2  22
ATOM     22  O   UNL     1       2.575  10.846  75.549  1.00  0.00    -0.502 OA
ATOM     23  H   UNL     1       1.859  10.204  75.227  1.00  0.00     0.293 HD
ENDBRANCH   2  22
BRANCH   6  24
ATOM     24  O   UNL     1      -1.360  14.128  76.430  1.00  0.00    -0.507 OA
ATOM     25  H   UNL     1      -1.288  13.188  76.801  1.00  0.00     0.293 HD
ENDBRANCH   6  24
BRANCH   8  26
ATOM     26  O   UNL     1       0.684  18.389  75.459  1.00  0.00    -0.508 OA
ATOM     27  H   UNL     1       1.360  19.006  75.895  1.00  0.00     0.293 HD
ENDBRANCH   8  26
TORSDOF 6
ENDMDL
