MODEL 1
REMARK VINA RESULT:    -7.706      0.000      0.000
REMARK INTER + INTRA:          -9.381
REMARK INTER:                  -9.283
REMARK INTRA:                  -0.098
REMARK UNBOUND:                -0.098
REMARK SMILES O=c1c(O)c(-c2ccc(O)c(O)c2)oc2cc(O)cc(O)c12
REMARK SMILES IDX 5 1 3 2 2 3 1 4 22 5 20 6 19 7 17 8 16 9 15 10 14 11 6 12
REMARK SMILES IDX 7 13 8 14 9 15 13 16 11 17 10 18 12 20 4 22 21 24 18 26
REMARK H PARENT 10 19 12 21 4 23 21 25 18 27
REMARK Flexibility Score: inf
ROOT
ATOM      1  C   UNL     1     -15.434   8.449 -12.529  1.00  0.00     0.180 A 
ATOM      2  C   UNL     1     -16.590   8.286 -11.746  1.00  0.00     0.208 A 
ATOM      3  C   UNL     1     -17.776   7.858 -12.364  1.00  0.00     0.238 A 
ATOM      4  O   UNL     1     -18.786   7.643 -11.645  1.00  0.00    -0.285 OA
ATOM      5  C   UNL     1     -17.808   7.653 -13.765  1.00  0.00     0.111 A 
ATOM      6  C   UNL     1     -18.967   7.262 -14.503  1.00  0.00     0.134 A 
ATOM      7  C   UNL     1     -18.853   6.985 -15.870  1.00  0.00     0.093 A 
ATOM      8  C   UNL     1     -17.641   7.145 -16.540  1.00  0.00     0.123 A 
ATOM      9  C   UNL     1     -16.515   7.579 -15.840  1.00  0.00     0.094 A 
ATOM     10  C   UNL     1     -16.586   7.826 -14.467  1.00  0.00     0.146 A 
ATOM     11  O   UNL     1     -15.486   8.216 -13.836  1.00  0.00    -0.452 OA
ENDROOT
BRANCH   1  12
ATOM     12  C   UNL     1     -14.143   8.882 -11.949  1.00  0.00     0.025 A 
ATOM     13  C   UNL     1     -13.547   8.111 -10.938  1.00  0.00     0.016 A 
ATOM     14  C   UNL     1     -12.340   8.511 -10.361  1.00  0.00     0.051 A 
ATOM     15  C   UNL     1     -11.718   9.695 -10.772  1.00  0.00     0.157 A 
ATOM     16  C   UNL     1     -13.527  10.083 -12.345  1.00  0.00     0.062 A 
ATOM     17  C   UNL     1     -12.316  10.487 -11.766  1.00  0.00     0.158 A 
BRANCH  15  18
ATOM     18  O   UNL     1     -10.512  10.068 -10.178  1.00  0.00    -0.504 OA
ATOM     19  H   UNL     1     -10.461  10.385  -9.218  1.00  0.00     0.293 HD
ENDBRANCH  15  18
BRANCH  17  20
ATOM     20  O   UNL     1     -11.709  11.676 -12.169  1.00  0.00    -0.504 OA
ATOM     21  H   UNL     1     -12.228  12.401 -12.649  1.00  0.00     0.293 HD
ENDBRANCH  17  20
ENDBRANCH   1  12
BRANCH   2  22
ATOM     22  O   UNL     1     -16.557   8.568 -10.378  1.00  0.00    -0.502 OA
ATOM     23  H   UNL     1     -15.743   8.381  -9.804  1.00  0.00     0.293 HD
ENDBRANCH   2  22
BRANCH   6  24
ATOM     24  O   UNL     1     -20.248   7.157 -13.951  1.00  0.00    -0.507 OA
ATOM     25  H   UNL     1     -20.526   7.540 -13.060  1.00  0.00     0.293 HD
ENDBRANCH   6  24
BRANCH   8  26
ATOM     26  O   UNL     1     -17.569   6.876 -17.905  1.00  0.00    -0.508 OA
ATOM     27  H   UNL     1     -18.361   7.029 -18.518  1.00  0.00     0.293 HD
ENDBRANCH   8  26
TORSDOF 6
ENDMDL
MODEL 2
REMARK VINA RESULT:    -7.266      0.712      1.491
REMARK INTER + INTRA:          -8.850
REMARK INTER:                  -8.662
REMARK INTRA:                  -0.188
REMARK UNBOUND:                -0.098
REMARK SMILES O=c1c(O)c(-c2ccc(O)c(O)c2)oc2cc(O)cc(O)c12
REMARK SMILES IDX 5 1 3 2 2 3 1 4 22 5 20 6 19 7 17 8 16 9 15 10 14 11 6 12
REMARK SMILES IDX 7 13 8 14 9 15 13 16 11 17 10 18 12 20 4 22 21 24 18 26
REMARK H PARENT 10 19 12 21 4 23 21 25 18 27
REMARK Flexibility Score: inf
ROOT
ATOM      1  C   UNL     1     -15.191   8.648 -12.277  1.00  0.00     0.180 A 
ATOM      2  C   UNL     1     -16.353   8.513 -11.498  1.00  0.00     0.208 A 
ATOM      3  C   UNL     1     -17.534   8.062 -12.109  1.00  0.00     0.238 A 
ATOM      4  O   UNL     1     -18.550   7.873 -11.391  1.00  0.00    -0.285 OA
ATOM      5  C   UNL     1     -17.554   7.804 -13.502  1.00  0.00     0.111 A 
ATOM      6  C   UNL     1     -18.706   7.386 -14.235  1.00  0.00     0.134 A 
ATOM      7  C   UNL     1     -18.581   7.058 -15.589  1.00  0.00     0.093 A 
ATOM      8  C   UNL     1     -17.363   7.194 -16.254  1.00  0.00     0.123 A 
ATOM      9  C   UNL     1     -16.243   7.655 -15.562  1.00  0.00     0.094 A 
ATOM     10  C   UNL     1     -16.326   7.953 -14.200  1.00  0.00     0.146 A 
ATOM     11  O   UNL     1     -15.232   8.367 -13.575  1.00  0.00    -0.452 OA
ENDROOT
BRANCH   1  12
ATOM     12  C   UNL     1     -13.905   9.104 -11.702  1.00  0.00     0.025 A 
ATOM     13  C   UNL     1     -13.323  10.293 -12.169  1.00  0.00     0.016 A 
ATOM     14  C   UNL     1     -12.101  10.732 -11.656  1.00  0.00     0.051 A 
ATOM     15  C   UNL     1     -11.433   9.983 -10.683  1.00  0.00     0.157 A 
ATOM     16  C   UNL     1     -13.221   8.340 -10.739  1.00  0.00     0.062 A 
ATOM     17  C   UNL     1     -11.992   8.778 -10.224  1.00  0.00     0.158 A 
BRANCH  15  18
ATOM     18  O   UNL     1     -10.213  10.447 -10.188  1.00  0.00    -0.504 OA
ATOM     19  H   UNL     1      -9.327  10.142 -10.571  1.00  0.00     0.293 HD
ENDBRANCH  15  18
BRANCH  17  20
ATOM     20  O   UNL     1     -11.324   8.019  -9.265  1.00  0.00    -0.504 OA
ATOM     21  H   UNL     1     -11.595   7.065  -9.060  1.00  0.00     0.293 HD
ENDBRANCH  17  20
ENDBRANCH   1  12
BRANCH   2  22
ATOM     22  O   UNL     1     -16.332   8.846 -10.141  1.00  0.00    -0.502 OA
ATOM     23  H   UNL     1     -15.497   8.761  -9.574  1.00  0.00     0.293 HD
ENDBRANCH   2  22
BRANCH   6  24
ATOM     24  O   UNL     1     -19.992   7.300 -13.691  1.00  0.00    -0.507 OA
ATOM     25  H   UNL     1     -20.536   6.454 -13.625  1.00  0.00     0.293 HD
ENDBRANCH   6  24
BRANCH   8  26
ATOM     26  O   UNL     1     -17.280   6.875 -17.608  1.00  0.00    -0.508 OA
ATOM     27  H   UNL     1     -16.468   6.406 -17.993  1.00  0.00     0.293 HD
ENDBRANCH   8  26
TORSDOF 6
ENDMDL
MODEL 3
REMARK VINA RESULT:    -6.958      1.180      1.583
REMARK INTER + INTRA:          -8.480
REMARK INTER:                  -8.235
REMARK INTRA:                  -0.245
REMARK UNBOUND:                -0.098
REMARK SMILES O=c1c(O)c(-c2ccc(O)c(O)c2)oc2cc(O)cc(O)c12
REMARK SMILES IDX 5 1 3 2 2 3 1 4 22 5 20 6 19 7 17 8 16 9 15 10 14 11 6 12
REMARK SMILES IDX 7 13 8 14 9 15 13 16 11 17 10 18 12 20 4 22 21 24 18 26
REMARK H PARENT 10 19 12 21 4 23 21 25 18 27
REMARK Flexibility Score: inf
ROOT
ATOM      1  C   UNL     1     -14.488   8.779 -11.366  1.00  0.00     0.180 A 
ATOM      2  C   UNL     1     -15.588   8.752 -10.492  1.00  0.00     0.208 A 
ATOM      3  C   UNL     1     -16.838   8.341 -10.983  1.00  0.00     0.238 A 
ATOM      4  O   UNL     1     -17.801   8.248 -10.178  1.00  0.00    -0.285 OA
ATOM      5  C   UNL     1     -16.986   8.018 -12.354  1.00  0.00     0.111 A 
ATOM      6  C   UNL     1     -18.215   7.633 -12.970  1.00  0.00     0.134 A 
ATOM      7  C   UNL     1     -18.220   7.233 -14.311  1.00  0.00     0.093 A 
ATOM      8  C   UNL     1     -17.055   7.265 -15.077  1.00  0.00     0.123 A 
ATOM      9  C   UNL     1     -15.858   7.691 -14.500  1.00  0.00     0.094 A 
ATOM     10  C   UNL     1     -15.813   8.060 -13.154  1.00  0.00     0.146 A 
ATOM     11  O   UNL     1     -14.650   8.438 -12.640  1.00  0.00    -0.452 OA
ENDROOT
BRANCH   1  12
ATOM     12  C   UNL     1     -13.136   9.186 -10.920  1.00  0.00     0.025 A 
ATOM     13  C   UNL     1     -12.388   8.319 -10.108  1.00  0.00     0.016 A 
ATOM     14  C   UNL     1     -11.119   8.689  -9.657  1.00  0.00     0.051 A 
ATOM     15  C   UNL     1     -10.585   9.937  -9.996  1.00  0.00     0.157 A 
ATOM     16  C   UNL     1     -12.606  10.448 -11.242  1.00  0.00     0.062 A 
ATOM     17  C   UNL     1     -11.333  10.823 -10.789  1.00  0.00     0.158 A 
BRANCH  15  18
ATOM     18  O   UNL     1      -9.314  10.279  -9.533  1.00  0.00    -0.504 OA
ATOM     19  H   UNL     1      -8.676   9.589  -9.154  1.00  0.00     0.293 HD
ENDBRANCH  15  18
BRANCH  17  20
ATOM     20  O   UNL     1     -10.813  12.074 -11.117  1.00  0.00    -0.504 OA
ATOM     21  H   UNL     1     -10.696  12.800 -10.421  1.00  0.00     0.293 HD
ENDBRANCH  17  20
ENDBRANCH   1  12
BRANCH   2  22
ATOM     22  O   UNL     1     -15.438   9.148  -9.161  1.00  0.00    -0.502 OA
ATOM     23  H   UNL     1     -16.214   9.175  -8.511  1.00  0.00     0.293 HD
ENDBRANCH   2  22
BRANCH   6  24
ATOM     24  O   UNL     1     -19.455   7.650 -12.323  1.00  0.00    -0.507 OA
ATOM     25  H   UNL     1     -19.973   6.831 -12.046  1.00  0.00     0.293 HD
ENDBRANCH   6  24
BRANCH   8  26
ATOM     26  O   UNL     1     -17.100   6.876 -16.414  1.00  0.00    -0.508 OA
ATOM     27  H   UNL     1     -17.939   6.482 -16.824  1.00  0.00     0.293 HD
ENDBRANCH   8  26
TORSDOF 6
ENDMDL
MODEL 4
REMARK VINA RESULT:    -6.930      1.831      7.704
REMARK INTER + INTRA:          -8.446
REMARK INTER:                  -8.188
REMARK INTRA:                  -0.258
REMARK UNBOUND:                -0.098
REMARK SMILES O=c1c(O)c(-c2ccc(O)c(O)c2)oc2cc(O)cc(O)c12
REMARK SMILES IDX 5 1 3 2 2 3 1 4 22 5 20 6 19 7 17 8 16 9 15 10 14 11 6 12
REMARK SMILES IDX 7 13 8 14 9 15 13 16 11 17 10 18 12 20 4 22 21 24 18 26
REMARK H PARENT 10 19 12 21 4 23 21 25 18 27
REMARK Flexibility Score: inf
ROOT
ATOM      1  C   UNL     1     -13.952   9.028 -11.402  1.00  0.00     0.180 A 
ATOM      2  C   UNL     1     -13.348  10.191 -11.908  1.00  0.00     0.208 A 
ATOM      3  C   UNL     1     -12.151  10.644 -11.329  1.00  0.00     0.238 A 
ATOM      4  O   UNL     1     -11.577  11.643 -11.835  1.00  0.00    -0.285 OA
ATOM      5  C   UNL     1     -11.604   9.962 -10.215  1.00  0.00     0.111 A 
ATOM      6  C   UNL     1     -10.420  10.358  -9.521  1.00  0.00     0.134 A 
ATOM      7  C   UNL     1      -9.915   9.545  -8.500  1.00  0.00     0.093 A 
ATOM      8  C   UNL     1     -10.581   8.386  -8.104  1.00  0.00     0.123 A 
ATOM      9  C   UNL     1     -11.768   8.018  -8.739  1.00  0.00     0.094 A 
ATOM     10  C   UNL     1     -12.278   8.787  -9.787  1.00  0.00     0.146 A 
ATOM     11  O   UNL     1     -13.398   8.390 -10.377  1.00  0.00    -0.452 OA
ENDROOT
BRANCH   1  12
ATOM     12  C   UNL     1     -15.206   8.480 -11.969  1.00  0.00     0.025 A 
ATOM     13  C   UNL     1     -15.173   7.822 -13.208  1.00  0.00     0.016 A 
ATOM     14  C   UNL     1     -16.345   7.316 -13.772  1.00  0.00     0.051 A 
ATOM     15  C   UNL     1     -17.571   7.473 -13.116  1.00  0.00     0.157 A 
ATOM     16  C   UNL     1     -16.442   8.656 -11.321  1.00  0.00     0.062 A 
ATOM     17  C   UNL     1     -17.621   8.150 -11.887  1.00  0.00     0.158 A 
BRANCH  15  18
ATOM     18  O   UNL     1     -18.725   6.955 -13.703  1.00  0.00    -0.504 OA
ATOM     19  H   UNL     1     -18.810   6.831 -14.705  1.00  0.00     0.293 HD
ENDBRANCH  15  18
BRANCH  17  20
ATOM     20  O   UNL     1     -18.841   8.323 -11.235  1.00  0.00    -0.504 OA
ATOM     21  H   UNL     1     -18.893   8.713 -10.301  1.00  0.00     0.293 HD
ENDBRANCH  17  20
ENDBRANCH   1  12
BRANCH   2  22
ATOM     22  O   UNL     1     -13.945  10.893 -12.958  1.00  0.00    -0.502 OA
ATOM     23  H   UNL     1     -14.262  11.851 -12.861  1.00  0.00     0.293 HD
ENDBRANCH   2  22
BRANCH   6  24
ATOM     24  O   UNL     1      -9.723  11.543  -9.775  1.00  0.00    -0.507 OA
ATOM     25  H   UNL     1      -8.992  11.648 -10.463  1.00  0.00     0.293 HD
ENDBRANCH   6  24
BRANCH   8  26
ATOM     26  O   UNL     1     -10.057   7.610  -7.072  1.00  0.00    -0.508 OA
ATOM     27  H   UNL     1     -10.355   7.735  -6.112  1.00  0.00     0.293 HD
ENDBRANCH   8  26
TORSDOF 6
ENDMDL
MODEL 5
REMARK VINA RESULT:    -6.772      2.443      8.074
REMARK INTER + INTRA:          -8.256
REMARK INTER:                  -8.040
REMARK INTRA:                  -0.216
REMARK UNBOUND:                -0.098
REMARK SMILES O=c1c(O)c(-c2ccc(O)c(O)c2)oc2cc(O)cc(O)c12
REMARK SMILES IDX 5 1 3 2 2 3 1 4 22 5 20 6 19 7 17 8 16 9 15 10 14 11 6 12
REMARK SMILES IDX 7 13 8 14 9 15 13 16 11 17 10 18 12 20 4 22 21 24 18 26
REMARK H PARENT 10 19 12 21 4 23 21 25 18 27
REMARK Flexibility Score: inf
ROOT
ATOM      1  C   UNL     1     -12.912   9.385 -10.561  1.00  0.00     0.180 A 
ATOM      2  C   UNL     1     -12.048   8.559  -9.822  1.00  0.00     0.208 A 
ATOM      3  C   UNL     1     -10.845   9.096  -9.334  1.00  0.00     0.238 A 
ATOM      4  O   UNL     1     -10.112   8.372  -8.611  1.00  0.00    -0.285 OA
ATOM      5  C   UNL     1     -10.495  10.434  -9.638  1.00  0.00     0.111 A 
ATOM      6  C   UNL     1      -9.281  11.068  -9.234  1.00  0.00     0.134 A 
ATOM      7  C   UNL     1      -9.091  12.428  -9.502  1.00  0.00     0.093 A 
ATOM      8  C   UNL     1     -10.039  13.162 -10.214  1.00  0.00     0.123 A 
ATOM      9  C   UNL     1     -11.204  12.540 -10.661  1.00  0.00     0.094 A 
ATOM     10  C   UNL     1     -11.441  11.193 -10.376  1.00  0.00     0.146 A 
ATOM     11  O   UNL     1     -12.572  10.646 -10.802  1.00  0.00    -0.452 OA
ENDROOT
BRANCH   1  12
ATOM     12  C   UNL     1     -14.204   8.896 -11.095  1.00  0.00     0.025 A 
ATOM     13  C   UNL     1     -14.394   8.828 -12.484  1.00  0.00     0.016 A 
ATOM     14  C   UNL     1     -15.611   8.390 -13.011  1.00  0.00     0.051 A 
ATOM     15  C   UNL     1     -16.661   8.029 -12.161  1.00  0.00     0.157 A 
ATOM     16  C   UNL     1     -15.268   8.554 -10.241  1.00  0.00     0.062 A 
ATOM     17  C   UNL     1     -16.491   8.115 -10.769  1.00  0.00     0.158 A 
BRANCH  15  18
ATOM     18  O   UNL     1     -17.864   7.594 -12.716  1.00  0.00    -0.504 OA
ATOM     19  H   UNL     1     -17.896   6.900 -13.453  1.00  0.00     0.293 HD
ENDBRANCH  15  18
BRANCH  17  20
ATOM     20  O   UNL     1     -17.539   7.772  -9.916  1.00  0.00    -0.504 OA
ATOM     21  H   UNL     1     -17.983   8.458  -9.317  1.00  0.00     0.293 HD
ENDBRANCH  17  20
ENDBRANCH   1  12
BRANCH   2  22
ATOM     22  O   UNL     1     -12.376   7.219  -9.598  1.00  0.00    -0.502 OA
ATOM     23  H   UNL     1     -12.292   6.512 -10.319  1.00  0.00     0.293 HD
ENDBRANCH   2  22
BRANCH   6  24
ATOM     24  O   UNL     1      -8.227  10.407  -8.595  1.00  0.00    -0.507 OA
ATOM     25  H   UNL     1      -7.804   9.549  -8.916  1.00  0.00     0.293 HD
ENDBRANCH   6  24
BRANCH   8  26
ATOM     26  O   UNL     1      -9.808  14.511 -10.477  1.00  0.00    -0.508 OA
ATOM     27  H   UNL     1     -10.145  14.951 -11.325  1.00  0.00     0.293 HD
ENDBRANCH   8  26
TORSDOF 6
ENDMDL
MODEL 6
REMARK VINA RESULT:    -6.585      3.334      5.740
REMARK INTER + INTRA:          -8.031
REMARK INTER:                  -7.827
REMARK INTRA:                  -0.204
REMARK UNBOUND:                -0.098
REMARK SMILES O=c1c(O)c(-c2ccc(O)c(O)c2)oc2cc(O)cc(O)c12
REMARK SMILES IDX 5 1 3 2 2 3 1 4 22 5 20 6 19 7 17 8 16 9 15 10 14 11 6 12
REMARK SMILES IDX 7 13 8 14 9 15 13 16 11 17 10 18 12 20 4 22 21 24 18 26
REMARK H PARENT 10 19 12 21 4 23 21 25 18 27
REMARK Flexibility Score: inf
ROOT
ATOM      1  C   UNL     1     -12.012  10.063 -10.145  1.00  0.00     0.180 A 
ATOM      2  C   UNL     1     -12.533  10.123 -11.449  1.00  0.00     0.208 A 
ATOM      3  C   UNL     1     -13.759   9.495 -11.722  1.00  0.00     0.238 A 
ATOM      4  O   UNL     1     -14.255   9.616 -12.872  1.00  0.00    -0.285 OA
ATOM      5  C   UNL     1     -14.421   8.767 -10.704  1.00  0.00     0.111 A 
ATOM      6  C   UNL     1     -15.645   8.053 -10.880  1.00  0.00     0.134 A 
ATOM      7  C   UNL     1     -16.263   7.458  -9.774  1.00  0.00     0.093 A 
ATOM      8  C   UNL     1     -15.671   7.493  -8.512  1.00  0.00     0.123 A 
ATOM      9  C   UNL     1     -14.447   8.141  -8.339  1.00  0.00     0.094 A 
ATOM     10  C   UNL     1     -13.825   8.778  -9.415  1.00  0.00     0.146 A 
ATOM     11  O   UNL     1     -12.673   9.400  -9.202  1.00  0.00    -0.452 OA
ENDROOT
BRANCH   1  12
ATOM     12  C   UNL     1     -10.734  10.712  -9.776  1.00  0.00     0.025 A 
ATOM     13  C   UNL     1     -10.653  12.114  -9.753  1.00  0.00     0.016 A 
ATOM     14  C   UNL     1      -9.453  12.748  -9.428  1.00  0.00     0.051 A 
ATOM     15  C   UNL     1      -8.311  11.995  -9.137  1.00  0.00     0.157 A 
ATOM     16  C   UNL     1      -9.579   9.956  -9.504  1.00  0.00     0.062 A 
ATOM     17  C   UNL     1      -8.372  10.592  -9.180  1.00  0.00     0.158 A 
BRANCH  15  18
ATOM     18  O   UNL     1      -7.126  12.657  -8.815  1.00  0.00    -0.504 OA
ATOM     19  H   UNL     1      -6.356  12.187  -8.352  1.00  0.00     0.293 HD
ENDBRANCH  15  18
BRANCH  17  20
ATOM     20  O   UNL     1      -7.233   9.835  -8.906  1.00  0.00    -0.504 OA
ATOM     21  H   UNL     1      -7.295   8.919  -8.478  1.00  0.00     0.293 HD
ENDBRANCH  17  20
ENDBRANCH   1  12
BRANCH   2  22
ATOM     22  O   UNL     1     -11.826  10.781 -12.458  1.00  0.00    -0.502 OA
ATOM     23  H   UNL     1     -10.817  10.730 -12.537  1.00  0.00     0.293 HD
ENDBRANCH   2  22
BRANCH   6  24
ATOM     24  O   UNL     1     -16.280   7.879 -12.114  1.00  0.00    -0.507 OA
ATOM     25  H   UNL     1     -16.711   8.615 -12.652  1.00  0.00     0.293 HD
ENDBRANCH   6  24
BRANCH   8  26
ATOM     26  O   UNL     1     -16.306   6.875  -7.437  1.00  0.00    -0.508 OA
ATOM     27  H   UNL     1     -16.643   7.407  -6.643  1.00  0.00     0.293 HD
ENDBRANCH   8  26
TORSDOF 6
ENDMDL
MODEL 7
REMARK VINA RESULT:    -6.552      1.714      3.627
REMARK INTER + INTRA:          -7.991
REMARK INTER:                  -7.755
REMARK INTRA:                  -0.236
REMARK UNBOUND:                -0.098
REMARK SMILES O=c1c(O)c(-c2ccc(O)c(O)c2)oc2cc(O)cc(O)c12
REMARK SMILES IDX 5 1 3 2 2 3 1 4 22 5 20 6 19 7 17 8 16 9 15 10 14 11 6 12
REMARK SMILES IDX 7 13 8 14 9 15 13 16 11 17 10 18 12 20 4 22 21 24 18 26
REMARK H PARENT 10 19 12 21 4 23 21 25 18 27
REMARK Flexibility Score: inf
ROOT
ATOM      1  C   UNL     1     -15.855   8.468 -11.713  1.00  0.00     0.180 A 
ATOM      2  C   UNL     1     -16.291   7.962 -12.949  1.00  0.00     0.208 A 
ATOM      3  C   UNL     1     -17.654   7.671 -13.123  1.00  0.00     0.238 A 
ATOM      4  O   UNL     1     -18.049   7.290 -14.256  1.00  0.00    -0.285 OA
ATOM      5  C   UNL     1     -18.554   7.836 -12.043  1.00  0.00     0.111 A 
ATOM      6  C   UNL     1     -19.948   7.529 -12.092  1.00  0.00     0.134 A 
ATOM      7  C   UNL     1     -20.761   7.833 -10.995  1.00  0.00     0.093 A 
ATOM      8  C   UNL     1     -20.223   8.371  -9.826  1.00  0.00     0.123 A 
ATOM      9  C   UNL     1     -18.853   8.624  -9.746  1.00  0.00     0.094 A 
ATOM     10  C   UNL     1     -18.021   8.368 -10.839  1.00  0.00     0.146 A 
ATOM     11  O   UNL     1     -16.728   8.643 -10.728  1.00  0.00    -0.452 OA
ENDROOT
BRANCH   1  12
ATOM     12  C   UNL     1     -14.437   8.812 -11.458  1.00  0.00     0.025 A 
ATOM     13  C   UNL     1     -13.699   8.055 -10.534  1.00  0.00     0.016 A 
ATOM     14  C   UNL     1     -12.367   8.374 -10.262  1.00  0.00     0.051 A 
ATOM     15  C   UNL     1     -11.757   9.462 -10.895  1.00  0.00     0.157 A 
ATOM     16  C   UNL     1     -13.829   9.919 -12.077  1.00  0.00     0.062 A 
ATOM     17  C   UNL     1     -12.492  10.242 -11.803  1.00  0.00     0.158 A 
BRANCH  15  18
ATOM     18  O   UNL     1     -10.424   9.756 -10.604  1.00  0.00    -0.504 OA
ATOM     19  H   UNL     1      -9.669   9.129 -10.855  1.00  0.00     0.293 HD
ENDBRANCH  15  18
BRANCH  17  20
ATOM     20  O   UNL     1     -11.894  11.337 -12.425  1.00  0.00    -0.504 OA
ATOM     21  H   UNL     1     -12.440  12.018 -12.941  1.00  0.00     0.293 HD
ENDBRANCH  17  20
ENDBRANCH   1  12
BRANCH   2  22
ATOM     22  O   UNL     1     -15.374   7.735 -13.979  1.00  0.00    -0.502 OA
ATOM     23  H   UNL     1     -14.874   6.859 -14.078  1.00  0.00     0.293 HD
ENDBRANCH   2  22
BRANCH   6  24
ATOM     24  O   UNL     1     -20.575   6.908 -13.177  1.00  0.00    -0.507 OA
ATOM     25  H   UNL     1     -21.522   6.560 -13.175  1.00  0.00     0.293 HD
ENDBRANCH   6  24
BRANCH   8  26
ATOM     26  O   UNL     1     -21.060   8.645  -8.747  1.00  0.00    -0.508 OA
ATOM     27  H   UNL     1     -20.924   9.463  -8.164  1.00  0.00     0.293 HD
ENDBRANCH   8  26
TORSDOF 6
ENDMDL
MODEL 8
REMARK VINA RESULT:    -6.517      2.243      3.783
REMARK INTER + INTRA:          -7.949
REMARK INTER:                  -7.637
REMARK INTRA:                  -0.312
REMARK UNBOUND:                -0.098
REMARK SMILES O=c1c(O)c(-c2ccc(O)c(O)c2)oc2cc(O)cc(O)c12
REMARK SMILES IDX 5 1 3 2 2 3 1 4 22 5 20 6 19 7 17 8 16 9 15 10 14 11 6 12
REMARK SMILES IDX 7 13 8 14 9 15 13 16 11 17 10 18 12 20 4 22 21 24 18 26
REMARK H PARENT 10 19 12 21 4 23 21 25 18 27
REMARK Flexibility Score: inf
ROOT
ATOM      1  C   UNL     1     -13.049   9.050 -10.143  1.00  0.00     0.180 A 
ATOM      2  C   UNL     1     -13.827   8.473  -9.124  1.00  0.00     0.208 A 
ATOM      3  C   UNL     1     -15.055   7.880  -9.459  1.00  0.00     0.238 A 
ATOM      4  O   UNL     1     -15.711   7.300  -8.554  1.00  0.00    -0.285 OA
ATOM      5  C   UNL     1     -15.517   7.921 -10.797  1.00  0.00     0.111 A 
ATOM      6  C   UNL     1     -16.767   7.391 -11.242  1.00  0.00     0.134 A 
ATOM      7  C   UNL     1     -17.071   7.394 -12.608  1.00  0.00     0.093 A 
ATOM      8  C   UNL     1     -16.202   7.963 -13.538  1.00  0.00     0.123 A 
ATOM      9  C   UNL     1     -15.003   8.532 -13.109  1.00  0.00     0.094 A 
ATOM     10  C   UNL     1     -14.653   8.511 -11.757  1.00  0.00     0.146 A 
ATOM     11  O   UNL     1     -13.494   9.044 -11.394  1.00  0.00    -0.452 OA
ENDROOT
BRANCH   1  12
ATOM     12  C   UNL     1     -11.737   9.681  -9.871  1.00  0.00     0.025 A 
ATOM     13  C   UNL     1     -11.645  11.080  -9.806  1.00  0.00     0.016 A 
ATOM     14  C   UNL     1     -10.415  11.698  -9.571  1.00  0.00     0.051 A 
ATOM     15  C   UNL     1      -9.256  10.930  -9.416  1.00  0.00     0.157 A 
ATOM     16  C   UNL     1     -10.568   8.911  -9.737  1.00  0.00     0.062 A 
ATOM     17  C   UNL     1      -9.331   9.530  -9.503  1.00  0.00     0.158 A 
BRANCH  15  18
ATOM     18  O   UNL     1      -8.042  11.575  -9.182  1.00  0.00    -0.504 OA
ATOM     19  H   UNL     1      -7.630  11.626  -8.258  1.00  0.00     0.293 HD
ENDBRANCH  15  18
BRANCH  17  20
ATOM     20  O   UNL     1      -8.178   8.759  -9.365  1.00  0.00    -0.504 OA
ATOM     21  H   UNL     1      -8.162   7.925  -8.791  1.00  0.00     0.293 HD
ENDBRANCH  17  20
ENDBRANCH   1  12
BRANCH   2  22
ATOM     22  O   UNL     1     -13.389   8.511  -7.798  1.00  0.00    -0.502 OA
ATOM     23  H   UNL     1     -14.027   8.611  -7.017  1.00  0.00     0.293 HD
ENDBRANCH   2  22
BRANCH   6  24
ATOM     24  O   UNL     1     -17.749   6.879 -10.388  1.00  0.00    -0.507 OA
ATOM     25  H   UNL     1     -17.616   6.679  -9.408  1.00  0.00     0.293 HD
ENDBRANCH   6  24
BRANCH   8  26
ATOM     26  O   UNL     1     -16.545   7.963 -14.888  1.00  0.00    -0.508 OA
ATOM     27  H   UNL     1     -17.494   7.781 -15.195  1.00  0.00     0.293 HD
ENDBRANCH   8  26
TORSDOF 6
ENDMDL
MODEL 9
REMARK VINA RESULT:    -6.444      3.857      9.398
REMARK INTER + INTRA:          -7.861
REMARK INTER:                  -7.758
REMARK INTRA:                  -0.103
REMARK UNBOUND:                -0.098
REMARK SMILES O=c1c(O)c(-c2ccc(O)c(O)c2)oc2cc(O)cc(O)c12
REMARK SMILES IDX 5 1 3 2 2 3 1 4 22 5 20 6 19 7 17 8 16 9 15 10 14 11 6 12
REMARK SMILES IDX 7 13 8 14 9 15 13 16 11 17 10 18 12 20 4 22 21 24 18 26
REMARK H PARENT 10 19 12 21 4 23 21 25 18 27
REMARK Flexibility Score: inf
ROOT
ATOM      1  C   UNL     1     -11.106  10.581  -9.656  1.00  0.00     0.180 A 
ATOM      2  C   UNL     1      -9.728  10.305  -9.658  1.00  0.00     0.208 A 
ATOM      3  C   UNL     1      -8.847  11.235  -9.083  1.00  0.00     0.238 A 
ATOM      4  O   UNL     1      -7.623  10.948  -9.021  1.00  0.00    -0.285 OA
ATOM      5  C   UNL     1      -9.348  12.454  -8.565  1.00  0.00     0.111 A 
ATOM      6  C   UNL     1      -8.542  13.489  -8.000  1.00  0.00     0.134 A 
ATOM      7  C   UNL     1      -9.157  14.605  -7.422  1.00  0.00     0.093 A 
ATOM      8  C   UNL     1     -10.543  14.757  -7.445  1.00  0.00     0.123 A 
ATOM      9  C   UNL     1     -11.337  13.779  -8.043  1.00  0.00     0.094 A 
ATOM     10  C   UNL     1     -10.756  12.634  -8.594  1.00  0.00     0.146 A 
ATOM     11  O   UNL     1     -11.550  11.719  -9.133  1.00  0.00    -0.452 OA
ENDROOT
BRANCH   1  12
ATOM     12  C   UNL     1     -12.098   9.643 -10.230  1.00  0.00     0.025 A 
ATOM     13  C   UNL     1     -12.199   8.343  -9.712  1.00  0.00     0.016 A 
ATOM     14  C   UNL     1     -13.112   7.435 -10.250  1.00  0.00     0.051 A 
ATOM     15  C   UNL     1     -13.928   7.805 -11.325  1.00  0.00     0.157 A 
ATOM     16  C   UNL     1     -12.903  10.007 -11.325  1.00  0.00     0.062 A 
ATOM     17  C   UNL     1     -13.820   9.096 -11.868  1.00  0.00     0.158 A 
BRANCH  15  18
ATOM     18  O   UNL     1     -14.832   6.877 -11.841  1.00  0.00    -0.504 OA
ATOM     19  H   UNL     1     -14.864   5.918 -11.515  1.00  0.00     0.293 HD
ENDBRANCH  15  18
BRANCH  17  20
ATOM     20  O   UNL     1     -14.619   9.467 -12.949  1.00  0.00    -0.504 OA
ATOM     21  H   UNL     1     -14.766   8.848 -13.738  1.00  0.00     0.293 HD
ENDBRANCH  17  20
ENDBRANCH   1  12
BRANCH   2  22
ATOM     22  O   UNL     1      -9.247   9.131 -10.243  1.00  0.00    -0.502 OA
ATOM     23  H   UNL     1      -9.792   8.277 -10.276  1.00  0.00     0.293 HD
ENDBRANCH   2  22
BRANCH   6  24
ATOM     24  O   UNL     1      -7.143  13.482  -8.002  1.00  0.00    -0.507 OA
ATOM     25  H   UNL     1      -6.569  12.667  -7.851  1.00  0.00     0.293 HD
ENDBRANCH   6  24
BRANCH   8  26
ATOM     26  O   UNL     1     -11.120  15.890  -6.875  1.00  0.00    -0.508 OA
ATOM     27  H   UNL     1     -11.875  16.387  -7.332  1.00  0.00     0.293 HD
ENDBRANCH   8  26
TORSDOF 6
ENDMDL
