MODEL 1
REMARK VINA RESULT:    -4.339      0.000      0.000
REMARK INTER + INTRA:         -10.844
REMARK INTER:                  -8.397
REMARK INTRA:                  -2.447
REMARK UNBOUND:                -2.447
REMARK SMILES CCCCCCCCCCCCCCCCCC(=O)[O-]
REMARK SMILES IDX 10 1 11 2 12 3 13 4 14 5 15 6 16 7 17 8 18 9 19 10 20 11
REMARK SMILES IDX 9 12 8 13 7 14 6 15 5 16 4 17 3 18 2 19 1 20
REMARK H PARENT
REMARK Flexibility Score: inf
ROOT
ATOM      1  C   UNL     1     -26.510  67.513  85.020  1.00  0.00     0.000 C 
ENDROOT
BRANCH   1   2
ATOM      2  C   UNL     1     -27.560  66.516  84.501  1.00  0.00     0.000 C 
BRANCH   2   3
ATOM      3  C   UNL     1     -28.496  67.139  83.453  1.00  0.00     0.000 C 
BRANCH   3   4
ATOM      4  C   UNL     1     -28.220  66.625  82.031  1.00  0.00     0.000 C 
BRANCH   4   5
ATOM      5  C   UNL     1     -28.187  65.092  81.997  1.00  0.00     0.000 C 
BRANCH   5   6
ATOM      6  C   UNL     1     -29.541  64.502  82.417  1.00  0.00     0.000 C 
BRANCH   6   7
ATOM      7  C   UNL     1     -29.417  63.084  83.006  1.00  0.00     0.006 C 
BRANCH   7   8
ATOM      8  C   UNL     1     -28.252  62.908  83.992  1.00  0.00     0.053 C 
BRANCH   8   9
ATOM      9  C   UNL     1     -27.657  61.536  83.922  1.00  0.00     0.041 C 
ATOM     10  O   UNL     1     -26.725  61.209  84.703  1.00  0.00    -0.550 OA
ATOM     11  O   UNL     1     -28.157  60.606  83.019  1.00  0.00    -0.550 OA
ENDBRANCH   8   9
ENDBRANCH   7   8
ENDBRANCH   6   7
ENDBRANCH   5   6
ENDBRANCH   4   5
ENDBRANCH   3   4
ENDBRANCH   2   3
ENDBRANCH   1   2
BRANCH   1  12
ATOM     12  C   UNL     1     -27.122  68.641  85.873  1.00  0.00     0.000 C 
BRANCH  12  13
ATOM     13  C   UNL     1     -28.092  68.179  86.976  1.00  0.00    -0.000 C 
BRANCH  13  14
ATOM     14  C   UNL     1     -29.343  69.068  87.085  1.00  0.00    -0.000 C 
BRANCH  14  15
ATOM     15  C   UNL     1     -30.460  68.633  86.122  1.00  0.00    -0.000 C 
BRANCH  15  16
ATOM     16  C   UNL     1     -31.703  68.099  86.857  1.00  0.00    -0.000 C 
BRANCH  16  17
ATOM     17  C   UNL     1     -32.297  66.850  86.185  1.00  0.00    -0.000 C 
BRANCH  17  18
ATOM     18  C   UNL     1     -31.278  66.117  85.297  1.00  0.00    -0.000 C 
BRANCH  18  19
ATOM     19  C   UNL     1     -30.782  64.807  85.928  1.00  0.00    -0.003 C 
ATOM     20  C   UNL     1     -29.485  64.982  86.717  1.00  0.00     0.004 C 
ENDBRANCH  18  19
ENDBRANCH  17  18
ENDBRANCH  16  17
ENDBRANCH  15  16
ENDBRANCH  14  15
ENDBRANCH  13  14
ENDBRANCH  12  13
ENDBRANCH   1  12
TORSDOF 16
ENDMDL
MODEL 2
REMARK VINA RESULT:    -4.230      1.659      4.329
REMARK INTER + INTRA:         -10.633
REMARK INTER:                  -8.716
REMARK INTRA:                  -1.917
REMARK UNBOUND:                -2.447
REMARK SMILES CCCCCCCCCCCCCCCCCC(=O)[O-]
REMARK SMILES IDX 10 1 11 2 12 3 13 4 14 5 15 6 16 7 17 8 18 9 19 10 20 11
REMARK SMILES IDX 9 12 8 13 7 14 6 15 5 16 4 17 3 18 2 19 1 20
REMARK H PARENT
REMARK Flexibility Score: inf
ROOT
ATOM      1  C   UNL     1     -30.523  68.780  86.230  1.00  0.00     0.000 C 
ENDROOT
BRANCH   1   2
ATOM      2  C   UNL     1     -29.327  69.050  87.158  1.00  0.00     0.000 C 
BRANCH   2   3
ATOM      3  C   UNL     1     -28.166  68.072  86.921  1.00  0.00     0.000 C 
BRANCH   3   4
ATOM      4  C   UNL     1     -27.146  68.596  85.899  1.00  0.00     0.000 C 
BRANCH   4   5
ATOM      5  C   UNL     1     -26.422  67.438  85.201  1.00  0.00     0.000 C 
BRANCH   5   6
ATOM      6  C   UNL     1     -27.425  66.435  84.611  1.00  0.00     0.000 C 
BRANCH   6   7
ATOM      7  C   UNL     1     -28.228  67.016  83.432  1.00  0.00     0.006 C 
BRANCH   7   8
ATOM      8  C   UNL     1     -29.434  66.164  83.008  1.00  0.00     0.053 C 
BRANCH   8   9
ATOM      9  C   UNL     1     -29.059  65.116  82.007  1.00  0.00     0.041 C 
ATOM     10  O   UNL     1     -29.853  64.172  81.750  1.00  0.00    -0.550 OA
ATOM     11  O   UNL     1     -27.848  65.200  81.331  1.00  0.00    -0.550 OA
ENDBRANCH   8   9
ENDBRANCH   7   8
ENDBRANCH   6   7
ENDBRANCH   5   6
ENDBRANCH   4   5
ENDBRANCH   3   4
ENDBRANCH   2   3
ENDBRANCH   1   2
BRANCH   1  12
ATOM     12  C   UNL     1     -31.626  67.938  86.901  1.00  0.00     0.000 C 
BRANCH  12  13
ATOM     13  C   UNL     1     -32.170  66.772  86.056  1.00  0.00    -0.000 C 
BRANCH  13  14
ATOM     14  C   UNL     1     -31.057  65.889  85.466  1.00  0.00    -0.000 C 
BRANCH  14  15
ATOM     15  C   UNL     1     -30.197  65.221  86.550  1.00  0.00    -0.000 C 
BRANCH  15  16
ATOM     16  C   UNL     1     -30.355  63.690  86.574  1.00  0.00    -0.000 C 
BRANCH  16  17
ATOM     17  C   UNL     1     -30.095  63.045  85.203  1.00  0.00    -0.000 C 
BRANCH  17  18
ATOM     18  C   UNL     1     -28.599  62.985  84.854  1.00  0.00    -0.000 C 
BRANCH  18  19
ATOM     19  C   UNL     1     -28.266  61.838  83.887  1.00  0.00    -0.003 C 
ATOM     20  C   UNL     1     -27.019  61.057  84.298  1.00  0.00     0.004 C 
ENDBRANCH  18  19
ENDBRANCH  17  18
ENDBRANCH  16  17
ENDBRANCH  15  16
ENDBRANCH  14  15
ENDBRANCH  13  14
ENDBRANCH  12  13
ENDBRANCH   1  12
TORSDOF 16
ENDMDL
MODEL 3
REMARK VINA RESULT:    -4.210      1.643      4.843
REMARK INTER + INTRA:         -10.594
REMARK INTER:                  -8.426
REMARK INTRA:                  -2.168
REMARK UNBOUND:                -2.447
REMARK SMILES CCCCCCCCCCCCCCCCCC(=O)[O-]
REMARK SMILES IDX 10 1 11 2 12 3 13 4 14 5 15 6 16 7 17 8 18 9 19 10 20 11
REMARK SMILES IDX 9 12 8 13 7 14 6 15 5 16 4 17 3 18 2 19 1 20
REMARK H PARENT
REMARK Flexibility Score: inf
ROOT
ATOM      1  C   UNL     1     -26.543  67.380  85.112  1.00  0.00     0.000 C 
ENDROOT
BRANCH   1   2
ATOM      2  C   UNL     1     -27.196  68.595  85.791  1.00  0.00     0.000 C 
BRANCH   2   3
ATOM      3  C   UNL     1     -28.111  68.195  86.959  1.00  0.00     0.000 C 
BRANCH   3   4
ATOM      4  C   UNL     1     -29.398  69.031  87.019  1.00  0.00     0.000 C 
BRANCH   4   5
ATOM      5  C   UNL     1     -30.427  68.531  85.997  1.00  0.00     0.000 C 
BRANCH   5   6
ATOM      6  C   UNL     1     -31.680  67.985  86.697  1.00  0.00     0.000 C 
BRANCH   6   7
ATOM      7  C   UNL     1     -32.081  66.586  86.195  1.00  0.00     0.006 C 
BRANCH   7   8
ATOM      8  C   UNL     1     -30.986  65.862  85.396  1.00  0.00     0.053 C 
BRANCH   8   9
ATOM      9  C   UNL     1     -30.308  64.799  86.203  1.00  0.00     0.041 C 
ATOM     10  O   UNL     1     -29.327  65.091  86.937  1.00  0.00    -0.550 OA
ATOM     11  O   UNL     1     -30.783  63.494  86.175  1.00  0.00    -0.550 OA
ENDBRANCH   8   9
ENDBRANCH   7   8
ENDBRANCH   6   7
ENDBRANCH   5   6
ENDBRANCH   4   5
ENDBRANCH   3   4
ENDBRANCH   2   3
ENDBRANCH   1   2
BRANCH   1  12
ATOM     12  C   UNL     1     -27.555  66.499  84.354  1.00  0.00     0.000 C 
BRANCH  12  13
ATOM     13  C   UNL     1     -28.442  67.240  83.337  1.00  0.00    -0.000 C 
BRANCH  13  14
ATOM     14  C   UNL     1     -28.175  66.812  81.885  1.00  0.00    -0.000 C 
BRANCH  14  15
ATOM     15  C   UNL     1     -28.174  65.285  81.711  1.00  0.00    -0.000 C 
BRANCH  15  16
ATOM     16  C   UNL     1     -29.586  64.677  81.787  1.00  0.00    -0.000 C 
BRANCH  16  17
ATOM     17  C   UNL     1     -29.685  63.533  82.809  1.00  0.00    -0.000 C 
BRANCH  17  18
ATOM     18  C   UNL     1     -28.360  63.287  83.549  1.00  0.00    -0.000 C 
BRANCH  18  19
ATOM     19  C   UNL     1     -28.367  61.976  84.349  1.00  0.00    -0.003 C 
ATOM     20  C   UNL     1     -27.358  60.954  83.825  1.00  0.00     0.004 C 
ENDBRANCH  18  19
ENDBRANCH  17  18
ENDBRANCH  16  17
ENDBRANCH  15  16
ENDBRANCH  14  15
ENDBRANCH  13  14
ENDBRANCH  12  13
ENDBRANCH   1  12
TORSDOF 16
ENDMDL
MODEL 4
REMARK VINA RESULT:    -4.169      0.672      2.277
REMARK INTER + INTRA:         -10.516
REMARK INTER:                  -8.122
REMARK INTRA:                  -2.394
REMARK UNBOUND:                -2.447
REMARK SMILES CCCCCCCCCCCCCCCCCC(=O)[O-]
REMARK SMILES IDX 10 1 11 2 12 3 13 4 14 5 15 6 16 7 17 8 18 9 19 10 20 11
REMARK SMILES IDX 9 12 8 13 7 14 6 15 5 16 4 17 3 18 2 19 1 20
REMARK H PARENT
REMARK Flexibility Score: inf
ROOT
ATOM      1  C   UNL     1     -27.138  66.677  85.356  1.00  0.00     0.000 C 
ENDROOT
BRANCH   1   2
ATOM      2  C   UNL     1     -27.664  67.641  84.280  1.00  0.00     0.000 C 
BRANCH   2   3
ATOM      3  C   UNL     1     -28.680  66.975  83.338  1.00  0.00     0.000 C 
BRANCH   3   4
ATOM      4  C   UNL     1     -28.071  66.596  81.980  1.00  0.00     0.000 C 
BRANCH   4   5
ATOM      5  C   UNL     1     -28.250  65.100  81.695  1.00  0.00     0.000 C 
BRANCH   5   6
ATOM      6  C   UNL     1     -29.379  64.506  82.550  1.00  0.00     0.000 C 
BRANCH   6   7
ATOM      7  C   UNL     1     -29.241  62.986  82.751  1.00  0.00     0.006 C 
BRANCH   7   8
ATOM      8  C   UNL     1     -28.563  62.582  84.069  1.00  0.00     0.053 C 
BRANCH   8   9
ATOM      9  C   UNL     1     -27.682  61.382  83.906  1.00  0.00     0.041 C 
ATOM     10  O   UNL     1     -26.667  61.237  84.638  1.00  0.00    -0.550 OA
ATOM     11  O   UNL     1     -28.001  60.407  82.970  1.00  0.00    -0.550 OA
ENDBRANCH   8   9
ENDBRANCH   7   8
ENDBRANCH   6   7
ENDBRANCH   5   6
ENDBRANCH   4   5
ENDBRANCH   3   4
ENDBRANCH   2   3
ENDBRANCH   1   2
BRANCH   1  12
ATOM     12  C   UNL     1     -27.968  65.383  85.461  1.00  0.00     0.000 C 
BRANCH  12  13
ATOM     13  C   UNL     1     -29.011  65.359  86.594  1.00  0.00    -0.000 C 
BRANCH  13  14
ATOM     14  C   UNL     1     -30.402  64.906  86.118  1.00  0.00    -0.000 C 
BRANCH  14  15
ATOM     15  C   UNL     1     -31.167  66.022  85.388  1.00  0.00    -0.000 C 
BRANCH  15  16
ATOM     16  C   UNL     1     -32.193  66.729  86.290  1.00  0.00    -0.000 C 
BRANCH  16  17
ATOM     17  C   UNL     1     -31.655  68.040  86.886  1.00  0.00    -0.000 C 
BRANCH  17  18
ATOM     18  C   UNL     1     -30.594  68.702  85.990  1.00  0.00    -0.000 C 
BRANCH  18  19
ATOM     19  C   UNL     1     -29.601  69.559  86.791  1.00  0.00    -0.003 C 
ATOM     20  C   UNL     1     -28.743  68.733  87.749  1.00  0.00     0.004 C 
ENDBRANCH  18  19
ENDBRANCH  17  18
ENDBRANCH  16  17
ENDBRANCH  15  16
ENDBRANCH  14  15
ENDBRANCH  13  14
ENDBRANCH  12  13
ENDBRANCH   1  12
TORSDOF 16
ENDMDL
MODEL 5
REMARK VINA RESULT:    -4.056      0.690      3.688
REMARK INTER + INTRA:         -10.297
REMARK INTER:                  -8.157
REMARK INTRA:                  -2.140
REMARK UNBOUND:                -2.447
REMARK SMILES CCCCCCCCCCCCCCCCCC(=O)[O-]
REMARK SMILES IDX 10 1 11 2 12 3 13 4 14 5 15 6 16 7 17 8 18 9 19 10 20 11
REMARK SMILES IDX 9 12 8 13 7 14 6 15 5 16 4 17 3 18 2 19 1 20
REMARK H PARENT
REMARK Flexibility Score: inf
ROOT
ATOM      1  C   UNL     1     -30.636  68.619  86.036  1.00  0.00     0.000 C 
ENDROOT
BRANCH   1   2
ATOM      2  C   UNL     1     -31.706  67.845  86.824  1.00  0.00     0.000 C 
BRANCH   2   3
ATOM      3  C   UNL     1     -32.121  66.540  86.126  1.00  0.00     0.000 C 
BRANCH   3   4
ATOM      4  C   UNL     1     -30.969  65.893  85.342  1.00  0.00     0.000 C 
BRANCH   4   5
ATOM      5  C   UNL     1     -30.216  64.876  86.209  1.00  0.00     0.000 C 
BRANCH   5   6
ATOM      6  C   UNL     1     -30.141  63.508  85.515  1.00  0.00     0.000 C 
BRANCH   6   7
ATOM      7  C   UNL     1     -28.736  63.192  84.970  1.00  0.00     0.006 C 
BRANCH   7   8
ATOM      8  C   UNL     1     -28.716  62.148  83.842  1.00  0.00     0.053 C 
BRANCH   8   9
ATOM      9  C   UNL     1     -27.544  61.223  83.952  1.00  0.00     0.041 C 
ATOM     10  O   UNL     1     -26.671  61.410  84.840  1.00  0.00    -0.550 OA
ATOM     11  O   UNL     1     -27.435  60.134  83.097  1.00  0.00    -0.550 OA
ENDBRANCH   8   9
ENDBRANCH   7   8
ENDBRANCH   6   7
ENDBRANCH   5   6
ENDBRANCH   4   5
ENDBRANCH   3   4
ENDBRANCH   2   3
ENDBRANCH   1   2
BRANCH   1  12
ATOM     12  C   UNL     1     -29.386  68.941  86.877  1.00  0.00     0.000 C 
BRANCH  12  13
ATOM     13  C   UNL     1     -28.246  67.910  86.784  1.00  0.00    -0.000 C 
BRANCH  13  14
ATOM     14  C   UNL     1     -27.012  68.447  86.039  1.00  0.00    -0.000 C 
BRANCH  14  15
ATOM     15  C   UNL     1     -26.444  67.434  85.032  1.00  0.00    -0.000 C 
BRANCH  15  16
ATOM     16  C   UNL     1     -27.516  66.471  84.489  1.00  0.00    -0.000 C 
BRANCH  16  17
ATOM     17  C   UNL     1     -28.099  66.933  83.143  1.00  0.00    -0.000 C 
BRANCH  17  18
ATOM     18  C   UNL     1     -28.309  65.768  82.161  1.00  0.00    -0.000 C 
BRANCH  18  19
ATOM     19  C   UNL     1     -29.714  65.155  82.266  1.00  0.00    -0.003 C 
ATOM     20  C   UNL     1     -29.995  64.122  81.175  1.00  0.00     0.004 C 
ENDBRANCH  18  19
ENDBRANCH  17  18
ENDBRANCH  16  17
ENDBRANCH  15  16
ENDBRANCH  14  15
ENDBRANCH  13  14
ENDBRANCH  12  13
ENDBRANCH   1  12
TORSDOF 16
ENDMDL
MODEL 6
REMARK VINA RESULT:    -3.981      2.815      4.851
REMARK INTER + INTRA:         -10.150
REMARK INTER:                  -8.364
REMARK INTRA:                  -1.786
REMARK UNBOUND:                -2.447
REMARK SMILES CCCCCCCCCCCCCCCCCC(=O)[O-]
REMARK SMILES IDX 10 1 11 2 12 3 13 4 14 5 15 6 16 7 17 8 18 9 19 10 20 11
REMARK SMILES IDX 9 12 8 13 7 14 6 15 5 16 4 17 3 18 2 19 1 20
REMARK H PARENT
REMARK Flexibility Score: inf
ROOT
ATOM      1  C   UNL     1     -28.870  63.483  84.543  1.00  0.00     0.000 C 
ENDROOT
BRANCH   1   2
ATOM      2  C   UNL     1     -29.179  63.357  83.042  1.00  0.00     0.000 C 
BRANCH   2   3
ATOM      3  C   UNL     1     -29.504  64.712  82.393  1.00  0.00     0.000 C 
BRANCH   3   4
ATOM      4  C   UNL     1     -28.280  65.363  81.731  1.00  0.00     0.000 C 
BRANCH   4   5
ATOM      5  C   UNL     1     -28.225  66.866  82.034  1.00  0.00     0.000 C 
BRANCH   5   6
ATOM      6  C   UNL     1     -28.436  67.135  83.531  1.00  0.00     0.000 C 
BRANCH   6   7
ATOM      7  C   UNL     1     -27.273  66.624  84.400  1.00  0.00     0.006 C 
BRANCH   7   8
ATOM      8  C   UNL     1     -27.498  66.779  85.912  1.00  0.00     0.053 C 
BRANCH   8   9
ATOM      9  C   UNL     1     -27.289  68.188  86.371  1.00  0.00     0.041 C 
ATOM     10  O   UNL     1     -27.915  68.628  87.372  1.00  0.00    -0.550 OA
ATOM     11  O   UNL     1     -26.376  69.005  85.717  1.00  0.00    -0.550 OA
ENDBRANCH   8   9
ENDBRANCH   7   8
ENDBRANCH   6   7
ENDBRANCH   5   6
ENDBRANCH   4   5
ENDBRANCH   3   4
ENDBRANCH   2   3
ENDBRANCH   1   2
BRANCH   1  12
ATOM     12  C   UNL     1     -29.984  62.902  85.436  1.00  0.00     0.000 C 
BRANCH  12  13
ATOM     13  C   UNL     1     -30.521  63.853  86.521  1.00  0.00    -0.000 C 
BRANCH  13  14
ATOM     14  C   UNL     1     -30.225  65.333  86.221  1.00  0.00    -0.000 C 
BRANCH  14  15
ATOM     15  C   UNL     1     -31.304  65.983  85.342  1.00  0.00    -0.000 C 
BRANCH  15  16
ATOM     16  C   UNL     1     -32.326  66.796  86.157  1.00  0.00    -0.000 C 
BRANCH  16  17
ATOM     17  C   UNL     1     -31.682  67.973  86.909  1.00  0.00    -0.000 C 
BRANCH  17  18
ATOM     18  C   UNL     1     -30.807  68.848  85.996  1.00  0.00    -0.000 C 
BRANCH  18  19
ATOM     19  C   UNL     1     -30.768  70.316  86.449  1.00  0.00    -0.003 C 
ATOM     20  C   UNL     1     -31.452  71.260  85.461  1.00  0.00     0.004 C 
ENDBRANCH  18  19
ENDBRANCH  17  18
ENDBRANCH  16  17
ENDBRANCH  15  16
ENDBRANCH  14  15
ENDBRANCH  13  14
ENDBRANCH  12  13
ENDBRANCH   1  12
TORSDOF 16
ENDMDL
MODEL 7
REMARK VINA RESULT:    -3.954      3.467      6.056
REMARK INTER + INTRA:         -10.098
REMARK INTER:                  -7.549
REMARK INTRA:                  -2.549
REMARK UNBOUND:                -2.447
REMARK SMILES CCCCCCCCCCCCCCCCCC(=O)[O-]
REMARK SMILES IDX 10 1 11 2 12 3 13 4 14 5 15 6 16 7 17 8 18 9 19 10 20 11
REMARK SMILES IDX 9 12 8 13 7 14 6 15 5 16 4 17 3 18 2 19 1 20
REMARK H PARENT
REMARK Flexibility Score: inf
ROOT
ATOM      1  C   UNL     1     -27.978  66.763  82.085  1.00  0.00     0.000 C 
ENDROOT
BRANCH   1   2
ATOM      2  C   UNL     1     -28.262  67.094  83.559  1.00  0.00     0.000 C 
BRANCH   2   3
ATOM      3  C   UNL     1     -27.277  66.405  84.518  1.00  0.00     0.000 C 
BRANCH   3   4
ATOM      4  C   UNL     1     -26.438  67.406  85.327  1.00  0.00     0.000 C 
BRANCH   4   5
ATOM      5  C   UNL     1     -27.285  68.607  85.764  1.00  0.00     0.000 C 
BRANCH   5   6
ATOM      6  C   UNL     1     -27.901  68.373  87.151  1.00  0.00     0.000 C 
BRANCH   6   7
ATOM      7  C   UNL     1     -29.336  68.917  87.266  1.00  0.00     0.006 C 
BRANCH   7   8
ATOM      8  C   UNL     1     -29.873  69.565  85.980  1.00  0.00     0.053 C 
BRANCH   8   9
ATOM      9  C   UNL     1     -31.249  70.124  86.163  1.00  0.00     0.041 C 
ATOM     10  O   UNL     1     -31.535  71.265  85.711  1.00  0.00    -0.550 OA
ATOM     11  O   UNL     1     -32.228  69.371  86.799  1.00  0.00    -0.550 OA
ENDBRANCH   8   9
ENDBRANCH   7   8
ENDBRANCH   6   7
ENDBRANCH   5   6
ENDBRANCH   4   5
ENDBRANCH   3   4
ENDBRANCH   2   3
ENDBRANCH   1   2
BRANCH   1  12
ATOM     12  C   UNL     1     -28.304  65.301  81.723  1.00  0.00     0.000 C 
BRANCH  12  13
ATOM     13  C   UNL     1     -29.597  64.742  82.344  1.00  0.00    -0.000 C 
BRANCH  13  14
ATOM     14  C   UNL     1     -29.407  63.353  82.976  1.00  0.00    -0.000 C 
BRANCH  14  15
ATOM     15  C   UNL     1     -29.013  63.429  84.460  1.00  0.00    -0.000 C 
BRANCH  15  16
ATOM     16  C   UNL     1     -30.140  62.961  85.399  1.00  0.00    -0.000 C 
BRANCH  16  17
ATOM     17  C   UNL     1     -30.196  63.769  86.706  1.00  0.00    -0.000 C 
BRANCH  17  18
ATOM     18  C   UNL     1     -29.813  65.245  86.504  1.00  0.00    -0.000 C 
BRANCH  18  19
ATOM     19  C   UNL     1     -31.042  66.160  86.386  1.00  0.00    -0.003 C 
ATOM     20  C   UNL     1     -31.463  66.404  84.937  1.00  0.00     0.004 C 
ENDBRANCH  18  19
ENDBRANCH  17  18
ENDBRANCH  16  17
ENDBRANCH  15  16
ENDBRANCH  14  15
ENDBRANCH  13  14
ENDBRANCH  12  13
ENDBRANCH   1  12
TORSDOF 16
ENDMDL
MODEL 8
REMARK VINA RESULT:    -3.878      3.589      6.286
REMARK INTER + INTRA:          -9.952
REMARK INTER:                  -7.893
REMARK INTRA:                  -2.059
REMARK UNBOUND:                -2.447
REMARK SMILES CCCCCCCCCCCCCCCCCC(=O)[O-]
REMARK SMILES IDX 10 1 11 2 12 3 13 4 14 5 15 6 16 7 17 8 18 9 19 10 20 11
REMARK SMILES IDX 9 12 8 13 7 14 6 15 5 16 4 17 3 18 2 19 1 20
REMARK H PARENT
REMARK Flexibility Score: inf
ROOT
ATOM      1  C   UNL     1     -29.268  63.485  83.263  1.00  0.00     0.000 C 
ENDROOT
BRANCH   1   2
ATOM      2  C   UNL     1     -28.953  63.624  84.762  1.00  0.00     0.000 C 
BRANCH   2   3
ATOM      3  C   UNL     1     -30.223  63.727  85.623  1.00  0.00     0.000 C 
BRANCH   3   4
ATOM      4  C   UNL     1     -30.300  65.042  86.413  1.00  0.00     0.000 C 
BRANCH   4   5
ATOM      5  C   UNL     1     -31.002  66.134  85.596  1.00  0.00     0.000 C 
BRANCH   5   6
ATOM      6  C   UNL     1     -32.151  66.768  86.395  1.00  0.00     0.000 C 
BRANCH   6   7
ATOM      7  C   UNL     1     -31.884  68.240  86.759  1.00  0.00     0.006 C 
BRANCH   7   8
ATOM      8  C   UNL     1     -31.079  69.016  85.705  1.00  0.00     0.053 C 
BRANCH   8   9
ATOM      9  C   UNL     1     -30.962  70.470  86.044  1.00  0.00     0.041 C 
ATOM     10  O   UNL     1     -30.252  70.839  87.017  1.00  0.00    -0.550 OA
ATOM     11  O   UNL     1     -31.608  71.420  85.264  1.00  0.00    -0.550 OA
ENDBRANCH   8   9
ENDBRANCH   7   8
ENDBRANCH   6   7
ENDBRANCH   5   6
ENDBRANCH   4   5
ENDBRANCH   3   4
ENDBRANCH   2   3
ENDBRANCH   1   2
BRANCH   1  12
ATOM     12  C   UNL     1     -29.484  64.842  82.566  1.00  0.00     0.000 C 
BRANCH  12  13
ATOM     13  C   UNL     1     -28.208  65.518  82.032  1.00  0.00    -0.000 C 
BRANCH  13  14
ATOM     14  C   UNL     1     -28.200  67.041  82.251  1.00  0.00    -0.000 C 
BRANCH  14  15
ATOM     15  C   UNL     1     -28.566  67.431  83.693  1.00  0.00    -0.000 C 
BRANCH  15  16
ATOM     16  C   UNL     1     -27.424  67.160  84.689  1.00  0.00    -0.000 C 
BRANCH  16  17
ATOM     17  C   UNL     1     -27.312  68.247  85.771  1.00  0.00    -0.000 C 
BRANCH  17  18
ATOM     18  C   UNL     1     -28.081  67.884  87.053  1.00  0.00    -0.000 C 
BRANCH  18  19
ATOM     19  C   UNL     1     -28.025  69.000  88.108  1.00  0.00    -0.003 C 
ATOM     20  C   UNL     1     -27.497  68.515  89.458  1.00  0.00     0.004 C 
ENDBRANCH  18  19
ENDBRANCH  17  18
ENDBRANCH  16  17
ENDBRANCH  15  16
ENDBRANCH  14  15
ENDBRANCH  13  14
ENDBRANCH  12  13
ENDBRANCH   1  12
TORSDOF 16
ENDMDL
MODEL 9
REMARK VINA RESULT:    -3.847      3.449      5.864
REMARK INTER + INTRA:          -9.891
REMARK INTER:                  -7.360
REMARK INTRA:                  -2.531
REMARK UNBOUND:                -2.447
REMARK SMILES CCCCCCCCCCCCCCCCCC(=O)[O-]
REMARK SMILES IDX 10 1 11 2 12 3 13 4 14 5 15 6 16 7 17 8 18 9 19 10 20 11
REMARK SMILES IDX 9 12 8 13 7 14 6 15 5 16 4 17 3 18 2 19 1 20
REMARK H PARENT
REMARK Flexibility Score: inf
ROOT
ATOM      1  C   UNL     1     -28.638  65.899  82.758  1.00  0.00     0.000 C 
ENDROOT
BRANCH   1   2
ATOM      2  C   UNL     1     -28.030  67.060  83.564  1.00  0.00     0.000 C 
BRANCH   2   3
ATOM      3  C   UNL     1     -27.165  66.572  84.737  1.00  0.00     0.000 C 
BRANCH   3   4
ATOM      4  C   UNL     1     -26.195  67.649  85.247  1.00  0.00     0.000 C 
BRANCH   4   5
ATOM      5  C   UNL     1     -26.932  68.699  86.088  1.00  0.00     0.000 C 
BRANCH   5   6
ATOM      6  C   UNL     1     -27.860  68.032  87.114  1.00  0.00     0.000 C 
BRANCH   6   7
ATOM      7  C   UNL     1     -29.190  68.786  87.295  1.00  0.00     0.006 C 
BRANCH   7   8
ATOM      8  C   UNL     1     -29.743  69.412  86.005  1.00  0.00     0.053 C 
BRANCH   8   9
ATOM      9  C   UNL     1     -31.143  69.915  86.178  1.00  0.00     0.041 C 
ATOM     10  O   UNL     1     -32.005  69.203  86.757  1.00  0.00    -0.550 OA
ATOM     11  O   UNL     1     -31.486  71.185  85.732  1.00  0.00    -0.550 OA
ENDBRANCH   8   9
ENDBRANCH   7   8
ENDBRANCH   6   7
ENDBRANCH   5   6
ENDBRANCH   4   5
ENDBRANCH   3   4
ENDBRANCH   2   3
ENDBRANCH   1   2
BRANCH   1  12
ATOM     12  C   UNL     1     -30.103  65.608  83.136  1.00  0.00     0.000 C 
BRANCH  12  13
ATOM     13  C   UNL     1     -30.762  66.644  84.064  1.00  0.00    -0.000 C 
BRANCH  13  14
ATOM     14  C   UNL     1     -31.202  66.048  85.412  1.00  0.00    -0.000 C 
BRANCH  14  15
ATOM     15  C   UNL     1     -30.061  65.311  86.131  1.00  0.00    -0.000 C 
BRANCH  15  16
ATOM     16  C   UNL     1     -30.449  63.883  86.555  1.00  0.00    -0.000 C 
BRANCH  16  17
ATOM     17  C   UNL     1     -30.077  62.829  85.499  1.00  0.00    -0.000 C 
BRANCH  17  18
ATOM     18  C   UNL     1     -28.652  63.020  84.953  1.00  0.00    -0.000 C 
BRANCH  18  19
ATOM     19  C   UNL     1     -28.322  62.041  83.815  1.00  0.00    -0.003 C 
ATOM     20  C   UNL     1     -27.192  61.076  84.172  1.00  0.00     0.004 C 
ENDBRANCH  18  19
ENDBRANCH  17  18
ENDBRANCH  16  17
ENDBRANCH  15  16
ENDBRANCH  14  15
ENDBRANCH  13  14
ENDBRANCH  12  13
ENDBRANCH   1  12
TORSDOF 16
ENDMDL
