MODEL 1
REMARK VINA RESULT:    -6.400      0.000      0.000
REMARK INTER + INTRA:          -7.993
REMARK INTER:                  -7.709
REMARK INTRA:                  -0.284
REMARK UNBOUND:                -0.284
REMARK SMILES O=c1c(O)c(-c2ccc(O)cc2O)oc2cc(O)cc(O)c12
REMARK SMILES IDX 5 1 3 2 2 3 1 4 22 5 20 6 19 7 17 8 16 9 15 10 14 11 6 12
REMARK SMILES IDX 8 13 7 14 9 15 11 16 12 17 10 18 13 20 4 22 21 24 18 26
REMARK H PARENT 10 19 13 21 4 23 21 25 18 27
REMARK Flexibility Score: inf
ROOT
ATOM      1  C   UNL     1      -6.353  25.420  33.817  1.00  0.00     0.184 A 
ATOM      2  C   UNL     1      -7.136  24.482  34.511  1.00  0.00     0.208 A 
ATOM      3  C   UNL     1      -7.499  23.290  33.866  1.00  0.00     0.238 A 
ATOM      4  O   UNL     1      -8.211  22.446  34.476  1.00  0.00    -0.285 OA
ATOM      5  C   UNL     1      -7.056  23.050  32.548  1.00  0.00     0.111 A 
ATOM      6  C   UNL     1      -7.374  21.873  31.828  1.00  0.00     0.134 A 
ATOM      7  C   UNL     1      -6.888  21.705  30.522  1.00  0.00     0.093 A 
ATOM      8  C   UNL     1      -6.091  22.688  29.927  1.00  0.00     0.123 A 
ATOM      9  C   UNL     1      -5.776  23.850  30.633  1.00  0.00     0.094 A 
ATOM     10  C   UNL     1      -6.251  24.038  31.933  1.00  0.00     0.146 A 
ATOM     11  O   UNL     1      -5.940  25.155  32.581  1.00  0.00    -0.451 OA
ENDROOT
BRANCH   1  12
ATOM     12  C   UNL     1      -5.946  26.700  34.433  1.00  0.00     0.063 A 
ATOM     13  C   UNL     1      -6.125  29.124  34.496  1.00  0.00     0.047 A 
ATOM     14  C   UNL     1      -6.483  27.897  33.933  1.00  0.00     0.020 A 
ATOM     15  C   UNL     1      -5.236  29.170  35.574  1.00  0.00     0.119 A 
ATOM     16  C   UNL     1      -4.713  27.980  36.095  1.00  0.00     0.093 A 
ATOM     17  C   UNL     1      -5.071  26.743  35.539  1.00  0.00     0.130 A 
BRANCH  15  18
ATOM     18  O   UNL     1      -4.884  30.401  36.123  1.00  0.00    -0.508 OA
ATOM     19  H   UNL     1      -5.585  31.087  36.377  1.00  0.00     0.293 HD
ENDBRANCH  15  18
BRANCH  17  20
ATOM     20  O   UNL     1      -4.582  25.563  36.097  1.00  0.00    -0.507 OA
ATOM     21  H   UNL     1      -5.082  24.685  36.011  1.00  0.00     0.293 HD
ENDBRANCH  17  20
ENDBRANCH   1  12
BRANCH   2  22
ATOM     22  O   UNL     1      -7.520  24.730  35.832  1.00  0.00    -0.502 OA
ATOM     23  H   UNL     1      -7.140  25.497  36.372  1.00  0.00     0.293 HD
ENDBRANCH   2  22
BRANCH   6  24
ATOM     24  O   UNL     1      -8.166  20.875  32.396  1.00  0.00    -0.507 OA
ATOM     25  H   UNL     1      -7.945  19.892  32.286  1.00  0.00     0.293 HD
ENDBRANCH   6  24
BRANCH   8  26
ATOM     26  O   UNL     1      -5.607  22.519  28.631  1.00  0.00    -0.508 OA
ATOM     27  H   UNL     1      -5.280  21.620  28.300  1.00  0.00     0.293 HD
ENDBRANCH   8  26
TORSDOF 6
ENDMDL
MODEL 2
REMARK VINA RESULT:    -6.351     19.028     20.388
REMARK INTER + INTRA:          -7.934
REMARK INTER:                  -7.716
REMARK INTRA:                  -0.218
REMARK UNBOUND:                -0.284
REMARK SMILES O=c1c(O)c(-c2ccc(O)cc2O)oc2cc(O)cc(O)c12
REMARK SMILES IDX 5 1 3 2 2 3 1 4 22 5 20 6 19 7 17 8 16 9 15 10 14 11 6 12
REMARK SMILES IDX 8 13 7 14 9 15 11 16 12 17 10 18 13 20 4 22 21 24 18 26
REMARK H PARENT 10 19 13 21 4 23 21 25 18 27
REMARK Flexibility Score: inf
ROOT
ATOM      1  C   UNL     1      -3.451  38.420  19.112  1.00  0.00     0.184 A 
ATOM      2  C   UNL     1      -2.492  39.421  18.878  1.00  0.00     0.208 A 
ATOM      3  C   UNL     1      -1.286  39.072  18.252  1.00  0.00     0.238 A 
ATOM      4  O   UNL     1      -0.413  39.960  18.047  1.00  0.00    -0.285 OA
ATOM      5  C   UNL     1      -1.070  37.736  17.854  1.00  0.00     0.111 A 
ATOM      6  C   UNL     1       0.116  37.302  17.213  1.00  0.00     0.134 A 
ATOM      7  C   UNL     1       0.252  35.956  16.840  1.00  0.00     0.093 A 
ATOM      8  C   UNL     1      -0.774  35.040  17.094  1.00  0.00     0.123 A 
ATOM      9  C   UNL     1      -1.945  35.464  17.725  1.00  0.00     0.094 A 
ATOM     10  C   UNL     1      -2.099  36.798  18.106  1.00  0.00     0.146 A 
ATOM     11  O   UNL     1      -3.221  37.174  18.710  1.00  0.00    -0.451 OA
ENDROOT
BRANCH   1  12
ATOM     12  C   UNL     1      -4.737  38.718  19.777  1.00  0.00     0.063 A 
ATOM     13  C   UNL     1      -5.923  39.721  21.647  1.00  0.00     0.047 A 
ATOM     14  C   UNL     1      -4.726  39.418  20.994  1.00  0.00     0.020 A 
ATOM     15  C   UNL     1      -7.145  39.340  21.087  1.00  0.00     0.119 A 
ATOM     16  C   UNL     1      -7.167  38.662  19.861  1.00  0.00     0.093 A 
ATOM     17  C   UNL     1      -5.970  38.358  19.197  1.00  0.00     0.130 A 
BRANCH  15  18
ATOM     18  O   UNL     1      -8.331  39.646  21.751  1.00  0.00    -0.508 OA
ATOM     19  H   UNL     1      -8.920  40.416  21.458  1.00  0.00     0.293 HD
ENDBRANCH  15  18
BRANCH  17  20
ATOM     20  O   UNL     1      -6.008  37.726  17.954  1.00  0.00    -0.507 OA
ATOM     21  H   UNL     1      -6.876  37.390  17.554  1.00  0.00     0.293 HD
ENDBRANCH  17  20
ENDBRANCH   1  12
BRANCH   2  22
ATOM     22  O   UNL     1      -2.755  40.744  19.244  1.00  0.00    -0.502 OA
ATOM     23  H   UNL     1      -2.021  41.389  19.511  1.00  0.00     0.293 HD
ENDBRANCH   2  22
BRANCH   6  24
ATOM     24  O   UNL     1       1.156  38.193  16.947  1.00  0.00    -0.507 OA
ATOM     25  H   UNL     1       2.122  37.962  17.152  1.00  0.00     0.293 HD
ENDBRANCH   6  24
BRANCH   8  26
ATOM     26  O   UNL     1      -0.640  33.704  16.721  1.00  0.00    -0.508 OA
ATOM     27  H   UNL     1      -1.438  33.083  16.678  1.00  0.00     0.293 HD
ENDBRANCH   8  26
TORSDOF 6
ENDMDL
MODEL 3
REMARK VINA RESULT:    -6.257     17.813     20.063
REMARK INTER + INTRA:          -7.821
REMARK INTER:                  -7.455
REMARK INTRA:                  -0.367
REMARK UNBOUND:                -0.284
REMARK SMILES O=c1c(O)c(-c2ccc(O)cc2O)oc2cc(O)cc(O)c12
REMARK SMILES IDX 5 1 3 2 2 3 1 4 22 5 20 6 19 7 17 8 16 9 15 10 14 11 6 12
REMARK SMILES IDX 8 13 7 14 9 15 11 16 12 17 10 18 13 20 4 22 21 24 18 26
REMARK H PARENT 10 19 13 21 4 23 21 25 18 27
REMARK Flexibility Score: inf
ROOT
ATOM      1  C   UNL     1      -3.379  37.521  18.978  1.00  0.00     0.184 A 
ATOM      2  C   UNL     1      -4.604  37.667  18.304  1.00  0.00     0.208 A 
ATOM      3  C   UNL     1      -5.723  38.117  19.020  1.00  0.00     0.238 A 
ATOM      4  O   UNL     1      -6.831  38.240  18.428  1.00  0.00    -0.285 OA
ATOM      5  C   UNL     1      -5.593  38.431  20.389  1.00  0.00     0.111 A 
ATOM      6  C   UNL     1      -6.670  38.894  21.182  1.00  0.00     0.134 A 
ATOM      7  C   UNL     1      -6.458  39.194  22.537  1.00  0.00     0.093 A 
ATOM      8  C   UNL     1      -5.191  39.041  23.109  1.00  0.00     0.123 A 
ATOM      9  C   UNL     1      -4.126  38.584  22.331  1.00  0.00     0.094 A 
ATOM     10  C   UNL     1      -4.317  38.278  20.982  1.00  0.00     0.146 A 
ATOM     11  O   UNL     1      -3.288  37.841  20.265  1.00  0.00    -0.451 OA
ENDROOT
BRANCH   1  12
ATOM     12  C   UNL     1      -2.165  37.041  18.286  1.00  0.00     0.063 A 
ATOM     13  C   UNL     1      -1.027  35.259  17.085  1.00  0.00     0.047 A 
ATOM     14  C   UNL     1      -2.156  35.743  17.750  1.00  0.00     0.020 A 
ATOM     15  C   UNL     1       0.101  36.069  16.935  1.00  0.00     0.119 A 
ATOM     16  C   UNL     1       0.094  37.374  17.445  1.00  0.00     0.093 A 
ATOM     17  C   UNL     1      -1.037  37.869  18.110  1.00  0.00     0.130 A 
BRANCH  15  18
ATOM     18  O   UNL     1       1.221  35.572  16.272  1.00  0.00    -0.508 OA
ATOM     19  H   UNL     1       1.389  34.576  16.189  1.00  0.00     0.293 HD
ENDBRANCH  15  18
BRANCH  17  20
ATOM     20  O   UNL     1      -1.051  39.185  18.570  1.00  0.00    -0.507 OA
ATOM     21  H   UNL     1      -1.913  39.711  18.656  1.00  0.00     0.293 HD
ENDBRANCH  17  20
ENDBRANCH   1  12
BRANCH   2  22
ATOM     22  O   UNL     1      -4.689  37.390  16.936  1.00  0.00    -0.502 OA
ATOM     23  H   UNL     1      -4.697  38.121  16.235  1.00  0.00     0.293 HD
ENDBRANCH   2  22
BRANCH   6  24
ATOM     24  O   UNL     1      -7.945  39.057  20.638  1.00  0.00    -0.507 OA
ATOM     25  H   UNL     1      -8.110  38.997  19.640  1.00  0.00     0.293 HD
ENDBRANCH   6  24
BRANCH   8  26
ATOM     26  O   UNL     1      -4.980  39.340  24.454  1.00  0.00    -0.508 OA
ATOM     27  H   UNL     1      -5.687  39.803  25.012  1.00  0.00     0.293 HD
ENDBRANCH   8  26
TORSDOF 6
ENDMDL
MODEL 4
REMARK VINA RESULT:    -5.983     18.806     20.714
REMARK INTER + INTRA:          -7.491
REMARK INTER:                  -7.091
REMARK INTRA:                  -0.399
REMARK UNBOUND:                -0.284
REMARK SMILES O=c1c(O)c(-c2ccc(O)cc2O)oc2cc(O)cc(O)c12
REMARK SMILES IDX 5 1 3 2 2 3 1 4 22 5 20 6 19 7 17 8 16 9 15 10 14 11 6 12
REMARK SMILES IDX 8 13 7 14 9 15 11 16 12 17 10 18 13 20 4 22 21 24 18 26
REMARK H PARENT 10 19 13 21 4 23 21 25 18 27
REMARK Flexibility Score: inf
ROOT
ATOM      1  C   UNL     1      -2.725  38.291  19.208  1.00  0.00     0.184 A 
ATOM      2  C   UNL     1      -2.505  39.627  18.828  1.00  0.00     0.208 A 
ATOM      3  C   UNL     1      -1.455  39.916  17.944  1.00  0.00     0.238 A 
ATOM      4  O   UNL     1      -1.241  41.113  17.605  1.00  0.00    -0.285 OA
ATOM      5  C   UNL     1      -0.658  38.867  17.442  1.00  0.00     0.111 A 
ATOM      6  C   UNL     1       0.418  39.072  16.545  1.00  0.00     0.134 A 
ATOM      7  C   UNL     1       1.159  37.973  16.084  1.00  0.00     0.093 A 
ATOM      8  C   UNL     1       0.844  36.676  16.502  1.00  0.00     0.123 A 
ATOM      9  C   UNL     1      -0.216  36.469  17.387  1.00  0.00     0.094 A 
ATOM     10  C   UNL     1      -0.965  37.549  17.859  1.00  0.00     0.146 A 
ATOM     11  O   UNL     1      -1.965  37.324  18.704  1.00  0.00    -0.451 OA
ENDROOT
BRANCH   1  12
ATOM     12  C   UNL     1      -3.807  37.919  20.143  1.00  0.00     0.063 A 
ATOM     13  C   UNL     1      -4.519  37.492  22.428  1.00  0.00     0.047 A 
ATOM     14  C   UNL     1      -3.519  37.835  21.516  1.00  0.00     0.020 A 
ATOM     15  C   UNL     1      -5.820  37.240  21.984  1.00  0.00     0.119 A 
ATOM     16  C   UNL     1      -6.122  37.344  20.621  1.00  0.00     0.093 A 
ATOM     17  C   UNL     1      -5.125  37.693  19.698  1.00  0.00     0.130 A 
BRANCH  15  18
ATOM     18  O   UNL     1      -6.806  36.894  22.906  1.00  0.00    -0.508 OA
ATOM     19  H   UNL     1      -6.594  36.776  23.890  1.00  0.00     0.293 HD
ENDBRANCH  15  18
BRANCH  17  20
ATOM     20  O   UNL     1      -5.449  37.841  18.349  1.00  0.00    -0.507 OA
ATOM     21  H   UNL     1      -6.141  37.252  17.901  1.00  0.00     0.293 HD
ENDBRANCH  17  20
ENDBRANCH   1  12
BRANCH   2  22
ATOM     22  O   UNL     1      -3.341  40.639  19.307  1.00  0.00    -0.502 OA
ATOM     23  H   UNL     1      -3.520  41.488  18.784  1.00  0.00     0.293 HD
ENDBRANCH   2  22
BRANCH   6  24
ATOM     24  O   UNL     1       0.756  40.355  16.111  1.00  0.00    -0.507 OA
ATOM     25  H   UNL     1       1.446  40.917  16.596  1.00  0.00     0.293 HD
ENDBRANCH   6  24
BRANCH   8  26
ATOM     26  O   UNL     1       1.579  35.585  16.043  1.00  0.00    -0.508 OA
ATOM     27  H   UNL     1       1.542  34.687  16.509  1.00  0.00     0.293 HD
ENDBRANCH   8  26
TORSDOF 6
ENDMDL
MODEL 5
REMARK VINA RESULT:    -5.780     17.921     20.273
REMARK INTER + INTRA:          -7.247
REMARK INTER:                  -6.831
REMARK INTRA:                  -0.416
REMARK UNBOUND:                -0.284
REMARK SMILES O=c1c(O)c(-c2ccc(O)cc2O)oc2cc(O)cc(O)c12
REMARK SMILES IDX 5 1 3 2 2 3 1 4 22 5 20 6 19 7 17 8 16 9 15 10 14 11 6 12
REMARK SMILES IDX 8 13 7 14 9 15 11 16 12 17 10 18 13 20 4 22 21 24 18 26
REMARK H PARENT 10 19 13 21 4 23 21 25 18 27
REMARK Flexibility Score: inf
ROOT
ATOM      1  C   UNL     1      -2.631  39.429  20.359  1.00  0.00     0.184 A 
ATOM      2  C   UNL     1      -2.127  39.428  21.671  1.00  0.00     0.208 A 
ATOM      3  C   UNL     1      -3.029  39.491  22.744  1.00  0.00     0.238 A 
ATOM      4  O   UNL     1      -2.586  39.502  23.926  1.00  0.00    -0.285 OA
ATOM      5  C   UNL     1      -4.415  39.534  22.487  1.00  0.00     0.111 A 
ATOM      6  C   UNL     1      -5.390  39.594  23.512  1.00  0.00     0.134 A 
ATOM      7  C   UNL     1      -6.752  39.626  23.174  1.00  0.00     0.093 A 
ATOM      8  C   UNL     1      -7.154  39.596  21.835  1.00  0.00     0.123 A 
ATOM      9  C   UNL     1      -6.196  39.537  20.822  1.00  0.00     0.094 A 
ATOM     10  C   UNL     1      -4.836  39.507  21.136  1.00  0.00     0.146 A 
ATOM     11  O   UNL     1      -3.945  39.455  20.153  1.00  0.00    -0.451 OA
ENDROOT
BRANCH   1  12
ATOM     12  C   UNL     1      -1.737  39.376  19.184  1.00  0.00     0.063 A 
ATOM     13  C   UNL     1      -0.183  40.520  17.705  1.00  0.00     0.047 A 
ATOM     14  C   UNL     1      -1.041  40.536  18.806  1.00  0.00     0.020 A 
ATOM     15  C   UNL     1       0.001  39.343  16.974  1.00  0.00     0.119 A 
ATOM     16  C   UNL     1      -0.670  38.175  17.357  1.00  0.00     0.093 A 
ATOM     17  C   UNL     1      -1.529  38.181  18.465  1.00  0.00     0.130 A 
BRANCH  15  18
ATOM     18  O   UNL     1       0.858  39.343  15.875  1.00  0.00    -0.508 OA
ATOM     19  H   UNL     1       0.899  40.128  15.235  1.00  0.00     0.293 HD
ENDBRANCH  15  18
BRANCH  17  20
ATOM     20  O   UNL     1      -2.154  37.000  18.866  1.00  0.00    -0.507 OA
ATOM     21  H   UNL     1      -3.048  37.006  19.342  1.00  0.00     0.293 HD
ENDBRANCH  17  20
ENDBRANCH   1  12
BRANCH   2  22
ATOM     22  O   UNL     1      -0.750  39.339  21.893  1.00  0.00    -0.502 OA
ATOM     23  H   UNL     1      -0.082  39.276  21.135  1.00  0.00     0.293 HD
ENDBRANCH   2  22
BRANCH   6  24
ATOM     24  O   UNL     1      -5.019  39.625  24.856  1.00  0.00    -0.507 OA
ATOM     25  H   UNL     1      -4.055  39.762  25.140  1.00  0.00     0.293 HD
ENDBRANCH   6  24
BRANCH   8  26
ATOM     26  O   UNL     1      -8.507  39.625  21.500  1.00  0.00    -0.508 OA
ATOM     27  H   UNL     1      -9.211  39.923  22.164  1.00  0.00     0.293 HD
ENDBRANCH   8  26
TORSDOF 6
ENDMDL
MODEL 6
REMARK VINA RESULT:    -5.741      9.644     13.938
REMARK INTER + INTRA:          -7.199
REMARK INTER:                  -6.786
REMARK INTRA:                  -0.413
REMARK UNBOUND:                -0.284
REMARK SMILES O=c1c(O)c(-c2ccc(O)cc2O)oc2cc(O)cc(O)c12
REMARK SMILES IDX 5 1 3 2 2 3 1 4 22 5 20 6 19 7 17 8 16 9 15 10 14 11 6 12
REMARK SMILES IDX 8 13 7 14 9 15 11 16 12 17 10 18 13 20 4 22 21 24 18 26
REMARK H PARENT 10 19 13 21 4 23 21 25 18 27
REMARK Flexibility Score: inf
ROOT
ATOM      1  C   UNL     1      -3.347  38.390  32.655  1.00  0.00     0.184 A 
ATOM      2  C   UNL     1      -4.147  39.155  33.523  1.00  0.00     0.208 A 
ATOM      3  C   UNL     1      -5.030  38.496  34.390  1.00  0.00     0.238 A 
ATOM      4  O   UNL     1      -5.761  39.173  35.165  1.00  0.00    -0.285 OA
ATOM      5  C   UNL     1      -5.084  37.086  34.390  1.00  0.00     0.111 A 
ATOM      6  C   UNL     1      -5.944  36.344  35.235  1.00  0.00     0.134 A 
ATOM      7  C   UNL     1      -5.933  34.942  35.181  1.00  0.00     0.093 A 
ATOM      8  C   UNL     1      -5.078  34.271  34.300  1.00  0.00     0.123 A 
ATOM      9  C   UNL     1      -4.230  34.998  33.464  1.00  0.00     0.094 A 
ATOM     10  C   UNL     1      -4.227  36.394  33.501  1.00  0.00     0.146 A 
ATOM     11  O   UNL     1      -3.412  37.062  32.692  1.00  0.00    -0.451 OA
ENDROOT
BRANCH   1  12
ATOM     12  C   UNL     1      -2.405  39.021  31.709  1.00  0.00     0.063 A 
ATOM     13  C   UNL     1      -0.326  40.227  31.343  1.00  0.00     0.047 A 
ATOM     14  C   UNL     1      -1.241  39.626  32.210  1.00  0.00     0.020 A 
ATOM     15  C   UNL     1      -0.554  40.220  29.964  1.00  0.00     0.119 A 
ATOM     16  C   UNL     1      -1.700  39.598  29.453  1.00  0.00     0.093 A 
ATOM     17  C   UNL     1      -2.622  38.988  30.316  1.00  0.00     0.130 A 
BRANCH  15  18
ATOM     18  O   UNL     1       0.366  40.827  29.112  1.00  0.00    -0.508 OA
ATOM     19  H   UNL     1       1.362  40.776  29.286  1.00  0.00     0.293 HD
ENDBRANCH  15  18
BRANCH  17  20
ATOM     20  O   UNL     1      -3.734  38.329  29.791  1.00  0.00    -0.507 OA
ATOM     21  H   UNL     1      -4.587  38.215  30.326  1.00  0.00     0.293 HD
ENDBRANCH  17  20
ENDBRANCH   1  12
BRANCH   2  22
ATOM     22  O   UNL     1      -4.037  40.548  33.531  1.00  0.00    -0.502 OA
ATOM     23  H   UNL     1      -4.369  41.114  34.303  1.00  0.00     0.293 HD
ENDBRANCH   2  22
BRANCH   6  24
ATOM     24  O   UNL     1      -6.806  36.987  36.124  1.00  0.00    -0.507 OA
ATOM     25  H   UNL     1      -6.479  37.709  36.756  1.00  0.00     0.293 HD
ENDBRANCH   6  24
BRANCH   8  26
ATOM     26  O   UNL     1      -5.066  32.878  34.247  1.00  0.00    -0.508 OA
ATOM     27  H   UNL     1      -5.888  32.350  33.980  1.00  0.00     0.293 HD
ENDBRANCH   8  26
TORSDOF 6
ENDMDL
MODEL 7
REMARK VINA RESULT:    -5.597     17.200     19.043
REMARK INTER + INTRA:          -7.026
REMARK INTER:                  -6.616
REMARK INTRA:                  -0.410
REMARK UNBOUND:                -0.284
REMARK SMILES O=c1c(O)c(-c2ccc(O)cc2O)oc2cc(O)cc(O)c12
REMARK SMILES IDX 5 1 3 2 2 3 1 4 22 5 20 6 19 7 17 8 16 9 15 10 14 11 6 12
REMARK SMILES IDX 8 13 7 14 9 15 11 16 12 17 10 18 13 20 4 22 21 24 18 26
REMARK H PARENT 10 19 13 21 4 23 21 25 18 27
REMARK Flexibility Score: inf
ROOT
ATOM      1  C   UNL     1      -4.728  39.247  21.665  1.00  0.00     0.184 A 
ATOM      2  C   UNL     1      -5.774  38.461  21.149  1.00  0.00     0.208 A 
ATOM      3  C   UNL     1      -5.728  38.069  19.803  1.00  0.00     0.238 A 
ATOM      4  O   UNL     1      -6.667  37.374  19.327  1.00  0.00    -0.285 OA
ATOM      5  C   UNL     1      -4.630  38.451  19.004  1.00  0.00     0.111 A 
ATOM      6  C   UNL     1      -4.504  38.094  17.640  1.00  0.00     0.134 A 
ATOM      7  C   UNL     1      -3.376  38.507  16.914  1.00  0.00     0.093 A 
ATOM      8  C   UNL     1      -2.374  39.265  17.527  1.00  0.00     0.123 A 
ATOM      9  C   UNL     1      -2.493  39.620  18.872  1.00  0.00     0.094 A 
ATOM     10  C   UNL     1      -3.609  39.221  19.611  1.00  0.00     0.146 A 
ATOM     11  O   UNL     1      -3.700  39.576  20.888  1.00  0.00    -0.451 OA
ENDROOT
BRANCH   1  12
ATOM     12  C   UNL     1      -4.721  39.703  23.070  1.00  0.00     0.063 A 
ATOM     13  C   UNL     1      -5.675  41.125  24.796  1.00  0.00     0.047 A 
ATOM     14  C   UNL     1      -5.651  40.675  23.474  1.00  0.00     0.020 A 
ATOM     15  C   UNL     1      -4.781  40.602  25.733  1.00  0.00     0.119 A 
ATOM     16  C   UNL     1      -3.866  39.615  25.346  1.00  0.00     0.093 A 
ATOM     17  C   UNL     1      -3.837  39.154  24.022  1.00  0.00     0.130 A 
BRANCH  15  18
ATOM     18  O   UNL     1      -4.815  41.063  27.048  1.00  0.00    -0.508 OA
ATOM     19  H   UNL     1      -4.384  41.941  27.312  1.00  0.00     0.293 HD
ENDBRANCH  15  18
BRANCH  17  20
ATOM     20  O   UNL     1      -2.954  38.137  23.660  1.00  0.00    -0.507 OA
ATOM     21  H   UNL     1      -2.062  38.337  23.223  1.00  0.00     0.293 HD
ENDBRANCH  17  20
ENDBRANCH   1  12
BRANCH   2  22
ATOM     22  O   UNL     1      -6.825  38.062  21.979  1.00  0.00    -0.502 OA
ATOM     23  H   UNL     1      -7.691  37.684  21.613  1.00  0.00     0.293 HD
ENDBRANCH   2  22
BRANCH   6  24
ATOM     24  O   UNL     1      -5.488  37.338  17.002  1.00  0.00    -0.507 OA
ATOM     25  H   UNL     1      -5.379  36.342  16.848  1.00  0.00     0.293 HD
ENDBRANCH   6  24
BRANCH   8  26
ATOM     26  O   UNL     1      -1.252  39.673  16.806  1.00  0.00    -0.508 OA
ATOM     27  H   UNL     1      -0.320  39.613  17.198  1.00  0.00     0.293 HD
ENDBRANCH   8  26
TORSDOF 6
ENDMDL
MODEL 8
REMARK VINA RESULT:    -5.372     17.959     19.843
REMARK INTER + INTRA:          -6.754
REMARK INTER:                  -6.443
REMARK INTRA:                  -0.312
REMARK UNBOUND:                -0.284
REMARK SMILES O=c1c(O)c(-c2ccc(O)cc2O)oc2cc(O)cc(O)c12
REMARK SMILES IDX 5 1 3 2 2 3 1 4 22 5 20 6 19 7 17 8 16 9 15 10 14 11 6 12
REMARK SMILES IDX 8 13 7 14 9 15 11 16 12 17 10 18 13 20 4 22 21 24 18 26
REMARK H PARENT 10 19 13 21 4 23 21 25 18 27
REMARK Flexibility Score: inf
ROOT
ATOM      1  C   UNL     1      -4.369  39.243  20.885  1.00  0.00     0.184 A 
ATOM      2  C   UNL     1      -5.292  38.460  20.170  1.00  0.00     0.208 A 
ATOM      3  C   UNL     1      -5.054  38.203  18.811  1.00  0.00     0.238 A 
ATOM      4  O   UNL     1      -5.883  37.511  18.157  1.00  0.00    -0.285 OA
ATOM      5  C   UNL     1      -3.891  38.713  18.199  1.00  0.00     0.111 A 
ATOM      6  C   UNL     1      -3.575  38.496  16.836  1.00  0.00     0.134 A 
ATOM      7  C   UNL     1      -2.392  39.031  16.303  1.00  0.00     0.093 A 
ATOM      8  C   UNL     1      -1.522  39.775  17.106  1.00  0.00     0.123 A 
ATOM      9  C   UNL     1      -1.830  39.992  18.450  1.00  0.00     0.094 A 
ATOM     10  C   UNL     1      -3.003  39.470  19.000  1.00  0.00     0.146 A 
ATOM     11  O   UNL     1      -3.274  39.695  20.281  1.00  0.00    -0.451 OA
ENDROOT
BRANCH   1  12
ATOM     12  C   UNL     1      -4.564  39.562  22.314  1.00  0.00     0.063 A 
ATOM     13  C   UNL     1      -3.828  39.309  24.618  1.00  0.00     0.047 A 
ATOM     14  C   UNL     1      -3.676  39.023  23.259  1.00  0.00     0.020 A 
ATOM     15  C   UNL     1      -4.861  40.146  25.048  1.00  0.00     0.119 A 
ATOM     16  C   UNL     1      -5.738  40.707  24.112  1.00  0.00     0.093 A 
ATOM     17  C   UNL     1      -5.589  40.429  22.745  1.00  0.00     0.130 A 
BRANCH  15  18
ATOM     18  O   UNL     1      -5.003  40.419  26.407  1.00  0.00    -0.508 OA
ATOM     19  H   UNL     1      -4.425  39.962  27.103  1.00  0.00     0.293 HD
ENDBRANCH  15  18
BRANCH  17  20
ATOM     20  O   UNL     1      -6.439  41.032  21.818  1.00  0.00    -0.507 OA
ATOM     21  H   UNL     1      -7.338  40.631  21.580  1.00  0.00     0.293 HD
ENDBRANCH  17  20
ENDBRANCH   1  12
BRANCH   2  22
ATOM     22  O   UNL     1      -6.413  37.932  20.817  1.00  0.00    -0.502 OA
ATOM     23  H   UNL     1      -7.168  37.482  20.313  1.00  0.00     0.293 HD
ENDBRANCH   2  22
BRANCH   6  24
ATOM     24  O   UNL     1      -4.423  37.757  16.011  1.00  0.00    -0.507 OA
ATOM     25  H   UNL     1      -5.086  38.206  15.389  1.00  0.00     0.293 HD
ENDBRANCH   6  24
BRANCH   8  26
ATOM     26  O   UNL     1      -0.346  40.305  16.577  1.00  0.00    -0.508 OA
ATOM     27  H   UNL     1       0.005  40.016  15.672  1.00  0.00     0.293 HD
ENDBRANCH   8  26
TORSDOF 6
ENDMDL
