MODEL 1
REMARK VINA RESULT:    -7.314      0.000      0.000
REMARK INTER + INTRA:         -21.293
REMARK INTER:                 -18.431
REMARK INTRA:                  -2.862
REMARK UNBOUND:                -2.862
REMARK SMILES CCCCCCCCCCCCCCCCCCCCCCCCCCCC(=O)[O-]
REMARK SMILES IDX 15 1 16 2 17 3 18 4 19 5 20 6 21 7 22 8 23 9 24 10 25 11
REMARK SMILES IDX 26 12 27 13 28 14 29 15 30 16 14 17 13 18 12 19 11 20 10 21
REMARK SMILES IDX 9 22 8 23 7 24 6 25 5 26 4 27 3 28 2 29 1 30
REMARK H PARENT
REMARK Flexibility Score: inf
ROOT
ATOM      1  C   UNL     1      17.542  71.518  71.995  1.00  0.00     0.000 C 
ENDROOT
BRANCH   1   2
ATOM      2  C   UNL     1      16.616  72.684  72.372  1.00  0.00     0.000 C 
BRANCH   2   3
ATOM      3  C   UNL     1      16.158  72.627  73.836  1.00  0.00     0.000 C 
BRANCH   3   4
ATOM      4  C   UNL     1      16.295  71.205  74.399  1.00  0.00     0.000 C 
BRANCH   4   5
ATOM      5  C   UNL     1      15.052  70.751  75.185  1.00  0.00     0.000 C 
BRANCH   5   6
ATOM      6  C   UNL     1      14.069  69.861  74.398  1.00  0.00     0.000 C 
BRANCH   6   7
ATOM      7  C   UNL     1      14.062  70.073  72.873  1.00  0.00     0.000 C 
BRANCH   7   8
ATOM      8  C   UNL     1      12.790  70.778  72.374  1.00  0.00     0.000 C 
BRANCH   8   9
ATOM      9  C   UNL     1      12.531  72.116  73.088  1.00  0.00     0.000 C 
BRANCH   9  10
ATOM     10  C   UNL     1      11.115  72.230  73.690  1.00  0.00     0.000 C 
BRANCH  10  11
ATOM     11  C   UNL     1      11.100  71.927  75.198  1.00  0.00     0.000 C 
BRANCH  11  12
ATOM     12  C   UNL     1       9.820  72.431  75.886  1.00  0.00     0.006 C 
BRANCH  12  13
ATOM     13  C   UNL     1       8.614  71.522  75.614  1.00  0.00     0.053 C 
BRANCH  13  14
ATOM     14  C   UNL     1       7.350  72.185  76.062  1.00  0.00     0.041 C 
ATOM     15  O   UNL     1       7.388  73.116  76.908  1.00  0.00    -0.550 OA
ATOM     16  O   UNL     1       6.124  71.739  75.584  1.00  0.00    -0.550 OA
ENDBRANCH  13  14
ENDBRANCH  12  13
ENDBRANCH  11  12
ENDBRANCH  10  11
ENDBRANCH   9  10
ENDBRANCH   8   9
ENDBRANCH   7   8
ENDBRANCH   6   7
ENDBRANCH   5   6
ENDBRANCH   4   5
ENDBRANCH   3   4
ENDBRANCH   2   3
ENDBRANCH   1   2
BRANCH   1  17
ATOM     17  C   UNL     1      18.997  71.967  71.767  1.00  0.00     0.000 C 
BRANCH  17  18
ATOM     18  C   UNL     1      19.928  70.812  71.353  1.00  0.00     0.000 C 
BRANCH  18  19
ATOM     19  C   UNL     1      21.098  71.214  70.439  1.00  0.00     0.000 C 
BRANCH  19  20
ATOM     20  C   UNL     1      21.672  72.601  70.776  1.00  0.00     0.000 C 
BRANCH  20  21
ATOM     21  C   UNL     1      23.025  72.530  71.509  1.00  0.00     0.000 C 
BRANCH  21  22
ATOM     22  C   UNL     1      23.008  73.038  72.964  1.00  0.00    -0.000 C 
BRANCH  22  23
ATOM     23  C   UNL     1      22.001  72.288  73.851  1.00  0.00    -0.000 C 
BRANCH  23  24
ATOM     24  C   UNL     1      22.655  71.169  74.677  1.00  0.00    -0.000 C 
BRANCH  24  25
ATOM     25  C   UNL     1      21.677  70.049  75.090  1.00  0.00    -0.000 C 
BRANCH  25  26
ATOM     26  C   UNL     1      20.244  70.574  75.291  1.00  0.00    -0.000 C 
BRANCH  26  27
ATOM     27  C   UNL     1      19.744  70.375  76.738  1.00  0.00    -0.000 C 
BRANCH  27  28
ATOM     28  C   UNL     1      20.321  69.122  77.427  1.00  0.00    -0.000 C 
BRANCH  28  29
ATOM     29  C   UNL     1      20.124  69.078  78.952  1.00  0.00    -0.003 C 
ATOM     30  C   UNL     1      18.966  68.176  79.376  1.00  0.00     0.004 C 
ENDBRANCH  28  29
ENDBRANCH  27  28
ENDBRANCH  26  27
ENDBRANCH  25  26
ENDBRANCH  24  25
ENDBRANCH  23  24
ENDBRANCH  22  23
ENDBRANCH  21  22
ENDBRANCH  20  21
ENDBRANCH  19  20
ENDBRANCH  18  19
ENDBRANCH  17  18
ENDBRANCH   1  17
TORSDOF 26
ENDMDL
MODEL 2
REMARK VINA RESULT:    -7.310      2.048      4.219
REMARK INTER + INTRA:         -21.282
REMARK INTER:                 -17.586
REMARK INTRA:                  -3.697
REMARK UNBOUND:                -2.862
REMARK SMILES CCCCCCCCCCCCCCCCCCCCCCCCCCCC(=O)[O-]
REMARK SMILES IDX 15 1 16 2 17 3 18 4 19 5 20 6 21 7 22 8 23 9 24 10 25 11
REMARK SMILES IDX 26 12 27 13 28 14 29 15 30 16 14 17 13 18 12 19 11 20 10 21
REMARK SMILES IDX 9 22 8 23 7 24 6 25 5 26 4 27 3 28 2 29 1 30
REMARK H PARENT
REMARK Flexibility Score: inf
ROOT
ATOM      1  C   UNL     1      14.276  69.995  73.177  1.00  0.00     0.000 C 
ENDROOT
BRANCH   1   2
ATOM      2  C   UNL     1      13.072  70.737  72.574  1.00  0.00     0.000 C 
BRANCH   2   3
ATOM      3  C   UNL     1      12.344  71.616  73.601  1.00  0.00     0.000 C 
BRANCH   3   4
ATOM      4  C   UNL     1      12.071  73.015  73.029  1.00  0.00     0.000 C 
BRANCH   4   5
ATOM      5  C   UNL     1      12.595  73.186  71.592  1.00  0.00     0.000 C 
BRANCH   5   6
ATOM      6  C   UNL     1      11.509  73.395  70.519  1.00  0.00     0.000 C 
BRANCH   6   7
ATOM      7  C   UNL     1      10.929  72.107  69.906  1.00  0.00     0.000 C 
BRANCH   7   8
ATOM      8  C   UNL     1       9.507  72.294  69.354  1.00  0.00     0.000 C 
BRANCH   8   9
ATOM      9  C   UNL     1       8.583  71.107  69.672  1.00  0.00     0.000 C 
BRANCH   9  10
ATOM     10  C   UNL     1       8.946  70.376  70.982  1.00  0.00     0.000 C 
BRANCH  10  11
ATOM     11  C   UNL     1       7.987  70.734  72.131  1.00  0.00     0.000 C 
BRANCH  11  12
ATOM     12  C   UNL     1       8.731  71.066  73.435  1.00  0.00     0.006 C 
BRANCH  12  13
ATOM     13  C   UNL     1       7.773  71.397  74.586  1.00  0.00     0.053 C 
BRANCH  13  14
ATOM     14  C   UNL     1       8.541  71.676  75.839  1.00  0.00     0.041 C 
ATOM     15  O   UNL     1       8.104  71.283  76.952  1.00  0.00    -0.550 OA
ATOM     16  O   UNL     1       9.715  72.417  75.785  1.00  0.00    -0.550 OA
ENDBRANCH  13  14
ENDBRANCH  12  13
ENDBRANCH  11  12
ENDBRANCH  10  11
ENDBRANCH   9  10
ENDBRANCH   8   9
ENDBRANCH   7   8
ENDBRANCH   6   7
ENDBRANCH   5   6
ENDBRANCH   4   5
ENDBRANCH   3   4
ENDBRANCH   2   3
ENDBRANCH   1   2
BRANCH   1  17
ATOM     17  C   UNL     1      14.778  70.643  74.480  1.00  0.00     0.000 C 
BRANCH  17  18
ATOM     18  C   UNL     1      16.076  71.450  74.290  1.00  0.00     0.000 C 
BRANCH  18  19
ATOM     19  C   UNL     1      15.915  72.769  73.513  1.00  0.00     0.000 C 
BRANCH  19  20
ATOM     20  C   UNL     1      16.470  72.692  72.081  1.00  0.00     0.000 C 
BRANCH  20  21
ATOM     21  C   UNL     1      17.466  71.534  71.883  1.00  0.00     0.000 C 
BRANCH  21  22
ATOM     22  C   UNL     1      18.945  71.954  71.769  1.00  0.00    -0.000 C 
BRANCH  22  23
ATOM     23  C   UNL     1      19.869  70.797  71.356  1.00  0.00    -0.000 C 
BRANCH  23  24
ATOM     24  C   UNL     1      21.356  71.124  71.558  1.00  0.00    -0.000 C 
BRANCH  24  25
ATOM     25  C   UNL     1      21.604  72.388  72.409  1.00  0.00    -0.000 C 
BRANCH  25  26
ATOM     26  C   UNL     1      21.899  72.048  73.880  1.00  0.00    -0.000 C 
BRANCH  26  27
ATOM     27  C   UNL     1      21.847  70.529  74.154  1.00  0.00    -0.000 C 
BRANCH  27  28
ATOM     28  C   UNL     1      20.645  70.096  75.017  1.00  0.00    -0.000 C 
BRANCH  28  29
ATOM     29  C   UNL     1      19.585  71.188  75.240  1.00  0.00    -0.003 C 
ATOM     30  C   UNL     1      19.043  71.207  76.668  1.00  0.00     0.004 C 
ENDBRANCH  28  29
ENDBRANCH  27  28
ENDBRANCH  26  27
ENDBRANCH  25  26
ENDBRANCH  24  25
ENDBRANCH  23  24
ENDBRANCH  22  23
ENDBRANCH  21  22
ENDBRANCH  20  21
ENDBRANCH  19  20
ENDBRANCH  18  19
ENDBRANCH  17  18
ENDBRANCH   1  17
TORSDOF 26
ENDMDL
MODEL 3
REMARK VINA RESULT:    -7.308      3.600      7.643
REMARK INTER + INTRA:         -21.278
REMARK INTER:                 -17.650
REMARK INTRA:                  -3.628
REMARK UNBOUND:                -2.862
REMARK SMILES CCCCCCCCCCCCCCCCCCCCCCCCCCCC(=O)[O-]
REMARK SMILES IDX 15 1 16 2 17 3 18 4 19 5 20 6 21 7 22 8 23 9 24 10 25 11
REMARK SMILES IDX 26 12 27 13 28 14 29 15 30 16 14 17 13 18 12 19 11 20 10 21
REMARK SMILES IDX 9 22 8 23 7 24 6 25 5 26 4 27 3 28 2 29 1 30
REMARK H PARENT
REMARK Flexibility Score: inf
ROOT
ATOM      1  C   UNL     1      14.372  70.316  76.052  1.00  0.00     0.000 C 
ENDROOT
BRANCH   1   2
ATOM      2  C   UNL     1      15.779  70.930  75.965  1.00  0.00     0.000 C 
BRANCH   2   3
ATOM      3  C   UNL     1      16.444  71.082  77.340  1.00  0.00     0.000 C 
BRANCH   3   4
ATOM      4  C   UNL     1      17.866  71.644  77.202  1.00  0.00     0.000 C 
BRANCH   4   5
ATOM      5  C   UNL     1      18.880  70.936  78.118  1.00  0.00     0.000 C 
BRANCH   5   6
ATOM      6  C   UNL     1      19.796  69.914  77.415  1.00  0.00     0.000 C 
BRANCH   6   7
ATOM      7  C   UNL     1      20.244  68.724  78.283  1.00  0.00     0.000 C 
BRANCH   7   8
ATOM      8  C   UNL     1      19.988  68.947  79.782  1.00  0.00     0.000 C 
BRANCH   8   9
ATOM      9  C   UNL     1      18.951  67.969  80.361  1.00  0.00     0.000 C 
BRANCH   9  10
ATOM     10  C   UNL     1      17.966  68.628  81.349  1.00  0.00     0.000 C 
BRANCH  10  11
ATOM     11  C   UNL     1      16.919  69.497  80.632  1.00  0.00     0.000 C 
BRANCH  11  12
ATOM     12  C   UNL     1      16.306  70.561  81.558  1.00  0.00     0.006 C 
BRANCH  12  13
ATOM     13  C   UNL     1      17.326  71.626  81.981  1.00  0.00     0.053 C 
BRANCH  13  14
ATOM     14  C   UNL     1      17.345  72.750  80.995  1.00  0.00     0.041 C 
ATOM     15  O   UNL     1      18.379  73.453  80.854  1.00  0.00    -0.550 OA
ATOM     16  O   UNL     1      16.201  73.057  80.268  1.00  0.00    -0.550 OA
ENDBRANCH  13  14
ENDBRANCH  12  13
ENDBRANCH  11  12
ENDBRANCH  10  11
ENDBRANCH   9  10
ENDBRANCH   8   9
ENDBRANCH   7   8
ENDBRANCH   6   7
ENDBRANCH   5   6
ENDBRANCH   4   5
ENDBRANCH   3   4
ENDBRANCH   2   3
ENDBRANCH   1   2
BRANCH   1  17
ATOM     17  C   UNL     1      13.565  70.502  74.754  1.00  0.00     0.000 C 
BRANCH  17  18
ATOM     18  C   UNL     1      14.097  69.650  73.586  1.00  0.00     0.000 C 
BRANCH  18  19
ATOM     19  C   UNL     1      14.736  70.449  72.436  1.00  0.00     0.000 C 
BRANCH  19  20
ATOM     20  C   UNL     1      14.466  71.960  72.533  1.00  0.00     0.000 C 
BRANCH  20  21
ATOM     21  C   UNL     1      15.709  72.767  72.953  1.00  0.00     0.000 C 
BRANCH  21  22
ATOM     22  C   UNL     1      16.757  72.980  71.843  1.00  0.00    -0.000 C 
BRANCH  22  23
ATOM     23  C   UNL     1      18.000  72.091  72.012  1.00  0.00    -0.000 C 
BRANCH  23  24
ATOM     24  C   UNL     1      18.249  71.692  73.475  1.00  0.00    -0.000 C 
BRANCH  24  25
ATOM     25  C   UNL     1      19.734  71.760  73.893  1.00  0.00    -0.000 C 
BRANCH  25  26
ATOM     26  C   UNL     1      20.436  70.397  73.769  1.00  0.00    -0.000 C 
BRANCH  26  27
ATOM     27  C   UNL     1      21.495  70.382  72.645  1.00  0.00    -0.000 C 
BRANCH  27  28
ATOM     28  C   UNL     1      21.248  69.300  71.575  1.00  0.00    -0.000 C 
BRANCH  28  29
ATOM     29  C   UNL     1      20.427  69.768  70.362  1.00  0.00    -0.003 C 
ATOM     30  C   UNL     1      20.070  68.628  69.410  1.00  0.00     0.004 C 
ENDBRANCH  28  29
ENDBRANCH  27  28
ENDBRANCH  26  27
ENDBRANCH  25  26
ENDBRANCH  24  25
ENDBRANCH  23  24
ENDBRANCH  22  23
ENDBRANCH  21  22
ENDBRANCH  20  21
ENDBRANCH  19  20
ENDBRANCH  18  19
ENDBRANCH  17  18
ENDBRANCH   1  17
TORSDOF 26
ENDMDL
MODEL 4
REMARK VINA RESULT:    -7.304      4.470      9.228
REMARK INTER + INTRA:         -21.268
REMARK INTER:                 -17.673
REMARK INTRA:                  -3.595
REMARK UNBOUND:                -2.862
REMARK SMILES CCCCCCCCCCCCCCCCCCCCCCCCCCCC(=O)[O-]
REMARK SMILES IDX 15 1 16 2 17 3 18 4 19 5 20 6 21 7 22 8 23 9 24 10 25 11
REMARK SMILES IDX 26 12 27 13 28 14 29 15 30 16 14 17 13 18 12 19 11 20 10 21
REMARK SMILES IDX 9 22 8 23 7 24 6 25 5 26 4 27 3 28 2 29 1 30
REMARK H PARENT
REMARK Flexibility Score: inf
ROOT
ATOM      1  C   UNL     1      17.068  70.373  79.149  1.00  0.00     0.000 C 
ENDROOT
BRANCH   1   2
ATOM      2  C   UNL     1      17.807  69.107  79.611  1.00  0.00     0.000 C 
BRANCH   2   3
ATOM      3  C   UNL     1      19.331  69.289  79.641  1.00  0.00     0.000 C 
BRANCH   3   4
ATOM      4  C   UNL     1      19.981  68.681  78.390  1.00  0.00     0.000 C 
BRANCH   4   5
ATOM      5  C   UNL     1      21.510  68.854  78.367  1.00  0.00     0.000 C 
BRANCH   5   6
ATOM      6  C   UNL     1      22.107  69.221  76.994  1.00  0.00     0.000 C 
BRANCH   6   7
ATOM      7  C   UNL     1      21.162  69.980  76.045  1.00  0.00     0.000 C 
BRANCH   7   8
ATOM      8  C   UNL     1      21.764  70.193  74.646  1.00  0.00     0.000 C 
BRANCH   8   9
ATOM      9  C   UNL     1      21.959  71.679  74.302  1.00  0.00     0.000 C 
BRANCH   9  10
ATOM     10  C   UNL     1      21.157  72.138  73.066  1.00  0.00     0.000 C 
BRANCH  10  11
ATOM     11  C   UNL     1      22.044  72.279  71.817  1.00  0.00     0.000 C 
BRANCH  11  12
ATOM     12  C   UNL     1      21.526  71.448  70.632  1.00  0.00     0.006 C 
BRANCH  12  13
ATOM     13  C   UNL     1      20.693  70.241  71.083  1.00  0.00     0.053 C 
BRANCH  13  14
ATOM     14  C   UNL     1      20.469  69.305  69.938  1.00  0.00     0.041 C 
ATOM     15  O   UNL     1      20.044  68.139  70.146  1.00  0.00    -0.550 OA
ATOM     16  O   UNL     1      20.781  69.702  68.644  1.00  0.00    -0.550 OA
ENDBRANCH  13  14
ENDBRANCH  12  13
ENDBRANCH  11  12
ENDBRANCH  10  11
ENDBRANCH   9  10
ENDBRANCH   8   9
ENDBRANCH   7   8
ENDBRANCH   6   7
ENDBRANCH   5   6
ENDBRANCH   4   5
ENDBRANCH   3   4
ENDBRANCH   2   3
ENDBRANCH   1   2
BRANCH   1  17
ATOM     17  C   UNL     1      17.997  71.596  79.045  1.00  0.00     0.000 C 
BRANCH  17  18
ATOM     18  C   UNL     1      18.134  72.128  77.605  1.00  0.00     0.000 C 
BRANCH  18  19
ATOM     19  C   UNL     1      17.829  71.103  76.499  1.00  0.00     0.000 C 
BRANCH  19  20
ATOM     20  C   UNL     1      18.215  71.601  75.097  1.00  0.00     0.000 C 
BRANCH  20  21
ATOM     21  C   UNL     1      16.995  71.964  74.230  1.00  0.00     0.000 C 
BRANCH  21  22
ATOM     22  C   UNL     1      17.270  72.054  72.716  1.00  0.00    -0.000 C 
BRANCH  22  23
ATOM     23  C   UNL     1      16.170  72.803  71.948  1.00  0.00    -0.000 C 
BRANCH  23  24
ATOM     24  C   UNL     1      14.875  72.954  72.762  1.00  0.00    -0.000 C 
BRANCH  24  25
ATOM     25  C   UNL     1      13.596  72.623  71.963  1.00  0.00    -0.000 C 
BRANCH  25  26
ATOM     26  C   UNL     1      12.990  71.270  72.371  1.00  0.00    -0.000 C 
BRANCH  26  27
ATOM     27  C   UNL     1      14.059  70.163  72.500  1.00  0.00    -0.000 C 
BRANCH  27  28
ATOM     28  C   UNL     1      14.159  69.559  73.915  1.00  0.00    -0.000 C 
BRANCH  28  29
ATOM     29  C   UNL     1      13.660  70.477  75.044  1.00  0.00    -0.003 C 
ATOM     30  C   UNL     1      14.353  70.208  76.379  1.00  0.00     0.004 C 
ENDBRANCH  28  29
ENDBRANCH  27  28
ENDBRANCH  26  27
ENDBRANCH  25  26
ENDBRANCH  24  25
ENDBRANCH  23  24
ENDBRANCH  22  23
ENDBRANCH  21  22
ENDBRANCH  20  21
ENDBRANCH  19  20
ENDBRANCH  18  19
ENDBRANCH  17  18
ENDBRANCH   1  17
TORSDOF 26
ENDMDL
MODEL 5
REMARK VINA RESULT:    -7.250      4.508      9.441
REMARK INTER + INTRA:         -21.133
REMARK INTER:                 -18.007
REMARK INTRA:                  -3.126
REMARK UNBOUND:                -2.862
REMARK SMILES CCCCCCCCCCCCCCCCCCCCCCCCCCCC(=O)[O-]
REMARK SMILES IDX 15 1 16 2 17 3 18 4 19 5 20 6 21 7 22 8 23 9 24 10 25 11
REMARK SMILES IDX 26 12 27 13 28 14 29 15 30 16 14 17 13 18 12 19 11 20 10 21
REMARK SMILES IDX 9 22 8 23 7 24 6 25 5 26 4 27 3 28 2 29 1 30
REMARK H PARENT
REMARK Flexibility Score: inf
ROOT
ATOM      1  C   UNL     1      19.489  69.520  79.358  1.00  0.00     0.000 C 
ENDROOT
BRANCH   1   2
ATOM      2  C   UNL     1      20.060  68.917  78.065  1.00  0.00     0.000 C 
BRANCH   2   3
ATOM      3  C   UNL     1      21.579  68.706  78.131  1.00  0.00     0.000 C 
BRANCH   3   4
ATOM      4  C   UNL     1      22.286  69.459  76.994  1.00  0.00     0.000 C 
BRANCH   4   5
ATOM      5  C   UNL     1      21.332  69.846  75.850  1.00  0.00     0.000 C 
BRANCH   5   6
ATOM      6  C   UNL     1      22.018  70.384  74.579  1.00  0.00     0.000 C 
BRANCH   6   7
ATOM      7  C   UNL     1      23.162  71.386  74.819  1.00  0.00     0.000 C 
BRANCH   7   8
ATOM      8  C   UNL     1      23.084  72.615  73.900  1.00  0.00     0.000 C 
BRANCH   8   9
ATOM      9  C   UNL     1      23.453  72.293  72.442  1.00  0.00     0.000 C 
BRANCH   9  10
ATOM     10  C   UNL     1      22.713  73.170  71.410  1.00  0.00     0.000 C 
BRANCH  10  11
ATOM     11  C   UNL     1      22.222  72.355  70.202  1.00  0.00     0.000 C 
BRANCH  11  12
ATOM     12  C   UNL     1      21.035  71.442  70.553  1.00  0.00     0.006 C 
BRANCH  12  13
ATOM     13  C   UNL     1      20.820  70.336  69.511  1.00  0.00     0.053 C 
BRANCH  13  14
ATOM     14  C   UNL     1      20.588  69.022  70.186  1.00  0.00     0.041 C 
ATOM     15  O   UNL     1      19.671  68.257  69.788  1.00  0.00    -0.550 OA
ATOM     16  O   UNL     1      21.351  68.664  71.291  1.00  0.00    -0.550 OA
ENDBRANCH  13  14
ENDBRANCH  12  13
ENDBRANCH  11  12
ENDBRANCH  10  11
ENDBRANCH   9  10
ENDBRANCH   8   9
ENDBRANCH   7   8
ENDBRANCH   6   7
ENDBRANCH   5   6
ENDBRANCH   4   5
ENDBRANCH   3   4
ENDBRANCH   2   3
ENDBRANCH   1   2
BRANCH   1  17
ATOM     17  C   UNL     1      17.990  69.218  79.540  1.00  0.00     0.000 C 
BRANCH  17  18
ATOM     18  C   UNL     1      17.095  70.452  79.318  1.00  0.00     0.000 C 
BRANCH  18  19
ATOM     19  C   UNL     1      16.837  70.814  77.845  1.00  0.00     0.000 C 
BRANCH  19  20
ATOM     20  C   UNL     1      17.765  71.927  77.330  1.00  0.00     0.000 C 
BRANCH  20  21
ATOM     21  C   UNL     1      18.538  71.527  76.060  1.00  0.00     0.000 C 
BRANCH  21  22
ATOM     22  C   UNL     1      17.709  71.530  74.760  1.00  0.00    -0.000 C 
BRANCH  22  23
ATOM     23  C   UNL     1      18.579  71.562  73.492  1.00  0.00    -0.000 C 
BRANCH  23  24
ATOM     24  C   UNL     1      17.839  72.150  72.280  1.00  0.00    -0.000 C 
BRANCH  24  25
ATOM     25  C   UNL     1      16.597  72.987  72.656  1.00  0.00    -0.000 C 
BRANCH  25  26
ATOM     26  C   UNL     1      15.303  72.407  72.058  1.00  0.00    -0.000 C 
BRANCH  26  27
ATOM     27  C   UNL     1      14.254  72.072  73.141  1.00  0.00    -0.000 C 
BRANCH  27  28
ATOM     28  C   UNL     1      13.661  70.655  73.012  1.00  0.00    -0.000 C 
BRANCH  28  29
ATOM     29  C   UNL     1      14.137  69.658  74.082  1.00  0.00    -0.003 C 
ATOM     30  C   UNL     1      14.150  70.257  75.488  1.00  0.00     0.004 C 
ENDBRANCH  28  29
ENDBRANCH  27  28
ENDBRANCH  26  27
ENDBRANCH  25  26
ENDBRANCH  24  25
ENDBRANCH  23  24
ENDBRANCH  22  23
ENDBRANCH  21  22
ENDBRANCH  20  21
ENDBRANCH  19  20
ENDBRANCH  18  19
ENDBRANCH  17  18
ENDBRANCH   1  17
TORSDOF 26
ENDMDL
MODEL 6
REMARK VINA RESULT:    -7.237      4.736      8.722
REMARK INTER + INTRA:         -21.099
REMARK INTER:                 -17.527
REMARK INTRA:                  -3.571
REMARK UNBOUND:                -2.862
REMARK SMILES CCCCCCCCCCCCCCCCCCCCCCCCCCCC(=O)[O-]
REMARK SMILES IDX 15 1 16 2 17 3 18 4 19 5 20 6 21 7 22 8 23 9 24 10 25 11
REMARK SMILES IDX 26 12 27 13 28 14 29 15 30 16 14 17 13 18 12 19 11 20 10 21
REMARK SMILES IDX 9 22 8 23 7 24 6 25 5 26 4 27 3 28 2 29 1 30
REMARK H PARENT
REMARK Flexibility Score: inf
ROOT
ATOM      1  C   UNL     1      14.060  70.383  75.838  1.00  0.00     0.000 C 
ENDROOT
BRANCH   1   2
ATOM      2  C   UNL     1      15.454  71.000  76.036  1.00  0.00     0.000 C 
BRANCH   2   3
ATOM      3  C   UNL     1      16.053  70.680  77.412  1.00  0.00     0.000 C 
BRANCH   3   4
ATOM      4  C   UNL     1      17.217  71.627  77.737  1.00  0.00     0.000 C 
BRANCH   4   5
ATOM      5  C   UNL     1      17.808  71.389  79.138  1.00  0.00     0.000 C 
BRANCH   5   6
ATOM      6  C   UNL     1      17.014  70.410  80.026  1.00  0.00     0.000 C 
BRANCH   6   7
ATOM      7  C   UNL     1      17.843  69.286  80.673  1.00  0.00     0.000 C 
BRANCH   7   8
ATOM      8  C   UNL     1      18.488  68.348  79.639  1.00  0.00     0.000 C 
BRANCH   8   9
ATOM      9  C   UNL     1      20.021  68.302  79.753  1.00  0.00     0.000 C 
BRANCH   9  10
ATOM     10  C   UNL     1      20.747  69.083  78.637  1.00  0.00     0.000 C 
BRANCH  10  11
ATOM     11  C   UNL     1      19.919  69.150  77.343  1.00  0.00     0.000 C 
BRANCH  11  12
ATOM     12  C   UNL     1      20.265  70.379  76.486  1.00  0.00     0.006 C 
BRANCH  12  13
ATOM     13  C   UNL     1      20.649  70.001  75.050  1.00  0.00     0.053 C 
BRANCH  13  14
ATOM     14  C   UNL     1      22.137  69.979  74.898  1.00  0.00     0.041 C 
ATOM     15  O   UNL     1      22.879  70.265  75.873  1.00  0.00    -0.550 OA
ATOM     16  O   UNL     1      22.706  69.693  73.662  1.00  0.00    -0.550 OA
ENDBRANCH  13  14
ENDBRANCH  12  13
ENDBRANCH  11  12
ENDBRANCH  10  11
ENDBRANCH   9  10
ENDBRANCH   8   9
ENDBRANCH   7   8
ENDBRANCH   6   7
ENDBRANCH   5   6
ENDBRANCH   4   5
ENDBRANCH   3   4
ENDBRANCH   2   3
ENDBRANCH   1   2
BRANCH   1  17
ATOM     17  C   UNL     1      13.995  69.448  74.617  1.00  0.00     0.000 C 
BRANCH  17  18
ATOM     18  C   UNL     1      14.428  70.134  73.308  1.00  0.00     0.000 C 
BRANCH  18  19
ATOM     19  C   UNL     1      13.487  71.248  72.815  1.00  0.00     0.000 C 
BRANCH  19  20
ATOM     20  C   UNL     1      14.215  72.581  72.569  1.00  0.00     0.000 C 
BRANCH  20  21
ATOM     21  C   UNL     1      15.672  72.395  72.108  1.00  0.00     0.000 C 
BRANCH  21  22
ATOM     22  C   UNL     1      16.743  72.870  73.110  1.00  0.00    -0.000 C 
BRANCH  22  23
ATOM     23  C   UNL     1      17.929  71.900  73.228  1.00  0.00    -0.000 C 
BRANCH  23  24
ATOM     24  C   UNL     1      18.619  71.639  71.880  1.00  0.00    -0.000 C 
BRANCH  24  25
ATOM     25  C   UNL     1      20.054  72.203  71.796  1.00  0.00    -0.000 C 
BRANCH  25  26
ATOM     26  C   UNL     1      20.980  71.310  70.953  1.00  0.00    -0.000 C 
BRANCH  26  27
ATOM     27  C   UNL     1      22.131  72.107  70.303  1.00  0.00    -0.000 C 
BRANCH  27  28
ATOM     28  C   UNL     1      22.741  73.181  71.225  1.00  0.00    -0.000 C 
BRANCH  28  29
ATOM     29  C   UNL     1      23.720  72.642  72.282  1.00  0.00    -0.003 C 
ATOM     30  C   UNL     1      23.348  73.057  73.704  1.00  0.00     0.004 C 
ENDBRANCH  28  29
ENDBRANCH  27  28
ENDBRANCH  26  27
ENDBRANCH  25  26
ENDBRANCH  24  25
ENDBRANCH  23  24
ENDBRANCH  22  23
ENDBRANCH  21  22
ENDBRANCH  20  21
ENDBRANCH  19  20
ENDBRANCH  18  19
ENDBRANCH  17  18
ENDBRANCH   1  17
TORSDOF 26
ENDMDL
MODEL 7
REMARK VINA RESULT:    -7.223      4.941      8.406
REMARK INTER + INTRA:         -21.062
REMARK INTER:                 -17.437
REMARK INTRA:                  -3.625
REMARK UNBOUND:                -2.862
REMARK SMILES CCCCCCCCCCCCCCCCCCCCCCCCCCCC(=O)[O-]
REMARK SMILES IDX 15 1 16 2 17 3 18 4 19 5 20 6 21 7 22 8 23 9 24 10 25 11
REMARK SMILES IDX 26 12 27 13 28 14 29 15 30 16 14 17 13 18 12 19 11 20 10 21
REMARK SMILES IDX 9 22 8 23 7 24 6 25 5 26 4 27 3 28 2 29 1 30
REMARK H PARENT
REMARK Flexibility Score: inf
ROOT
ATOM      1  C   UNL     1      14.019  69.918  76.035  1.00  0.00     0.000 C 
ENDROOT
BRANCH   1   2
ATOM      2  C   UNL     1      13.897  70.632  74.679  1.00  0.00     0.000 C 
BRANCH   2   3
ATOM      3  C   UNL     1      14.201  69.706  73.494  1.00  0.00     0.000 C 
BRANCH   3   4
ATOM      4  C   UNL     1      14.945  70.463  72.384  1.00  0.00     0.000 C 
BRANCH   4   5
ATOM      5  C   UNL     1      14.728  71.985  72.450  1.00  0.00     0.000 C 
BRANCH   5   6
ATOM      6  C   UNL     1      15.984  72.812  72.788  1.00  0.00     0.000 C 
BRANCH   6   7
ATOM      7  C   UNL     1      17.311  72.245  72.254  1.00  0.00     0.000 C 
BRANCH   7   8
ATOM      8  C   UNL     1      18.055  71.386  73.289  1.00  0.00     0.000 C 
BRANCH   8   9
ATOM      9  C   UNL     1      19.407  71.991  73.704  1.00  0.00     0.000 C 
BRANCH   9  10
ATOM     10  C   UNL     1      20.598  71.028  73.514  1.00  0.00     0.000 C 
BRANCH  10  11
ATOM     11  C   UNL     1      21.038  70.932  72.043  1.00  0.00     0.000 C 
BRANCH  11  12
ATOM     12  C   UNL     1      21.139  69.478  71.553  1.00  0.00     0.006 C 
BRANCH  12  13
ATOM     13  C   UNL     1      20.075  69.141  70.500  1.00  0.00     0.053 C 
BRANCH  13  14
ATOM     14  C   UNL     1      20.680  69.134  69.132  1.00  0.00     0.041 C 
ATOM     15  O   UNL     1      20.757  68.062  68.478  1.00  0.00    -0.550 OA
ATOM     16  O   UNL     1      21.209  70.304  68.600  1.00  0.00    -0.550 OA
ENDBRANCH  13  14
ENDBRANCH  12  13
ENDBRANCH  11  12
ENDBRANCH  10  11
ENDBRANCH   9  10
ENDBRANCH   8   9
ENDBRANCH   7   8
ENDBRANCH   6   7
ENDBRANCH   5   6
ENDBRANCH   4   5
ENDBRANCH   3   4
ENDBRANCH   2   3
ENDBRANCH   1   2
BRANCH   1  17
ATOM     17  C   UNL     1      15.083  70.558  76.946  1.00  0.00     0.000 C 
BRANCH  17  18
ATOM     18  C   UNL     1      16.280  71.132  76.164  1.00  0.00     0.000 C 
BRANCH  18  19
ATOM     19  C   UNL     1      17.627  71.085  76.907  1.00  0.00     0.000 C 
BRANCH  19  20
ATOM     20  C   UNL     1      17.975  72.412  77.601  1.00  0.00     0.000 C 
BRANCH  20  21
ATOM     21  C   UNL     1      18.447  72.226  79.055  1.00  0.00     0.000 C 
BRANCH  21  22
ATOM     22  C   UNL     1      17.492  72.781  80.129  1.00  0.00    -0.000 C 
BRANCH  22  23
ATOM     23  C   UNL     1      16.259  71.891  80.357  1.00  0.00    -0.000 C 
BRANCH  23  24
ATOM     24  C   UNL     1      16.576  70.643  81.197  1.00  0.00    -0.000 C 
BRANCH  24  25
ATOM     25  C   UNL     1      16.799  69.368  80.355  1.00  0.00    -0.000 C 
BRANCH  25  26
ATOM     26  C   UNL     1      18.224  68.809  80.516  1.00  0.00    -0.000 C 
BRANCH  26  27
ATOM     27  C   UNL     1      18.851  68.405  79.164  1.00  0.00    -0.000 C 
BRANCH  27  28
ATOM     28  C   UNL     1      20.308  68.880  78.989  1.00  0.00    -0.000 C 
BRANCH  28  29
ATOM     29  C   UNL     1      20.745  69.095  77.530  1.00  0.00    -0.003 C 
ATOM     30  C   UNL     1      22.263  69.102  77.360  1.00  0.00     0.004 C 
ENDBRANCH  28  29
ENDBRANCH  27  28
ENDBRANCH  26  27
ENDBRANCH  25  26
ENDBRANCH  24  25
ENDBRANCH  23  24
ENDBRANCH  22  23
ENDBRANCH  21  22
ENDBRANCH  20  21
ENDBRANCH  19  20
ENDBRANCH  18  19
ENDBRANCH  17  18
ENDBRANCH   1  17
TORSDOF 26
ENDMDL
MODEL 8
REMARK VINA RESULT:    -7.199      3.755      9.587
REMARK INTER + INTRA:         -21.002
REMARK INTER:                 -18.133
REMARK INTRA:                  -2.869
REMARK UNBOUND:                -2.862
REMARK SMILES CCCCCCCCCCCCCCCCCCCCCCCCCCCC(=O)[O-]
REMARK SMILES IDX 15 1 16 2 17 3 18 4 19 5 20 6 21 7 22 8 23 9 24 10 25 11
REMARK SMILES IDX 26 12 27 13 28 14 29 15 30 16 14 17 13 18 12 19 11 20 10 21
REMARK SMILES IDX 9 22 8 23 7 24 6 25 5 26 4 27 3 28 2 29 1 30
REMARK H PARENT
REMARK Flexibility Score: inf
ROOT
ATOM      1  C   UNL     1      17.233  71.499  74.262  1.00  0.00     0.000 C 
ENDROOT
BRANCH   1   2
ATOM      2  C   UNL     1      16.777  72.581  73.270  1.00  0.00     0.000 C 
BRANCH   2   3
ATOM      3  C   UNL     1      17.425  72.429  71.887  1.00  0.00     0.000 C 
BRANCH   3   4
ATOM      4  C   UNL     1      18.646  73.351  71.750  1.00  0.00     0.000 C 
BRANCH   4   5
ATOM      5  C   UNL     1      19.914  72.599  71.306  1.00  0.00     0.000 C 
BRANCH   5   6
ATOM      6  C   UNL     1      19.769  71.067  71.216  1.00  0.00     0.000 C 
BRANCH   6   7
ATOM      7  C   UNL     1      20.999  70.260  71.672  1.00  0.00     0.000 C 
BRANCH   7   8
ATOM      8  C   UNL     1      21.395  70.547  73.130  1.00  0.00     0.000 C 
BRANCH   8   9
ATOM      9  C   UNL     1      20.370  70.009  74.142  1.00  0.00     0.000 C 
BRANCH   9  10
ATOM     10  C   UNL     1      20.506  70.630  75.549  1.00  0.00     0.000 C 
BRANCH  10  11
ATOM     11  C   UNL     1      21.069  69.629  76.572  1.00  0.00     0.000 C 
BRANCH  11  12
ATOM     12  C   UNL     1      20.074  69.324  77.704  1.00  0.00     0.006 C 
BRANCH  12  13
ATOM     13  C   UNL     1      20.771  68.820  78.975  1.00  0.00     0.053 C 
BRANCH  13  14
ATOM     14  C   UNL     1      19.908  69.063  80.173  1.00  0.00     0.041 C 
ATOM     15  O   UNL     1      19.494  68.094  80.863  1.00  0.00    -0.550 OA
ATOM     16  O   UNL     1      19.516  70.355  80.497  1.00  0.00    -0.550 OA
ENDBRANCH  13  14
ENDBRANCH  12  13
ENDBRANCH  11  12
ENDBRANCH  10  11
ENDBRANCH   9  10
ENDBRANCH   8   9
ENDBRANCH   7   8
ENDBRANCH   6   7
ENDBRANCH   5   6
ENDBRANCH   4   5
ENDBRANCH   3   4
ENDBRANCH   2   3
ENDBRANCH   1   2
BRANCH   1  17
ATOM     17  C   UNL     1      16.731  71.759  75.693  1.00  0.00     0.000 C 
BRANCH  17  18
ATOM     18  C   UNL     1      15.669  70.743  76.154  1.00  0.00     0.000 C 
BRANCH  18  19
ATOM     19  C   UNL     1      14.315  70.843  75.428  1.00  0.00     0.000 C 
BRANCH  19  20
ATOM     20  C   UNL     1      14.010  69.613  74.557  1.00  0.00     0.000 C 
BRANCH  20  21
ATOM     21  C   UNL     1      14.301  69.846  73.063  1.00  0.00     0.000 C 
BRANCH  21  22
ATOM     22  C   UNL     1      13.696  71.134  72.471  1.00  0.00    -0.000 C 
BRANCH  22  23
ATOM     23  C   UNL     1      12.159  71.134  72.475  1.00  0.00    -0.000 C 
BRANCH  23  24
ATOM     24  C   UNL     1      11.566  72.450  73.003  1.00  0.00    -0.000 C 
BRANCH  24  25
ATOM     25  C   UNL     1      10.401  72.252  73.997  1.00  0.00    -0.000 C 
BRANCH  25  26
ATOM     26  C   UNL     1      10.899  71.971  75.426  1.00  0.00    -0.000 C 
BRANCH  26  27
ATOM     27  C   UNL     1       9.811  72.239  76.489  1.00  0.00    -0.000 C 
BRANCH  27  28
ATOM     28  C   UNL     1       8.501  71.465  76.244  1.00  0.00    -0.000 C 
BRANCH  28  29
ATOM     29  C   UNL     1       7.459  71.590  77.369  1.00  0.00    -0.003 C 
ATOM     30  C   UNL     1       7.953  71.030  78.701  1.00  0.00     0.004 C 
ENDBRANCH  28  29
ENDBRANCH  27  28
ENDBRANCH  26  27
ENDBRANCH  25  26
ENDBRANCH  24  25
ENDBRANCH  23  24
ENDBRANCH  22  23
ENDBRANCH  21  22
ENDBRANCH  20  21
ENDBRANCH  19  20
ENDBRANCH  18  19
ENDBRANCH  17  18
ENDBRANCH   1  17
TORSDOF 26
ENDMDL
MODEL 9
REMARK VINA RESULT:    -7.135      2.839      7.923
REMARK INTER + INTRA:         -20.841
REMARK INTER:                 -17.596
REMARK INTRA:                  -3.245
REMARK UNBOUND:                -2.862
REMARK SMILES CCCCCCCCCCCCCCCCCCCCCCCCCCCC(=O)[O-]
REMARK SMILES IDX 15 1 16 2 17 3 18 4 19 5 20 6 21 7 22 8 23 9 24 10 25 11
REMARK SMILES IDX 26 12 27 13 28 14 29 15 30 16 14 17 13 18 12 19 11 20 10 21
REMARK SMILES IDX 9 22 8 23 7 24 6 25 5 26 4 27 3 28 2 29 1 30
REMARK H PARENT
REMARK Flexibility Score: inf
ROOT
ATOM      1  C   UNL     1      23.238  72.634  71.548  1.00  0.00     0.000 C 
ENDROOT
BRANCH   1   2
ATOM      2  C   UNL     1      22.776  72.812  73.003  1.00  0.00     0.000 C 
BRANCH   2   3
ATOM      3  C   UNL     1      23.644  72.032  74.000  1.00  0.00     0.000 C 
BRANCH   3   4
ATOM      4  C   UNL     1      22.786  71.076  74.843  1.00  0.00     0.000 C 
BRANCH   4   5
ATOM      5  C   UNL     1      21.895  70.161  73.985  1.00  0.00     0.000 C 
BRANCH   5   6
ATOM      6  C   UNL     1      20.421  70.079  74.429  1.00  0.00     0.000 C 
BRANCH   6   7
ATOM      7  C   UNL     1      19.961  71.183  75.398  1.00  0.00     0.000 C 
BRANCH   7   8
ATOM      8  C   UNL     1      19.535  70.636  76.770  1.00  0.00     0.000 C 
BRANCH   8   9
ATOM      9  C   UNL     1      20.317  69.375  77.177  1.00  0.00     0.000 C 
BRANCH   9  10
ATOM     10  C   UNL     1      20.349  69.134  78.701  1.00  0.00     0.000 C 
BRANCH  10  11
ATOM     11  C   UNL     1      19.169  68.268  79.176  1.00  0.00     0.000 C 
BRANCH  11  12
ATOM     12  C   UNL     1      18.502  68.829  80.443  1.00  0.00     0.006 C 
BRANCH  12  13
ATOM     13  C   UNL     1      17.085  69.353  80.173  1.00  0.00     0.053 C 
BRANCH  13  14
ATOM     14  C   UNL     1      17.141  70.718  79.565  1.00  0.00     0.041 C 
ATOM     15  O   UNL     1      18.011  71.546  79.944  1.00  0.00    -0.550 OA
ATOM     16  O   UNL     1      16.199  71.097  78.617  1.00  0.00    -0.550 OA
ENDBRANCH  13  14
ENDBRANCH  12  13
ENDBRANCH  11  12
ENDBRANCH  10  11
ENDBRANCH   9  10
ENDBRANCH   8   9
ENDBRANCH   7   8
ENDBRANCH   6   7
ENDBRANCH   5   6
ENDBRANCH   4   5
ENDBRANCH   3   4
ENDBRANCH   2   3
ENDBRANCH   1   2
BRANCH   1  17
ATOM     17  C   UNL     1      22.067  72.645  70.550  1.00  0.00     0.000 C 
BRANCH  17  18
ATOM     18  C   UNL     1      21.225  71.355  70.594  1.00  0.00     0.000 C 
BRANCH  18  19
ATOM     19  C   UNL     1      19.836  71.505  71.241  1.00  0.00     0.000 C 
BRANCH  19  20
ATOM     20  C   UNL     1      19.450  72.972  71.495  1.00  0.00     0.000 C 
BRANCH  20  21
ATOM     21  C   UNL     1      17.942  73.163  71.747  1.00  0.00     0.000 C 
BRANCH  21  22
ATOM     22  C   UNL     1      17.194  71.903  72.226  1.00  0.00    -0.000 C 
BRANCH  22  23
ATOM     23  C   UNL     1      15.953  72.227  73.073  1.00  0.00    -0.000 C 
BRANCH  23  24
ATOM     24  C   UNL     1      15.701  71.188  74.178  1.00  0.00    -0.000 C 
BRANCH  24  25
ATOM     25  C   UNL     1      14.478  70.284  73.913  1.00  0.00    -0.000 C 
BRANCH  25  26
ATOM     26  C   UNL     1      14.122  70.211  72.418  1.00  0.00    -0.000 C 
BRANCH  26  27
ATOM     27  C   UNL     1      12.698  70.733  72.127  1.00  0.00    -0.000 C 
BRANCH  27  28
ATOM     28  C   UNL     1      12.588  72.270  72.135  1.00  0.00    -0.000 C 
BRANCH  28  29
ATOM     29  C   UNL     1      11.396  72.826  72.934  1.00  0.00    -0.003 C 
ATOM     30  C   UNL     1      11.323  72.271  74.355  1.00  0.00     0.004 C 
ENDBRANCH  28  29
ENDBRANCH  27  28
ENDBRANCH  26  27
ENDBRANCH  25  26
ENDBRANCH  24  25
ENDBRANCH  23  24
ENDBRANCH  22  23
ENDBRANCH  21  22
ENDBRANCH  20  21
ENDBRANCH  19  20
ENDBRANCH  18  19
ENDBRANCH  17  18
ENDBRANCH   1  17
TORSDOF 26
ENDMDL
