MODEL 1
REMARK VINA RESULT:    -8.333      0.000      0.000
REMARK INTER + INTRA:         -14.780
REMARK INTER:                 -13.691
REMARK INTRA:                  -1.088
REMARK UNBOUND:                -1.088
REMARK SMILES C[C@H]1O[C@@H](OC[C@@H]2O[C@@H](Oc3c(-c4ccc(O)c(O)c4)oc4cc(O)cc(O)c4c3=O)[C@@H](O)[C@H](O)[C@H]2O)[C@@H](O)[C@H](O)[C@@H]1O
REMARK SMILES IDX 7 1 36 2 34 3 32 4 9 5 8 6 6 7 5 8 4 9 1 10 2 11 42 12 3 13
REMARK SMILES IDX 40 14 38 15 43 16 41 18 39 20 37 22 35 24 10 26 11 27 12 28
REMARK SMILES IDX 30 29 21 30 29 31 31 32 22 33 27 34 23 35 26 36 24 37 13 38
REMARK SMILES IDX 20 39 14 40 18 41 15 42 16 43 19 44 17 46 28 48 25 50 33 52
REMARK H PARENT 43 17 41 19 39 21 37 23 35 25 19 45 17 47 28 49 25 51 33 53
REMARK Flexibility Score: inf
ROOT
ATOM      1  C   UNL     1       0.068  46.183  83.753  1.00  0.00     0.180 C 
ATOM      2  C   UNL     1      -1.286  45.457  83.970  1.00  0.00     0.177 C 
ATOM      3  C   UNL     1      -1.064  44.069  84.616  1.00  0.00     0.180 C 
ATOM      4  C   UNL     1       0.326  43.486  84.273  1.00  0.00     0.214 C 
ATOM      5  C   UNL     1       0.802  44.055  82.920  1.00  0.00     0.339 C 
ATOM      6  O   UNL     1       0.997  45.462  82.945  1.00  0.00    -0.332 OA
ENDROOT
BRANCH   1   7
ATOM      7  C   UNL     1      -0.149  47.559  83.106  1.00  0.00     0.198 C 
BRANCH   7   8
ATOM      8  O   UNL     1       0.554  48.546  83.844  1.00  0.00    -0.347 OA
BRANCH   8   9
ATOM      9  C   UNL     1      -0.303  49.400  84.592  1.00  0.00     0.281 C 
ATOM     10  C   UNL     1      -2.661  52.001  83.528  1.00  0.00     0.041 C 
ATOM     11  C   UNL     1      -1.860  51.138  84.505  1.00  0.00     0.150 C 
ATOM     12  C   UNL     1      -1.135  52.016  85.568  1.00  0.00     0.174 C 
ATOM     13  O   UNL     1      -0.938  50.366  83.761  1.00  0.00    -0.344 OA
ATOM     14  C   UNL     1       0.336  51.582  85.754  1.00  0.00     0.179 C 
ATOM     15  C   UNL     1       0.443  50.048  85.800  1.00  0.00     0.202 C 
BRANCH  12  16
ATOM     16  O   UNL     1      -1.832  51.917  86.788  1.00  0.00    -0.388 OA
ATOM     17  H   UNL     1      -2.298  52.785  86.931  1.00  0.00     0.211 HD
ENDBRANCH  12  16
BRANCH  14  18
ATOM     18  O   UNL     1       0.863  52.125  86.933  1.00  0.00    -0.387 OA
ATOM     19  H   UNL     1       0.095  52.323  87.528  1.00  0.00     0.211 HD
ENDBRANCH  14  18
BRANCH  15  20
ATOM     20  O   UNL     1       1.792  49.655  85.818  1.00  0.00    -0.385 OA
ATOM     21  H   UNL     1       2.195  50.022  86.656  1.00  0.00     0.211 HD
ENDBRANCH  15  20
ENDBRANCH   8   9
ENDBRANCH   7   8
ENDBRANCH   1   7
BRANCH   2  22
ATOM     22  O   UNL     1      -2.110  46.225  84.816  1.00  0.00    -0.387 OA
ATOM     23  H   UNL     1      -1.644  46.316  85.687  1.00  0.00     0.211 HD
ENDBRANCH   2  22
BRANCH   3  24
ATOM     24  O   UNL     1      -2.061  43.186  84.169  1.00  0.00    -0.387 OA
ATOM     25  H   UNL     1      -2.430  43.572  83.330  1.00  0.00     0.211 HD
ENDBRANCH   3  24
BRANCH   5  26
ATOM     26  O   UNL     1       2.002  43.406  82.481  1.00  0.00    -0.454 OA
BRANCH  26  27
ATOM     27  C   UNL     1       2.169  42.014  82.446  1.00  0.00     0.214 A 
ATOM     28  C   UNL     1       3.256  41.384  83.082  1.00  0.00     0.180 A 
ATOM     29  C   UNL     1       1.243  41.231  81.748  1.00  0.00     0.239 A 
ATOM     30  O   UNL     1       3.334  40.058  83.085  1.00  0.00    -0.452 OA
ATOM     31  C   UNL     1       1.346  39.819  81.778  1.00  0.00     0.111 A 
ATOM     32  O   UNL     1       0.342  41.817  81.091  1.00  0.00    -0.285 OA
ATOM     33  C   UNL     1       2.452  39.271  82.481  1.00  0.00     0.146 A 
ATOM     34  C   UNL     1       0.434  38.922  81.139  1.00  0.00     0.134 A 
ATOM     35  C   UNL     1       2.650  37.889  82.532  1.00  0.00     0.094 A 
ATOM     36  C   UNL     1       0.683  37.542  81.175  1.00  0.00     0.093 A 
ATOM     37  C   UNL     1       1.776  37.026  81.876  1.00  0.00     0.123 A 
BRANCH  28  38
ATOM     38  C   UNL     1       4.341  42.140  83.744  1.00  0.00     0.025 A 
ATOM     39  C   UNL     1       4.658  41.870  85.085  1.00  0.00     0.062 A 
ATOM     40  C   UNL     1       5.103  43.088  83.043  1.00  0.00     0.016 A 
ATOM     41  C   UNL     1       5.688  42.560  85.732  1.00  0.00     0.158 A 
ATOM     42  C   UNL     1       6.134  43.779  83.684  1.00  0.00     0.051 A 
ATOM     43  C   UNL     1       6.430  43.526  85.030  1.00  0.00     0.157 A 
BRANCH  41  44
ATOM     44  O   UNL     1       5.956  42.280  87.070  1.00  0.00    -0.504 OA
ATOM     45  H   UNL     1       5.328  41.727  87.640  1.00  0.00     0.293 HD
ENDBRANCH  41  44
BRANCH  43  46
ATOM     46  O   UNL     1       7.462  44.216  85.666  1.00  0.00    -0.504 OA
ATOM     47  H   UNL     1       8.369  44.322  85.229  1.00  0.00     0.293 HD
ENDBRANCH  43  46
ENDBRANCH  28  38
BRANCH  34  48
ATOM     48  O   UNL     1      -0.728  39.323  80.477  1.00  0.00    -0.507 OA
ATOM     49  H   UNL     1      -0.809  40.143  79.894  1.00  0.00     0.293 HD
ENDBRANCH  34  48
BRANCH  37  50
ATOM     50  O   UNL     1       2.000  35.652  81.934  1.00  0.00    -0.508 OA
ATOM     51  H   UNL     1       2.689  35.203  81.342  1.00  0.00     0.293 HD
ENDBRANCH  37  50
ENDBRANCH  26  27
ENDBRANCH   5  26
BRANCH   4  52
ATOM     52  O   UNL     1       1.254  43.813  85.276  1.00  0.00    -0.384 OA
ATOM     53  H   UNL     1       1.161  43.137  85.990  1.00  0.00     0.211 HD
ENDBRANCH   4  52
TORSDOF 16
ENDMDL
MODEL 2
REMARK VINA RESULT:    -8.076      3.136      9.212
REMARK INTER + INTRA:         -14.358
REMARK INTER:                 -11.651
REMARK INTRA:                  -2.707
REMARK UNBOUND:                -1.088
REMARK SMILES C[C@H]1O[C@@H](OC[C@@H]2O[C@@H](Oc3c(-c4ccc(O)c(O)c4)oc4cc(O)cc(O)c4c3=O)[C@@H](O)[C@H](O)[C@H]2O)[C@@H](O)[C@H](O)[C@@H]1O
REMARK SMILES IDX 7 1 36 2 34 3 32 4 9 5 8 6 6 7 5 8 4 9 1 10 2 11 42 12 3 13
REMARK SMILES IDX 40 14 38 15 43 16 41 18 39 20 37 22 35 24 10 26 11 27 12 28
REMARK SMILES IDX 30 29 21 30 29 31 31 32 22 33 27 34 23 35 26 36 24 37 13 38
REMARK SMILES IDX 20 39 14 40 18 41 15 42 16 43 19 44 17 46 28 48 25 50 33 52
REMARK H PARENT 43 17 41 19 39 21 37 23 35 25 19 45 17 47 28 49 25 51 33 53
REMARK Flexibility Score: inf
ROOT
ATOM      1  C   UNL     1       1.057  40.678  81.505  1.00  0.00     0.180 C 
ATOM      2  C   UNL     1      -0.115  40.405  82.484  1.00  0.00     0.177 C 
ATOM      3  C   UNL     1      -1.420  41.057  81.970  1.00  0.00     0.180 C 
ATOM      4  C   UNL     1      -1.140  42.293  81.086  1.00  0.00     0.214 C 
ATOM      5  C   UNL     1       0.209  42.924  81.495  1.00  0.00     0.339 C 
ATOM      6  O   UNL     1       1.316  42.062  81.272  1.00  0.00    -0.332 OA
ENDROOT
BRANCH   1   7
ATOM      7  C   UNL     1       2.357  40.037  82.016  1.00  0.00     0.198 C 
BRANCH   7   8
ATOM      8  O   UNL     1       3.367  41.027  82.115  1.00  0.00    -0.347 OA
BRANCH   8   9
ATOM      9  C   UNL     1       3.851  41.200  83.442  1.00  0.00     0.281 C 
ATOM     10  C   UNL     1       2.822  39.673  86.615  1.00  0.00     0.041 C 
ATOM     11  C   UNL     1       3.600  40.609  85.687  1.00  0.00     0.150 C 
ATOM     12  C   UNL     1       3.561  42.076  86.206  1.00  0.00     0.174 C 
ATOM     13  O   UNL     1       3.047  40.507  84.389  1.00  0.00    -0.344 OA
ATOM     14  C   UNL     1       3.239  43.071  85.068  1.00  0.00     0.179 C 
ATOM     15  C   UNL     1       4.027  42.710  83.797  1.00  0.00     0.202 C 
BRANCH  12  16
ATOM     16  O   UNL     1       4.807  42.384  86.786  1.00  0.00    -0.388 OA
ATOM     17  H   UNL     1       4.624  42.870  87.635  1.00  0.00     0.211 HD
ENDBRANCH  12  16
BRANCH  14  18
ATOM     18  O   UNL     1       3.550  44.381  85.457  1.00  0.00    -0.387 OA
ATOM     19  H   UNL     1       4.480  44.556  85.160  1.00  0.00     0.211 HD
ENDBRANCH  14  18
BRANCH  15  20
ATOM     20  O   UNL     1       3.619  43.522  82.725  1.00  0.00    -0.385 OA
ATOM     21  H   UNL     1       4.300  44.248  82.629  1.00  0.00     0.211 HD
ENDBRANCH  15  20
ENDBRANCH   8   9
ENDBRANCH   7   8
ENDBRANCH   1   7
BRANCH   2  22
ATOM     22  O   UNL     1      -0.319  39.016  82.608  1.00  0.00    -0.387 OA
ATOM     23  H   UNL     1       0.317  38.679  83.291  1.00  0.00     0.211 HD
ENDBRANCH   2  22
BRANCH   3  24
ATOM     24  O   UNL     1      -2.208  41.440  83.068  1.00  0.00    -0.387 OA
ATOM     25  H   UNL     1      -2.507  42.373  82.894  1.00  0.00     0.211 HD
ENDBRANCH   3  24
BRANCH   5  26
ATOM     26  O   UNL     1       0.420  44.171  80.821  1.00  0.00    -0.454 OA
BRANCH  26  27
ATOM     27  C   UNL     1       0.044  45.415  81.348  1.00  0.00     0.214 A 
ATOM     28  C   UNL     1      -0.858  46.261  80.672  1.00  0.00     0.180 A 
ATOM     29  C   UNL     1       0.590  45.837  82.564  1.00  0.00     0.239 A 
ATOM     30  O   UNL     1      -1.241  47.397  81.242  1.00  0.00    -0.452 OA
ATOM     31  C   UNL     1       0.153  47.050  83.153  1.00  0.00     0.111 A 
ATOM     32  O   UNL     1       1.479  45.123  83.099  1.00  0.00    -0.285 OA
ATOM     33  C   UNL     1      -0.791  47.816  82.418  1.00  0.00     0.146 A 
ATOM     34  C   UNL     1       0.609  47.556  84.409  1.00  0.00     0.134 A 
ATOM     35  C   UNL     1      -1.250  49.041  82.908  1.00  0.00     0.094 A 
ATOM     36  C   UNL     1       0.160  48.807  84.854  1.00  0.00     0.093 A 
ATOM     37  C   UNL     1      -0.772  49.542  84.116  1.00  0.00     0.123 A 
BRANCH  28  38
ATOM     38  C   UNL     1      -1.394  45.946  79.330  1.00  0.00     0.025 A 
ATOM     39  C   UNL     1      -0.793  46.509  78.193  1.00  0.00     0.062 A 
ATOM     40  C   UNL     1      -2.460  45.047  79.162  1.00  0.00     0.016 A 
ATOM     41  C   UNL     1      -1.271  46.217  76.911  1.00  0.00     0.158 A 
ATOM     42  C   UNL     1      -2.939  44.752  77.884  1.00  0.00     0.051 A 
ATOM     43  C   UNL     1      -2.354  45.337  76.752  1.00  0.00     0.157 A 
BRANCH  41  44
ATOM     44  O   UNL     1      -0.662  46.815  75.809  1.00  0.00    -0.504 OA
ATOM     45  H   UNL     1       0.118  46.386  75.327  1.00  0.00     0.293 HD
ENDBRANCH  41  44
BRANCH  43  46
ATOM     46  O   UNL     1      -2.834  45.037  75.477  1.00  0.00    -0.504 OA
ATOM     47  H   UNL     1      -2.202  44.826  74.715  1.00  0.00     0.293 HD
ENDBRANCH  43  46
ENDBRANCH  28  38
BRANCH  34  48
ATOM     48  O   UNL     1       1.479  46.873  85.262  1.00  0.00    -0.507 OA
ATOM     49  H   UNL     1       1.780  47.201  86.168  1.00  0.00     0.293 HD
ENDBRANCH  34  48
BRANCH  37  50
ATOM     50  O   UNL     1      -1.238  50.770  84.579  1.00  0.00    -0.508 OA
ATOM     51  H   UNL     1      -1.985  50.829  85.263  1.00  0.00     0.293 HD
ENDBRANCH  37  50
ENDBRANCH  26  27
ENDBRANCH   5  26
BRANCH   4  52
ATOM     52  O   UNL     1      -1.096  41.925  79.730  1.00  0.00    -0.384 OA
ATOM     53  H   UNL     1      -0.294  41.361  79.608  1.00  0.00     0.211 HD
ENDBRANCH   4  52
TORSDOF 16
ENDMDL
MODEL 3
REMARK VINA RESULT:    -7.693      2.538      4.054
REMARK INTER + INTRA:         -13.729
REMARK INTER:                 -11.752
REMARK INTRA:                  -1.976
REMARK UNBOUND:                -1.088
REMARK SMILES C[C@H]1O[C@@H](OC[C@@H]2O[C@@H](Oc3c(-c4ccc(O)c(O)c4)oc4cc(O)cc(O)c4c3=O)[C@@H](O)[C@H](O)[C@H]2O)[C@@H](O)[C@H](O)[C@@H]1O
REMARK SMILES IDX 7 1 36 2 34 3 32 4 9 5 8 6 6 7 5 8 4 9 1 10 2 11 42 12 3 13
REMARK SMILES IDX 40 14 38 15 43 16 41 18 39 20 37 22 35 24 10 26 11 27 12 28
REMARK SMILES IDX 30 29 21 30 29 31 31 32 22 33 27 34 23 35 26 36 24 37 13 38
REMARK SMILES IDX 20 39 14 40 18 41 15 42 16 43 19 44 17 46 28 48 25 50 33 52
REMARK H PARENT 43 17 41 19 39 21 37 23 35 25 19 45 17 47 28 49 25 51 33 53
REMARK Flexibility Score: inf
ROOT
ATOM      1  C   UNL     1       0.314  46.001  83.478  1.00  0.00     0.180 C 
ATOM      2  C   UNL     1      -0.901  45.319  84.158  1.00  0.00     0.177 C 
ATOM      3  C   UNL     1      -0.446  44.104  85.000  1.00  0.00     0.180 C 
ATOM      4  C   UNL     1       0.861  43.481  84.458  1.00  0.00     0.214 C 
ATOM      5  C   UNL     1       0.972  43.755  82.943  1.00  0.00     0.339 C 
ATOM      6  O   UNL     1       1.075  45.138  82.634  1.00  0.00    -0.332 OA
ENDROOT
BRANCH   1   7
ATOM      7  C   UNL     1      -0.135  47.205  82.636  1.00  0.00     0.198 C 
BRANCH   7   8
ATOM      8  O   UNL     1      -1.330  46.879  81.943  1.00  0.00    -0.347 OA
BRANCH   8   9
ATOM      9  C   UNL     1      -1.244  47.112  80.543  1.00  0.00     0.281 C 
ATOM     10  C   UNL     1      -3.282  49.182  78.301  1.00  0.00     0.041 C 
ATOM     11  C   UNL     1      -2.191  48.184  78.696  1.00  0.00     0.150 C 
ATOM     12  C   UNL     1      -2.259  46.899  77.819  1.00  0.00     0.174 C 
ATOM     13  O   UNL     1      -2.346  47.879  80.069  1.00  0.00    -0.344 OA
ATOM     14  C   UNL     1      -2.150  45.620  78.679  1.00  0.00     0.179 C 
ATOM     15  C   UNL     1      -1.056  45.782  79.749  1.00  0.00     0.202 C 
BRANCH  12  16
ATOM     16  O   UNL     1      -1.217  46.942  76.872  1.00  0.00    -0.388 OA
ATOM     17  H   UNL     1      -0.402  47.259  77.347  1.00  0.00     0.211 HD
ENDBRANCH  12  16
BRANCH  14  18
ATOM     18  O   UNL     1      -1.859  44.510  77.874  1.00  0.00    -0.387 OA
ATOM     19  H   UNL     1      -0.876  44.502  77.738  1.00  0.00     0.211 HD
ENDBRANCH  14  18
BRANCH  15  20
ATOM     20  O   UNL     1      -1.062  44.679  80.621  1.00  0.00    -0.385 OA
ATOM     21  H   UNL     1      -1.828  44.805  81.251  1.00  0.00     0.211 HD
ENDBRANCH  15  20
ENDBRANCH   8   9
ENDBRANCH   7   8
ENDBRANCH   1   7
BRANCH   2  22
ATOM     22  O   UNL     1      -1.554  46.238  85.003  1.00  0.00    -0.387 OA
ATOM     23  H   UNL     1      -1.406  45.943  85.939  1.00  0.00     0.211 HD
ENDBRANCH   2  22
BRANCH   3  24
ATOM     24  O   UNL     1      -1.460  43.132  84.996  1.00  0.00    -0.387 OA
ATOM     25  H   UNL     1      -1.232  42.476  85.708  1.00  0.00     0.211 HD
ENDBRANCH   3  24
BRANCH   5  26
ATOM     26  O   UNL     1       2.076  43.045  82.369  1.00  0.00    -0.454 OA
BRANCH  26  27
ATOM     27  C   UNL     1       2.226  41.652  82.433  1.00  0.00     0.214 A 
ATOM     28  C   UNL     1       3.272  41.054  83.162  1.00  0.00     0.180 A 
ATOM     29  C   UNL     1       1.325  40.834  81.742  1.00  0.00     0.239 A 
ATOM     30  O   UNL     1       3.333  39.731  83.254  1.00  0.00    -0.452 OA
ATOM     31  C   UNL     1       1.408  39.426  81.868  1.00  0.00     0.111 A 
ATOM     32  O   UNL     1       0.465  41.384  81.004  1.00  0.00    -0.285 OA
ATOM     33  C   UNL     1       2.472  38.914  82.659  1.00  0.00     0.146 A 
ATOM     34  C   UNL     1       0.517  38.498  81.245  1.00  0.00     0.134 A 
ATOM     35  C   UNL     1       2.649  37.537  82.810  1.00  0.00     0.094 A 
ATOM     36  C   UNL     1       0.746  37.121  81.383  1.00  0.00     0.093 A 
ATOM     37  C   UNL     1       1.797  36.641  82.169  1.00  0.00     0.123 A 
BRANCH  28  38
ATOM     38  C   UNL     1       4.333  41.841  83.826  1.00  0.00     0.025 A 
ATOM     39  C   UNL     1       4.637  41.598  85.175  1.00  0.00     0.062 A 
ATOM     40  C   UNL     1       5.087  42.793  83.120  1.00  0.00     0.016 A 
ATOM     41  C   UNL     1       5.644  42.318  85.825  1.00  0.00     0.158 A 
ATOM     42  C   UNL     1       6.096  43.513  83.764  1.00  0.00     0.051 A 
ATOM     43  C   UNL     1       6.377  43.287  85.118  1.00  0.00     0.157 A 
BRANCH  41  44
ATOM     44  O   UNL     1       5.899  42.064  87.171  1.00  0.00    -0.504 OA
ATOM     45  H   UNL     1       5.640  42.716  87.900  1.00  0.00     0.293 HD
ENDBRANCH  41  44
BRANCH  43  46
ATOM     46  O   UNL     1       7.388  44.006  85.757  1.00  0.00    -0.504 OA
ATOM     47  H   UNL     1       8.011  44.611  85.237  1.00  0.00     0.293 HD
ENDBRANCH  43  46
ENDBRANCH  28  38
BRANCH  34  48
ATOM     48  O   UNL     1      -0.606  38.867  80.501  1.00  0.00    -0.507 OA
ATOM     49  H   UNL     1      -0.842  38.505  79.589  1.00  0.00     0.293 HD
ENDBRANCH  34  48
BRANCH  37  50
ATOM     50  O   UNL     1       1.999  35.272  82.327  1.00  0.00    -0.508 OA
ATOM     51  H   UNL     1       1.451  34.729  82.984  1.00  0.00     0.293 HD
ENDBRANCH  37  50
ENDBRANCH  26  27
ENDBRANCH   5  26
BRANCH   4  52
ATOM     52  O   UNL     1       1.974  44.027  85.119  1.00  0.00    -0.384 OA
ATOM     53  H   UNL     1       1.629  44.653  85.801  1.00  0.00     0.211 HD
ENDBRANCH   4  52
TORSDOF 16
ENDMDL
MODEL 4
REMARK VINA RESULT:    -7.690      3.357      7.834
REMARK INTER + INTRA:         -13.723
REMARK INTER:                 -11.244
REMARK INTRA:                  -2.479
REMARK UNBOUND:                -1.088
REMARK SMILES C[C@H]1O[C@@H](OC[C@@H]2O[C@@H](Oc3c(-c4ccc(O)c(O)c4)oc4cc(O)cc(O)c4c3=O)[C@@H](O)[C@H](O)[C@H]2O)[C@@H](O)[C@H](O)[C@@H]1O
REMARK SMILES IDX 7 1 36 2 34 3 32 4 9 5 8 6 6 7 5 8 4 9 1 10 2 11 42 12 3 13
REMARK SMILES IDX 40 14 38 15 43 16 41 18 39 20 37 22 35 24 10 26 11 27 12 28
REMARK SMILES IDX 30 29 21 30 29 31 31 32 22 33 27 34 23 35 26 36 24 37 13 38
REMARK SMILES IDX 20 39 14 40 18 41 15 42 16 43 19 44 17 46 28 48 25 50 33 52
REMARK H PARENT 43 17 41 19 39 21 37 23 35 25 19 45 17 47 28 49 25 51 33 53
REMARK Flexibility Score: inf
ROOT
ATOM      1  C   UNL     1      -0.864  42.447  83.235  1.00  0.00     0.180 C 
ATOM      2  C   UNL     1      -0.915  42.466  84.786  1.00  0.00     0.177 C 
ATOM      3  C   UNL     1      -2.335  42.827  85.282  1.00  0.00     0.180 C 
ATOM      4  C   UNL     1      -3.103  43.693  84.257  1.00  0.00     0.214 C 
ATOM      5  C   UNL     1      -2.097  44.500  83.408  1.00  0.00     0.339 C 
ATOM      6  O   UNL     1      -1.248  43.676  82.621  1.00  0.00    -0.332 OA
ENDROOT
BRANCH   1   7
ATOM      7  C   UNL     1       0.547  42.095  82.740  1.00  0.00     0.198 C 
BRANCH   7   8
ATOM      8  O   UNL     1       1.382  43.238  82.833  1.00  0.00    -0.347 OA
BRANCH   8   9
ATOM      9  C   UNL     1       2.558  43.010  83.599  1.00  0.00     0.281 C 
ATOM     10  C   UNL     1       4.199  39.901  84.652  1.00  0.00     0.041 C 
ATOM     11  C   UNL     1       3.961  41.411  84.563  1.00  0.00     0.150 C 
ATOM     12  C   UNL     1       3.952  42.063  85.977  1.00  0.00     0.174 C 
ATOM     13  O   UNL     1       2.737  41.628  83.889  1.00  0.00    -0.344 OA
ATOM     14  C   UNL     1       2.763  43.035  86.144  1.00  0.00     0.179 C 
ATOM     15  C   UNL     1       2.590  43.898  84.882  1.00  0.00     0.202 C 
BRANCH  12  16
ATOM     16  O   UNL     1       5.170  42.743  86.169  1.00  0.00    -0.388 OA
ATOM     17  H   UNL     1       4.985  43.715  86.062  1.00  0.00     0.211 HD
ENDBRANCH  12  16
BRANCH  14  18
ATOM     18  O   UNL     1       2.959  43.866  87.257  1.00  0.00    -0.387 OA
ATOM     19  H   UNL     1       2.089  43.925  87.729  1.00  0.00     0.211 HD
ENDBRANCH  14  18
BRANCH  15  20
ATOM     20  O   UNL     1       1.421  44.672  84.978  1.00  0.00    -0.385 OA
ATOM     21  H   UNL     1       1.285  44.882  85.946  1.00  0.00     0.211 HD
ENDBRANCH  15  20
ENDBRANCH   8   9
ENDBRANCH   7   8
ENDBRANCH   1   7
BRANCH   2  22
ATOM     22  O   UNL     1      -0.566  41.198  85.290  1.00  0.00    -0.387 OA
ATOM     23  H   UNL     1      -0.181  41.330  86.195  1.00  0.00     0.211 HD
ENDBRANCH   2  22
BRANCH   3  24
ATOM     24  O   UNL     1      -2.237  43.523  86.497  1.00  0.00    -0.387 OA
ATOM     25  H   UNL     1      -3.090  44.022  86.611  1.00  0.00     0.211 HD
ENDBRANCH   3  24
BRANCH   5  26
ATOM     26  O   UNL     1      -2.772  45.445  82.569  1.00  0.00    -0.454 OA
BRANCH  26  27
ATOM     27  C   UNL     1      -2.398  45.719  81.245  1.00  0.00     0.214 A 
ATOM     28  C   UNL     1      -1.504  46.761  80.931  1.00  0.00     0.180 A 
ATOM     29  C   UNL     1      -2.941  44.953  80.209  1.00  0.00     0.239 A 
ATOM     30  O   UNL     1      -1.123  46.938  79.671  1.00  0.00    -0.452 OA
ATOM     31  C   UNL     1      -2.507  45.158  78.876  1.00  0.00     0.111 A 
ATOM     32  O   UNL     1      -3.825  44.102  80.495  1.00  0.00    -0.285 OA
ATOM     33  C   UNL     1      -1.569  46.203  78.660  1.00  0.00     0.146 A 
ATOM     34  C   UNL     1      -2.959  44.406  77.747  1.00  0.00     0.134 A 
ATOM     35  C   UNL     1      -1.114  46.497  77.373  1.00  0.00     0.094 A 
ATOM     36  C   UNL     1      -2.513  44.752  76.464  1.00  0.00     0.093 A 
ATOM     37  C   UNL     1      -1.587  45.783  76.276  1.00  0.00     0.123 A 
BRANCH  28  38
ATOM     38  C   UNL     1      -0.973  47.691  81.950  1.00  0.00     0.025 A 
ATOM     39  C   UNL     1      -0.151  47.201  82.977  1.00  0.00     0.062 A 
ATOM     40  C   UNL     1      -1.226  49.071  81.882  1.00  0.00     0.016 A 
ATOM     41  C   UNL     1       0.377  48.060  83.947  1.00  0.00     0.158 A 
ATOM     42  C   UNL     1      -0.700  49.934  82.847  1.00  0.00     0.051 A 
ATOM     43  C   UNL     1       0.098  49.436  83.887  1.00  0.00     0.157 A 
BRANCH  41  44
ATOM     44  O   UNL     1       1.169  47.530  84.964  1.00  0.00    -0.504 OA
ATOM     45  H   UNL     1       2.149  47.763  85.058  1.00  0.00     0.293 HD
ENDBRANCH  41  44
BRANCH  43  46
ATOM     46  O   UNL     1       0.624  50.301  84.846  1.00  0.00    -0.504 OA
ATOM     47  H   UNL     1       1.077  51.166  84.581  1.00  0.00     0.293 HD
ENDBRANCH  43  46
ENDBRANCH  28  38
BRANCH  34  48
ATOM     48  O   UNL     1      -3.822  43.311  77.828  1.00  0.00    -0.507 OA
ATOM     49  H   UNL     1      -4.737  43.324  78.254  1.00  0.00     0.293 HD
ENDBRANCH  34  48
BRANCH  37  50
ATOM     50  O   UNL     1      -1.125  46.100  75.001  1.00  0.00    -0.508 OA
ATOM     51  H   UNL     1      -1.237  45.460  74.223  1.00  0.00     0.293 HD
ENDBRANCH  37  50
ENDBRANCH  26  27
ENDBRANCH   5  26
BRANCH   4  52
ATOM     52  O   UNL     1      -3.884  42.881  83.418  1.00  0.00    -0.384 OA
ATOM     53  H   UNL     1      -3.326  42.651  82.635  1.00  0.00     0.211 HD
ENDBRANCH   4  52
TORSDOF 16
ENDMDL
MODEL 5
REMARK VINA RESULT:    -7.629      2.788      5.513
REMARK INTER + INTRA:         -13.623
REMARK INTER:                 -10.729
REMARK INTRA:                  -2.894
REMARK UNBOUND:                -1.088
REMARK SMILES C[C@H]1O[C@@H](OC[C@@H]2O[C@@H](Oc3c(-c4ccc(O)c(O)c4)oc4cc(O)cc(O)c4c3=O)[C@@H](O)[C@H](O)[C@H]2O)[C@@H](O)[C@H](O)[C@@H]1O
REMARK SMILES IDX 7 1 36 2 34 3 32 4 9 5 8 6 6 7 5 8 4 9 1 10 2 11 42 12 3 13
REMARK SMILES IDX 40 14 38 15 43 16 41 18 39 20 37 22 35 24 10 26 11 27 12 28
REMARK SMILES IDX 30 29 21 30 29 31 31 32 22 33 27 34 23 35 26 36 24 37 13 38
REMARK SMILES IDX 20 39 14 40 18 41 15 42 16 43 19 44 17 46 28 48 25 50 33 52
REMARK H PARENT 43 17 41 19 39 21 37 23 35 25 19 45 17 47 28 49 25 51 33 53
REMARK Flexibility Score: inf
ROOT
ATOM      1  C   UNL     1       1.054  45.107  81.960  1.00  0.00     0.180 C 
ATOM      2  C   UNL     1       0.060  46.068  82.663  1.00  0.00     0.177 C 
ATOM      3  C   UNL     1       0.362  46.156  84.177  1.00  0.00     0.180 C 
ATOM      4  C   UNL     1       1.036  44.870  84.708  1.00  0.00     0.214 C 
ATOM      5  C   UNL     1       0.617  43.670  83.833  1.00  0.00     0.339 C 
ATOM      6  O   UNL     1       1.061  43.781  82.487  1.00  0.00    -0.332 OA
ENDROOT
BRANCH   1   7
ATOM      7  C   UNL     1       0.753  45.013  80.456  1.00  0.00     0.198 C 
BRANCH   7   8
ATOM      8  O   UNL     1      -0.651  44.995  80.255  1.00  0.00    -0.347 OA
BRANCH   8   9
ATOM      9  C   UNL     1      -1.068  44.008  79.319  1.00  0.00     0.281 C 
ATOM     10  C   UNL     1      -2.992  44.277  76.207  1.00  0.00     0.041 C 
ATOM     11  C   UNL     1      -2.251  43.582  77.351  1.00  0.00     0.150 C 
ATOM     12  C   UNL     1      -3.108  42.432  77.959  1.00  0.00     0.174 C 
ATOM     13  O   UNL     1      -1.930  44.554  78.326  1.00  0.00    -0.344 OA
ATOM     14  C   UNL     1      -3.106  42.480  79.503  1.00  0.00     0.179 C 
ATOM     15  C   UNL     1      -1.690  42.766  80.032  1.00  0.00     0.202 C 
BRANCH  12  16
ATOM     16  O   UNL     1      -2.596  41.200  77.508  1.00  0.00    -0.388 OA
ATOM     17  H   UNL     1      -2.318  40.684  78.312  1.00  0.00     0.211 HD
ENDBRANCH  12  16
BRANCH  14  18
ATOM     18  O   UNL     1      -3.569  41.268  80.034  1.00  0.00    -0.387 OA
ATOM     19  H   UNL     1      -3.019  41.076  80.837  1.00  0.00     0.211 HD
ENDBRANCH  14  18
BRANCH  15  20
ATOM     20  O   UNL     1      -1.720  42.957  81.424  1.00  0.00    -0.385 OA
ATOM     21  H   UNL     1      -2.342  42.273  81.803  1.00  0.00     0.211 HD
ENDBRANCH  15  20
ENDBRANCH   8   9
ENDBRANCH   7   8
ENDBRANCH   1   7
BRANCH   2  22
ATOM     22  O   UNL     1       0.165  47.357  82.103  1.00  0.00    -0.387 OA
ATOM     23  H   UNL     1      -0.491  47.417  81.362  1.00  0.00     0.211 HD
ENDBRANCH   2  22
BRANCH   3  24
ATOM     24  O   UNL     1      -0.836  46.375  84.876  1.00  0.00    -0.387 OA
ATOM     25  H   UNL     1      -1.576  46.122  84.262  1.00  0.00     0.211 HD
ENDBRANCH   3  24
BRANCH   5  26
ATOM     26  O   UNL     1       1.077  42.435  84.395  1.00  0.00    -0.454 OA
BRANCH  26  27
ATOM     27  C   UNL     1       1.466  41.326  83.631  1.00  0.00     0.214 A 
ATOM     28  C   UNL     1       2.823  41.001  83.438  1.00  0.00     0.180 A 
ATOM     29  C   UNL     1       0.485  40.531  83.029  1.00  0.00     0.239 A 
ATOM     30  O   UNL     1       3.144  39.901  82.767  1.00  0.00    -0.452 OA
ATOM     31  C   UNL     1       0.857  39.358  82.328  1.00  0.00     0.111 A 
ATOM     32  O   UNL     1      -0.717  40.899  83.115  1.00  0.00    -0.285 OA
ATOM     33  C   UNL     1       2.248  39.088  82.222  1.00  0.00     0.146 A 
ATOM     34  C   UNL     1      -0.061  38.450  81.713  1.00  0.00     0.134 A 
ATOM     35  C   UNL     1       2.705  37.970  81.519  1.00  0.00     0.094 A 
ATOM     36  C   UNL     1       0.431  37.360  80.981  1.00  0.00     0.093 A 
ATOM     37  C   UNL     1       1.804  37.113  80.893  1.00  0.00     0.123 A 
BRANCH  28  38
ATOM     38  C   UNL     1       3.925  41.849  83.941  1.00  0.00     0.025 A 
ATOM     39  C   UNL     1       4.436  41.631  85.230  1.00  0.00     0.062 A 
ATOM     40  C   UNL     1       4.514  42.836  83.133  1.00  0.00     0.016 A 
ATOM     41  C   UNL     1       5.488  42.409  85.726  1.00  0.00     0.158 A 
ATOM     42  C   UNL     1       5.566  43.614  83.623  1.00  0.00     0.051 A 
ATOM     43  C   UNL     1       6.055  43.411  84.921  1.00  0.00     0.157 A 
BRANCH  41  44
ATOM     44  O   UNL     1       5.951  42.177  87.020  1.00  0.00    -0.504 OA
ATOM     45  H   UNL     1       5.337  42.204  87.824  1.00  0.00     0.293 HD
ENDBRANCH  41  44
BRANCH  43  46
ATOM     46  O   UNL     1       7.108  44.188  85.406  1.00  0.00    -0.504 OA
ATOM     47  H   UNL     1       7.018  44.720  86.262  1.00  0.00     0.293 HD
ENDBRANCH  43  46
ENDBRANCH  28  38
BRANCH  34  48
ATOM     48  O   UNL     1      -1.450  38.559  81.801  1.00  0.00    -0.507 OA
ATOM     49  H   UNL     1      -2.109  38.050  81.231  1.00  0.00     0.293 HD
ENDBRANCH  34  48
BRANCH  37  50
ATOM     50  O   UNL     1       2.284  36.010  80.190  1.00  0.00    -0.508 OA
ATOM     51  H   UNL     1       2.964  35.378  80.599  1.00  0.00     0.293 HD
ENDBRANCH  37  50
ENDBRANCH  26  27
ENDBRANCH   5  26
BRANCH   4  52
ATOM     52  O   UNL     1       2.435  45.005  84.685  1.00  0.00    -0.384 OA
ATOM     53  H   UNL     1       2.812  44.204  85.122  1.00  0.00     0.211 HD
ENDBRANCH   4  52
TORSDOF 16
ENDMDL
MODEL 6
REMARK VINA RESULT:    -7.612      4.428      8.719
REMARK INTER + INTRA:         -13.595
REMARK INTER:                 -10.750
REMARK INTRA:                  -2.845
REMARK UNBOUND:                -1.088
REMARK SMILES C[C@H]1O[C@@H](OC[C@@H]2O[C@@H](Oc3c(-c4ccc(O)c(O)c4)oc4cc(O)cc(O)c4c3=O)[C@@H](O)[C@H](O)[C@H]2O)[C@@H](O)[C@H](O)[C@@H]1O
REMARK SMILES IDX 7 1 36 2 34 3 32 4 9 5 8 6 6 7 5 8 4 9 1 10 2 11 42 12 3 13
REMARK SMILES IDX 40 14 38 15 43 16 41 18 39 20 37 22 35 24 10 26 11 27 12 28
REMARK SMILES IDX 30 29 21 30 29 31 31 32 22 33 27 34 23 35 26 36 24 37 13 38
REMARK SMILES IDX 20 39 14 40 18 41 15 42 16 43 19 44 17 46 28 48 25 50 33 52
REMARK H PARENT 43 17 41 19 39 21 37 23 35 25 19 45 17 47 28 49 25 51 33 53
REMARK Flexibility Score: inf
ROOT
ATOM      1  C   UNL     1       4.804  41.927  85.850  1.00  0.00     0.180 C 
ATOM      2  C   UNL     1       3.500  42.717  86.137  1.00  0.00     0.177 C 
ATOM      3  C   UNL     1       3.219  42.776  87.657  1.00  0.00     0.180 C 
ATOM      4  C   UNL     1       3.827  41.567  88.405  1.00  0.00     0.214 C 
ATOM      5  C   UNL     1       3.924  40.363  87.444  1.00  0.00     0.339 C 
ATOM      6  O   UNL     1       4.803  40.592  86.352  1.00  0.00    -0.332 OA
ENDROOT
BRANCH   1   7
ATOM      7  C   UNL     1       5.082  41.862  84.341  1.00  0.00     0.198 C 
BRANCH   7   8
ATOM      8  O   UNL     1       4.203  40.927  83.736  1.00  0.00    -0.347 OA
BRANCH   8   9
ATOM      9  C   UNL     1       3.394  41.499  82.717  1.00  0.00     0.281 C 
ATOM     10  C   UNL     1       0.797  44.088  82.851  1.00  0.00     0.041 C 
ATOM     11  C   UNL     1       1.682  43.009  82.222  1.00  0.00     0.150 C 
ATOM     12  C   UNL     1       0.831  41.983  81.416  1.00  0.00     0.174 C 
ATOM     13  O   UNL     1       2.409  42.374  83.256  1.00  0.00    -0.344 OA
ATOM     14  C   UNL     1       1.246  40.530  81.734  1.00  0.00     0.179 C 
ATOM     15  C   UNL     1       2.779  40.406  81.789  1.00  0.00     0.202 C 
BRANCH  12  16
ATOM     16  O   UNL     1       0.989  42.247  80.041  1.00  0.00    -0.388 OA
ATOM     17  H   UNL     1       1.848  42.737  79.933  1.00  0.00     0.211 HD
ENDBRANCH  12  16
BRANCH  14  18
ATOM     18  O   UNL     1       0.738  39.651  80.767  1.00  0.00    -0.387 OA
ATOM     19  H   UNL     1      -0.250  39.688  80.834  1.00  0.00     0.211 HD
ENDBRANCH  14  18
BRANCH  15  20
ATOM     20  O   UNL     1       3.147  39.121  82.224  1.00  0.00    -0.385 OA
ATOM     21  H   UNL     1       4.142  39.115  82.316  1.00  0.00     0.211 HD
ENDBRANCH  15  20
ENDBRANCH   8   9
ENDBRANCH   7   8
ENDBRANCH   1   7
BRANCH   2  22
ATOM     22  O   UNL     1       3.620  44.032  85.646  1.00  0.00    -0.387 OA
ATOM     23  H   UNL     1       4.344  44.478  86.157  1.00  0.00     0.211 HD
ENDBRANCH   2  22
BRANCH   3  24
ATOM     24  O   UNL     1       1.831  42.804  87.870  1.00  0.00    -0.387 OA
ATOM     25  H   UNL     1       1.402  42.747  86.975  1.00  0.00     0.211 HD
ENDBRANCH   3  24
BRANCH   5  26
ATOM     26  O   UNL     1       4.315  39.175  88.143  1.00  0.00    -0.454 OA
BRANCH  26  27
ATOM     27  C   UNL     1       5.264  38.263  87.660  1.00  0.00     0.214 A 
ATOM     28  C   UNL     1       4.902  37.204  86.805  1.00  0.00     0.180 A 
ATOM     29  C   UNL     1       6.601  38.394  88.051  1.00  0.00     0.239 A 
ATOM     30  O   UNL     1       5.845  36.407  86.314  1.00  0.00    -0.452 OA
ATOM     31  C   UNL     1       7.586  37.536  87.503  1.00  0.00     0.111 A 
ATOM     32  O   UNL     1       6.889  39.274  88.905  1.00  0.00    -0.285 OA
ATOM     33  C   UNL     1       7.132  36.524  86.614  1.00  0.00     0.146 A 
ATOM     34  C   UNL     1       8.983  37.607  87.796  1.00  0.00     0.134 A 
ATOM     35  C   UNL     1       8.031  35.613  86.054  1.00  0.00     0.094 A 
ATOM     36  C   UNL     1       9.853  36.654  87.249  1.00  0.00     0.093 A 
ATOM     37  C   UNL     1       9.385  35.669  86.374  1.00  0.00     0.123 A 
BRANCH  28  38
ATOM     38  C   UNL     1       3.499  36.923  86.433  1.00  0.00     0.025 A 
ATOM     39  C   UNL     1       3.025  37.308  85.169  1.00  0.00     0.062 A 
ATOM     40  C   UNL     1       2.640  36.225  87.299  1.00  0.00     0.016 A 
ATOM     41  C   UNL     1       1.706  37.042  84.786  1.00  0.00     0.158 A 
ATOM     42  C   UNL     1       1.323  35.956  86.920  1.00  0.00     0.051 A 
ATOM     43  C   UNL     1       0.845  36.366  85.668  1.00  0.00     0.157 A 
BRANCH  41  44
ATOM     44  O   UNL     1       1.266  37.461  83.532  1.00  0.00    -0.504 OA
ATOM     45  H   UNL     1       1.911  37.692  82.786  1.00  0.00     0.293 HD
ENDBRANCH  41  44
BRANCH  43  46
ATOM     46  O   UNL     1      -0.470  36.092  85.292  1.00  0.00    -0.504 OA
ATOM     47  H   UNL     1      -0.769  36.173  84.329  1.00  0.00     0.293 HD
ENDBRANCH  43  46
ENDBRANCH  28  38
BRANCH  34  48
ATOM     48  O   UNL     1       9.569  38.593  88.594  1.00  0.00    -0.507 OA
ATOM     49  H   UNL     1       9.412  39.585  88.497  1.00  0.00     0.293 HD
ENDBRANCH  34  48
BRANCH  37  50
ATOM     50  O   UNL     1      10.260  34.744  85.810  1.00  0.00    -0.508 OA
ATOM     51  H   UNL     1      10.777  34.087  86.383  1.00  0.00     0.293 HD
ENDBRANCH  37  50
ENDBRANCH  26  27
ENDBRANCH   5  26
BRANCH   4  52
ATOM     52  O   UNL     1       5.106  41.886  88.891  1.00  0.00    -0.384 OA
ATOM     53  H   UNL     1       5.146  42.869  88.983  1.00  0.00     0.211 HD
ENDBRANCH   4  52
TORSDOF 16
ENDMDL
MODEL 7
REMARK VINA RESULT:    -7.611      3.025      7.241
REMARK INTER + INTRA:         -13.594
REMARK INTER:                 -10.569
REMARK INTRA:                  -3.025
REMARK UNBOUND:                -1.088
REMARK SMILES C[C@H]1O[C@@H](OC[C@@H]2O[C@@H](Oc3c(-c4ccc(O)c(O)c4)oc4cc(O)cc(O)c4c3=O)[C@@H](O)[C@H](O)[C@H]2O)[C@@H](O)[C@H](O)[C@@H]1O
REMARK SMILES IDX 7 1 36 2 34 3 32 4 9 5 8 6 6 7 5 8 4 9 1 10 2 11 42 12 3 13
REMARK SMILES IDX 40 14 38 15 43 16 41 18 39 20 37 22 35 24 10 26 11 27 12 28
REMARK SMILES IDX 30 29 21 30 29 31 31 32 22 33 27 34 23 35 26 36 24 37 13 38
REMARK SMILES IDX 20 39 14 40 18 41 15 42 16 43 19 44 17 46 28 48 25 50 33 52
REMARK H PARENT 43 17 41 19 39 21 37 23 35 25 19 45 17 47 28 49 25 51 33 53
REMARK Flexibility Score: inf
ROOT
ATOM      1  C   UNL     1      -2.738  42.247  81.130  1.00  0.00     0.180 C 
ATOM      2  C   UNL     1      -1.560  41.662  80.307  1.00  0.00     0.177 C 
ATOM      3  C   UNL     1      -0.555  40.935  81.232  1.00  0.00     0.180 C 
ATOM      4  C   UNL     1      -0.568  41.510  82.667  1.00  0.00     0.214 C 
ATOM      5  C   UNL     1      -1.012  42.988  82.625  1.00  0.00     0.339 C 
ATOM      6  O   UNL     1      -2.343  43.156  82.156  1.00  0.00    -0.332 OA
ENDROOT
BRANCH   1   7
ATOM      7  C   UNL     1      -3.735  42.974  80.216  1.00  0.00     0.198 C 
BRANCH   7   8
ATOM      8  O   UNL     1      -4.102  44.212  80.803  1.00  0.00    -0.347 OA
BRANCH   8   9
ATOM      9  C   UNL     1      -3.918  45.320  79.931  1.00  0.00     0.281 C 
ATOM     10  C   UNL     1      -1.480  45.920  77.256  1.00  0.00     0.041 C 
ATOM     11  C   UNL     1      -2.631  46.239  78.212  1.00  0.00     0.150 C 
ATOM     12  C   UNL     1      -2.405  47.601  78.931  1.00  0.00     0.174 C 
ATOM     13  O   UNL     1      -2.742  45.179  79.141  1.00  0.00    -0.344 OA
ATOM     14  C   UNL     1      -2.683  47.494  80.447  1.00  0.00     0.179 C 
ATOM     15  C   UNL     1      -3.959  46.675  80.704  1.00  0.00     0.202 C 
BRANCH  12  16
ATOM     16  O   UNL     1      -3.247  48.567  78.347  1.00  0.00    -0.388 OA
ATOM     17  H   UNL     1      -2.755  48.958  77.575  1.00  0.00     0.211 HD
ENDBRANCH  12  16
BRANCH  14  18
ATOM     18  O   UNL     1      -2.822  48.769  81.013  1.00  0.00    -0.387 OA
ATOM     19  H   UNL     1      -1.948  49.000  81.421  1.00  0.00     0.211 HD
ENDBRANCH  14  18
BRANCH  15  20
ATOM     20  O   UNL     1      -4.125  46.453  82.083  1.00  0.00    -0.385 OA
ATOM     21  H   UNL     1      -4.091  47.346  82.531  1.00  0.00     0.211 HD
ENDBRANCH  15  20
ENDBRANCH   8   9
ENDBRANCH   7   8
ENDBRANCH   1   7
BRANCH   2  22
ATOM     22  O   UNL     1      -2.050  40.743  79.358  1.00  0.00    -0.387 OA
ATOM     23  H   UNL     1      -2.672  40.129  79.828  1.00  0.00     0.211 HD
ENDBRANCH   2  22
BRANCH   3  24
ATOM     24  O   UNL     1       0.737  41.056  80.695  1.00  0.00    -0.387 OA
ATOM     25  H   UNL     1       1.323  40.445  81.218  1.00  0.00     0.211 HD
ENDBRANCH   3  24
BRANCH   5  26
ATOM     26  O   UNL     1      -0.868  43.606  83.909  1.00  0.00    -0.454 OA
BRANCH  26  27
ATOM     27  C   UNL     1      -0.536  44.957  84.092  1.00  0.00     0.214 A 
ATOM     28  C   UNL     1       0.804  45.390  84.121  1.00  0.00     0.180 A 
ATOM     29  C   UNL     1      -1.558  45.895  84.269  1.00  0.00     0.239 A 
ATOM     30  O   UNL     1       1.069  46.687  84.225  1.00  0.00    -0.452 OA
ATOM     31  C   UNL     1      -1.245  47.273  84.366  1.00  0.00     0.111 A 
ATOM     32  O   UNL     1      -2.743  45.477  84.354  1.00  0.00    -0.285 OA
ATOM     33  C   UNL     1       0.133  47.620  84.342  1.00  0.00     0.146 A 
ATOM     34  C   UNL     1      -2.208  48.320  84.504  1.00  0.00     0.134 A 
ATOM     35  C   UNL     1       0.533  48.953  84.466  1.00  0.00     0.094 A 
ATOM     36  C   UNL     1      -1.772  49.643  84.666  1.00  0.00     0.093 A 
ATOM     37  C   UNL     1      -0.412  49.961  84.636  1.00  0.00     0.123 A 
BRANCH  28  38
ATOM     38  C   UNL     1       1.947  44.455  84.058  1.00  0.00     0.025 A 
ATOM     39  C   UNL     1       2.598  44.073  85.241  1.00  0.00     0.062 A 
ATOM     40  C   UNL     1       2.363  43.892  82.840  1.00  0.00     0.016 A 
ATOM     41  C   UNL     1       3.674  43.178  85.212  1.00  0.00     0.158 A 
ATOM     42  C   UNL     1       3.435  42.997  82.806  1.00  0.00     0.051 A 
ATOM     43  C   UNL     1       4.100  42.639  83.987  1.00  0.00     0.157 A 
BRANCH  41  44
ATOM     44  O   UNL     1       4.309  42.842  86.406  1.00  0.00    -0.504 OA
ATOM     45  H   UNL     1       4.499  41.882  86.662  1.00  0.00     0.293 HD
ENDBRANCH  41  44
BRANCH  43  46
ATOM     46  O   UNL     1       5.168  41.742  83.948  1.00  0.00    -0.504 OA
ATOM     47  H   UNL     1       5.849  41.703  84.696  1.00  0.00     0.293 HD
ENDBRANCH  43  46
ENDBRANCH  28  38
BRANCH  34  48
ATOM     48  O   UNL     1      -3.590  48.124  84.470  1.00  0.00    -0.507 OA
ATOM     49  H   UNL     1      -4.167  48.200  83.645  1.00  0.00     0.293 HD
ENDBRANCH  34  48
BRANCH  37  50
ATOM     50  O   UNL     1       0.013  51.281  84.767  1.00  0.00    -0.508 OA
ATOM     51  H   UNL     1      -0.209  51.830  85.591  1.00  0.00     0.293 HD
ENDBRANCH  37  50
ENDBRANCH  26  27
ENDBRANCH   5  26
BRANCH   4  52
ATOM     52  O   UNL     1      -1.449  40.776  83.479  1.00  0.00    -0.384 OA
ATOM     53  H   UNL     1      -0.896  40.248  84.105  1.00  0.00     0.211 HD
ENDBRANCH   4  52
TORSDOF 16
ENDMDL
MODEL 8
REMARK VINA RESULT:    -7.477      2.013      9.121
REMARK INTER + INTRA:         -13.373
REMARK INTER:                 -10.630
REMARK INTRA:                  -2.743
REMARK UNBOUND:                -1.088
REMARK SMILES C[C@H]1O[C@@H](OC[C@@H]2O[C@@H](Oc3c(-c4ccc(O)c(O)c4)oc4cc(O)cc(O)c4c3=O)[C@@H](O)[C@H](O)[C@H]2O)[C@@H](O)[C@H](O)[C@@H]1O
REMARK SMILES IDX 7 1 36 2 34 3 32 4 9 5 8 6 6 7 5 8 4 9 1 10 2 11 42 12 3 13
REMARK SMILES IDX 40 14 38 15 43 16 41 18 39 20 37 22 35 24 10 26 11 27 12 28
REMARK SMILES IDX 30 29 21 30 29 31 31 32 22 33 27 34 23 35 26 36 24 37 13 38
REMARK SMILES IDX 20 39 14 40 18 41 15 42 16 43 19 44 17 46 28 48 25 50 33 52
REMARK H PARENT 43 17 41 19 39 21 37 23 35 25 19 45 17 47 28 49 25 51 33 53
REMARK Flexibility Score: inf
ROOT
ATOM      1  C   UNL     1      -1.798  40.763  84.730  1.00  0.00     0.180 C 
ATOM      2  C   UNL     1      -1.103  40.775  86.117  1.00  0.00     0.177 C 
ATOM      3  C   UNL     1      -1.381  42.105  86.856  1.00  0.00     0.180 C 
ATOM      4  C   UNL     1      -1.647  43.269  85.874  1.00  0.00     0.214 C 
ATOM      5  C   UNL     1      -0.925  42.990  84.539  1.00  0.00     0.339 C 
ATOM      6  O   UNL     1      -1.414  41.835  83.872  1.00  0.00    -0.332 OA
ENDROOT
BRANCH   1   7
ATOM      7  C   UNL     1      -1.519  39.445  83.991  1.00  0.00     0.198 C 
BRANCH   7   8
ATOM      8  O   UNL     1      -1.184  39.721  82.640  1.00  0.00    -0.347 OA
BRANCH   8   9
ATOM      9  C   UNL     1      -0.125  38.908  82.150  1.00  0.00     0.281 C 
ATOM     10  C   UNL     1       1.571  35.999  83.608  1.00  0.00     0.041 C 
ATOM     11  C   UNL     1       1.297  37.109  82.590  1.00  0.00     0.150 C 
ATOM     12  C   UNL     1       2.602  37.883  82.238  1.00  0.00     0.174 C 
ATOM     13  O   UNL     1       0.316  37.972  83.128  1.00  0.00    -0.344 OA
ATOM     14  C   UNL     1       2.376  39.412  82.260  1.00  0.00     0.179 C 
ATOM     15  C   UNL     1       1.044  39.769  81.578  1.00  0.00     0.202 C 
BRANCH  12  16
ATOM     16  O   UNL     1       3.043  37.472  80.965  1.00  0.00    -0.388 OA
ATOM     17  H   UNL     1       2.428  37.878  80.296  1.00  0.00     0.211 HD
ENDBRANCH  12  16
BRANCH  14  18
ATOM     18  O   UNL     1       3.428  40.073  81.611  1.00  0.00    -0.387 OA
ATOM     19  H   UNL     1       3.948  39.382  81.127  1.00  0.00     0.211 HD
ENDBRANCH  14  18
BRANCH  15  20
ATOM     20  O   UNL     1       0.772  41.139  81.732  1.00  0.00    -0.385 OA
ATOM     21  H   UNL     1      -0.216  41.233  81.851  1.00  0.00     0.211 HD
ENDBRANCH  15  20
ENDBRANCH   8   9
ENDBRANCH   7   8
ENDBRANCH   1   7
BRANCH   2  22
ATOM     22  O   UNL     1      -1.584  39.709  86.902  1.00  0.00    -0.387 OA
ATOM     23  H   UNL     1      -1.213  39.817  87.816  1.00  0.00     0.211 HD
ENDBRANCH   2  22
BRANCH   3  24
ATOM     24  O   UNL     1      -0.278  42.424  87.665  1.00  0.00    -0.387 OA
ATOM     25  H   UNL     1       0.010  43.341  87.409  1.00  0.00     0.211 HD
ENDBRANCH   3  24
BRANCH   5  26
ATOM     26  O   UNL     1      -1.000  44.124  83.666  1.00  0.00    -0.454 OA
BRANCH  26  27
ATOM     27  C   UNL     1      -0.590  45.416  84.028  1.00  0.00     0.214 A 
ATOM     28  C   UNL     1       0.771  45.743  84.183  1.00  0.00     0.180 A 
ATOM     29  C   UNL     1      -1.556  46.401  84.258  1.00  0.00     0.239 A 
ATOM     30  O   UNL     1       1.116  46.996  84.456  1.00  0.00    -0.452 OA
ATOM     31  C   UNL     1      -1.158  47.731  84.536  1.00  0.00     0.111 A 
ATOM     32  O   UNL     1      -2.770  46.065  84.226  1.00  0.00    -0.285 OA
ATOM     33  C   UNL     1       0.239  47.976  84.631  1.00  0.00     0.146 A 
ATOM     34  C   UNL     1      -2.055  48.824  84.744  1.00  0.00     0.134 A 
ATOM     35  C   UNL     1       0.719  49.252  84.936  1.00  0.00     0.094 A 
ATOM     36  C   UNL     1      -1.542  50.083  85.088  1.00  0.00     0.093 A 
ATOM     37  C   UNL     1      -0.164  50.301  85.173  1.00  0.00     0.123 A 
BRANCH  28  38
ATOM     38  C   UNL     1       1.851  44.738  84.071  1.00  0.00     0.025 A 
ATOM     39  C   UNL     1       2.500  44.286  85.231  1.00  0.00     0.062 A 
ATOM     40  C   UNL     1       2.204  44.181  82.832  1.00  0.00     0.016 A 
ATOM     41  C   UNL     1       3.515  43.326  85.156  1.00  0.00     0.158 A 
ATOM     42  C   UNL     1       3.216  43.221  82.753  1.00  0.00     0.051 A 
ATOM     43  C   UNL     1       3.881  42.792  83.909  1.00  0.00     0.157 A 
BRANCH  41  44
ATOM     44  O   UNL     1       4.152  42.920  86.328  1.00  0.00    -0.504 OA
ATOM     45  H   UNL     1       4.972  42.328  86.316  1.00  0.00     0.293 HD
ENDBRANCH  41  44
BRANCH  43  46
ATOM     46  O   UNL     1       4.888  41.830  83.826  1.00  0.00    -0.504 OA
ATOM     47  H   UNL     1       5.220  41.492  82.932  1.00  0.00     0.293 HD
ENDBRANCH  43  46
ENDBRANCH  28  38
BRANCH  34  48
ATOM     48  O   UNL     1      -3.443  48.737  84.611  1.00  0.00    -0.507 OA
ATOM     49  H   UNL     1      -3.928  48.070  84.029  1.00  0.00     0.293 HD
ENDBRANCH  34  48
BRANCH  37  50
ATOM     50  O   UNL     1       0.339  51.562  85.484  1.00  0.00    -0.508 OA
ATOM     51  H   UNL     1       0.706  51.773  86.405  1.00  0.00     0.293 HD
ENDBRANCH  37  50
ENDBRANCH  26  27
ENDBRANCH   5  26
BRANCH   4  52
ATOM     52  O   UNL     1      -3.026  43.408  85.644  1.00  0.00    -0.384 OA
ATOM     53  H   UNL     1      -3.255  42.823  84.881  1.00  0.00     0.211 HD
ENDBRANCH   4  52
TORSDOF 16
ENDMDL
MODEL 9
REMARK VINA RESULT:    -7.475      4.015      9.586
REMARK INTER + INTRA:         -13.370
REMARK INTER:                 -11.519
REMARK INTRA:                  -1.852
REMARK UNBOUND:                -1.088
REMARK SMILES C[C@H]1O[C@@H](OC[C@@H]2O[C@@H](Oc3c(-c4ccc(O)c(O)c4)oc4cc(O)cc(O)c4c3=O)[C@@H](O)[C@H](O)[C@H]2O)[C@@H](O)[C@H](O)[C@@H]1O
REMARK SMILES IDX 7 1 36 2 34 3 32 4 9 5 8 6 6 7 5 8 4 9 1 10 2 11 42 12 3 13
REMARK SMILES IDX 40 14 38 15 43 16 41 18 39 20 37 22 35 24 10 26 11 27 12 28
REMARK SMILES IDX 30 29 21 30 29 31 31 32 22 33 27 34 23 35 26 36 24 37 13 38
REMARK SMILES IDX 20 39 14 40 18 41 15 42 16 43 19 44 17 46 28 48 25 50 33 52
REMARK H PARENT 43 17 41 19 39 21 37 23 35 25 19 45 17 47 28 49 25 51 33 53
REMARK Flexibility Score: inf
ROOT
ATOM      1  C   UNL     1       3.448  38.467  85.268  1.00  0.00     0.180 C 
ATOM      2  C   UNL     1       2.043  37.862  85.531  1.00  0.00     0.177 C 
ATOM      3  C   UNL     1       1.391  37.399  84.207  1.00  0.00     0.180 C 
ATOM      4  C   UNL     1       1.908  38.206  82.994  1.00  0.00     0.214 C 
ATOM      5  C   UNL     1       2.355  39.608  83.460  1.00  0.00     0.339 C 
ATOM      6  O   UNL     1       3.451  39.570  84.363  1.00  0.00    -0.332 OA
ENDROOT
BRANCH   1   7
ATOM      7  C   UNL     1       4.096  38.933  86.580  1.00  0.00     0.198 C 
BRANCH   7   8
ATOM      8  O   UNL     1       4.705  37.828  87.227  1.00  0.00    -0.347 OA
BRANCH   8   9
ATOM      9  C   UNL     1       5.899  37.394  86.587  1.00  0.00     0.281 C 
ATOM     10  C   UNL     1       7.341  34.048  86.159  1.00  0.00     0.041 C 
ATOM     11  C   UNL     1       7.268  35.574  86.070  1.00  0.00     0.150 C 
ATOM     12  C   UNL     1       8.571  36.232  86.611  1.00  0.00     0.174 C 
ATOM     13  O   UNL     1       6.134  36.006  86.796  1.00  0.00    -0.344 OA
ATOM     14  C   UNL     1       8.258  37.409  87.561  1.00  0.00     0.179 C 
ATOM     15  C   UNL     1       7.121  38.275  86.991  1.00  0.00     0.202 C 
BRANCH  12  16
ATOM     16  O   UNL     1       9.340  36.677  85.518  1.00  0.00    -0.388 OA
ATOM     17  H   UNL     1       8.837  37.419  85.087  1.00  0.00     0.211 HD
ENDBRANCH  12  16
BRANCH  14  18
ATOM     18  O   UNL     1       9.399  38.201  87.755  1.00  0.00    -0.387 OA
ATOM     19  H   UNL     1       9.787  38.372  86.859  1.00  0.00     0.211 HD
ENDBRANCH  14  18
BRANCH  15  20
ATOM     20  O   UNL     1       6.740  39.253  87.926  1.00  0.00    -0.385 OA
ATOM     21  H   UNL     1       5.832  39.004  88.261  1.00  0.00     0.211 HD
ENDBRANCH  15  20
ENDBRANCH   8   9
ENDBRANCH   7   8
ENDBRANCH   1   7
BRANCH   2  22
ATOM     22  O   UNL     1       2.155  36.755  86.394  1.00  0.00    -0.387 OA
ATOM     23  H   UNL     1       1.243  36.388  86.531  1.00  0.00     0.211 HD
ENDBRANCH   2  22
BRANCH   3  24
ATOM     24  O   UNL     1      -0.003  37.547  84.302  1.00  0.00    -0.387 OA
ATOM     25  H   UNL     1      -0.169  38.421  84.745  1.00  0.00     0.211 HD
ENDBRANCH   3  24
BRANCH   5  26
ATOM     26  O   UNL     1       2.674  40.446  82.343  1.00  0.00    -0.454 OA
BRANCH  26  27
ATOM     27  C   UNL     1       2.035  41.666  82.075  1.00  0.00     0.214 A 
ATOM     28  C   UNL     1       2.494  42.877  82.628  1.00  0.00     0.180 A 
ATOM     29  C   UNL     1       0.903  41.679  81.253  1.00  0.00     0.239 A 
ATOM     30  O   UNL     1       1.902  44.016  82.290  1.00  0.00    -0.452 OA
ATOM     31  C   UNL     1       0.300  42.912  80.900  1.00  0.00     0.111 A 
ATOM     32  O   UNL     1       0.439  40.577  80.859  1.00  0.00    -0.285 OA
ATOM     33  C   UNL     1       0.859  44.086  81.473  1.00  0.00     0.146 A 
ATOM     34  C   UNL     1      -0.829  43.049  80.035  1.00  0.00     0.134 A 
ATOM     35  C   UNL     1       0.306  45.341  81.206  1.00  0.00     0.094 A 
ATOM     36  C   UNL     1      -1.385  44.317  79.819  1.00  0.00     0.093 A 
ATOM     37  C   UNL     1      -0.817  45.459  80.391  1.00  0.00     0.123 A 
BRANCH  28  38
ATOM     38  C   UNL     1       3.610  42.939  83.597  1.00  0.00     0.025 A 
ATOM     39  C   UNL     1       3.349  42.788  84.968  1.00  0.00     0.062 A 
ATOM     40  C   UNL     1       4.939  43.091  83.170  1.00  0.00     0.016 A 
ATOM     41  C   UNL     1       4.387  42.829  85.904  1.00  0.00     0.158 A 
ATOM     42  C   UNL     1       5.980  43.130  84.101  1.00  0.00     0.051 A 
ATOM     43  C   UNL     1       5.712  43.006  85.471  1.00  0.00     0.157 A 
BRANCH  41  44
ATOM     44  O   UNL     1       4.084  42.699  87.258  1.00  0.00    -0.504 OA
ATOM     45  H   UNL     1       3.131  42.699  87.598  1.00  0.00     0.293 HD
ENDBRANCH  41  44
BRANCH  43  46
ATOM     46  O   UNL     1       6.754  43.043  86.398  1.00  0.00    -0.504 OA
ATOM     47  H   UNL     1       6.700  43.621  87.227  1.00  0.00     0.293 HD
ENDBRANCH  43  46
ENDBRANCH  28  38
BRANCH  34  48
ATOM     48  O   UNL     1      -1.429  41.987  79.353  1.00  0.00    -0.507 OA
ATOM     49  H   UNL     1      -1.242  41.010  79.524  1.00  0.00     0.293 HD
ENDBRANCH  34  48
BRANCH  37  50
ATOM     50  O   UNL     1      -1.356  46.720  80.147  1.00  0.00    -0.508 OA
ATOM     51  H   UNL     1      -2.111  47.091  80.713  1.00  0.00     0.293 HD
ENDBRANCH  37  50
ENDBRANCH  26  27
ENDBRANCH   5  26
BRANCH   4  52
ATOM     52  O   UNL     1       2.990  37.542  82.391  1.00  0.00    -0.384 OA
ATOM     53  H   UNL     1       2.934  36.593  82.658  1.00  0.00     0.211 HD
ENDBRANCH   4  52
TORSDOF 16
ENDMDL
