MODEL 1
REMARK VINA RESULT:    -5.014      0.000      0.000
REMARK INTER + INTRA:         -14.709
REMARK INTER:                 -11.464
REMARK INTRA:                  -3.246
REMARK UNBOUND:                -3.246
REMARK SMILES CCCCCCCCCCCCCCCCCCCCCCCC(=O)[O-]
REMARK SMILES IDX 13 1 14 2 15 3 16 4 17 5 18 6 19 7 20 8 21 9 22 10 23 11
REMARK SMILES IDX 24 12 25 13 26 14 12 15 11 16 10 17 9 18 8 19 7 20 6 21 5 22
REMARK SMILES IDX 4 23 3 24 2 25 1 26
REMARK H PARENT
REMARK Flexibility Score: inf
ROOT
ATOM      1  C   UNL     1      21.920  -5.750 -39.253  1.00  0.00     0.000 C 
ENDROOT
BRANCH   1   2
ATOM      2  C   UNL     1      23.174  -5.139 -39.903  1.00  0.00     0.000 C 
BRANCH   2   3
ATOM      3  C   UNL     1      23.261  -3.611 -39.695  1.00  0.00     0.000 C 
BRANCH   3   4
ATOM      4  C   UNL     1      24.684  -3.039 -39.854  1.00  0.00     0.000 C 
BRANCH   4   5
ATOM      5  C   UNL     1      25.417  -2.735 -38.535  1.00  0.00     0.000 C 
BRANCH   5   6
ATOM      6  C   UNL     1      26.946  -2.919 -38.588  1.00  0.00     0.000 C 
BRANCH   6   7
ATOM      7  C   UNL     1      27.414  -4.339 -38.196  1.00  0.00     0.000 C 
BRANCH   7   8
ATOM      8  C   UNL     1      26.267  -5.352 -38.009  1.00  0.00     0.000 C 
BRANCH   8   9
ATOM      9  C   UNL     1      26.647  -6.827 -38.257  1.00  0.00     0.000 C 
BRANCH   9  10
ATOM     10  C   UNL     1      25.749  -7.589 -39.252  1.00  0.00     0.006 C 
BRANCH  10  11
ATOM     11  C   UNL     1      25.327  -8.991 -38.773  1.00  0.00     0.053 C 
BRANCH  11  12
ATOM     12  C   UNL     1      24.633  -9.782 -39.839  1.00  0.00     0.041 C 
ATOM     13  O   UNL     1      23.603  -9.325 -40.401  1.00  0.00    -0.550 OA
ATOM     14  O   UNL     1      25.149 -11.007 -40.244  1.00  0.00    -0.550 OA
ENDBRANCH  11  12
ENDBRANCH  10  11
ENDBRANCH   9  10
ENDBRANCH   8   9
ENDBRANCH   7   8
ENDBRANCH   6   7
ENDBRANCH   5   6
ENDBRANCH   4   5
ENDBRANCH   3   4
ENDBRANCH   2   3
ENDBRANCH   1   2
BRANCH   1  15
ATOM     15  C   UNL     1      22.200  -7.095 -38.558  1.00  0.00     0.000 C 
BRANCH  15  16
ATOM     16  C   UNL     1      22.087  -7.070 -37.021  1.00  0.00     0.000 C 
BRANCH  16  17
ATOM     17  C   UNL     1      23.344  -6.574 -36.278  1.00  0.00     0.000 C 
BRANCH  17  18
ATOM     18  C   UNL     1      23.569  -5.052 -36.317  1.00  0.00    -0.000 C 
BRANCH  18  19
ATOM     19  C   UNL     1      22.332  -4.255 -35.871  1.00  0.00    -0.000 C 
BRANCH  19  20
ATOM     20  C   UNL     1      22.249  -2.871 -36.536  1.00  0.00    -0.000 C 
BRANCH  20  21
ATOM     21  C   UNL     1      21.063  -2.037 -36.015  1.00  0.00    -0.000 C 
BRANCH  21  22
ATOM     22  C   UNL     1      19.945  -1.878 -37.059  1.00  0.00    -0.000 C 
BRANCH  22  23
ATOM     23  C   UNL     1      20.034  -2.839 -38.261  1.00  0.00    -0.000 C 
BRANCH  23  24
ATOM     24  C   UNL     1      19.180  -2.406 -39.472  1.00  0.00    -0.000 C 
BRANCH  24  25
ATOM     25  C   UNL     1      19.742  -2.935 -40.801  1.00  0.00    -0.003 C 
ATOM     26  C   UNL     1      18.903  -2.458 -41.983  1.00  0.00     0.004 C 
ENDBRANCH  24  25
ENDBRANCH  23  24
ENDBRANCH  22  23
ENDBRANCH  21  22
ENDBRANCH  20  21
ENDBRANCH  19  20
ENDBRANCH  18  19
ENDBRANCH  17  18
ENDBRANCH  16  17
ENDBRANCH  15  16
ENDBRANCH   1  15
TORSDOF 22
ENDMDL
MODEL 2
REMARK VINA RESULT:    -4.899      1.489      5.951
REMARK INTER + INTRA:         -14.446
REMARK INTER:                 -10.800
REMARK INTRA:                  -3.645
REMARK UNBOUND:                -3.246
REMARK SMILES CCCCCCCCCCCCCCCCCCCCCCCC(=O)[O-]
REMARK SMILES IDX 13 1 14 2 15 3 16 4 17 5 18 6 19 7 20 8 21 9 22 10 23 11
REMARK SMILES IDX 24 12 25 13 26 14 12 15 11 16 10 17 9 18 8 19 7 20 6 21 5 22
REMARK SMILES IDX 4 23 3 24 2 25 1 26
REMARK H PARENT
REMARK Flexibility Score: inf
ROOT
ATOM      1  C   UNL     1      23.918  -2.992 -39.845  1.00  0.00     0.000 C 
ENDROOT
BRANCH   1   2
ATOM      2  C   UNL     1      23.531  -4.479 -39.763  1.00  0.00     0.000 C 
BRANCH   2   3
ATOM      3  C   UNL     1      22.036  -4.717 -40.070  1.00  0.00     0.000 C 
BRANCH   3   4
ATOM      4  C   UNL     1      21.164  -3.451 -39.952  1.00  0.00     0.000 C 
BRANCH   4   5
ATOM      5  C   UNL     1      20.215  -3.423 -38.741  1.00  0.00     0.000 C 
BRANCH   5   6
ATOM      6  C   UNL     1      20.497  -2.300 -37.725  1.00  0.00     0.000 C 
BRANCH   6   7
ATOM      7  C   UNL     1      21.734  -2.563 -36.835  1.00  0.00     0.000 C 
BRANCH   7   8
ATOM      8  C   UNL     1      21.760  -3.965 -36.191  1.00  0.00     0.000 C 
BRANCH   8   9
ATOM      9  C   UNL     1      23.154  -4.621 -36.104  1.00  0.00     0.000 C 
BRANCH   9  10
ATOM     10  C   UNL     1      23.211  -6.118 -36.469  1.00  0.00     0.006 C 
BRANCH  10  11
ATOM     11  C   UNL     1      21.957  -6.635 -37.199  1.00  0.00     0.053 C 
BRANCH  11  12
ATOM     12  C   UNL     1      22.222  -7.876 -37.995  1.00  0.00     0.041 C 
ATOM     13  O   UNL     1      22.527  -8.951 -37.413  1.00  0.00    -0.550 OA
ATOM     14  O   UNL     1      22.091  -7.859 -39.378  1.00  0.00    -0.550 OA
ENDBRANCH  11  12
ENDBRANCH  10  11
ENDBRANCH   9  10
ENDBRANCH   8   9
ENDBRANCH   7   8
ENDBRANCH   6   7
ENDBRANCH   5   6
ENDBRANCH   4   5
ENDBRANCH   3   4
ENDBRANCH   2   3
ENDBRANCH   1   2
BRANCH   1  15
ATOM     15  C   UNL     1      24.910  -2.569 -38.746  1.00  0.00     0.000 C 
BRANCH  15  16
ATOM     16  C   UNL     1      25.924  -3.655 -38.333  1.00  0.00     0.000 C 
BRANCH  16  17
ATOM     17  C   UNL     1      27.406  -3.244 -38.440  1.00  0.00     0.000 C 
BRANCH  17  18
ATOM     18  C   UNL     1      28.405  -4.223 -37.798  1.00  0.00    -0.000 C 
BRANCH  18  19
ATOM     19  C   UNL     1      28.262  -5.657 -38.336  1.00  0.00    -0.000 C 
BRANCH  19  20
ATOM     20  C   UNL     1      27.867  -6.662 -37.242  1.00  0.00    -0.000 C 
BRANCH  20  21
ATOM     21  C   UNL     1      26.417  -7.156 -37.391  1.00  0.00    -0.000 C 
BRANCH  21  22
ATOM     22  C   UNL     1      25.827  -6.855 -38.780  1.00  0.00    -0.000 C 
BRANCH  22  23
ATOM     23  C   UNL     1      25.594  -8.091 -39.671  1.00  0.00    -0.000 C 
BRANCH  23  24
ATOM     24  C   UNL     1      25.343  -9.393 -38.879  1.00  0.00    -0.000 C 
BRANCH  24  25
ATOM     25  C   UNL     1      25.380 -10.638 -39.779  1.00  0.00    -0.003 C 
ATOM     26  C   UNL     1      24.333 -10.548 -40.886  1.00  0.00     0.004 C 
ENDBRANCH  24  25
ENDBRANCH  23  24
ENDBRANCH  22  23
ENDBRANCH  21  22
ENDBRANCH  20  21
ENDBRANCH  19  20
ENDBRANCH  18  19
ENDBRANCH  17  18
ENDBRANCH  16  17
ENDBRANCH  15  16
ENDBRANCH   1  15
TORSDOF 22
ENDMDL
MODEL 3
REMARK VINA RESULT:    -4.814      1.112      3.357
REMARK INTER + INTRA:         -14.251
REMARK INTER:                 -10.943
REMARK INTRA:                  -3.308
REMARK UNBOUND:                -3.246
REMARK SMILES CCCCCCCCCCCCCCCCCCCCCCCC(=O)[O-]
REMARK SMILES IDX 13 1 14 2 15 3 16 4 17 5 18 6 19 7 20 8 21 9 22 10 23 11
REMARK SMILES IDX 24 12 25 13 26 14 12 15 11 16 10 17 9 18 8 19 7 20 6 21 5 22
REMARK SMILES IDX 4 23 3 24 2 25 1 26
REMARK H PARENT
REMARK Flexibility Score: inf
ROOT
ATOM      1  C   UNL     1      22.659  -5.115 -39.915  1.00  0.00     0.000 C 
ENDROOT
BRANCH   1   2
ATOM      2  C   UNL     1      24.019  -4.403 -40.026  1.00  0.00     0.000 C 
BRANCH   2   3
ATOM      3  C   UNL     1      23.961  -2.940 -39.536  1.00  0.00     0.000 C 
BRANCH   3   4
ATOM      4  C   UNL     1      25.224  -2.483 -38.778  1.00  0.00     0.000 C 
BRANCH   4   5
ATOM      5  C   UNL     1      25.932  -3.583 -37.967  1.00  0.00     0.000 C 
BRANCH   5   6
ATOM      6  C   UNL     1      27.401  -3.831 -38.360  1.00  0.00     0.000 C 
BRANCH   6   7
ATOM      7  C   UNL     1      28.043  -5.035 -37.633  1.00  0.00     0.000 C 
BRANCH   7   8
ATOM      8  C   UNL     1      27.839  -6.386 -38.349  1.00  0.00     0.000 C 
BRANCH   8   9
ATOM      9  C   UNL     1      26.578  -7.168 -37.927  1.00  0.00     0.000 C 
BRANCH   9  10
ATOM     10  C   UNL     1      25.410  -7.145 -38.935  1.00  0.00     0.006 C 
BRANCH  10  11
ATOM     11  C   UNL     1      25.541  -8.176 -40.073  1.00  0.00     0.053 C 
BRANCH  11  12
ATOM     12  C   UNL     1      25.014  -9.525 -39.694  1.00  0.00     0.041 C 
ATOM     13  O   UNL     1      24.637 -10.333 -40.584  1.00  0.00    -0.550 OA
ATOM     14  O   UNL     1      24.980  -9.911 -38.359  1.00  0.00    -0.550 OA
ENDBRANCH  11  12
ENDBRANCH  10  11
ENDBRANCH   9  10
ENDBRANCH   8   9
ENDBRANCH   7   8
ENDBRANCH   6   7
ENDBRANCH   5   6
ENDBRANCH   4   5
ENDBRANCH   3   4
ENDBRANCH   2   3
ENDBRANCH   1   2
BRANCH   1  15
ATOM     15  C   UNL     1      21.483  -4.232 -40.370  1.00  0.00     0.000 C 
BRANCH  15  16
ATOM     16  C   UNL     1      20.393  -4.001 -39.304  1.00  0.00     0.000 C 
BRANCH  16  17
ATOM     17  C   UNL     1      20.046  -2.524 -39.030  1.00  0.00     0.000 C 
BRANCH  17  18
ATOM     18  C   UNL     1      20.147  -2.091 -37.556  1.00  0.00    -0.000 C 
BRANCH  18  19
ATOM     19  C   UNL     1      21.598  -1.875 -37.097  1.00  0.00    -0.000 C 
BRANCH  19  20
ATOM     20  C   UNL     1      21.908  -2.578 -35.766  1.00  0.00    -0.000 C 
BRANCH  20  21
ATOM     21  C   UNL     1      21.888  -4.113 -35.891  1.00  0.00    -0.000 C 
BRANCH  21  22
ATOM     22  C   UNL     1      23.265  -4.698 -36.248  1.00  0.00    -0.000 C 
BRANCH  22  23
ATOM     23  C   UNL     1      23.317  -6.236 -36.331  1.00  0.00    -0.000 C 
BRANCH  23  24
ATOM     24  C   UNL     1      22.023  -6.877 -36.880  1.00  0.00    -0.000 C 
BRANCH  24  25
ATOM     25  C   UNL     1      22.306  -8.133 -37.719  1.00  0.00    -0.003 C 
ATOM     26  C   UNL     1      21.883  -7.930 -39.171  1.00  0.00     0.004 C 
ENDBRANCH  24  25
ENDBRANCH  23  24
ENDBRANCH  22  23
ENDBRANCH  21  22
ENDBRANCH  20  21
ENDBRANCH  19  20
ENDBRANCH  18  19
ENDBRANCH  17  18
ENDBRANCH  16  17
ENDBRANCH  15  16
ENDBRANCH   1  15
TORSDOF 22
ENDMDL
MODEL 4
REMARK VINA RESULT:    -4.646      1.648      4.927
REMARK INTER + INTRA:         -13.868
REMARK INTER:                 -11.045
REMARK INTRA:                  -2.823
REMARK UNBOUND:                -3.246
REMARK SMILES CCCCCCCCCCCCCCCCCCCCCCCC(=O)[O-]
REMARK SMILES IDX 13 1 14 2 15 3 16 4 17 5 18 6 19 7 20 8 21 9 22 10 23 11
REMARK SMILES IDX 24 12 25 13 26 14 12 15 11 16 10 17 9 18 8 19 7 20 6 21 5 22
REMARK SMILES IDX 4 23 3 24 2 25 1 26
REMARK H PARENT
REMARK Flexibility Score: inf
ROOT
ATOM      1  C   UNL     1      19.669  -2.196 -40.550  1.00  0.00     0.000 C 
ENDROOT
BRANCH   1   2
ATOM      2  C   UNL     1      19.349  -3.369 -41.495  1.00  0.00     0.000 C 
BRANCH   2   3
ATOM      3  C   UNL     1      20.489  -4.409 -41.550  1.00  0.00     0.000 C 
BRANCH   3   4
ATOM      4  C   UNL     1      21.481  -4.314 -40.372  1.00  0.00     0.000 C 
BRANCH   4   5
ATOM      5  C   UNL     1      22.571  -5.400 -40.348  1.00  0.00     0.000 C 
BRANCH   5   6
ATOM      6  C   UNL     1      23.906  -4.961 -39.716  1.00  0.00     0.000 C 
BRANCH   6   7
ATOM      7  C   UNL     1      24.184  -3.445 -39.842  1.00  0.00     0.000 C 
BRANCH   7   8
ATOM      8  C   UNL     1      25.253  -2.917 -38.864  1.00  0.00     0.000 C 
BRANCH   8   9
ATOM      9  C   UNL     1      25.939  -3.993 -37.997  1.00  0.00     0.000 C 
BRANCH   9  10
ATOM     10  C   UNL     1      27.472  -4.084 -38.135  1.00  0.00     0.006 C 
BRANCH  10  11
ATOM     11  C   UNL     1      28.061  -5.448 -37.727  1.00  0.00     0.053 C 
BRANCH  11  12
ATOM     12  C   UNL     1      27.057  -6.557 -37.803  1.00  0.00     0.041 C 
ATOM     13  O   UNL     1      26.607  -7.080 -36.749  1.00  0.00    -0.550 OA
ATOM     14  O   UNL     1      26.583  -6.985 -39.037  1.00  0.00    -0.550 OA
ENDBRANCH  11  12
ENDBRANCH  10  11
ENDBRANCH   9  10
ENDBRANCH   8   9
ENDBRANCH   7   8
ENDBRANCH   6   7
ENDBRANCH   5   6
ENDBRANCH   4   5
ENDBRANCH   3   4
ENDBRANCH   2   3
ENDBRANCH   1   2
BRANCH   1  15
ATOM     15  C   UNL     1      18.846  -2.235 -39.249  1.00  0.00     0.000 C 
BRANCH  15  16
ATOM     16  C   UNL     1      19.650  -1.956 -37.963  1.00  0.00     0.000 C 
BRANCH  16  17
ATOM     17  C   UNL     1      21.121  -2.416 -37.995  1.00  0.00     0.000 C 
BRANCH  17  18
ATOM     18  C   UNL     1      21.896  -2.223 -36.679  1.00  0.00    -0.000 C 
BRANCH  18  19
ATOM     19  C   UNL     1      21.824  -3.455 -35.760  1.00  0.00    -0.000 C 
BRANCH  19  20
ATOM     20  C   UNL     1      21.523  -4.751 -36.530  1.00  0.00    -0.000 C 
BRANCH  20  21
ATOM     21  C   UNL     1      22.767  -5.643 -36.691  1.00  0.00    -0.000 C 
BRANCH  21  22
ATOM     22  C   UNL     1      22.443  -7.142 -36.570  1.00  0.00    -0.000 C 
BRANCH  22  23
ATOM     23  C   UNL     1      22.370  -7.903 -37.908  1.00  0.00    -0.000 C 
BRANCH  23  24
ATOM     24  C   UNL     1      23.692  -8.595 -38.306  1.00  0.00    -0.000 C 
BRANCH  24  25
ATOM     25  C   UNL     1      23.714  -9.003 -39.788  1.00  0.00    -0.003 C 
ATOM     26  C   UNL     1      24.979  -9.787 -40.124  1.00  0.00     0.004 C 
ENDBRANCH  24  25
ENDBRANCH  23  24
ENDBRANCH  22  23
ENDBRANCH  21  22
ENDBRANCH  20  21
ENDBRANCH  19  20
ENDBRANCH  18  19
ENDBRANCH  17  18
ENDBRANCH  16  17
ENDBRANCH  15  16
ENDBRANCH   1  15
TORSDOF 22
ENDMDL
MODEL 5
REMARK VINA RESULT:    -4.594      1.100      5.122
REMARK INTER + INTRA:         -13.748
REMARK INTER:                 -10.882
REMARK INTRA:                  -2.866
REMARK UNBOUND:                -3.246
REMARK SMILES CCCCCCCCCCCCCCCCCCCCCCCC(=O)[O-]
REMARK SMILES IDX 13 1 14 2 15 3 16 4 17 5 18 6 19 7 20 8 21 9 22 10 23 11
REMARK SMILES IDX 24 12 25 13 26 14 12 15 11 16 10 17 9 18 8 19 7 20 6 21 5 22
REMARK SMILES IDX 4 23 3 24 2 25 1 26
REMARK H PARENT
REMARK Flexibility Score: inf
ROOT
ATOM      1  C   UNL     1      20.512  -1.888 -36.682  1.00  0.00     0.000 C 
ENDROOT
BRANCH   1   2
ATOM      2  C   UNL     1      20.202  -2.835 -37.855  1.00  0.00     0.000 C 
BRANCH   2   3
ATOM      3  C   UNL     1      19.405  -2.139 -38.980  1.00  0.00     0.000 C 
BRANCH   3   4
ATOM      4  C   UNL     1      19.664  -2.722 -40.384  1.00  0.00     0.000 C 
BRANCH   4   5
ATOM      5  C   UNL     1      20.543  -3.985 -40.414  1.00  0.00     0.000 C 
BRANCH   5   6
ATOM      6  C   UNL     1      21.988  -3.778 -39.920  1.00  0.00     0.000 C 
BRANCH   6   7
ATOM      7  C   UNL     1      22.848  -5.061 -39.965  1.00  0.00     0.000 C 
BRANCH   7   8
ATOM      8  C   UNL     1      22.030  -6.367 -40.030  1.00  0.00     0.000 C 
BRANCH   8   9
ATOM      9  C   UNL     1      21.849  -7.096 -38.682  1.00  0.00     0.000 C 
BRANCH   9  10
ATOM     10  C   UNL     1      22.717  -8.355 -38.482  1.00  0.00     0.006 C 
BRANCH  10  11
ATOM     11  C   UNL     1      23.351  -8.895 -39.778  1.00  0.00     0.053 C 
BRANCH  11  12
ATOM     12  C   UNL     1      24.843  -8.989 -39.696  1.00  0.00     0.041 C 
ATOM     13  O   UNL     1      25.391 -10.044 -39.279  1.00  0.00    -0.550 OA
ATOM     14  O   UNL     1      25.633  -7.928 -40.121  1.00  0.00    -0.550 OA
ENDBRANCH  11  12
ENDBRANCH  10  11
ENDBRANCH   9  10
ENDBRANCH   8   9
ENDBRANCH   7   8
ENDBRANCH   6   7
ENDBRANCH   5   6
ENDBRANCH   4   5
ENDBRANCH   3   4
ENDBRANCH   2   3
ENDBRANCH   1   2
BRANCH   1  15
ATOM     15  C   UNL     1      21.516  -2.486 -35.679  1.00  0.00     0.000 C 
BRANCH  15  16
ATOM     16  C   UNL     1      22.692  -3.254 -36.316  1.00  0.00     0.000 C 
BRANCH  16  17
ATOM     17  C   UNL     1      22.582  -4.791 -36.255  1.00  0.00     0.000 C 
BRANCH  17  18
ATOM     18  C   UNL     1      23.873  -5.522 -35.843  1.00  0.00    -0.000 C 
BRANCH  18  19
ATOM     19  C   UNL     1      24.750  -5.905 -37.047  1.00  0.00    -0.000 C 
BRANCH  19  20
ATOM     20  C   UNL     1      25.774  -7.001 -36.708  1.00  0.00    -0.000 C 
BRANCH  20  21
ATOM     21  C   UNL     1      27.193  -6.650 -37.189  1.00  0.00    -0.000 C 
BRANCH  21  22
ATOM     22  C   UNL     1      27.199  -5.586 -38.300  1.00  0.00    -0.000 C 
BRANCH  22  23
ATOM     23  C   UNL     1      28.018  -4.319 -37.985  1.00  0.00    -0.000 C 
BRANCH  23  24
ATOM     24  C   UNL     1      27.277  -3.001 -38.300  1.00  0.00    -0.000 C 
BRANCH  24  25
ATOM     25  C   UNL     1      25.874  -3.245 -38.877  1.00  0.00    -0.003 C 
ATOM     26  C   UNL     1      25.034  -1.971 -38.839  1.00  0.00     0.004 C 
ENDBRANCH  24  25
ENDBRANCH  23  24
ENDBRANCH  22  23
ENDBRANCH  21  22
ENDBRANCH  20  21
ENDBRANCH  19  20
ENDBRANCH  18  19
ENDBRANCH  17  18
ENDBRANCH  16  17
ENDBRANCH  15  16
ENDBRANCH   1  15
TORSDOF 22
ENDMDL
MODEL 6
REMARK VINA RESULT:    -4.450      2.392      6.509
REMARK INTER + INTRA:         -13.418
REMARK INTER:                 -10.378
REMARK INTRA:                  -3.041
REMARK UNBOUND:                -3.246
REMARK SMILES CCCCCCCCCCCCCCCCCCCCCCCC(=O)[O-]
REMARK SMILES IDX 13 1 14 2 15 3 16 4 17 5 18 6 19 7 20 8 21 9 22 10 23 11
REMARK SMILES IDX 24 12 25 13 26 14 12 15 11 16 10 17 9 18 8 19 7 20 6 21 5 22
REMARK SMILES IDX 4 23 3 24 2 25 1 26
REMARK H PARENT
REMARK Flexibility Score: inf
ROOT
ATOM      1  C   UNL     1      23.936  -8.527 -38.358  1.00  0.00     0.000 C 
ENDROOT
BRANCH   1   2
ATOM      2  C   UNL     1      22.669  -8.592 -37.486  1.00  0.00     0.000 C 
BRANCH   2   3
ATOM      3  C   UNL     1      22.323  -7.230 -36.846  1.00  0.00     0.000 C 
BRANCH   3   4
ATOM      4  C   UNL     1      23.541  -6.484 -36.266  1.00  0.00     0.000 C 
BRANCH   4   5
ATOM      5  C   UNL     1      23.415  -4.950 -36.240  1.00  0.00     0.000 C 
BRANCH   5   6
ATOM      6  C   UNL     1      21.973  -4.418 -36.346  1.00  0.00     0.000 C 
BRANCH   6   7
ATOM      7  C   UNL     1      21.831  -2.929 -35.957  1.00  0.00     0.000 C 
BRANCH   7   8
ATOM      8  C   UNL     1      21.339  -2.022 -37.105  1.00  0.00     0.000 C 
BRANCH   8   9
ATOM      9  C   UNL     1      19.807  -1.894 -37.230  1.00  0.00     0.000 C 
BRANCH   9  10
ATOM     10  C   UNL     1      19.239  -2.041 -38.656  1.00  0.00     0.006 C 
BRANCH  10  11
ATOM     11  C   UNL     1      20.119  -2.884 -39.600  1.00  0.00     0.053 C 
BRANCH  11  12
ATOM     12  C   UNL     1      19.579  -2.941 -40.996  1.00  0.00     0.041 C 
ATOM     13  O   UNL     1      18.966  -1.953 -41.481  1.00  0.00    -0.550 OA
ATOM     14  O   UNL     1      19.791  -4.069 -41.779  1.00  0.00    -0.550 OA
ENDBRANCH  11  12
ENDBRANCH  10  11
ENDBRANCH   9  10
ENDBRANCH   8   9
ENDBRANCH   7   8
ENDBRANCH   6   7
ENDBRANCH   5   6
ENDBRANCH   4   5
ENDBRANCH   3   4
ENDBRANCH   2   3
ENDBRANCH   1   2
BRANCH   1  15
ATOM     15  C   UNL     1      23.642  -8.108 -39.810  1.00  0.00     0.000 C 
BRANCH  15  16
ATOM     16  C   UNL     1      22.287  -7.404 -40.023  1.00  0.00     0.000 C 
BRANCH  16  17
ATOM     17  C   UNL     1      22.349  -5.864 -40.084  1.00  0.00     0.000 C 
BRANCH  17  18
ATOM     18  C   UNL     1      23.735  -5.255 -39.805  1.00  0.00    -0.000 C 
BRANCH  18  19
ATOM     19  C   UNL     1      23.732  -3.718 -39.864  1.00  0.00    -0.000 C 
BRANCH  19  20
ATOM     20  C   UNL     1      24.520  -3.081 -38.707  1.00  0.00    -0.000 C 
BRANCH  20  21
ATOM     21  C   UNL     1      25.432  -1.933 -39.178  1.00  0.00    -0.000 C 
BRANCH  21  22
ATOM     22  C   UNL     1      26.803  -1.939 -38.480  1.00  0.00    -0.000 C 
BRANCH  22  23
ATOM     23  C   UNL     1      27.633  -3.221 -38.686  1.00  0.00    -0.000 C 
BRANCH  23  24
ATOM     24  C   UNL     1      27.350  -4.323 -37.642  1.00  0.00    -0.000 C 
BRANCH  24  25
ATOM     25  C   UNL     1      27.953  -5.678 -38.047  1.00  0.00    -0.003 C 
ATOM     26  C   UNL     1      26.908  -6.788 -37.980  1.00  0.00     0.004 C 
ENDBRANCH  24  25
ENDBRANCH  23  24
ENDBRANCH  22  23
ENDBRANCH  21  22
ENDBRANCH  20  21
ENDBRANCH  19  20
ENDBRANCH  18  19
ENDBRANCH  17  18
ENDBRANCH  16  17
ENDBRANCH  15  16
ENDBRANCH   1  15
TORSDOF 22
ENDMDL
MODEL 7
REMARK VINA RESULT:    -4.422      1.203      3.036
REMARK INTER + INTRA:         -13.356
REMARK INTER:                 -10.510
REMARK INTRA:                  -2.846
REMARK UNBOUND:                -3.246
REMARK SMILES CCCCCCCCCCCCCCCCCCCCCCCC(=O)[O-]
REMARK SMILES IDX 13 1 14 2 15 3 16 4 17 5 18 6 19 7 20 8 21 9 22 10 23 11
REMARK SMILES IDX 24 12 25 13 26 14 12 15 11 16 10 17 9 18 8 19 7 20 6 21 5 22
REMARK SMILES IDX 4 23 3 24 2 25 1 26
REMARK H PARENT
REMARK Flexibility Score: inf
ROOT
ATOM      1  C   UNL     1      23.364  -2.661 -38.475  1.00  0.00     0.000 C 
ENDROOT
BRANCH   1   2
ATOM      2  C   UNL     1      24.739  -2.099 -38.878  1.00  0.00     0.000 C 
BRANCH   2   3
ATOM      3  C   UNL     1      25.888  -3.091 -38.596  1.00  0.00     0.000 C 
BRANCH   3   4
ATOM      4  C   UNL     1      27.294  -2.467 -38.704  1.00  0.00     0.000 C 
BRANCH   4   5
ATOM      5  C   UNL     1      28.458  -3.473 -38.670  1.00  0.00     0.000 C 
BRANCH   5   6
ATOM      6  C   UNL     1      28.353  -4.546 -37.569  1.00  0.00     0.000 C 
BRANCH   6   7
ATOM      7  C   UNL     1      27.995  -5.951 -38.105  1.00  0.00     0.000 C 
BRANCH   7   8
ATOM      8  C   UNL     1      27.167  -6.807 -37.124  1.00  0.00     0.000 C 
BRANCH   8   9
ATOM      9  C   UNL     1      25.732  -7.134 -37.589  1.00  0.00     0.000 C 
BRANCH   9  10
ATOM     10  C   UNL     1      25.407  -6.776 -39.053  1.00  0.00     0.006 C 
BRANCH  10  11
ATOM     11  C   UNL     1      25.514  -7.962 -40.030  1.00  0.00     0.053 C 
BRANCH  11  12
ATOM     12  C   UNL     1      24.661  -9.124 -39.624  1.00  0.00     0.041 C 
ATOM     13  O   UNL     1      23.623  -9.410 -40.278  1.00  0.00    -0.550 OA
ATOM     14  O   UNL     1      25.034  -9.920 -38.548  1.00  0.00    -0.550 OA
ENDBRANCH  11  12
ENDBRANCH  10  11
ENDBRANCH   9  10
ENDBRANCH   8   9
ENDBRANCH   7   8
ENDBRANCH   6   7
ENDBRANCH   5   6
ENDBRANCH   4   5
ENDBRANCH   3   4
ENDBRANCH   2   3
ENDBRANCH   1   2
BRANCH   1  15
ATOM     15  C   UNL     1      22.761  -1.947 -37.251  1.00  0.00     0.000 C 
BRANCH  15  16
ATOM     16  C   UNL     1      21.717  -2.769 -36.468  1.00  0.00     0.000 C 
BRANCH  16  17
ATOM     17  C   UNL     1      22.299  -3.837 -35.520  1.00  0.00     0.000 C 
BRANCH  17  18
ATOM     18  C   UNL     1      22.628  -5.188 -36.180  1.00  0.00    -0.000 C 
BRANCH  18  19
ATOM     19  C   UNL     1      21.617  -5.580 -37.270  1.00  0.00    -0.000 C 
BRANCH  19  20
ATOM     20  C   UNL     1      22.064  -6.810 -38.078  1.00  0.00    -0.000 C 
BRANCH  20  21
ATOM     21  C   UNL     1      21.618  -6.743 -39.549  1.00  0.00    -0.000 C 
BRANCH  21  22
ATOM     22  C   UNL     1      22.153  -5.497 -40.277  1.00  0.00    -0.000 C 
BRANCH  22  23
ATOM     23  C   UNL     1      21.073  -4.593 -40.902  1.00  0.00    -0.000 C 
BRANCH  23  24
ATOM     24  C   UNL     1      20.717  -3.360 -40.044  1.00  0.00    -0.000 C 
BRANCH  24  25
ATOM     25  C   UNL     1      19.333  -2.788 -40.391  1.00  0.00    -0.003 C 
ATOM     26  C   UNL     1      18.630  -2.256 -39.145  1.00  0.00     0.004 C 
ENDBRANCH  24  25
ENDBRANCH  23  24
ENDBRANCH  22  23
ENDBRANCH  21  22
ENDBRANCH  20  21
ENDBRANCH  19  20
ENDBRANCH  18  19
ENDBRANCH  17  18
ENDBRANCH  16  17
ENDBRANCH  15  16
ENDBRANCH   1  15
TORSDOF 22
ENDMDL
MODEL 8
REMARK VINA RESULT:    -4.413      3.924      6.916
REMARK INTER + INTRA:         -13.335
REMARK INTER:                 -10.710
REMARK INTRA:                  -2.625
REMARK UNBOUND:                -3.246
REMARK SMILES CCCCCCCCCCCCCCCCCCCCCCCC(=O)[O-]
REMARK SMILES IDX 13 1 14 2 15 3 16 4 17 5 18 6 19 7 20 8 21 9 22 10 23 11
REMARK SMILES IDX 24 12 25 13 26 14 12 15 11 16 10 17 9 18 8 19 7 20 6 21 5 22
REMARK SMILES IDX 4 23 3 24 2 25 1 26
REMARK H PARENT
REMARK Flexibility Score: inf
ROOT
ATOM      1  C   UNL     1      22.679  -7.943 -39.586  1.00  0.00     0.000 C 
ENDROOT
BRANCH   1   2
ATOM      2  C   UNL     1      23.195  -8.464 -38.233  1.00  0.00     0.000 C 
BRANCH   2   3
ATOM      3  C   UNL     1      24.537  -9.216 -38.363  1.00  0.00     0.000 C 
BRANCH   3   4
ATOM      4  C   UNL     1      25.084  -9.275 -39.804  1.00  0.00     0.000 C 
BRANCH   4   5
ATOM      5  C   UNL     1      24.678 -10.524 -40.605  1.00  0.00     0.000 C 
BRANCH   5   6
ATOM      6  C   UNL     1      25.118 -11.863 -39.982  1.00  0.00     0.000 C 
BRANCH   6   7
ATOM      7  C   UNL     1      24.696 -13.100 -40.808  1.00  0.00     0.000 C 
BRANCH   7   8
ATOM      8  C   UNL     1      24.633 -14.409 -39.995  1.00  0.00     0.000 C 
BRANCH   8   9
ATOM      9  C   UNL     1      23.441 -15.331 -40.328  1.00  0.00     0.000 C 
BRANCH   9  10
ATOM     10  C   UNL     1      23.714 -16.416 -41.389  1.00  0.00     0.006 C 
BRANCH  10  11
ATOM     11  C   UNL     1      24.999 -17.230 -41.142  1.00  0.00     0.053 C 
BRANCH  11  12
ATOM     12  C   UNL     1      25.445 -17.988 -42.354  1.00  0.00     0.041 C 
ATOM     13  O   UNL     1      26.010 -17.388 -43.306  1.00  0.00    -0.550 OA
ATOM     14  O   UNL     1      25.278 -19.367 -42.414  1.00  0.00    -0.550 OA
ENDBRANCH  11  12
ENDBRANCH  10  11
ENDBRANCH   9  10
ENDBRANCH   8   9
ENDBRANCH   7   8
ENDBRANCH   6   7
ENDBRANCH   5   6
ENDBRANCH   4   5
ENDBRANCH   3   4
ENDBRANCH   2   3
ENDBRANCH   1   2
BRANCH   1  15
ATOM     15  C   UNL     1      21.782  -6.699 -39.446  1.00  0.00     0.000 C 
BRANCH  15  16
ATOM     16  C   UNL     1      22.169  -5.514 -40.353  1.00  0.00     0.000 C 
BRANCH  16  17
ATOM     17  C   UNL     1      21.668  -4.134 -39.880  1.00  0.00     0.000 C 
BRANCH  17  18
ATOM     18  C   UNL     1      20.751  -4.160 -38.644  1.00  0.00    -0.000 C 
BRANCH  18  19
ATOM     19  C   UNL     1      21.231  -3.218 -37.527  1.00  0.00    -0.000 C 
BRANCH  19  20
ATOM     20  C   UNL     1      21.623  -3.971 -36.245  1.00  0.00    -0.000 C 
BRANCH  20  21
ATOM     21  C   UNL     1      22.684  -5.057 -36.502  1.00  0.00    -0.000 C 
BRANCH  21  22
ATOM     22  C   UNL     1      24.120  -4.506 -36.465  1.00  0.00    -0.000 C 
BRANCH  22  23
ATOM     23  C   UNL     1      24.771  -4.292 -37.845  1.00  0.00    -0.000 C 
BRANCH  23  24
ATOM     24  C   UNL     1      25.396  -5.569 -38.446  1.00  0.00    -0.000 C 
BRANCH  24  25
ATOM     25  C   UNL     1      26.903  -5.672 -38.158  1.00  0.00    -0.003 C 
ATOM     26  C   UNL     1      27.198  -6.794 -37.167  1.00  0.00     0.004 C 
ENDBRANCH  24  25
ENDBRANCH  23  24
ENDBRANCH  22  23
ENDBRANCH  21  22
ENDBRANCH  20  21
ENDBRANCH  19  20
ENDBRANCH  18  19
ENDBRANCH  17  18
ENDBRANCH  16  17
ENDBRANCH  15  16
ENDBRANCH   1  15
TORSDOF 22
ENDMDL
MODEL 9
REMARK VINA RESULT:    -4.324      2.879      5.284
REMARK INTER + INTRA:         -13.131
REMARK INTER:                  -9.967
REMARK INTRA:                  -3.164
REMARK UNBOUND:                -3.246
REMARK SMILES CCCCCCCCCCCCCCCCCCCCCCCC(=O)[O-]
REMARK SMILES IDX 13 1 14 2 15 3 16 4 17 5 18 6 19 7 20 8 21 9 22 10 23 11
REMARK SMILES IDX 24 12 25 13 26 14 12 15 11 16 10 17 9 18 8 19 7 20 6 21 5 22
REMARK SMILES IDX 4 23 3 24 2 25 1 26
REMARK H PARENT
REMARK Flexibility Score: inf
ROOT
ATOM      1  C   UNL     1      23.947  -6.166 -35.986  1.00  0.00     0.000 C 
ENDROOT
BRANCH   1   2
ATOM      2  C   UNL     1      25.128  -6.951 -36.583  1.00  0.00     0.000 C 
BRANCH   2   3
ATOM      3  C   UNL     1      25.782  -6.216 -37.774  1.00  0.00     0.000 C 
BRANCH   3   4
ATOM      4  C   UNL     1      26.487  -7.153 -38.776  1.00  0.00     0.000 C 
BRANCH   4   5
ATOM      5  C   UNL     1      25.545  -7.982 -39.667  1.00  0.00     0.000 C 
BRANCH   5   6
ATOM      6  C   UNL     1      25.237  -9.396 -39.142  1.00  0.00     0.000 C 
BRANCH   6   7
ATOM      7  C   UNL     1      24.882 -10.409 -40.255  1.00  0.00     0.000 C 
BRANCH   7   8
ATOM      8  C   UNL     1      25.334 -11.854 -39.961  1.00  0.00     0.000 C 
BRANCH   8   9
ATOM      9  C   UNL     1      24.606 -12.947 -40.771  1.00  0.00     0.000 C 
BRANCH   9  10
ATOM     10  C   UNL     1      24.543 -14.338 -40.108  1.00  0.00     0.006 C 
BRANCH  10  11
ATOM     11  C   UNL     1      23.559 -15.313 -40.782  1.00  0.00     0.053 C 
BRANCH  11  12
ATOM     12  C   UNL     1      24.236 -16.532 -41.328  1.00  0.00     0.041 C 
ATOM     13  O   UNL     1      24.954 -17.248 -40.580  1.00  0.00    -0.550 OA
ATOM     14  O   UNL     1      24.039 -16.906 -42.651  1.00  0.00    -0.550 OA
ENDBRANCH  11  12
ENDBRANCH  10  11
ENDBRANCH   9  10
ENDBRANCH   8   9
ENDBRANCH   7   8
ENDBRANCH   6   7
ENDBRANCH   5   6
ENDBRANCH   4   5
ENDBRANCH   3   4
ENDBRANCH   2   3
ENDBRANCH   1   2
BRANCH   1  15
ATOM     15  C   UNL     1      22.702  -6.175 -36.892  1.00  0.00     0.000 C 
BRANCH  15  16
ATOM     16  C   UNL     1      22.401  -7.526 -37.570  1.00  0.00     0.000 C 
BRANCH  16  17
ATOM     17  C   UNL     1      21.974  -7.439 -39.049  1.00  0.00     0.000 C 
BRANCH  17  18
ATOM     18  C   UNL     1      22.570  -6.255 -39.832  1.00  0.00    -0.000 C 
BRANCH  18  19
ATOM     19  C   UNL     1      21.579  -5.089 -39.995  1.00  0.00    -0.000 C 
BRANCH  19  20
ATOM     20  C   UNL     1      22.250  -3.716 -39.827  1.00  0.00    -0.000 C 
BRANCH  20  21
ATOM     21  C   UNL     1      23.764  -3.826 -39.573  1.00  0.00    -0.000 C 
BRANCH  21  22
ATOM     22  C   UNL     1      24.222  -3.019 -38.346  1.00  0.00    -0.000 C 
BRANCH  22  23
ATOM     23  C   UNL     1      23.126  -2.159 -37.687  1.00  0.00    -0.000 C 
BRANCH  23  24
ATOM     24  C   UNL     1      22.774  -2.593 -36.247  1.00  0.00    -0.000 C 
BRANCH  24  25
ATOM     25  C   UNL     1      21.260  -2.565 -35.984  1.00  0.00    -0.003 C 
ATOM     26  C   UNL     1      20.507  -1.968 -37.169  1.00  0.00     0.004 C 
ENDBRANCH  24  25
ENDBRANCH  23  24
ENDBRANCH  22  23
ENDBRANCH  21  22
ENDBRANCH  20  21
ENDBRANCH  19  20
ENDBRANCH  18  19
ENDBRANCH  17  18
ENDBRANCH  16  17
ENDBRANCH  15  16
ENDBRANCH   1  15
TORSDOF 22
ENDMDL
