MODEL 1
REMARK VINA RESULT:    -6.510      0.000      0.000
REMARK INTER + INTRA:         -10.122
REMARK INTER:                  -8.983
REMARK INTRA:                  -1.138
REMARK UNBOUND:                -1.138
REMARK SMILES CC[C@@H](CC[C@@H](C)[C@H]1CC[C@@H]2[C@H]3CC=C4C[C@H](O)CC[C@@]4(C)[C@H]3CC[C@@]21C)C(C)C
REMARK SMILES IDX 5 1 4 2 3 3 2 4 1 5 28 6 29 7 30 8 6 9 7 10 8 11 9 12 26 13
REMARK SMILES IDX 10 14 11 15 25 16 27 17 12 18 24 19 23 20 13 21 21 22 14 23
REMARK SMILES IDX 15 24 20 25 22 26 16 27 19 28 17 29 18 30
REMARK H PARENT 18 31
REMARK Flexibility Score: inf
ROOT
ATOM      1  C   UNL     1       2.858 105.100 179.797  1.00  0.00     0.004 C 
ENDROOT
BRANCH   1   2
ATOM      2  C   UNL     1       3.028 104.406 178.418  1.00  0.00     0.004 C 
BRANCH   2   3
ATOM      3  C   UNL     1       2.335 105.048 177.166  1.00  0.00    -0.009 C 
BRANCH   3   4
ATOM      4  C   UNL     1       3.281 105.120 175.930  1.00  0.00     0.000 C 
ATOM      5  C   UNL     1       4.609 104.382 176.137  1.00  0.00     0.004 C 
ENDBRANCH   3   4
BRANCH   3   6
ATOM      6  C   UNL     1       1.607 106.404 177.482  1.00  0.00    -0.014 C 
ATOM      7  C   UNL     1       2.142 107.586 176.647  1.00  0.00     0.007 C 
ATOM      8  C   UNL     1       0.089 106.295 177.228  1.00  0.00     0.007 C 
ENDBRANCH   3   6
ENDBRANCH   2   3
ENDBRANCH   1   2
BRANCH   1   9
ATOM      9  C   UNL     1       4.130 105.685 180.468  1.00  0.00    -0.011 C 
ATOM     10  C   UNL     1       5.077 106.251 179.391  1.00  0.00     0.008 C 
BRANCH   9  11
ATOM     11  C   UNL     1       3.913 106.634 181.716  1.00  0.00    -0.002 C 
ATOM     12  C   UNL     1       5.162 106.608 182.616  1.00  0.00     0.005 C 
ATOM     13  C   UNL     1       3.599 108.165 181.541  1.00  0.00    -0.026 C 
ATOM     14  C   UNL     1       5.897 107.928 182.408  1.00  0.00     0.005 C 
ATOM     15  C   UNL     1       5.010 108.821 181.520  1.00  0.00    -0.001 C 
ATOM     16  C   UNL     1       2.788 108.648 182.786  1.00  0.00     0.007 C 
ATOM     17  C   UNL     1       2.750 108.472 180.284  1.00  0.00     0.012 C 
ATOM     18  C   UNL     1       5.108 110.323 181.940  1.00  0.00     0.000 C 
ATOM     19  C   UNL     1       2.818 110.167 183.011  1.00  0.00     0.005 C 
ATOM     20  C   UNL     1       4.268 110.668 183.199  1.00  0.00     0.003 C 
ATOM     21  C   UNL     1       4.791 111.264 180.766  1.00  0.00     0.031 C 
ATOM     22  C   UNL     1       4.434 112.191 183.612  1.00  0.00    -0.008 C 
ATOM     23  C   UNL     1       4.744 112.710 181.161  1.00  0.00    -0.027 C 
ATOM     24  C   UNL     1       4.451 113.137 182.405  1.00  0.00    -0.065 C 
ATOM     25  C   UNL     1       3.297 112.652 184.580  1.00  0.00     0.014 C 
ATOM     26  C   UNL     1       5.798 112.333 184.349  1.00  0.00     0.016 C 
ATOM     27  C   UNL     1       4.380 114.634 182.656  1.00  0.00     0.063 C 
ATOM     28  C   UNL     1       3.330 114.153 184.908  1.00  0.00     0.033 C 
ATOM     29  C   UNL     1       3.243 114.988 183.621  1.00  0.00     0.118 C 
BRANCH  29  30
ATOM     30  O   UNL     1       3.317 116.355 183.934  1.00  0.00    -0.393 OA
ATOM     31  H   UNL     1       3.095 116.852 183.104  1.00  0.00     0.210 HD
ENDBRANCH  29  30
ENDBRANCH   9  11
ENDBRANCH   1   9
TORSDOF 7
ENDMDL
MODEL 2
REMARK VINA RESULT:    -6.376      3.005      7.919
REMARK INTER + INTRA:          -9.938
REMARK INTER:                  -7.858
REMARK INTRA:                  -2.080
REMARK UNBOUND:                -1.138
REMARK SMILES CC[C@@H](CC[C@@H](C)[C@H]1CC[C@@H]2[C@H]3CC=C4C[C@H](O)CC[C@@]4(C)[C@H]3CC[C@@]21C)C(C)C
REMARK SMILES IDX 5 1 4 2 3 3 2 4 1 5 28 6 29 7 30 8 6 9 7 10 8 11 9 12 26 13
REMARK SMILES IDX 10 14 11 15 25 16 27 17 12 18 24 19 23 20 13 21 21 22 14 23
REMARK SMILES IDX 15 24 20 25 22 26 16 27 19 28 17 29 18 30
REMARK H PARENT 18 31
REMARK Flexibility Score: inf
ROOT
ATOM      1  C   UNL     1       6.621 109.922 184.704  1.00  0.00     0.004 C 
ENDROOT
BRANCH   1   2
ATOM      2  C   UNL     1       6.397 111.408 184.315  1.00  0.00     0.004 C 
BRANCH   2   3
ATOM      3  C   UNL     1       4.951 111.868 183.916  1.00  0.00    -0.009 C 
BRANCH   3   4
ATOM      4  C   UNL     1       4.791 112.075 182.380  1.00  0.00     0.000 C 
ATOM      5  C   UNL     1       6.115 111.975 181.612  1.00  0.00     0.004 C 
ENDBRANCH   3   4
BRANCH   3   6
ATOM      6  C   UNL     1       4.422 113.075 184.773  1.00  0.00    -0.014 C 
ATOM      7  C   UNL     1       4.947 114.440 184.283  1.00  0.00     0.007 C 
ATOM      8  C   UNL     1       2.880 113.131 184.764  1.00  0.00     0.007 C 
ENDBRANCH   3   6
ENDBRANCH   2   3
ENDBRANCH   1   2
BRANCH   1   9
ATOM      9  C   UNL     1       7.152 108.963 183.605  1.00  0.00    -0.011 C 
ATOM     10  C   UNL     1       8.549 108.442 183.996  1.00  0.00     0.008 C 
BRANCH   9  11
ATOM     11  C   UNL     1       6.158 107.848 183.081  1.00  0.00    -0.002 C 
ATOM     12  C   UNL     1       4.807 107.968 183.810  1.00  0.00     0.005 C 
ATOM     13  C   UNL     1       5.765 107.744 181.562  1.00  0.00    -0.026 C 
ATOM     14  C   UNL     1       3.812 108.572 182.823  1.00  0.00     0.005 C 
ATOM     15  C   UNL     1       4.509 108.656 181.452  1.00  0.00    -0.001 C 
ATOM     16  C   UNL     1       5.394 106.259 181.248  1.00  0.00     0.007 C 
ATOM     17  C   UNL     1       6.914 108.149 180.607  1.00  0.00     0.012 C 
ATOM     18  C   UNL     1       3.512 108.364 180.285  1.00  0.00     0.000 C 
ATOM     19  C   UNL     1       4.545 106.072 179.982  1.00  0.00     0.005 C 
ATOM     20  C   UNL     1       3.217 106.853 180.089  1.00  0.00     0.003 C 
ATOM     21  C   UNL     1       3.957 109.035 178.974  1.00  0.00     0.031 C 
ATOM     22  C   UNL     1       2.166 106.611 178.923  1.00  0.00    -0.008 C 
ATOM     23  C   UNL     1       3.099 108.670 177.800  1.00  0.00    -0.027 C 
ATOM     24  C   UNL     1       2.400 107.521 177.712  1.00  0.00    -0.065 C 
ATOM     25  C   UNL     1       2.185 105.127 178.432  1.00  0.00     0.014 C 
ATOM     26  C   UNL     1       0.752 106.925 179.491  1.00  0.00     0.016 C 
ATOM     27  C   UNL     1       1.616 107.250 176.439  1.00  0.00     0.063 C 
ATOM     28  C   UNL     1       1.285 104.863 177.215  1.00  0.00     0.033 C 
ATOM     29  C   UNL     1       1.686 105.771 176.041  1.00  0.00     0.118 C 
BRANCH  29  30
ATOM     30  O   UNL     1       0.827 105.548 174.953  1.00  0.00    -0.393 OA
ATOM     31  H   UNL     1       0.600 104.582 174.960  1.00  0.00     0.210 HD
ENDBRANCH  29  30
ENDBRANCH   9  11
ENDBRANCH   1   9
TORSDOF 7
ENDMDL
MODEL 3
REMARK VINA RESULT:    -6.069      3.306      8.125
REMARK INTER + INTRA:          -9.513
REMARK INTER:                  -7.035
REMARK INTRA:                  -2.478
REMARK UNBOUND:                -1.138
REMARK SMILES CC[C@@H](CC[C@@H](C)[C@H]1CC[C@@H]2[C@H]3CC=C4C[C@H](O)CC[C@@]4(C)[C@H]3CC[C@@]21C)C(C)C
REMARK SMILES IDX 5 1 4 2 3 3 2 4 1 5 28 6 29 7 30 8 6 9 7 10 8 11 9 12 26 13
REMARK SMILES IDX 10 14 11 15 25 16 27 17 12 18 24 19 23 20 13 21 21 22 14 23
REMARK SMILES IDX 15 24 20 25 22 26 16 27 19 28 17 29 18 30
REMARK H PARENT 18 31
REMARK Flexibility Score: inf
ROOT
ATOM      1  C   UNL     1       6.583 109.205 184.651  1.00  0.00     0.004 C 
ENDROOT
BRANCH   1   2
ATOM      2  C   UNL     1       5.860 110.526 184.273  1.00  0.00     0.004 C 
BRANCH   2   3
ATOM      3  C   UNL     1       5.167 110.625 182.870  1.00  0.00    -0.009 C 
BRANCH   3   4
ATOM      4  C   UNL     1       6.017 111.424 181.837  1.00  0.00     0.000 C 
ATOM      5  C   UNL     1       5.455 111.365 180.411  1.00  0.00     0.004 C 
ENDBRANCH   3   4
BRANCH   3   6
ATOM      6  C   UNL     1       3.668 111.091 182.946  1.00  0.00    -0.014 C 
ATOM      7  C   UNL     1       2.687 109.929 183.204  1.00  0.00     0.007 C 
ATOM      8  C   UNL     1       3.465 112.137 184.062  1.00  0.00     0.007 C 
ENDBRANCH   3   6
ENDBRANCH   2   3
ENDBRANCH   1   2
BRANCH   1   9
ATOM      9  C   UNL     1       7.650 108.661 183.663  1.00  0.00    -0.011 C 
ATOM     10  C   UNL     1       9.034 108.649 184.343  1.00  0.00     0.008 C 
BRANCH   9  11
ATOM     11  C   UNL     1       7.293 107.334 182.877  1.00  0.00    -0.002 C 
ATOM     12  C   UNL     1       6.033 106.691 183.484  1.00  0.00     0.005 C 
ATOM     13  C   UNL     1       7.010 107.346 181.331  1.00  0.00    -0.026 C 
ATOM     14  C   UNL     1       4.882 106.947 182.515  1.00  0.00     0.005 C 
ATOM     15  C   UNL     1       5.475 107.590 181.248  1.00  0.00    -0.001 C 
ATOM     16  C   UNL     1       7.374 105.940 180.752  1.00  0.00     0.007 C 
ATOM     17  C   UNL     1       7.850 108.396 180.566  1.00  0.00     0.012 C 
ATOM     18  C   UNL     1       4.741 107.098 179.960  1.00  0.00     0.000 C 
ATOM     19  C   UNL     1       6.723 105.625 179.397  1.00  0.00     0.005 C 
ATOM     20  C   UNL     1       5.183 105.683 179.499  1.00  0.00     0.003 C 
ATOM     21  C   UNL     1       4.838 108.126 178.820  1.00  0.00     0.031 C 
ATOM     22  C   UNL     1       4.377 105.209 178.215  1.00  0.00    -0.008 C 
ATOM     23  C   UNL     1       4.261 107.635 177.527  1.00  0.00    -0.027 C 
ATOM     24  C   UNL     1       4.175 106.333 177.192  1.00  0.00    -0.065 C 
ATOM     25  C   UNL     1       5.088 104.016 177.499  1.00  0.00     0.014 C 
ATOM     26  C   UNL     1       2.972 104.736 178.688  1.00  0.00     0.016 C 
ATOM     27  C   UNL     1       3.621 105.975 175.822  1.00  0.00     0.063 C 
ATOM     28  C   UNL     1       4.427 103.601 176.176  1.00  0.00     0.033 C 
ATOM     29  C   UNL     1       4.374 104.791 175.204  1.00  0.00     0.118 C 
BRANCH  29  30
ATOM     30  O   UNL     1       3.729 104.408 174.018  1.00  0.00    -0.393 OA
ATOM     31  H   UNL     1       2.911 103.912 174.283  1.00  0.00     0.210 HD
ENDBRANCH  29  30
ENDBRANCH   9  11
ENDBRANCH   1   9
TORSDOF 7
ENDMDL
MODEL 4
REMARK VINA RESULT:    -5.962      1.556      2.429
REMARK INTER + INTRA:          -9.366
REMARK INTER:                  -6.612
REMARK INTRA:                  -2.755
REMARK UNBOUND:                -1.138
REMARK SMILES CC[C@@H](CC[C@@H](C)[C@H]1CC[C@@H]2[C@H]3CC=C4C[C@H](O)CC[C@@]4(C)[C@H]3CC[C@@]21C)C(C)C
REMARK SMILES IDX 5 1 4 2 3 3 2 4 1 5 28 6 29 7 30 8 6 9 7 10 8 11 9 12 26 13
REMARK SMILES IDX 10 14 11 15 25 16 27 17 12 18 24 19 23 20 13 21 21 22 14 23
REMARK SMILES IDX 15 24 20 25 22 26 16 27 19 28 17 29 18 30
REMARK H PARENT 18 31
REMARK Flexibility Score: inf
ROOT
ATOM      1  C   UNL     1       5.345 105.295 178.807  1.00  0.00     0.004 C 
ENDROOT
BRANCH   1   2
ATOM      2  C   UNL     1       6.144 106.176 177.809  1.00  0.00     0.004 C 
BRANCH   2   3
ATOM      3  C   UNL     1       5.429 107.414 177.163  1.00  0.00    -0.009 C 
BRANCH   3   4
ATOM      4  C   UNL     1       4.712 107.059 175.826  1.00  0.00     0.000 C 
ATOM      5  C   UNL     1       3.182 107.120 175.922  1.00  0.00     0.004 C 
ENDBRANCH   3   4
BRANCH   3   6
ATOM      6  C   UNL     1       6.346 108.685 177.068  1.00  0.00    -0.014 C 
ATOM      7  C   UNL     1       5.558 110.008 177.157  1.00  0.00     0.007 C 
ATOM      8  C   UNL     1       7.409 108.692 178.188  1.00  0.00     0.007 C 
ENDBRANCH   3   6
ENDBRANCH   2   3
ENDBRANCH   1   2
BRANCH   1   9
ATOM      9  C   UNL     1       3.927 105.776 179.215  1.00  0.00    -0.011 C 
ATOM     10  C   UNL     1       2.906 104.643 178.993  1.00  0.00     0.008 C 
BRANCH   9  11
ATOM     11  C   UNL     1       3.792 106.519 180.607  1.00  0.00    -0.002 C 
ATOM     12  C   UNL     1       5.081 106.329 181.427  1.00  0.00     0.005 C 
ATOM     13  C   UNL     1       3.508 108.063 180.691  1.00  0.00    -0.026 C 
ATOM     14  C   UNL     1       5.838 107.653 181.393  1.00  0.00     0.005 C 
ATOM     15  C   UNL     1       4.933 108.690 180.702  1.00  0.00    -0.001 C 
ATOM     16  C   UNL     1       2.769 108.357 182.036  1.00  0.00     0.007 C 
ATOM     17  C   UNL     1       2.609 108.580 179.542  1.00  0.00     0.012 C 
ATOM     18  C   UNL     1       5.087 110.104 181.348  1.00  0.00     0.000 C 
ATOM     19  C   UNL     1       2.847 109.820 182.496  1.00  0.00     0.005 C 
ATOM     20  C   UNL     1       4.315 110.260 182.686  1.00  0.00     0.003 C 
ATOM     21  C   UNL     1       4.738 111.226 180.354  1.00  0.00     0.031 C 
ATOM     22  C   UNL     1       4.539 111.695 183.325  1.00  0.00    -0.008 C 
ATOM     23  C   UNL     1       4.746 112.591 180.974  1.00  0.00    -0.027 C 
ATOM     24  C   UNL     1       4.522 112.820 182.283  1.00  0.00    -0.065 C 
ATOM     25  C   UNL     1       3.461 112.016 184.410  1.00  0.00     0.014 C 
ATOM     26  C   UNL     1       5.939 111.696 184.006  1.00  0.00     0.016 C 
ATOM     27  C   UNL     1       4.500 114.259 182.770  1.00  0.00     0.063 C 
ATOM     28  C   UNL     1       3.545 113.445 184.968  1.00  0.00     0.033 C 
ATOM     29  C   UNL     1       3.418 114.475 183.835  1.00  0.00     0.118 C 
BRANCH  29  30
ATOM     30  O   UNL     1       3.541 115.773 184.355  1.00  0.00    -0.393 OA
ATOM     31  H   UNL     1       2.728 116.271 184.078  1.00  0.00     0.210 HD
ENDBRANCH  29  30
ENDBRANCH   9  11
ENDBRANCH   1   9
TORSDOF 7
ENDMDL
MODEL 5
REMARK VINA RESULT:    -5.957      2.306      5.004
REMARK INTER + INTRA:          -9.359
REMARK INTER:                  -8.521
REMARK INTRA:                  -0.838
REMARK UNBOUND:                -1.138
REMARK SMILES CC[C@@H](CC[C@@H](C)[C@H]1CC[C@@H]2[C@H]3CC=C4C[C@H](O)CC[C@@]4(C)[C@H]3CC[C@@]21C)C(C)C
REMARK SMILES IDX 5 1 4 2 3 3 2 4 1 5 28 6 29 7 30 8 6 9 7 10 8 11 9 12 26 13
REMARK SMILES IDX 10 14 11 15 25 16 27 17 12 18 24 19 23 20 13 21 21 22 14 23
REMARK SMILES IDX 15 24 20 25 22 26 16 27 19 28 17 29 18 30
REMARK H PARENT 18 31
REMARK Flexibility Score: inf
ROOT
ATOM      1  C   UNL     1       4.461 104.612 175.092  1.00  0.00     0.004 C 
ENDROOT
BRANCH   1   2
ATOM      2  C   UNL     1       5.878 104.043 174.812  1.00  0.00     0.004 C 
BRANCH   2   3
ATOM      3  C   UNL     1       6.017 102.835 173.821  1.00  0.00    -0.009 C 
BRANCH   3   4
ATOM      4  C   UNL     1       4.746 102.631 172.944  1.00  0.00     0.000 C 
ATOM      5  C   UNL     1       4.901 103.164 171.514  1.00  0.00     0.004 C 
ENDBRANCH   3   4
BRANCH   3   6
ATOM      6  C   UNL     1       6.526 101.518 174.510  1.00  0.00    -0.014 C 
ATOM      7  C   UNL     1       7.464 101.784 175.704  1.00  0.00     0.007 C 
ATOM      8  C   UNL     1       5.345 100.663 175.017  1.00  0.00     0.007 C 
ENDBRANCH   3   6
ENDBRANCH   2   3
ENDBRANCH   1   2
BRANCH   1   9
ATOM      9  C   UNL     1       3.854 104.368 176.500  1.00  0.00    -0.011 C 
ATOM     10  C   UNL     1       4.783 103.451 177.319  1.00  0.00     0.008 C 
BRANCH   9  11
ATOM     11  C   UNL     1       3.325 105.637 177.285  1.00  0.00    -0.002 C 
ATOM     12  C   UNL     1       2.091 105.256 178.124  1.00  0.00     0.005 C 
ATOM     13  C   UNL     1       4.243 106.424 178.290  1.00  0.00    -0.026 C 
ATOM     14  C   UNL     1       2.536 105.196 179.582  1.00  0.00     0.005 C 
ATOM     15  C   UNL     1       3.987 105.707 179.647  1.00  0.00    -0.001 C 
ATOM     16  C   UNL     1       3.750 107.906 178.352  1.00  0.00     0.007 C 
ATOM     17  C   UNL     1       5.731 106.445 177.866  1.00  0.00     0.012 C 
ATOM     18  C   UNL     1       4.247 106.528 180.951  1.00  0.00     0.000 C 
ATOM     19  C   UNL     1       4.202 108.672 179.604  1.00  0.00     0.005 C 
ATOM     20  C   UNL     1       3.696 107.977 180.888  1.00  0.00     0.003 C 
ATOM     21  C   UNL     1       5.730 106.498 181.358  1.00  0.00     0.031 C 
ATOM     22  C   UNL     1       3.943 108.756 182.249  1.00  0.00    -0.008 C 
ATOM     23  C   UNL     1       6.042 107.382 182.527  1.00  0.00    -0.027 C 
ATOM     24  C   UNL     1       5.324 108.475 182.853  1.00  0.00    -0.065 C 
ATOM     25  C   UNL     1       3.794 110.300 182.064  1.00  0.00     0.014 C 
ATOM     26  C   UNL     1       2.869 108.275 183.268  1.00  0.00     0.016 C 
ATOM     27  C   UNL     1       5.785 109.317 184.031  1.00  0.00     0.063 C 
ATOM     28  C   UNL     1       4.153 111.115 183.315  1.00  0.00     0.033 C 
ATOM     29  C   UNL     1       5.594 110.814 183.760  1.00  0.00     0.118 C 
BRANCH  29  30
ATOM     30  O   UNL     1       5.891 111.532 184.929  1.00  0.00    -0.393 OA
ATOM     31  H   UNL     1       5.112 111.428 185.535  1.00  0.00     0.210 HD
ENDBRANCH  29  30
ENDBRANCH   9  11
ENDBRANCH   1   9
TORSDOF 7
ENDMDL
MODEL 6
REMARK VINA RESULT:    -5.889      3.733      7.023
REMARK INTER + INTRA:          -9.265
REMARK INTER:                  -6.885
REMARK INTRA:                  -2.380
REMARK UNBOUND:                -1.138
REMARK SMILES CC[C@@H](CC[C@@H](C)[C@H]1CC[C@@H]2[C@H]3CC=C4C[C@H](O)CC[C@@]4(C)[C@H]3CC[C@@]21C)C(C)C
REMARK SMILES IDX 5 1 4 2 3 3 2 4 1 5 28 6 29 7 30 8 6 9 7 10 8 11 9 12 26 13
REMARK SMILES IDX 10 14 11 15 25 16 27 17 12 18 24 19 23 20 13 21 21 22 14 23
REMARK SMILES IDX 15 24 20 25 22 26 16 27 19 28 17 29 18 30
REMARK H PARENT 18 31
REMARK Flexibility Score: inf
ROOT
ATOM      1  C   UNL     1       5.409 104.151 172.517  1.00  0.00     0.004 C 
ENDROOT
BRANCH   1   2
ATOM      2  C   UNL     1       6.220 102.871 172.853  1.00  0.00     0.004 C 
BRANCH   2   3
ATOM      3  C   UNL     1       6.904 102.765 174.261  1.00  0.00    -0.009 C 
BRANCH   3   4
ATOM      4  C   UNL     1       8.450 102.941 174.190  1.00  0.00     0.000 C 
ATOM      5  C   UNL     1       9.207 101.615 174.036  1.00  0.00     0.004 C 
ENDBRANCH   3   4
BRANCH   3   6
ATOM      6  C   UNL     1       6.450 101.504 175.081  1.00  0.00    -0.014 C 
ATOM      7  C   UNL     1       6.484 101.731 176.606  1.00  0.00     0.007 C 
ATOM      8  C   UNL     1       5.018 101.075 174.699  1.00  0.00     0.007 C 
ENDBRANCH   3   6
ENDBRANCH   2   3
ENDBRANCH   1   2
BRANCH   1   9
ATOM      9  C   UNL     1       5.857 105.481 173.180  1.00  0.00    -0.011 C 
ATOM     10  C   UNL     1       6.299 106.483 172.095  1.00  0.00     0.008 C 
BRANCH   9  11
ATOM     11  C   UNL     1       4.904 106.089 174.288  1.00  0.00    -0.002 C 
ATOM     12  C   UNL     1       3.745 105.115 174.572  1.00  0.00     0.005 C 
ATOM     13  C   UNL     1       5.441 106.473 175.714  1.00  0.00    -0.026 C 
ATOM     14  C   UNL     1       4.024 104.463 175.923  1.00  0.00     0.005 C 
ATOM     15  C   UNL     1       5.252 105.163 176.534  1.00  0.00    -0.001 C 
ATOM     16  C   UNL     1       4.541 107.614 176.291  1.00  0.00     0.007 C 
ATOM     17  C   UNL     1       6.898 106.993 175.697  1.00  0.00     0.012 C 
ATOM     18  C   UNL     1       5.120 105.301 178.084  1.00  0.00     0.000 C 
ATOM     19  C   UNL     1       4.614 107.769 177.817  1.00  0.00     0.005 C 
ATOM     20  C   UNL     1       4.188 106.462 178.523  1.00  0.00     0.003 C 
ATOM     21  C   UNL     1       6.495 105.382 178.769  1.00  0.00     0.031 C 
ATOM     22  C   UNL     1       4.049 106.534 180.103  1.00  0.00    -0.008 C 
ATOM     23  C   UNL     1       6.409 105.649 180.242  1.00  0.00    -0.027 C 
ATOM     24  C   UNL     1       5.377 106.286 180.829  1.00  0.00    -0.065 C 
ATOM     25  C   UNL     1       3.487 107.915 180.569  1.00  0.00     0.014 C 
ATOM     26  C   UNL     1       3.052 105.422 180.540  1.00  0.00     0.016 C 
ATOM     27  C   UNL     1       5.444 106.542 182.325  1.00  0.00     0.063 C 
ATOM     28  C   UNL     1       3.457 108.093 182.094  1.00  0.00     0.033 C 
ATOM     29  C   UNL     1       4.864 107.915 182.686  1.00  0.00     0.118 C 
BRANCH  29  30
ATOM     30  O   UNL     1       4.812 108.037 184.083  1.00  0.00    -0.393 OA
ATOM     31  H   UNL     1       5.488 107.408 184.451  1.00  0.00     0.210 HD
ENDBRANCH  29  30
ENDBRANCH   9  11
ENDBRANCH   1   9
TORSDOF 7
ENDMDL
MODEL 7
REMARK VINA RESULT:    -5.860      4.907      9.176
REMARK INTER + INTRA:          -9.225
REMARK INTER:                  -6.591
REMARK INTRA:                  -2.634
REMARK UNBOUND:                -1.138
REMARK SMILES CC[C@@H](CC[C@@H](C)[C@H]1CC[C@@H]2[C@H]3CC=C4C[C@H](O)CC[C@@]4(C)[C@H]3CC[C@@]21C)C(C)C
REMARK SMILES IDX 5 1 4 2 3 3 2 4 1 5 28 6 29 7 30 8 6 9 7 10 8 11 9 12 26 13
REMARK SMILES IDX 10 14 11 15 25 16 27 17 12 18 24 19 23 20 13 21 21 22 14 23
REMARK SMILES IDX 15 24 20 25 22 26 16 27 19 28 17 29 18 30
REMARK H PARENT 18 31
REMARK Flexibility Score: inf
ROOT
ATOM      1  C   UNL     1       1.096 107.271 179.860  1.00  0.00     0.004 C 
ENDROOT
BRANCH   1   2
ATOM      2  C   UNL     1       0.237 107.171 178.571  1.00  0.00     0.004 C 
BRANCH   2   3
ATOM      3  C   UNL     1       0.892 107.566 177.201  1.00  0.00    -0.009 C 
BRANCH   3   4
ATOM      4  C   UNL     1       0.848 109.101 176.938  1.00  0.00     0.000 C 
ATOM      5  C   UNL     1       2.218 109.700 176.596  1.00  0.00     0.004 C 
ENDBRANCH   3   4
BRANCH   3   6
ATOM      6  C   UNL     1       0.379 106.705 175.992  1.00  0.00    -0.014 C 
ATOM      7  C   UNL     1       1.417 106.575 174.858  1.00  0.00     0.007 C 
ATOM      8  C   UNL     1      -0.006 105.280 176.445  1.00  0.00     0.007 C 
ENDBRANCH   3   6
ENDBRANCH   2   3
ENDBRANCH   1   2
BRANCH   1   9
ATOM      9  C   UNL     1       2.591 107.657 179.700  1.00  0.00    -0.011 C 
ATOM     10  C   UNL     1       2.957 108.761 180.711  1.00  0.00     0.008 C 
BRANCH   9  11
ATOM     11  C   UNL     1       3.636 106.470 179.615  1.00  0.00    -0.002 C 
ATOM     12  C   UNL     1       2.907 105.122 179.768  1.00  0.00     0.005 C 
ATOM     13  C   UNL     1       4.553 106.270 178.354  1.00  0.00    -0.026 C 
ATOM     14  C   UNL     1       2.859 104.475 178.387  1.00  0.00     0.005 C 
ATOM     15  C   UNL     1       3.704 105.343 177.436  1.00  0.00    -0.001 C 
ATOM     16  C   UNL     1       5.861 105.544 178.805  1.00  0.00     0.007 C 
ATOM     17  C   UNL     1       4.966 107.602 177.684  1.00  0.00     0.012 C 
ATOM     18  C   UNL     1       4.472 104.469 176.394  1.00  0.00     0.000 C 
ATOM     19  C   UNL     1       6.627 104.853 177.668  1.00  0.00     0.005 C 
ATOM     20  C   UNL     1       5.744 103.793 176.973  1.00  0.00     0.003 C 
ATOM     21  C   UNL     1       4.778 105.253 175.107  1.00  0.00     0.031 C 
ATOM     22  C   UNL     1       6.464 102.881 175.892  1.00  0.00    -0.008 C 
ATOM     23  C   UNL     1       5.630 104.492 174.136  1.00  0.00    -0.027 C 
ATOM     24  C   UNL     1       6.489 103.518 174.497  1.00  0.00    -0.065 C 
ATOM     25  C   UNL     1       7.934 102.550 176.306  1.00  0.00     0.014 C 
ATOM     26  C   UNL     1       5.667 101.548 175.793  1.00  0.00     0.016 C 
ATOM     27  C   UNL     1       7.336 102.866 173.417  1.00  0.00     0.063 C 
ATOM     28  C   UNL     1       8.724 101.783 175.235  1.00  0.00     0.033 C 
ATOM     29  C   UNL     1       8.755 102.573 173.917  1.00  0.00     0.118 C 
BRANCH  29  30
ATOM     30  O   UNL     1       9.443 101.839 172.938  1.00  0.00    -0.393 OA
ATOM     31  H   UNL     1      10.381 101.752 173.251  1.00  0.00     0.210 HD
ENDBRANCH  29  30
ENDBRANCH   9  11
ENDBRANCH   1   9
TORSDOF 7
ENDMDL
MODEL 8
REMARK VINA RESULT:    -5.723      4.379      9.348
REMARK INTER + INTRA:          -9.036
REMARK INTER:                  -7.116
REMARK INTRA:                  -1.920
REMARK UNBOUND:                -1.138
REMARK SMILES CC[C@@H](CC[C@@H](C)[C@H]1CC[C@@H]2[C@H]3CC=C4C[C@H](O)CC[C@@]4(C)[C@H]3CC[C@@]21C)C(C)C
REMARK SMILES IDX 5 1 4 2 3 3 2 4 1 5 28 6 29 7 30 8 6 9 7 10 8 11 9 12 26 13
REMARK SMILES IDX 10 14 11 15 25 16 27 17 12 18 24 19 23 20 13 21 21 22 14 23
REMARK SMILES IDX 15 24 20 25 22 26 16 27 19 28 17 29 18 30
REMARK H PARENT 18 31
REMARK Flexibility Score: inf
ROOT
ATOM      1  C   UNL     1       3.995 106.737 182.036  1.00  0.00     0.004 C 
ENDROOT
BRANCH   1   2
ATOM      2  C   UNL     1       4.877 107.539 183.030  1.00  0.00     0.004 C 
BRANCH   2   3
ATOM      3  C   UNL     1       6.436 107.395 182.933  1.00  0.00    -0.009 C 
BRANCH   3   4
ATOM      4  C   UNL     1       7.076 108.454 181.985  1.00  0.00     0.000 C 
ATOM      5  C   UNL     1       6.402 109.830 182.066  1.00  0.00     0.004 C 
ENDBRANCH   3   4
BRANCH   3   6
ATOM      6  C   UNL     1       6.911 105.925 182.647  1.00  0.00    -0.014 C 
ATOM      7  C   UNL     1       7.490 105.743 181.229  1.00  0.00     0.007 C 
ATOM      8  C   UNL     1       7.987 105.480 183.658  1.00  0.00     0.007 C 
ENDBRANCH   3   6
ENDBRANCH   2   3
ENDBRANCH   1   2
BRANCH   1   9
ATOM      9  C   UNL     1       2.854 107.500 181.310  1.00  0.00    -0.011 C 
ATOM     10  C   UNL     1       2.536 108.806 182.065  1.00  0.00     0.008 C 
BRANCH   9  11
ATOM     11  C   UNL     1       2.981 107.662 179.741  1.00  0.00    -0.002 C 
ATOM     12  C   UNL     1       4.258 108.453 179.400  1.00  0.00     0.005 C 
ATOM     13  C   UNL     1       3.037 106.414 178.787  1.00  0.00    -0.026 C 
ATOM     14  C   UNL     1       5.273 107.457 178.848  1.00  0.00     0.005 C 
ATOM     15  C   UNL     1       4.559 106.101 178.693  1.00  0.00    -0.001 C 
ATOM     16  C   UNL     1       2.477 106.835 177.390  1.00  0.00     0.007 C 
ATOM     17  C   UNL     1       2.186 105.224 179.291  1.00  0.00     0.012 C 
ATOM     18  C   UNL     1       5.055 105.334 177.426  1.00  0.00     0.000 C 
ATOM     19  C   UNL     1       2.896 105.913 176.235  1.00  0.00     0.005 C 
ATOM     20  C   UNL     1       4.435 105.859 176.104  1.00  0.00     0.003 C 
ATOM     21  C   UNL     1       4.880 103.813 177.575  1.00  0.00     0.031 C 
ATOM     22  C   UNL     1       5.003 105.081 174.843  1.00  0.00    -0.008 C 
ATOM     23  C   UNL     1       5.221 103.052 176.329  1.00  0.00    -0.027 C 
ATOM     24  C   UNL     1       5.148 103.574 175.089  1.00  0.00    -0.065 C 
ATOM     25  C   UNL     1       4.099 105.287 173.584  1.00  0.00     0.014 C 
ATOM     26  C   UNL     1       6.417 105.652 174.533  1.00  0.00     0.016 C 
ATOM     27  C   UNL     1       5.466 102.674 173.907  1.00  0.00     0.063 C 
ATOM     28  C   UNL     1       4.525 104.449 172.369  1.00  0.00     0.033 C 
ATOM     29  C   UNL     1       4.536 102.953 172.721  1.00  0.00     0.118 C 
BRANCH  29  30
ATOM     30  O   UNL     1       4.968 102.206 171.614  1.00  0.00    -0.393 OA
ATOM     31  H   UNL     1       5.901 102.490 171.424  1.00  0.00     0.210 HD
ENDBRANCH  29  30
ENDBRANCH   9  11
ENDBRANCH   1   9
TORSDOF 7
ENDMDL
MODEL 9
REMARK VINA RESULT:    -5.721      3.217      4.744
REMARK INTER + INTRA:          -9.033
REMARK INTER:                  -6.875
REMARK INTRA:                  -2.158
REMARK UNBOUND:                -1.138
REMARK SMILES CC[C@@H](CC[C@@H](C)[C@H]1CC[C@@H]2[C@H]3CC=C4C[C@H](O)CC[C@@]4(C)[C@H]3CC[C@@]21C)C(C)C
REMARK SMILES IDX 5 1 4 2 3 3 2 4 1 5 28 6 29 7 30 8 6 9 7 10 8 11 9 12 26 13
REMARK SMILES IDX 10 14 11 15 25 16 27 17 12 18 24 19 23 20 13 21 21 22 14 23
REMARK SMILES IDX 15 24 20 25 22 26 16 27 19 28 17 29 18 30
REMARK H PARENT 18 31
REMARK Flexibility Score: inf
ROOT
ATOM      1  C   UNL     1       1.974 105.118 176.655  1.00  0.00     0.004 C 
ENDROOT
BRANCH   1   2
ATOM      2  C   UNL     1       3.324 105.220 175.894  1.00  0.00     0.004 C 
BRANCH   2   3
ATOM      3  C   UNL     1       4.553 104.409 176.436  1.00  0.00    -0.009 C 
BRANCH   3   4
ATOM      4  C   UNL     1       5.790 105.313 176.715  1.00  0.00     0.000 C 
ATOM      5  C   UNL     1       5.677 106.709 176.090  1.00  0.00     0.004 C 
ENDBRANCH   3   4
BRANCH   3   6
ATOM      6  C   UNL     1       4.884 103.133 175.581  1.00  0.00    -0.014 C 
ATOM      7  C   UNL     1       5.093 103.446 174.085  1.00  0.00     0.007 C 
ATOM      8  C   UNL     1       6.157 102.430 176.098  1.00  0.00     0.007 C 
ENDBRANCH   3   6
ENDBRANCH   2   3
ENDBRANCH   1   2
BRANCH   1   9
ATOM      9  C   UNL     1       1.383 106.426 177.248  1.00  0.00    -0.011 C 
ATOM     10  C   UNL     1      -0.092 106.571 176.824  1.00  0.00     0.008 C 
BRANCH   9  11
ATOM     11  C   UNL     1       1.658 106.710 178.780  1.00  0.00    -0.002 C 
ATOM     12  C   UNL     1       1.793 105.378 179.542  1.00  0.00     0.005 C 
ATOM     13  C   UNL     1       2.902 107.548 179.251  1.00  0.00    -0.026 C 
ATOM     14  C   UNL     1       3.274 105.185 179.856  1.00  0.00     0.005 C 
ATOM     15  C   UNL     1       4.010 106.472 179.441  1.00  0.00    -0.001 C 
ATOM     16  C   UNL     1       2.554 108.223 180.617  1.00  0.00     0.007 C 
ATOM     17  C   UNL     1       3.288 108.673 178.261  1.00  0.00     0.012 C 
ATOM     18  C   UNL     1       5.174 106.809 180.428  1.00  0.00     0.000 C 
ATOM     19  C   UNL     1       3.776 108.666 181.435  1.00  0.00     0.005 C 
ATOM     20  C   UNL     1       4.692 107.462 181.751  1.00  0.00     0.003 C 
ATOM     21  C   UNL     1       6.275 107.641 179.748  1.00  0.00     0.031 C 
ATOM     22  C   UNL     1       5.904 107.744 182.737  1.00  0.00    -0.008 C 
ATOM     23  C   UNL     1       7.344 108.097 180.694  1.00  0.00    -0.027 C 
ATOM     24  C   UNL     1       7.147 108.276 182.016  1.00  0.00    -0.065 C 
ATOM     25  C   UNL     1       5.511 108.764 183.854  1.00  0.00     0.014 C 
ATOM     26  C   UNL     1       6.284 106.395 183.414  1.00  0.00     0.016 C 
ATOM     27  C   UNL     1       8.303 108.799 182.853  1.00  0.00     0.063 C 
ATOM     28  C   UNL     1       6.681 109.178 184.758  1.00  0.00     0.033 C 
ATOM     29  C   UNL     1       7.820 109.784 183.923  1.00  0.00     0.118 C 
BRANCH  29  30
ATOM     30  O   UNL     1       8.898 110.117 184.759  1.00  0.00    -0.393 OA
ATOM     31  H   UNL     1       9.138 111.059 184.555  1.00  0.00     0.210 HD
ENDBRANCH  29  30
ENDBRANCH   9  11
ENDBRANCH   1   9
TORSDOF 7
ENDMDL
