MODEL 1
REMARK VINA RESULT:    -4.658      0.000      0.000
REMARK INTER + INTRA:         -10.734
REMARK INTER:                  -8.470
REMARK INTRA:                  -2.264
REMARK UNBOUND:                -2.264
REMARK SMILES CCCCCCCCCCCCCCCC(=O)[O-]
REMARK SMILES IDX 9 1 10 2 11 3 12 4 13 5 14 6 15 7 16 8 17 9 18 10 8 11 7 12
REMARK SMILES IDX 6 13 5 14 4 15 3 16 2 17 1 18
REMARK H PARENT
REMARK Flexibility Score: inf
ROOT
ATOM      1  C   UNL     1      -2.128 -45.294  17.758  1.00  0.00     0.000 C 
ENDROOT
BRANCH   1   2
ATOM      2  C   UNL     1      -1.723 -46.594  18.471  1.00  0.00     0.000 C 
BRANCH   2   3
ATOM      3  C   UNL     1      -1.616 -47.788  17.507  1.00  0.00     0.000 C 
BRANCH   3   4
ATOM      4  C   UNL     1      -2.494 -48.975  17.935  1.00  0.00     0.000 C 
BRANCH   4   5
ATOM      5  C   UNL     1      -3.867 -48.976  17.246  1.00  0.00     0.000 C 
BRANCH   5   6
ATOM      6  C   UNL     1      -4.977 -48.592  18.235  1.00  0.00     0.006 C 
BRANCH   6   7
ATOM      7  C   UNL     1      -5.400 -47.123  18.094  1.00  0.00     0.053 C 
BRANCH   7   8
ATOM      8  C   UNL     1      -5.367 -46.408  19.409  1.00  0.00     0.041 C 
ATOM      9  O   UNL     1      -6.008 -45.334  19.561  1.00  0.00    -0.550 OA
ATOM     10  O   UNL     1      -4.659 -46.942  20.477  1.00  0.00    -0.550 OA
ENDBRANCH   7   8
ENDBRANCH   6   7
ENDBRANCH   5   6
ENDBRANCH   4   5
ENDBRANCH   3   4
ENDBRANCH   2   3
ENDBRANCH   1   2
BRANCH   1  11
ATOM     11  C   UNL     1      -1.661 -45.253  16.291  1.00  0.00     0.000 C 
BRANCH  11  12
ATOM     12  C   UNL     1      -2.574 -44.390  15.407  1.00  0.00    -0.000 C 
BRANCH  12  13
ATOM     13  C   UNL     1      -4.001 -44.957  15.299  1.00  0.00    -0.000 C 
BRANCH  13  14
ATOM     14  C   UNL     1      -4.014 -46.395  14.740  1.00  0.00    -0.000 C 
BRANCH  14  15
ATOM     15  C   UNL     1      -4.162 -46.462  13.210  1.00  0.00    -0.000 C 
BRANCH  15  16
ATOM     16  C   UNL     1      -3.879 -47.863  12.644  1.00  0.00    -0.000 C 
BRANCH  16  17
ATOM     17  C   UNL     1      -3.027 -48.720  13.593  1.00  0.00    -0.003 C 
ATOM     18  C   UNL     1      -3.598 -50.123  13.800  1.00  0.00     0.004 C 
ENDBRANCH  16  17
ENDBRANCH  15  16
ENDBRANCH  14  15
ENDBRANCH  13  14
ENDBRANCH  12  13
ENDBRANCH  11  12
ENDBRANCH   1  11
TORSDOF 14
ENDMDL
MODEL 2
REMARK VINA RESULT:    -4.632      1.129      2.419
REMARK INTER + INTRA:         -10.686
REMARK INTER:                  -8.369
REMARK INTRA:                  -2.317
REMARK UNBOUND:                -2.264
REMARK SMILES CCCCCCCCCCCCCCCC(=O)[O-]
REMARK SMILES IDX 9 1 10 2 11 3 12 4 13 5 14 6 15 7 16 8 17 9 18 10 8 11 7 12
REMARK SMILES IDX 6 13 5 14 4 15 3 16 2 17 1 18
REMARK H PARENT
REMARK Flexibility Score: inf
ROOT
ATOM      1  C   UNL     1      -1.506 -47.837  17.347  1.00  0.00     0.000 C 
ENDROOT
BRANCH   1   2
ATOM      2  C   UNL     1      -2.454 -49.017  17.616  1.00  0.00     0.000 C 
BRANCH   2   3
ATOM      3  C   UNL     1      -3.803 -48.866  16.893  1.00  0.00     0.000 C 
BRANCH   3   4
ATOM      4  C   UNL     1      -4.986 -48.742  17.866  1.00  0.00     0.000 C 
BRANCH   4   5
ATOM      5  C   UNL     1      -4.543 -48.691  19.336  1.00  0.00     0.000 C 
BRANCH   5   6
ATOM      6  C   UNL     1      -4.755 -47.288  19.925  1.00  0.00     0.006 C 
BRANCH   6   7
ATOM      7  C   UNL     1      -5.453 -46.342  18.938  1.00  0.00     0.053 C 
BRANCH   7   8
ATOM      8  C   UNL     1      -5.540 -44.946  19.473  1.00  0.00     0.041 C 
ATOM      9  O   UNL     1      -5.851 -44.748  20.677  1.00  0.00    -0.550 OA
ATOM     10  O   UNL     1      -5.245 -43.865  18.652  1.00  0.00    -0.550 OA
ENDBRANCH   7   8
ENDBRANCH   6   7
ENDBRANCH   5   6
ENDBRANCH   4   5
ENDBRANCH   3   4
ENDBRANCH   2   3
ENDBRANCH   1   2
BRANCH   1  11
ATOM     11  C   UNL     1      -1.611 -46.736  18.419  1.00  0.00     0.000 C 
BRANCH  11  12
ATOM     12  C   UNL     1      -2.068 -45.390  17.837  1.00  0.00    -0.000 C 
BRANCH  12  13
ATOM     13  C   UNL     1      -1.657 -45.210  16.365  1.00  0.00    -0.000 C 
BRANCH  13  14
ATOM     14  C   UNL     1      -2.774 -44.556  15.526  1.00  0.00    -0.000 C 
BRANCH  14  15
ATOM     15  C   UNL     1      -4.122 -45.293  15.609  1.00  0.00    -0.000 C 
BRANCH  15  16
ATOM     16  C   UNL     1      -4.528 -45.947  14.278  1.00  0.00    -0.000 C 
BRANCH  16  17
ATOM     17  C   UNL     1      -3.565 -47.066  13.854  1.00  0.00    -0.003 C 
ATOM     18  C   UNL     1      -3.929 -47.683  12.504  1.00  0.00     0.004 C 
ENDBRANCH  16  17
ENDBRANCH  15  16
ENDBRANCH  14  15
ENDBRANCH  13  14
ENDBRANCH  12  13
ENDBRANCH  11  12
ENDBRANCH   1  11
TORSDOF 14
ENDMDL
MODEL 3
REMARK VINA RESULT:    -4.627      2.061      4.023
REMARK INTER + INTRA:         -10.678
REMARK INTER:                  -8.173
REMARK INTRA:                  -2.505
REMARK UNBOUND:                -2.264
REMARK SMILES CCCCCCCCCCCCCCCC(=O)[O-]
REMARK SMILES IDX 9 1 10 2 11 3 12 4 13 5 14 6 15 7 16 8 17 9 18 10 8 11 7 12
REMARK SMILES IDX 6 13 5 14 4 15 3 16 2 17 1 18
REMARK H PARENT
REMARK Flexibility Score: inf
ROOT
ATOM      1  C   UNL     1      -3.708 -48.843  16.839  1.00  0.00     0.000 C 
ENDROOT
BRANCH   1   2
ATOM      2  C   UNL     1      -4.917 -48.603  17.757  1.00  0.00     0.000 C 
BRANCH   2   3
ATOM      3  C   UNL     1      -4.580 -48.809  19.244  1.00  0.00     0.000 C 
BRANCH   3   4
ATOM      4  C   UNL     1      -4.596 -47.496  20.042  1.00  0.00     0.000 C 
BRANCH   4   5
ATOM      5  C   UNL     1      -5.461 -46.411  19.384  1.00  0.00     0.000 C 
BRANCH   5   6
ATOM      6  C   UNL     1      -5.802 -45.298  20.386  1.00  0.00     0.006 C 
BRANCH   6   7
ATOM      7  C   UNL     1      -6.648 -44.185  19.754  1.00  0.00     0.053 C 
BRANCH   7   8
ATOM      8  C   UNL     1      -5.812 -43.009  19.354  1.00  0.00     0.041 C 
ATOM      9  O   UNL     1      -6.342 -42.019  18.784  1.00  0.00    -0.550 OA
ATOM     10  O   UNL     1      -4.453 -42.989  19.641  1.00  0.00    -0.550 OA
ENDBRANCH   7   8
ENDBRANCH   6   7
ENDBRANCH   5   6
ENDBRANCH   4   5
ENDBRANCH   3   4
ENDBRANCH   2   3
ENDBRANCH   1   2
BRANCH   1  11
ATOM     11  C   UNL     1      -2.390 -48.994  17.621  1.00  0.00     0.000 C 
BRANCH  11  12
ATOM     12  C   UNL     1      -1.426 -47.822  17.381  1.00  0.00    -0.000 C 
BRANCH  12  13
ATOM     13  C   UNL     1      -1.575 -46.708  18.432  1.00  0.00    -0.000 C 
BRANCH  13  14
ATOM     14  C   UNL     1      -2.212 -45.433  17.840  1.00  0.00    -0.000 C 
BRANCH  14  15
ATOM     15  C   UNL     1      -1.947 -45.251  16.336  1.00  0.00    -0.000 C 
BRANCH  15  16
ATOM     16  C   UNL     1      -3.236 -45.252  15.499  1.00  0.00    -0.000 C 
BRANCH  16  17
ATOM     17  C   UNL     1      -4.450 -44.734  16.286  1.00  0.00    -0.003 C 
ATOM     18  C   UNL     1      -5.769 -45.342  15.810  1.00  0.00     0.004 C 
ENDBRANCH  16  17
ENDBRANCH  15  16
ENDBRANCH  14  15
ENDBRANCH  13  14
ENDBRANCH  12  13
ENDBRANCH  11  12
ENDBRANCH   1  11
TORSDOF 14
ENDMDL
MODEL 4
REMARK VINA RESULT:    -4.585      2.549      5.263
REMARK INTER + INTRA:         -10.601
REMARK INTER:                  -8.026
REMARK INTRA:                  -2.574
REMARK UNBOUND:                -2.264
REMARK SMILES CCCCCCCCCCCCCCCC(=O)[O-]
REMARK SMILES IDX 9 1 10 2 11 3 12 4 13 5 14 6 15 7 16 8 17 9 18 10 8 11 7 12
REMARK SMILES IDX 6 13 5 14 4 15 3 16 2 17 1 18
REMARK H PARENT
REMARK Flexibility Score: inf
ROOT
ATOM      1  C   UNL     1      -1.569 -47.820  17.227  1.00  0.00     0.000 C 
ENDROOT
BRANCH   1   2
ATOM      2  C   UNL     1      -1.620 -46.788  18.365  1.00  0.00     0.000 C 
BRANCH   2   3
ATOM      3  C   UNL     1      -2.045 -45.393  17.877  1.00  0.00     0.000 C 
BRANCH   3   4
ATOM      4  C   UNL     1      -1.884 -45.223  16.358  1.00  0.00     0.000 C 
BRANCH   4   5
ATOM      5  C   UNL     1      -3.138 -44.640  15.690  1.00  0.00     0.000 C 
BRANCH   5   6
ATOM      6  C   UNL     1      -4.100 -45.757  15.260  1.00  0.00     0.006 C 
BRANCH   6   7
ATOM      7  C   UNL     1      -5.555 -45.452  15.642  1.00  0.00     0.053 C 
BRANCH   7   8
ATOM      8  C   UNL     1      -6.356 -44.996  14.462  1.00  0.00     0.041 C 
ATOM      9  O   UNL     1      -7.351 -44.241  14.626  1.00  0.00    -0.550 OA
ATOM     10  O   UNL     1      -5.985 -45.374  13.179  1.00  0.00    -0.550 OA
ENDBRANCH   7   8
ENDBRANCH   6   7
ENDBRANCH   5   6
ENDBRANCH   4   5
ENDBRANCH   3   4
ENDBRANCH   2   3
ENDBRANCH   1   2
BRANCH   1  11
ATOM     11  C   UNL     1      -2.475 -49.037  17.490  1.00  0.00     0.000 C 
BRANCH  11  12
ATOM     12  C   UNL     1      -3.799 -48.963  16.713  1.00  0.00    -0.000 C 
BRANCH  12  13
ATOM     13  C   UNL     1      -5.008 -48.696  17.628  1.00  0.00    -0.000 C 
BRANCH  13  14
ATOM     14  C   UNL     1      -4.651 -48.850  19.122  1.00  0.00    -0.000 C 
BRANCH  14  15
ATOM     15  C   UNL     1      -4.712 -47.531  19.911  1.00  0.00    -0.000 C 
BRANCH  15  16
ATOM     16  C   UNL     1      -5.362 -46.389  19.114  1.00  0.00    -0.000 C 
BRANCH  16  17
ATOM     17  C   UNL     1      -5.448 -45.083  19.919  1.00  0.00    -0.003 C 
ATOM     18  C   UNL     1      -5.225 -43.839  19.060  1.00  0.00     0.004 C 
ENDBRANCH  16  17
ENDBRANCH  15  16
ENDBRANCH  14  15
ENDBRANCH  13  14
ENDBRANCH  12  13
ENDBRANCH  11  12
ENDBRANCH   1  11
TORSDOF 14
ENDMDL
MODEL 5
REMARK VINA RESULT:    -4.549      2.876      5.475
REMARK INTER + INTRA:         -10.535
REMARK INTER:                  -7.879
REMARK INTRA:                  -2.656
REMARK UNBOUND:                -2.264
REMARK SMILES CCCCCCCCCCCCCCCC(=O)[O-]
REMARK SMILES IDX 9 1 10 2 11 3 12 4 13 5 14 6 15 7 16 8 17 9 18 10 8 11 7 12
REMARK SMILES IDX 6 13 5 14 4 15 3 16 2 17 1 18
REMARK H PARENT
REMARK Flexibility Score: inf
ROOT
ATOM      1  C   UNL     1      -2.026 -45.289  17.993  1.00  0.00     0.000 C 
ENDROOT
BRANCH   1   2
ATOM      2  C   UNL     1      -1.970 -45.277  16.457  1.00  0.00     0.000 C 
BRANCH   2   3
ATOM      3  C   UNL     1      -3.265 -44.742  15.823  1.00  0.00     0.000 C 
BRANCH   3   4
ATOM      4  C   UNL     1      -3.572 -45.394  14.465  1.00  0.00     0.000 C 
BRANCH   4   5
ATOM      5  C   UNL     1      -4.126 -46.819  14.602  1.00  0.00     0.000 C 
BRANCH   5   6
ATOM      6  C   UNL     1      -3.444 -47.770  13.607  1.00  0.00     0.006 C 
BRANCH   6   7
ATOM      7  C   UNL     1      -2.977 -49.072  14.272  1.00  0.00     0.053 C 
BRANCH   7   8
ATOM      8  C   UNL     1      -1.585 -49.439  13.861  1.00  0.00     0.041 C 
ATOM      9  O   UNL     1      -0.732 -49.762  14.730  1.00  0.00    -0.550 OA
ATOM     10  O   UNL     1      -1.236 -49.457  12.517  1.00  0.00    -0.550 OA
ENDBRANCH   7   8
ENDBRANCH   6   7
ENDBRANCH   5   6
ENDBRANCH   4   5
ENDBRANCH   3   4
ENDBRANCH   2   3
ENDBRANCH   1   2
BRANCH   1  11
ATOM     11  C   UNL     1      -1.695 -46.670  18.588  1.00  0.00     0.000 C 
BRANCH  11  12
ATOM     12  C   UNL     1      -1.572 -47.760  17.512  1.00  0.00    -0.000 C 
BRANCH  12  13
ATOM     13  C   UNL     1      -2.459 -48.983  17.804  1.00  0.00    -0.000 C 
BRANCH  13  14
ATOM     14  C   UNL     1      -3.747 -48.599  18.563  1.00  0.00    -0.000 C 
BRANCH  14  15
ATOM     15  C   UNL     1      -4.972 -48.422  17.650  1.00  0.00    -0.000 C 
BRANCH  15  16
ATOM     16  C   UNL     1      -5.702 -47.089  17.883  1.00  0.00    -0.000 C 
BRANCH  16  17
ATOM     17  C   UNL     1      -5.321 -46.435  19.220  1.00  0.00    -0.003 C 
ATOM     18  C   UNL     1      -5.461 -44.913  19.199  1.00  0.00     0.004 C 
ENDBRANCH  16  17
ENDBRANCH  15  16
ENDBRANCH  14  15
ENDBRANCH  13  14
ENDBRANCH  12  13
ENDBRANCH  11  12
ENDBRANCH   1  11
TORSDOF 14
ENDMDL
MODEL 6
REMARK VINA RESULT:    -4.525      2.031      3.849
REMARK INTER + INTRA:         -10.492
REMARK INTER:                  -7.615
REMARK INTRA:                  -2.878
REMARK UNBOUND:                -2.264
REMARK SMILES CCCCCCCCCCCCCCCC(=O)[O-]
REMARK SMILES IDX 9 1 10 2 11 3 12 4 13 5 14 6 15 7 16 8 17 9 18 10 8 11 7 12
REMARK SMILES IDX 6 13 5 14 4 15 3 16 2 17 1 18
REMARK H PARENT
REMARK Flexibility Score: inf
ROOT
ATOM      1  C   UNL     1      -2.377 -44.989  18.155  1.00  0.00     0.000 C 
ENDROOT
BRANCH   1   2
ATOM      2  C   UNL     1      -1.787 -45.490  16.827  1.00  0.00     0.000 C 
BRANCH   2   3
ATOM      3  C   UNL     1      -2.728 -45.250  15.634  1.00  0.00     0.000 C 
BRANCH   3   4
ATOM      4  C   UNL     1      -4.074 -44.639  16.057  1.00  0.00     0.000 C 
BRANCH   4   5
ATOM      5  C   UNL     1      -5.232 -45.645  15.981  1.00  0.00     0.000 C 
BRANCH   5   6
ATOM      6  C   UNL     1      -6.455 -45.133  16.757  1.00  0.00     0.006 C 
BRANCH   6   7
ATOM      7  C   UNL     1      -6.095 -44.004  17.732  1.00  0.00     0.053 C 
BRANCH   7   8
ATOM      8  C   UNL     1      -7.168 -43.788  18.753  1.00  0.00     0.041 C 
ATOM      9  O   UNL     1      -8.225 -43.177  18.442  1.00  0.00    -0.550 OA
ATOM     10  O   UNL     1      -7.018 -44.290  20.039  1.00  0.00    -0.550 OA
ENDBRANCH   7   8
ENDBRANCH   6   7
ENDBRANCH   5   6
ENDBRANCH   4   5
ENDBRANCH   3   4
ENDBRANCH   2   3
ENDBRANCH   1   2
BRANCH   1  11
ATOM     11  C   UNL     1      -2.535 -46.113  19.195  1.00  0.00     0.000 C 
BRANCH  11  12
ATOM     12  C   UNL     1      -3.862 -46.022  19.963  1.00  0.00    -0.000 C 
BRANCH  12  13
ATOM     13  C   UNL     1      -4.883 -47.080  19.510  1.00  0.00    -0.000 C 
BRANCH  13  14
ATOM     14  C   UNL     1      -4.198 -48.368  19.004  1.00  0.00    -0.000 C 
BRANCH  14  15
ATOM     15  C   UNL     1      -4.699 -48.834  17.626  1.00  0.00    -0.000 C 
BRANCH  15  16
ATOM     16  C   UNL     1      -3.563 -49.005  16.605  1.00  0.00    -0.000 C 
BRANCH  16  17
ATOM     17  C   UNL     1      -2.192 -49.188  17.274  1.00  0.00    -0.003 C 
ATOM     18  C   UNL     1      -1.028 -49.041  16.294  1.00  0.00     0.004 C 
ENDBRANCH  16  17
ENDBRANCH  15  16
ENDBRANCH  14  15
ENDBRANCH  13  14
ENDBRANCH  12  13
ENDBRANCH  11  12
ENDBRANCH   1  11
TORSDOF 14
ENDMDL
MODEL 7
REMARK VINA RESULT:    -4.492      1.331      2.493
REMARK INTER + INTRA:         -10.432
REMARK INTER:                  -7.810
REMARK INTRA:                  -2.621
REMARK UNBOUND:                -2.264
REMARK SMILES CCCCCCCCCCCCCCCC(=O)[O-]
REMARK SMILES IDX 9 1 10 2 11 3 12 4 13 5 14 6 15 7 16 8 17 9 18 10 8 11 7 12
REMARK SMILES IDX 6 13 5 14 4 15 3 16 2 17 1 18
REMARK H PARENT
REMARK Flexibility Score: inf
ROOT
ATOM      1  C   UNL     1      -1.550 -47.816  17.933  1.00  0.00     0.000 C 
ENDROOT
BRANCH   1   2
ATOM      2  C   UNL     1      -2.618 -48.909  18.099  1.00  0.00     0.000 C 
BRANCH   2   3
ATOM      3  C   UNL     1      -3.851 -48.416  18.875  1.00  0.00     0.000 C 
BRANCH   3   4
ATOM      4  C   UNL     1      -5.078 -48.217  17.971  1.00  0.00     0.000 C 
BRANCH   4   5
ATOM      5  C   UNL     1      -5.680 -46.808  18.088  1.00  0.00     0.000 C 
BRANCH   5   6
ATOM      6  C   UNL     1      -5.497 -46.251  19.508  1.00  0.00     0.006 C 
BRANCH   6   7
ATOM      7  C   UNL     1      -5.315 -44.727  19.516  1.00  0.00     0.053 C 
BRANCH   7   8
ATOM      8  C   UNL     1      -6.196 -44.068  20.532  1.00  0.00     0.041 C 
ATOM      9  O   UNL     1      -6.014 -42.860  20.839  1.00  0.00    -0.550 OA
ATOM     10  O   UNL     1      -7.239 -44.775  21.114  1.00  0.00    -0.550 OA
ENDBRANCH   7   8
ENDBRANCH   6   7
ENDBRANCH   5   6
ENDBRANCH   4   5
ENDBRANCH   3   4
ENDBRANCH   2   3
ENDBRANCH   1   2
BRANCH   1  11
ATOM     11  C   UNL     1      -1.903 -46.522  18.690  1.00  0.00     0.000 C 
BRANCH  11  12
ATOM     12  C   UNL     1      -2.046 -45.313  17.754  1.00  0.00    -0.000 C 
BRANCH  12  13
ATOM     13  C   UNL     1      -1.848 -45.683  16.274  1.00  0.00    -0.000 C 
BRANCH  13  14
ATOM     14  C   UNL     1      -3.069 -45.300  15.411  1.00  0.00    -0.000 C 
BRANCH  14  15
ATOM     15  C   UNL     1      -3.941 -46.502  15.006  1.00  0.00    -0.000 C 
BRANCH  15  16
ATOM     16  C   UNL     1      -3.221 -47.463  14.046  1.00  0.00    -0.000 C 
BRANCH  16  17
ATOM     17  C   UNL     1      -3.225 -48.913  14.553  1.00  0.00    -0.003 C 
ATOM     18  C   UNL     1      -1.832 -49.543  14.560  1.00  0.00     0.004 C 
ENDBRANCH  16  17
ENDBRANCH  15  16
ENDBRANCH  14  15
ENDBRANCH  13  14
ENDBRANCH  12  13
ENDBRANCH  11  12
ENDBRANCH   1  11
TORSDOF 14
ENDMDL
MODEL 8
REMARK VINA RESULT:    -4.482      1.423      3.363
REMARK INTER + INTRA:         -10.413
REMARK INTER:                  -7.726
REMARK INTRA:                  -2.687
REMARK UNBOUND:                -2.264
REMARK SMILES CCCCCCCCCCCCCCCC(=O)[O-]
REMARK SMILES IDX 9 1 10 2 11 3 12 4 13 5 14 6 15 7 16 8 17 9 18 10 8 11 7 12
REMARK SMILES IDX 6 13 5 14 4 15 3 16 2 17 1 18
REMARK H PARENT
REMARK Flexibility Score: inf
ROOT
ATOM      1  C   UNL     1      -2.925 -44.949  15.500  1.00  0.00     0.000 C 
ENDROOT
BRANCH   1   2
ATOM      2  C   UNL     1      -4.244 -44.874  16.286  1.00  0.00     0.000 C 
BRANCH   2   3
ATOM      3  C   UNL     1      -5.142 -46.100  16.049  1.00  0.00     0.000 C 
BRANCH   3   4
ATOM      4  C   UNL     1      -6.060 -46.400  17.245  1.00  0.00     0.000 C 
BRANCH   4   5
ATOM      5  C   UNL     1      -5.349 -47.183  18.359  1.00  0.00     0.000 C 
BRANCH   5   6
ATOM      6  C   UNL     1      -5.217 -46.330  19.629  1.00  0.00     0.006 C 
BRANCH   6   7
ATOM      7  C   UNL     1      -6.337 -45.288  19.750  1.00  0.00     0.053 C 
BRANCH   7   8
ATOM      8  C   UNL     1      -5.845 -43.905  19.452  1.00  0.00     0.041 C 
ATOM      9  O   UNL     1      -4.674 -43.568  19.770  1.00  0.00    -0.550 OA
ATOM     10  O   UNL     1      -6.666 -43.000  18.792  1.00  0.00    -0.550 OA
ENDBRANCH   7   8
ENDBRANCH   6   7
ENDBRANCH   5   6
ENDBRANCH   4   5
ENDBRANCH   3   4
ENDBRANCH   2   3
ENDBRANCH   1   2
BRANCH   1  11
ATOM     11  C   UNL     1      -1.715 -45.254  16.402  1.00  0.00     0.000 C 
BRANCH  11  12
ATOM     12  C   UNL     1      -2.096 -45.350  17.887  1.00  0.00    -0.000 C 
BRANCH  12  13
ATOM     13  C   UNL     1      -1.689 -46.693  18.518  1.00  0.00    -0.000 C 
BRANCH  13  14
ATOM     14  C   UNL     1      -1.436 -47.782  17.454  1.00  0.00    -0.000 C 
BRANCH  14  15
ATOM     15  C   UNL     1      -2.401 -48.976  17.551  1.00  0.00    -0.000 C 
BRANCH  15  16
ATOM     16  C   UNL     1      -3.120 -49.271  16.224  1.00  0.00    -0.000 C 
BRANCH  16  17
ATOM     17  C   UNL     1      -2.305 -48.825  15.001  1.00  0.00    -0.003 C 
ATOM     18  C   UNL     1      -3.177 -48.253  13.883  1.00  0.00     0.004 C 
ENDBRANCH  16  17
ENDBRANCH  15  16
ENDBRANCH  14  15
ENDBRANCH  13  14
ENDBRANCH  12  13
ENDBRANCH  11  12
ENDBRANCH   1  11
TORSDOF 14
ENDMDL
MODEL 9
REMARK VINA RESULT:    -4.476      2.660      4.822
REMARK INTER + INTRA:         -10.404
REMARK INTER:                  -7.797
REMARK INTRA:                  -2.606
REMARK UNBOUND:                -2.264
REMARK SMILES CCCCCCCCCCCCCCCC(=O)[O-]
REMARK SMILES IDX 9 1 10 2 11 3 12 4 13 5 14 6 15 7 16 8 17 9 18 10 8 11 7 12
REMARK SMILES IDX 6 13 5 14 4 15 3 16 2 17 1 18
REMARK H PARENT
REMARK Flexibility Score: inf
ROOT
ATOM      1  C   UNL     1      -4.614 -46.989  19.773  1.00  0.00     0.000 C 
ENDROOT
BRANCH   1   2
ATOM      2  C   UNL     1      -3.400 -46.052  19.671  1.00  0.00     0.000 C 
BRANCH   2   3
ATOM      3  C   UNL     1      -3.777 -44.653  19.152  1.00  0.00     0.000 C 
BRANCH   3   4
ATOM      4  C   UNL     1      -5.273 -44.527  18.827  1.00  0.00     0.000 C 
BRANCH   4   5
ATOM      5  C   UNL     1      -5.535 -44.213  17.346  1.00  0.00     0.000 C 
BRANCH   5   6
ATOM      6  C   UNL     1      -5.728 -45.505  16.538  1.00  0.00     0.006 C 
BRANCH   6   7
ATOM      7  C   UNL     1      -5.959 -45.229  15.046  1.00  0.00     0.053 C 
BRANCH   7   8
ATOM      8  C   UNL     1      -7.409 -45.021  14.737  1.00  0.00     0.041 C 
ATOM      9  O   UNL     1      -8.293 -45.469  15.515  1.00  0.00    -0.550 OA
ATOM     10  O   UNL     1      -7.787 -44.305  13.608  1.00  0.00    -0.550 OA
ENDBRANCH   7   8
ENDBRANCH   6   7
ENDBRANCH   5   6
ENDBRANCH   4   5
ENDBRANCH   3   4
ENDBRANCH   2   3
ENDBRANCH   1   2
BRANCH   1  11
ATOM     11  C   UNL     1      -4.294 -48.425  19.318  1.00  0.00     0.000 C 
BRANCH  11  12
ATOM     12  C   UNL     1      -4.809 -48.721  17.901  1.00  0.00    -0.000 C 
BRANCH  12  13
ATOM     13  C   UNL     1      -3.669 -48.964  16.896  1.00  0.00    -0.000 C 
BRANCH  13  14
ATOM     14  C   UNL     1      -2.278 -48.854  17.557  1.00  0.00    -0.000 C 
BRANCH  14  15
ATOM     15  C   UNL     1      -1.395 -47.748  16.955  1.00  0.00    -0.000 C 
BRANCH  15  16
ATOM     16  C   UNL     1      -2.195 -46.728  16.129  1.00  0.00    -0.000 C 
BRANCH  16  17
ATOM     17  C   UNL     1      -1.681 -45.292  16.308  1.00  0.00    -0.003 C 
ATOM     18  C   UNL     1      -2.349 -44.298  15.357  1.00  0.00     0.004 C 
ENDBRANCH  16  17
ENDBRANCH  15  16
ENDBRANCH  14  15
ENDBRANCH  13  14
ENDBRANCH  12  13
ENDBRANCH  11  12
ENDBRANCH   1  11
TORSDOF 14
ENDMDL
