MODEL 1
REMARK VINA RESULT:    -6.915      0.000      0.000
REMARK INTER + INTRA:          -8.925
REMARK INTER:                  -8.532
REMARK INTRA:                  -0.394
REMARK UNBOUND:                -0.394
REMARK SMILES COc1cc(-c2[o+]c3cc(O)cc(O)c3cc2O)ccc1O
REMARK SMILES IDX 6 1 7 2 8 3 9 4 10 5 12 6 13 7 15 8 16 9 17 10 5 11 3 12
REMARK SMILES IDX 21 13 4 14 20 15 19 16 2 17 1 18 22 19 18 21 11 23 14 25
REMARK H PARENT 22 20 18 22 11 24 14 26
REMARK Flexibility Score: inf
ROOT
ATOM      1  C   UNL     1     -21.789  14.578 -39.659  1.00  0.00     0.402 A 
ATOM      2  O   UNL     1     -22.847  14.720 -38.864  1.00  0.00    -0.202 OA
ATOM      3  C   UNL     1     -23.753  15.679 -39.021  1.00  0.00     0.368 A 
ATOM      4  C   UNL     1     -24.833  15.745 -38.136  1.00  0.00     0.162 A 
ATOM      5  C   UNL     1     -25.802  16.743 -38.279  1.00  0.00     0.128 A 
ATOM      6  C   UNL     1     -25.691  17.677 -39.311  1.00  0.00     0.093 A 
ATOM      7  C   UNL     1     -24.619  17.632 -40.211  1.00  0.00     0.136 A 
ATOM      8  C   UNL     1     -23.631  16.623 -40.068  1.00  0.00     0.125 A 
ATOM      9  C   UNL     1     -22.516  16.509 -40.914  1.00  0.00     0.078 A 
ATOM     10  C   UNL     1     -21.581  15.491 -40.709  1.00  0.00     0.223 A 
ENDROOT
BRANCH   1  11
ATOM     11  C   UNL     1     -20.854  13.461 -39.388  1.00  0.00     0.087 A 
ATOM     12  C   UNL     1     -19.099  12.484 -37.991  1.00  0.00     0.161 A 
ATOM     13  C   UNL     1     -19.105  11.335 -38.804  1.00  0.00     0.157 A 
ATOM     14  C   UNL     1     -19.984  13.540 -38.288  1.00  0.00     0.068 A 
ATOM     15  C   UNL     1     -19.986  11.248 -39.886  1.00  0.00     0.051 A 
ATOM     16  C   UNL     1     -20.859  12.297 -40.174  1.00  0.00     0.022 A 
BRANCH  12  17
ATOM     17  O   UNL     1     -18.210  12.542 -36.906  1.00  0.00    -0.493 OA
ATOM     18  C   UNL     1     -17.087  13.413 -36.828  1.00  0.00     0.278 C 
ENDBRANCH  12  17
BRANCH  13  19
ATOM     19  O   UNL     1     -18.245  10.268 -38.548  1.00  0.00    -0.504 OA
ATOM     20  H   UNL     1     -17.656  10.234 -37.724  1.00  0.00     0.293 HD
ENDBRANCH  13  19
ENDBRANCH   1  11
BRANCH  10  21
ATOM     21  O   UNL     1     -20.447  15.408 -41.518  1.00  0.00    -0.500 OA
ATOM     22  H   UNL     1     -19.968  16.237 -41.849  1.00  0.00     0.294 HD
ENDBRANCH  10  21
BRANCH   5  23
ATOM     23  O   UNL     1     -26.880  16.814 -37.400  1.00  0.00    -0.507 OA
ATOM     24  H   UNL     1     -27.580  16.083 -37.359  1.00  0.00     0.293 HD
ENDBRANCH   5  23
BRANCH   7  25
ATOM     25  O   UNL     1     -24.582  18.602 -41.217  1.00  0.00    -0.507 OA
ATOM     26  H   UNL     1     -23.795  19.209 -41.396  1.00  0.00     0.293 HD
ENDBRANCH   7  25
TORSDOF 6
ENDMDL
MODEL 2
REMARK VINA RESULT:    -6.669      2.025      2.996
REMARK INTER + INTRA:          -8.621
REMARK INTER:                  -8.251
REMARK INTRA:                  -0.370
REMARK UNBOUND:                -0.394
REMARK SMILES COc1cc(-c2[o+]c3cc(O)cc(O)c3cc2O)ccc1O
REMARK SMILES IDX 6 1 7 2 8 3 9 4 10 5 12 6 13 7 15 8 16 9 17 10 5 11 3 12
REMARK SMILES IDX 21 13 4 14 20 15 19 16 2 17 1 18 22 19 18 21 11 23 14 25
REMARK H PARENT 22 20 18 22 11 24 14 26
REMARK Flexibility Score: inf
ROOT
ATOM      1  C   UNL     1     -21.953  15.210 -40.105  1.00  0.00     0.402 A 
ATOM      2  O   UNL     1     -22.697  16.035 -39.373  1.00  0.00    -0.202 OA
ATOM      3  C   UNL     1     -23.082  17.236 -39.792  1.00  0.00     0.368 A 
ATOM      4  C   UNL     1     -23.865  18.031 -38.952  1.00  0.00     0.162 A 
ATOM      5  C   UNL     1     -24.287  19.297 -39.368  1.00  0.00     0.128 A 
ATOM      6  C   UNL     1     -23.924  19.769 -40.632  1.00  0.00     0.093 A 
ATOM      7  C   UNL     1     -23.140  18.992 -41.493  1.00  0.00     0.136 A 
ATOM      8  C   UNL     1     -22.707  17.707 -41.074  1.00  0.00     0.125 A 
ATOM      9  C   UNL     1     -21.909  16.865 -41.864  1.00  0.00     0.078 A 
ATOM     10  C   UNL     1     -21.517  15.613 -41.380  1.00  0.00     0.223 A 
ENDROOT
BRANCH   1  11
ATOM     11  C   UNL     1     -21.596  13.892 -39.530  1.00  0.00     0.087 A 
ATOM     12  C   UNL     1     -22.075  11.504 -39.296  1.00  0.00     0.161 A 
ATOM     13  C   UNL     1     -20.919  11.359 -38.506  1.00  0.00     0.157 A 
ATOM     14  C   UNL     1     -22.402  12.775 -39.810  1.00  0.00     0.068 A 
ATOM     15  C   UNL     1     -20.107  12.467 -38.245  1.00  0.00     0.051 A 
ATOM     16  C   UNL     1     -20.436  13.722 -38.757  1.00  0.00     0.022 A 
BRANCH  12  17
ATOM     17  O   UNL     1     -22.869  10.374 -39.548  1.00  0.00    -0.493 OA
ATOM     18  C   UNL     1     -22.604   9.410 -40.562  1.00  0.00     0.278 C 
ENDBRANCH  12  17
BRANCH  13  19
ATOM     19  O   UNL     1     -20.560  10.121 -37.976  1.00  0.00    -0.504 OA
ATOM     20  H   UNL     1     -19.743   9.613 -38.297  1.00  0.00     0.293 HD
ENDBRANCH  13  19
ENDBRANCH   1  11
BRANCH  10  21
ATOM     21  O   UNL     1     -20.683  14.797 -42.145  1.00  0.00    -0.500 OA
ATOM     22  H   UNL     1     -20.330  13.916 -41.791  1.00  0.00     0.294 HD
ENDBRANCH  10  21
BRANCH   5  23
ATOM     23  O   UNL     1     -25.068  20.095 -38.535  1.00  0.00    -0.507 OA
ATOM     24  H   UNL     1     -26.069  20.176 -38.665  1.00  0.00     0.293 HD
ENDBRANCH   5  23
BRANCH   7  25
ATOM     25  O   UNL     1     -22.823  19.536 -42.741  1.00  0.00    -0.507 OA
ATOM     26  H   UNL     1     -21.883  19.729 -43.057  1.00  0.00     0.293 HD
ENDBRANCH   7  25
TORSDOF 6
ENDMDL
MODEL 3
REMARK VINA RESULT:    -6.654      1.733      2.045
REMARK INTER + INTRA:          -8.603
REMARK INTER:                  -8.213
REMARK INTRA:                  -0.390
REMARK UNBOUND:                -0.394
REMARK SMILES COc1cc(-c2[o+]c3cc(O)cc(O)c3cc2O)ccc1O
REMARK SMILES IDX 6 1 7 2 8 3 9 4 10 5 12 6 13 7 15 8 16 9 17 10 5 11 3 12
REMARK SMILES IDX 21 13 4 14 20 15 19 16 2 17 1 18 22 19 18 21 11 23 14 25
REMARK H PARENT 22 20 18 22 11 24 14 26
REMARK Flexibility Score: inf
ROOT
ATOM      1  C   UNL     1     -22.103  15.114 -40.183  1.00  0.00     0.402 A 
ATOM      2  O   UNL     1     -22.868  15.932 -39.465  1.00  0.00    -0.202 OA
ATOM      3  C   UNL     1     -23.208  17.152 -39.866  1.00  0.00     0.368 A 
ATOM      4  C   UNL     1     -24.020  17.937 -39.043  1.00  0.00     0.162 A 
ATOM      5  C   UNL     1     -24.395  19.223 -39.441  1.00  0.00     0.128 A 
ATOM      6  C   UNL     1     -23.958  19.726 -40.669  1.00  0.00     0.093 A 
ATOM      7  C   UNL     1     -23.144  18.960 -41.511  1.00  0.00     0.136 A 
ATOM      8  C   UNL     1     -22.758  17.655 -41.111  1.00  0.00     0.125 A 
ATOM      9  C   UNL     1     -21.934  16.821 -41.884  1.00  0.00     0.078 A 
ATOM     10  C   UNL     1     -21.592  15.547 -41.421  1.00  0.00     0.223 A 
ENDROOT
BRANCH   1  11
ATOM     11  C   UNL     1     -21.801  13.773 -39.632  1.00  0.00     0.087 A 
ATOM     12  C   UNL     1     -20.302  12.312 -38.365  1.00  0.00     0.161 A 
ATOM     13  C   UNL     1     -21.219  11.255 -38.517  1.00  0.00     0.157 A 
ATOM     14  C   UNL     1     -20.606  13.571 -38.920  1.00  0.00     0.068 A 
ATOM     15  C   UNL     1     -22.417  11.462 -39.207  1.00  0.00     0.051 A 
ATOM     16  C   UNL     1     -22.712  12.711 -39.755  1.00  0.00     0.022 A 
BRANCH  12  17
ATOM     17  O   UNL     1     -19.111  12.078 -37.661  1.00  0.00    -0.493 OA
ATOM     18  C   UNL     1     -18.135  13.074 -37.370  1.00  0.00     0.278 C 
ENDBRANCH  12  17
BRANCH  13  19
ATOM     19  O   UNL     1     -20.958   9.993 -37.986  1.00  0.00    -0.504 OA
ATOM     20  H   UNL     1     -21.666   9.268 -37.942  1.00  0.00     0.293 HD
ENDBRANCH  13  19
ENDBRANCH   1  11
BRANCH  10  21
ATOM     21  O   UNL     1     -20.734  14.739 -42.166  1.00  0.00    -0.500 OA
ATOM     22  H   UNL     1     -20.711  13.733 -42.045  1.00  0.00     0.294 HD
ENDBRANCH  10  21
BRANCH   5  23
ATOM     23  O   UNL     1     -25.204  20.011 -38.625  1.00  0.00    -0.507 OA
ATOM     24  H   UNL     1     -24.811  20.613 -37.912  1.00  0.00     0.293 HD
ENDBRANCH   5  23
BRANCH   7  25
ATOM     25  O   UNL     1     -22.751  19.535 -42.724  1.00  0.00    -0.507 OA
ATOM     26  H   UNL     1     -21.810  19.508 -43.090  1.00  0.00     0.293 HD
ENDBRANCH   7  25
TORSDOF 6
ENDMDL
MODEL 4
REMARK VINA RESULT:    -6.603      2.298      7.119
REMARK INTER + INTRA:          -8.540
REMARK INTER:                  -8.169
REMARK INTRA:                  -0.372
REMARK UNBOUND:                -0.394
REMARK SMILES COc1cc(-c2[o+]c3cc(O)cc(O)c3cc2O)ccc1O
REMARK SMILES IDX 6 1 7 2 8 3 9 4 10 5 12 6 13 7 15 8 16 9 17 10 5 11 3 12
REMARK SMILES IDX 21 13 4 14 20 15 19 16 2 17 1 18 22 19 18 21 11 23 14 25
REMARK H PARENT 22 20 18 22 11 24 14 26
REMARK Flexibility Score: inf
ROOT
ATOM      1  C   UNL     1     -22.595  13.914 -38.053  1.00  0.00     0.402 A 
ATOM      2  O   UNL     1     -21.606  13.368 -37.351  1.00  0.00    -0.202 OA
ATOM      3  C   UNL     1     -20.659  12.609 -37.892  1.00  0.00     0.368 A 
ATOM      4  C   UNL     1     -19.658  12.081 -37.072  1.00  0.00     0.162 A 
ATOM      5  C   UNL     1     -18.649  11.281 -37.615  1.00  0.00     0.128 A 
ATOM      6  C   UNL     1     -18.641  11.008 -38.985  1.00  0.00     0.093 A 
ATOM      7  C   UNL     1     -19.632  11.525 -39.828  1.00  0.00     0.136 A 
ATOM      8  C   UNL     1     -20.660  12.335 -39.281  1.00  0.00     0.125 A 
ATOM      9  C   UNL     1     -21.701  12.884 -40.047  1.00  0.00     0.078 A 
ATOM     10  C   UNL     1     -22.682  13.670 -39.436  1.00  0.00     0.223 A 
ENDROOT
BRANCH   1  11
ATOM     11  C   UNL     1     -23.585  14.751 -37.336  1.00  0.00     0.087 A 
ATOM     12  C   UNL     1     -25.421  14.917 -35.727  1.00  0.00     0.161 A 
ATOM     13  C   UNL     1     -25.442  16.312 -35.909  1.00  0.00     0.157 A 
ATOM     14  C   UNL     1     -24.482  14.144 -36.441  1.00  0.00     0.068 A 
ATOM     15  C   UNL     1     -24.535  16.917 -36.784  1.00  0.00     0.051 A 
ATOM     16  C   UNL     1     -23.608  16.147 -37.488  1.00  0.00     0.022 A 
BRANCH  12  17
ATOM     17  O   UNL     1     -26.337  14.336 -34.836  1.00  0.00    -0.493 OA
ATOM     18  C   UNL     1     -25.991  13.764 -33.579  1.00  0.00     0.278 C 
ENDBRANCH  12  17
BRANCH  13  19
ATOM     19  O   UNL     1     -26.354  17.114 -35.225  1.00  0.00    -0.504 OA
ATOM     20  H   UNL     1     -26.956  16.747 -34.497  1.00  0.00     0.293 HD
ENDBRANCH  13  19
ENDBRANCH   1  11
BRANCH  10  21
ATOM     21  O   UNL     1     -23.744  14.174 -40.188  1.00  0.00    -0.500 OA
ATOM     22  H   UNL     1     -24.651  14.356 -39.774  1.00  0.00     0.294 HD
ENDBRANCH  10  21
BRANCH   5  23
ATOM     23  O   UNL     1     -17.649  10.752 -36.803  1.00  0.00    -0.507 OA
ATOM     24  H   UNL     1     -16.669  10.934 -36.983  1.00  0.00     0.293 HD
ENDBRANCH   5  23
BRANCH   7  25
ATOM     25  O   UNL     1     -19.550  11.207 -41.188  1.00  0.00    -0.507 OA
ATOM     26  H   UNL     1     -20.345  10.994 -41.772  1.00  0.00     0.293 HD
ENDBRANCH   7  25
TORSDOF 6
ENDMDL
MODEL 5
REMARK VINA RESULT:    -6.597      1.171      2.676
REMARK INTER + INTRA:          -8.533
REMARK INTER:                  -8.109
REMARK INTRA:                  -0.424
REMARK UNBOUND:                -0.394
REMARK SMILES COc1cc(-c2[o+]c3cc(O)cc(O)c3cc2O)ccc1O
REMARK SMILES IDX 6 1 7 2 8 3 9 4 10 5 12 6 13 7 15 8 16 9 17 10 5 11 3 12
REMARK SMILES IDX 21 13 4 14 20 15 19 16 2 17 1 18 22 19 18 21 11 23 14 25
REMARK H PARENT 22 20 18 22 11 24 14 26
REMARK Flexibility Score: inf
ROOT
ATOM      1  C   UNL     1     -22.119  14.622 -39.469  1.00  0.00     0.402 A 
ATOM      2  O   UNL     1     -21.839  15.625 -40.298  1.00  0.00    -0.202 OA
ATOM      3  C   UNL     1     -22.674  16.632 -40.532  1.00  0.00     0.368 A 
ATOM      4  C   UNL     1     -22.289  17.642 -41.418  1.00  0.00     0.162 A 
ATOM      5  C   UNL     1     -23.146  18.714 -41.681  1.00  0.00     0.128 A 
ATOM      6  C   UNL     1     -24.393  18.778 -41.053  1.00  0.00     0.093 A 
ATOM      7  C   UNL     1     -24.801  17.779 -40.161  1.00  0.00     0.136 A 
ATOM      8  C   UNL     1     -23.936  16.686 -39.894  1.00  0.00     0.125 A 
ATOM      9  C   UNL     1     -24.267  15.634 -39.025  1.00  0.00     0.078 A 
ATOM     10  C   UNL     1     -23.364  14.588 -38.814  1.00  0.00     0.223 A 
ENDROOT
BRANCH   1  11
ATOM     11  C   UNL     1     -21.101  13.561 -39.284  1.00  0.00     0.087 A 
ATOM     12  C   UNL     1     -19.210  12.665 -38.017  1.00  0.00     0.161 A 
ATOM     13  C   UNL     1     -19.191  11.539 -38.861  1.00  0.00     0.157 A 
ATOM     14  C   UNL     1     -20.175  13.669 -38.233  1.00  0.00     0.068 A 
ATOM     15  C   UNL     1     -20.126  11.422 -39.893  1.00  0.00     0.051 A 
ATOM     16  C   UNL     1     -21.079  12.420 -40.101  1.00  0.00     0.022 A 
BRANCH  12  17
ATOM     17  O   UNL     1     -18.264  12.753 -36.984  1.00  0.00    -0.493 OA
ATOM     18  C   UNL     1     -17.283  13.779 -36.871  1.00  0.00     0.278 C 
ENDBRANCH  12  17
BRANCH  13  19
ATOM     19  O   UNL     1     -18.253  10.523 -38.685  1.00  0.00    -0.504 OA
ATOM     20  H   UNL     1     -18.489   9.544 -38.800  1.00  0.00     0.293 HD
ENDBRANCH  13  19
ENDBRANCH   1  11
BRANCH  10  21
ATOM     21  O   UNL     1     -23.712  13.517 -37.991  1.00  0.00    -0.500 OA
ATOM     22  H   UNL     1     -23.138  13.242 -37.204  1.00  0.00     0.294 HD
ENDBRANCH  10  21
BRANCH   5  23
ATOM     23  O   UNL     1     -22.769  19.724 -42.563  1.00  0.00    -0.507 OA
ATOM     24  H   UNL     1     -22.329  19.515 -43.451  1.00  0.00     0.293 HD
ENDBRANCH   5  23
BRANCH   7  25
ATOM     25  O   UNL     1     -26.062  17.918 -39.574  1.00  0.00    -0.507 OA
ATOM     26  H   UNL     1     -26.464  18.799 -39.286  1.00  0.00     0.293 HD
ENDBRANCH   7  25
TORSDOF 6
ENDMDL
MODEL 6
REMARK VINA RESULT:    -6.570      4.628      7.382
REMARK INTER + INTRA:          -8.500
REMARK INTER:                  -8.201
REMARK INTRA:                  -0.300
REMARK UNBOUND:                -0.394
REMARK SMILES COc1cc(-c2[o+]c3cc(O)cc(O)c3cc2O)ccc1O
REMARK SMILES IDX 6 1 7 2 8 3 9 4 10 5 12 6 13 7 15 8 16 9 17 10 5 11 3 12
REMARK SMILES IDX 21 13 4 14 20 15 19 16 2 17 1 18 22 19 18 21 11 23 14 25
REMARK H PARENT 22 20 18 22 11 24 14 26
REMARK Flexibility Score: inf
ROOT
ATOM      1  C   UNL     1     -24.238  18.330 -38.767  1.00  0.00     0.402 A 
ATOM      2  O   UNL     1     -23.411  17.902 -37.817  1.00  0.00    -0.202 OA
ATOM      3  C   UNL     1     -23.748  16.988 -36.914  1.00  0.00     0.368 A 
ATOM      4  C   UNL     1     -22.808  16.600 -35.955  1.00  0.00     0.162 A 
ATOM      5  C   UNL     1     -23.135  15.638 -34.995  1.00  0.00     0.128 A 
ATOM      6  C   UNL     1     -24.407  15.062 -34.994  1.00  0.00     0.093 A 
ATOM      7  C   UNL     1     -25.367  15.433 -35.943  1.00  0.00     0.136 A 
ATOM      8  C   UNL     1     -25.041  16.411 -36.918  1.00  0.00     0.125 A 
ATOM      9  C   UNL     1     -25.943  16.854 -37.899  1.00  0.00     0.078 A 
ATOM     10  C   UNL     1     -25.551  17.825 -38.825  1.00  0.00     0.223 A 
ENDROOT
BRANCH   1  11
ATOM     11  C   UNL     1     -23.742  19.347 -39.723  1.00  0.00     0.087 A 
ATOM     12  C   UNL     1     -22.828  21.580 -40.127  1.00  0.00     0.161 A 
ATOM     13  C   UNL     1     -22.736  21.284 -41.499  1.00  0.00     0.157 A 
ATOM     14  C   UNL     1     -23.327  20.601 -39.244  1.00  0.00     0.068 A 
ATOM     15  C   UNL     1     -23.130  20.029 -41.972  1.00  0.00     0.051 A 
ATOM     16  C   UNL     1     -23.622  19.064 -41.093  1.00  0.00     0.022 A 
BRANCH  12  17
ATOM     17  O   UNL     1     -22.419  22.845 -39.678  1.00  0.00    -0.493 OA
ATOM     18  C   UNL     1     -21.152  23.123 -39.089  1.00  0.00     0.278 C 
ENDBRANCH  12  17
BRANCH  13  19
ATOM     19  O   UNL     1     -22.251  22.224 -42.408  1.00  0.00    -0.504 OA
ATOM     20  H   UNL     1     -22.554  22.247 -43.375  1.00  0.00     0.293 HD
ENDBRANCH  13  19
ENDBRANCH   1  11
BRANCH  10  21
ATOM     21  O   UNL     1     -26.462  18.302 -39.767  1.00  0.00    -0.500 OA
ATOM     22  H   UNL     1     -26.245  18.319 -40.757  1.00  0.00     0.294 HD
ENDBRANCH  10  21
BRANCH   5  23
ATOM     23  O   UNL     1     -22.202  15.247 -34.037  1.00  0.00    -0.507 OA
ATOM     24  H   UNL     1     -22.187  15.659 -33.112  1.00  0.00     0.293 HD
ENDBRANCH   5  23
BRANCH   7  25
ATOM     25  O   UNL     1     -26.615  14.808 -35.874  1.00  0.00    -0.507 OA
ATOM     26  H   UNL     1     -26.772  13.889 -35.485  1.00  0.00     0.293 HD
ENDBRANCH   7  25
TORSDOF 6
ENDMDL
MODEL 7
REMARK VINA RESULT:    -6.557      2.355      3.731
REMARK INTER + INTRA:          -8.484
REMARK INTER:                  -8.113
REMARK INTRA:                  -0.371
REMARK UNBOUND:                -0.394
REMARK SMILES COc1cc(-c2[o+]c3cc(O)cc(O)c3cc2O)ccc1O
REMARK SMILES IDX 6 1 7 2 8 3 9 4 10 5 12 6 13 7 15 8 16 9 17 10 5 11 3 12
REMARK SMILES IDX 21 13 4 14 20 15 19 16 2 17 1 18 22 19 18 21 11 23 14 25
REMARK H PARENT 22 20 18 22 11 24 14 26
REMARK Flexibility Score: inf
ROOT
ATOM      1  C   UNL     1     -22.821  15.587 -39.320  1.00  0.00     0.402 A 
ATOM      2  O   UNL     1     -22.852  16.359 -40.403  1.00  0.00    -0.202 OA
ATOM      3  C   UNL     1     -22.974  17.681 -40.354  1.00  0.00     0.368 A 
ATOM      4  C   UNL     1     -22.994  18.407 -41.548  1.00  0.00     0.162 A 
ATOM      5  C   UNL     1     -23.118  19.799 -41.525  1.00  0.00     0.128 A 
ATOM      6  C   UNL     1     -23.222  20.468 -40.303  1.00  0.00     0.093 A 
ATOM      7  C   UNL     1     -23.204  19.763 -39.093  1.00  0.00     0.136 A 
ATOM      8  C   UNL     1     -23.081  18.350 -39.111  1.00  0.00     0.125 A 
ATOM      9  C   UNL     1     -23.068  17.561 -37.949  1.00  0.00     0.078 A 
ATOM     10  C   UNL     1     -22.947  16.172 -38.046  1.00  0.00     0.223 A 
ENDROOT
BRANCH   1  11
ATOM     11  C   UNL     1     -22.672  14.125 -39.505  1.00  0.00     0.087 A 
ATOM     12  C   UNL     1     -21.219  12.197 -39.904  1.00  0.00     0.161 A 
ATOM     13  C   UNL     1     -22.336  11.346 -39.801  1.00  0.00     0.157 A 
ATOM     14  C   UNL     1     -21.397  13.586 -39.747  1.00  0.00     0.068 A 
ATOM     15  C   UNL     1     -23.601  11.881 -39.540  1.00  0.00     0.051 A 
ATOM     16  C   UNL     1     -23.770  13.257 -39.385  1.00  0.00     0.022 A 
BRANCH  12  17
ATOM     17  O   UNL     1     -19.960  11.633 -40.159  1.00  0.00    -0.493 OA
ATOM     18  C   UNL     1     -19.001  11.307 -39.157  1.00  0.00     0.278 C 
ENDBRANCH  12  17
BRANCH  13  19
ATOM     19  O   UNL     1     -22.206   9.967 -39.952  1.00  0.00    -0.504 OA
ATOM     20  H   UNL     1     -21.462   9.442 -39.506  1.00  0.00     0.293 HD
ENDBRANCH  13  19
ENDBRANCH   1  11
BRANCH  10  21
ATOM     21  O   UNL     1     -22.985  15.384 -36.895  1.00  0.00    -0.500 OA
ATOM     22  H   UNL     1     -22.195  14.815 -36.614  1.00  0.00     0.294 HD
ENDBRANCH  10  21
BRANCH   5  23
ATOM     23  O   UNL     1     -23.139  20.529 -42.712  1.00  0.00    -0.507 OA
ATOM     24  H   UNL     1     -23.285  20.080 -43.607  1.00  0.00     0.293 HD
ENDBRANCH   5  23
BRANCH   7  25
ATOM     25  O   UNL     1     -23.311  20.507 -37.914  1.00  0.00    -0.507 OA
ATOM     26  H   UNL     1     -22.580  21.099 -37.545  1.00  0.00     0.293 HD
ENDBRANCH   7  25
TORSDOF 6
ENDMDL
MODEL 8
REMARK VINA RESULT:    -6.552      4.281      6.132
REMARK INTER + INTRA:          -8.477
REMARK INTER:                  -8.055
REMARK INTRA:                  -0.422
REMARK UNBOUND:                -0.394
REMARK SMILES COc1cc(-c2[o+]c3cc(O)cc(O)c3cc2O)ccc1O
REMARK SMILES IDX 6 1 7 2 8 3 9 4 10 5 12 6 13 7 15 8 16 9 17 10 5 11 3 12
REMARK SMILES IDX 21 13 4 14 20 15 19 16 2 17 1 18 22 19 18 21 11 23 14 25
REMARK H PARENT 22 20 18 22 11 24 14 26
REMARK Flexibility Score: inf
ROOT
ATOM      1  C   UNL     1     -24.022  18.054 -38.192  1.00  0.00     0.402 A 
ATOM      2  O   UNL     1     -23.365  19.201 -38.041  1.00  0.00    -0.202 OA
ATOM      3  C   UNL     1     -22.946  19.942 -39.061  1.00  0.00     0.368 A 
ATOM      4  C   UNL     1     -22.266  21.135 -38.801  1.00  0.00     0.162 A 
ATOM      5  C   UNL     1     -21.816  21.935 -39.855  1.00  0.00     0.128 A 
ATOM      6  C   UNL     1     -22.048  21.540 -41.175  1.00  0.00     0.093 A 
ATOM      7  C   UNL     1     -22.727  20.350 -41.462  1.00  0.00     0.136 A 
ATOM      8  C   UNL     1     -23.183  19.532 -40.395  1.00  0.00     0.125 A 
ATOM      9  C   UNL     1     -23.859  18.317 -40.588  1.00  0.00     0.078 A 
ATOM     10  C   UNL     1     -24.276  17.563 -39.486  1.00  0.00     0.223 A 
ENDROOT
BRANCH   1  11
ATOM     11  C   UNL     1     -24.446  17.323 -36.975  1.00  0.00     0.087 A 
ATOM     12  C   UNL     1     -23.890  15.814 -35.131  1.00  0.00     0.161 A 
ATOM     13  C   UNL     1     -25.195  15.966 -34.626  1.00  0.00     0.157 A 
ATOM     14  C   UNL     1     -23.523  16.504 -36.304  1.00  0.00     0.068 A 
ATOM     15  C   UNL     1     -26.107  16.797 -35.283  1.00  0.00     0.051 A 
ATOM     16  C   UNL     1     -25.737  17.477 -36.444  1.00  0.00     0.022 A 
BRANCH  12  17
ATOM     17  O   UNL     1     -22.993  14.979 -34.448  1.00  0.00    -0.493 OA
ATOM     18  C   UNL     1     -22.678  13.644 -34.831  1.00  0.00     0.278 C 
ENDBRANCH  12  17
BRANCH  13  19
ATOM     19  O   UNL     1     -25.602  15.301 -33.471  1.00  0.00    -0.504 OA
ATOM     20  H   UNL     1     -26.577  15.103 -33.276  1.00  0.00     0.293 HD
ENDBRANCH  13  19
ENDBRANCH   1  11
BRANCH  10  21
ATOM     21  O   UNL     1     -24.903  16.332 -39.678  1.00  0.00    -0.500 OA
ATOM     22  H   UNL     1     -24.842  15.835 -40.558  1.00  0.00     0.294 HD
ENDBRANCH  10  21
BRANCH   5  23
ATOM     23  O   UNL     1     -21.138  23.125 -39.603  1.00  0.00    -0.507 OA
ATOM     24  H   UNL     1     -21.041  23.491 -38.664  1.00  0.00     0.293 HD
ENDBRANCH   5  23
BRANCH   7  25
ATOM     25  O   UNL     1     -22.920  20.028 -42.809  1.00  0.00    -0.507 OA
ATOM     26  H   UNL     1     -22.474  19.254 -43.280  1.00  0.00     0.293 HD
ENDBRANCH   7  25
TORSDOF 6
ENDMDL
MODEL 9
REMARK VINA RESULT:    -6.447      2.341      7.022
REMARK INTER + INTRA:          -8.348
REMARK INTER:                  -7.930
REMARK INTRA:                  -0.419
REMARK UNBOUND:                -0.394
REMARK SMILES COc1cc(-c2[o+]c3cc(O)cc(O)c3cc2O)ccc1O
REMARK SMILES IDX 6 1 7 2 8 3 9 4 10 5 12 6 13 7 15 8 16 9 17 10 5 11 3 12
REMARK SMILES IDX 21 13 4 14 20 15 19 16 2 17 1 18 22 19 18 21 11 23 14 25
REMARK H PARENT 22 20 18 22 11 24 14 26
REMARK Flexibility Score: inf
ROOT
ATOM      1  C   UNL     1     -22.874  13.761 -38.296  1.00  0.00     0.402 A 
ATOM      2  O   UNL     1     -22.125  12.987 -37.516  1.00  0.00    -0.202 OA
ATOM      3  C   UNL     1     -21.100  12.271 -37.967  1.00  0.00     0.368 A 
ATOM      4  C   UNL     1     -20.369  11.489 -37.069  1.00  0.00     0.162 A 
ATOM      5  C   UNL     1     -19.285  10.728 -37.516  1.00  0.00     0.128 A 
ATOM      6  C   UNL     1     -18.929  10.752 -38.866  1.00  0.00     0.093 A 
ATOM      7  C   UNL     1     -19.644  11.528 -39.786  1.00  0.00     0.136 A 
ATOM      8  C   UNL     1     -20.748  12.300 -39.338  1.00  0.00     0.125 A 
ATOM      9  C   UNL     1     -21.530  13.096 -40.190  1.00  0.00     0.078 A 
ATOM     10  C   UNL     1     -22.606  13.826 -39.676  1.00  0.00     0.223 A 
ENDROOT
BRANCH   1  11
ATOM     11  C   UNL     1     -23.985  14.519 -37.673  1.00  0.00     0.087 A 
ATOM     12  C   UNL     1     -24.794  16.575 -36.624  1.00  0.00     0.161 A 
ATOM     13  C   UNL     1     -26.081  16.013 -36.537  1.00  0.00     0.157 A 
ATOM     14  C   UNL     1     -23.752  15.821 -37.201  1.00  0.00     0.068 A 
ATOM     15  C   UNL     1     -26.316  14.724 -37.026  1.00  0.00     0.051 A 
ATOM     16  C   UNL     1     -25.281  13.984 -37.596  1.00  0.00     0.022 A 
BRANCH  12  17
ATOM     17  O   UNL     1     -24.588  17.874 -36.132  1.00  0.00    -0.493 OA
ATOM     18  C   UNL     1     -24.185  18.984 -36.928  1.00  0.00     0.278 C 
ENDBRANCH  12  17
BRANCH  13  19
ATOM     19  O   UNL     1     -27.140  16.722 -35.972  1.00  0.00    -0.504 OA
ATOM     20  H   UNL     1     -28.054  16.307 -35.830  1.00  0.00     0.293 HD
ENDBRANCH  13  19
ENDBRANCH   1  11
BRANCH  10  21
ATOM     21  O   UNL     1     -23.414  14.576 -40.530  1.00  0.00    -0.500 OA
ATOM     22  H   UNL     1     -23.652  14.252 -41.460  1.00  0.00     0.294 HD
ENDBRANCH  10  21
BRANCH   5  23
ATOM     23  O   UNL     1     -18.553   9.946 -36.625  1.00  0.00    -0.507 OA
ATOM     24  H   UNL     1     -18.359   8.970 -36.813  1.00  0.00     0.293 HD
ENDBRANCH   5  23
BRANCH   7  25
ATOM     25  O   UNL     1     -19.222  11.499 -41.118  1.00  0.00    -0.507 OA
ATOM     26  H   UNL     1     -18.295  11.233 -41.417  1.00  0.00     0.293 HD
ENDBRANCH   7  25
TORSDOF 6
ENDMDL
