MODEL 1
REMARK VINA RESULT:    35.294      0.000      0.000
REMARK INTER + INTRA:          54.067
REMARK INTER:                  50.768
REMARK INTRA:                   3.299
REMARK UNBOUND:                 3.299
REMARK SMILES O=c1cc(-c2ccc(O)c(O)c2)oc2cc(O[C@@H]3O[C@H](CO)[C@H](O)[C@@H](O)[C@@H]3O)cc(O)c12
REMARK SMILES IDX 17 1 16 2 4 3 3 4 13 5 2 6 14 7 1 8 32 9 15 10 30 11 29 12
REMARK SMILES IDX 5 13 6 14 7 15 8 16 12 17 10 18 9 19 11 21 31 23 18 25 27 26
REMARK SMILES IDX 19 27 25 28 20 29 23 30 28 31 26 33 21 35 22 36 24 38
REMARK H PARENT 9 20 11 22 31 24 28 32 26 34 22 37 24 39
REMARK Flexibility Score: inf
ROOT
ATOM      1  O   UNL     1      13.500  35.921  47.096  1.00  0.00    -0.462 OA
ENDROOT
BRANCH   1   2
ATOM      2  C   UNL     1      13.728  34.943  48.073  1.00  0.00     0.130 A 
ATOM      3  C   UNL     1      13.420  30.393  49.423  1.00  0.00     0.138 A 
ATOM      4  C   UNL     1      14.442  30.533  50.363  1.00  0.00     0.100 A 
ATOM      5  O   UNL     1      13.026  31.435  48.701  1.00  0.00    -0.456 OA
ATOM      6  C   UNL     1      15.036  31.782  50.536  1.00  0.00     0.197 A 
ATOM      7  C   UNL     1      13.543  32.652  48.846  1.00  0.00     0.146 A 
ATOM      8  O   UNL     1      16.090  31.876  51.213  1.00  0.00    -0.289 OA
ATOM      9  C   UNL     1      14.545  32.897  49.812  1.00  0.00     0.107 A 
ATOM     10  C   UNL     1      13.136  33.673  47.983  1.00  0.00     0.094 A 
ATOM     11  C   UNL     1      15.040  34.207  49.977  1.00  0.00     0.134 A 
ATOM     12  C   UNL     1      14.589  35.238  49.132  1.00  0.00     0.093 A 
BRANCH   3  13
ATOM     13  C   UNL     1      12.829  29.053  49.119  1.00  0.00     0.021 A 
ATOM     14  C   UNL     1      13.567  27.863  49.302  1.00  0.00     0.016 A 
ATOM     15  C   UNL     1      12.967  26.620  49.093  1.00  0.00     0.051 A 
ATOM     16  C   UNL     1      11.639  26.537  48.654  1.00  0.00     0.157 A 
ATOM     17  C   UNL     1      11.501  28.967  48.660  1.00  0.00     0.062 A 
ATOM     18  C   UNL     1      10.905  27.723  48.400  1.00  0.00     0.158 A 
BRANCH  16  19
ATOM     19  O   UNL     1      11.048  25.269  48.533  1.00  0.00    -0.504 OA
ATOM     20  H   UNL     1      11.521  24.498  48.071  1.00  0.00     0.293 HD
ENDBRANCH  16  19
BRANCH  18  21
ATOM     21  O   UNL     1       9.585  27.714  47.929  1.00  0.00    -0.504 OA
ATOM     22  H   UNL     1       9.001  26.894  47.928  1.00  0.00     0.293 HD
ENDBRANCH  18  21
ENDBRANCH   3  13
BRANCH  11  23
ATOM     23  O   UNL     1      15.978  34.493  50.971  1.00  0.00    -0.507 OA
ATOM     24  H   UNL     1      16.913  34.110  50.939  1.00  0.00     0.293 HD
ENDBRANCH  11  23
ENDBRANCH   1   2
BRANCH   1  25
ATOM     25  C   UNL     1      13.300  37.299  47.432  1.00  0.00     0.339 C 
ATOM     26  C   UNL     1      14.534  37.853  48.245  1.00  0.00     0.214 C 
ATOM     27  O   UNL     1      13.005  38.001  46.229  1.00  0.00    -0.332 OA
ATOM     28  C   UNL     1      15.199  39.182  47.715  1.00  0.00     0.180 C 
ATOM     29  C   UNL     1      13.041  39.393  46.439  1.00  0.00     0.179 C 
ATOM     30  C   UNL     1      14.514  39.806  46.481  1.00  0.00     0.177 C 
BRANCH  26  31
ATOM     31  O   UNL     1      15.505  36.845  48.404  1.00  0.00    -0.384 OA
ATOM     32  H   UNL     1      16.379  37.293  48.498  1.00  0.00     0.211 HD
ENDBRANCH  26  31
BRANCH  28  33
ATOM     33  O   UNL     1      15.300  40.125  48.759  1.00  0.00    -0.387 OA
ATOM     34  H   UNL     1      15.950  40.828  48.479  1.00  0.00     0.211 HD
ENDBRANCH  28  33
BRANCH  29  35
ATOM     35  C   UNL     1      12.302  40.125  45.288  1.00  0.00     0.191 C 
BRANCH  35  36
ATOM     36  O   UNL     1      10.894  40.121  45.414  1.00  0.00    -0.394 OA
ATOM     37  H   UNL     1      10.646  39.588  46.224  1.00  0.00     0.210 HD
ENDBRANCH  35  36
ENDBRANCH  29  35
BRANCH  30  38
ATOM     38  O   UNL     1      15.154  39.355  45.306  1.00  0.00    -0.387 OA
ATOM     39  H   UNL     1      16.052  39.789  45.230  1.00  0.00     0.211 HD
ENDBRANCH  30  38
ENDBRANCH   1  25
TORSDOF 11
ENDMDL
MODEL 2
REMARK VINA RESULT:    36.982      2.830      9.881
REMARK INTER + INTRA:          56.496
REMARK INTER:                  56.591
REMARK INTRA:                  -0.094
REMARK UNBOUND:                 3.299
REMARK SMILES O=c1cc(-c2ccc(O)c(O)c2)oc2cc(O[C@@H]3O[C@H](CO)[C@H](O)[C@@H](O)[C@@H]3O)cc(O)c12
REMARK SMILES IDX 17 1 16 2 4 3 3 4 13 5 2 6 14 7 1 8 32 9 15 10 30 11 29 12
REMARK SMILES IDX 5 13 6 14 7 15 8 16 12 17 10 18 9 19 11 21 31 23 18 25 27 26
REMARK SMILES IDX 19 27 25 28 20 29 23 30 28 31 26 33 21 35 22 36 24 38
REMARK H PARENT 9 20 11 22 31 24 28 32 26 34 22 37 24 39
REMARK Flexibility Score: inf
ROOT
ATOM      1  O   UNL     1      13.195  34.360  49.297  1.00  0.00    -0.462 OA
ENDROOT
BRANCH   1   2
ATOM      2  C   UNL     1      13.424  35.606  48.699  1.00  0.00     0.130 A 
ATOM      3  C   UNL     1      16.461  38.630  46.637  1.00  0.00     0.138 A 
ATOM      4  C   UNL     1      15.435  39.324  45.991  1.00  0.00     0.100 A 
ATOM      5  O   UNL     1      16.178  37.612  47.440  1.00  0.00    -0.456 OA
ATOM      6  C   UNL     1      14.115  38.934  46.206  1.00  0.00     0.197 A 
ATOM      7  C   UNL     1      14.934  37.218  47.698  1.00  0.00     0.146 A 
ATOM      8  O   UNL     1      13.206  39.400  45.474  1.00  0.00    -0.289 OA
ATOM      9  C   UNL     1      13.832  37.896  47.129  1.00  0.00     0.107 A 
ATOM     10  C   UNL     1      14.729  36.079  48.482  1.00  0.00     0.094 A 
ATOM     11  C   UNL     1      12.524  37.487  47.459  1.00  0.00     0.134 A 
ATOM     12  C   UNL     1      12.328  36.366  48.287  1.00  0.00     0.093 A 
BRANCH   3  13
ATOM     13  C   UNL     1      17.896  38.935  46.352  1.00  0.00     0.021 A 
ATOM     14  C   UNL     1      18.273  39.782  45.287  1.00  0.00     0.016 A 
ATOM     15  C   UNL     1      19.614  40.120  45.092  1.00  0.00     0.051 A 
ATOM     16  C   UNL     1      20.609  39.586  45.922  1.00  0.00     0.157 A 
ATOM     17  C   UNL     1      18.899  38.385  47.172  1.00  0.00     0.062 A 
ATOM     18  C   UNL     1      20.255  38.680  46.954  1.00  0.00     0.158 A 
BRANCH  16  19
ATOM     19  O   UNL     1      21.935  40.012  45.744  1.00  0.00    -0.504 OA
ATOM     20  H   UNL     1      22.160  40.886  45.277  1.00  0.00     0.293 HD
ENDBRANCH  16  19
BRANCH  18  21
ATOM     21  O   UNL     1      21.200  38.083  47.800  1.00  0.00    -0.504 OA
ATOM     22  H   UNL     1      21.052  37.942  48.786  1.00  0.00     0.293 HD
ENDBRANCH  18  21
ENDBRANCH   3  13
BRANCH  11  23
ATOM     23  O   UNL     1      11.416  38.182  46.969  1.00  0.00    -0.507 OA
ATOM     24  H   UNL     1      10.657  37.702  46.504  1.00  0.00     0.293 HD
ENDBRANCH  11  23
ENDBRANCH   1   2
BRANCH   1  25
ATOM     25  C   UNL     1      14.039  33.229  49.045  1.00  0.00     0.339 C 
ATOM     26  C   UNL     1      15.309  33.269  49.982  1.00  0.00     0.214 C 
ATOM     27  O   UNL     1      13.240  32.057  49.161  1.00  0.00    -0.332 OA
ATOM     28  C   UNL     1      15.618  31.969  50.821  1.00  0.00     0.180 C 
ATOM     29  C   UNL     1      14.044  30.900  49.175  1.00  0.00     0.179 C 
ATOM     30  C   UNL     1      14.654  30.790  50.573  1.00  0.00     0.177 C 
BRANCH  26  31
ATOM     31  O   UNL     1      15.258  34.398  50.823  1.00  0.00    -0.384 OA
ATOM     32  H   UNL     1      15.264  35.196  50.242  1.00  0.00     0.211 HD
ENDBRANCH  26  31
BRANCH  28  33
ATOM     33  O   UNL     1      16.956  31.570  50.621  1.00  0.00    -0.387 OA
ATOM     34  H   UNL     1      17.434  31.643  51.494  1.00  0.00     0.211 HD
ENDBRANCH  28  33
BRANCH  29  35
ATOM     35  C   UNL     1      13.185  29.650  48.854  1.00  0.00     0.191 C 
BRANCH  35  36
ATOM     36  O   UNL     1      13.427  28.551  49.711  1.00  0.00    -0.394 OA
ATOM     37  H   UNL     1      14.386  28.283  49.626  1.00  0.00     0.210 HD
ENDBRANCH  35  36
ENDBRANCH  29  35
BRANCH  30  38
ATOM     38  O   UNL     1      13.619  30.817  51.533  1.00  0.00    -0.387 OA
ATOM     39  H   UNL     1      13.781  31.567  52.175  1.00  0.00     0.211 HD
ENDBRANCH  30  38
ENDBRANCH   1  25
TORSDOF 11
ENDMDL
