MODEL 1
REMARK VINA RESULT:    -5.600      0.000      0.000
REMARK INTER + INTRA:          -5.927
REMARK INTER:                  -5.927
REMARK INTRA:                   0.000
REMARK UNBOUND:                 0.000
REMARK SMILES O=c1ccc2cc(O)c(O)cc2o1
REMARK SMILES IDX 4 1 3 2 2 3 1 4 13 5 12 6 11 7 9 8 7 9 6 10 5 11 8 12 10 14
REMARK H PARENT 8 13 10 15
REMARK Flexibility Score: inf
ROOT
ATOM      1  C   UNL     1      16.057  25.665  46.053  1.00  0.00     0.019 A 
ATOM      2  C   UNL     1      15.931  24.326  45.685  1.00  0.00     0.094 A 
ATOM      3  C   UNL     1      16.914  23.751  44.874  1.00  0.00     0.336 A 
ATOM      4  O   UNL     1      16.818  22.543  44.530  1.00  0.00    -0.246 OA
ATOM      5  O   UNL     1      17.953  24.471  44.460  1.00  0.00    -0.423 OA
ATOM      6  C   UNL     1      18.112  25.752  44.789  1.00  0.00     0.142 A 
ATOM      7  C   UNL     1      19.226  26.460  44.325  1.00  0.00     0.098 A 
ATOM      8  C   UNL     1      19.400  27.806  44.665  1.00  0.00     0.161 A 
ATOM      9  C   UNL     1      18.452  28.453  45.478  1.00  0.00     0.158 A 
ATOM     10  C   UNL     1      17.333  27.747  45.946  1.00  0.00     0.062 A 
ATOM     11  C   UNL     1      17.160  26.399  45.604  1.00  0.00     0.022 A 
ENDROOT
BRANCH   9  12
ATOM     12  O   UNL     1      18.624  29.794  45.819  1.00  0.00    -0.504 OA
ATOM     13  H   UNL     1      19.511  30.266  45.684  1.00  0.00     0.293 HD
ENDBRANCH   9  12
BRANCH   8  14
ATOM     14  O   UNL     1      20.520  28.485  44.186  1.00  0.00    -0.504 OA
ATOM     15  H   UNL     1      21.168  28.959  44.804  1.00  0.00     0.293 HD
ENDBRANCH   8  14
TORSDOF 2
ENDMDL
MODEL 2
REMARK VINA RESULT:    -5.414      1.870      2.150
REMARK INTER + INTRA:          -5.730
REMARK INTER:                  -5.730
REMARK INTRA:                   0.000
REMARK UNBOUND:                 0.000
REMARK SMILES O=c1ccc2cc(O)c(O)cc2o1
REMARK SMILES IDX 4 1 3 2 2 3 1 4 13 5 12 6 11 7 9 8 7 9 6 10 5 11 8 12 10 14
REMARK H PARENT 8 13 10 15
REMARK Flexibility Score: inf
ROOT
ATOM      1  C   UNL     1      16.559  25.353  43.557  1.00  0.00     0.019 A 
ATOM      2  C   UNL     1      16.856  24.430  42.555  1.00  0.00     0.094 A 
ATOM      3  C   UNL     1      18.128  24.445  41.974  1.00  0.00     0.336 A 
ATOM      4  O   UNL     1      18.415  23.619  41.068  1.00  0.00    -0.246 OA
ATOM      5  O   UNL     1      19.039  25.328  42.373  1.00  0.00    -0.423 OA
ATOM      6  C   UNL     1      18.798  26.226  43.325  1.00  0.00     0.142 A 
ATOM      7  C   UNL     1      19.796  27.130  43.704  1.00  0.00     0.098 A 
ATOM      8  C   UNL     1      19.550  28.077  44.704  1.00  0.00     0.161 A 
ATOM      9  C   UNL     1      18.293  28.122  45.334  1.00  0.00     0.158 A 
ATOM     10  C   UNL     1      17.288  27.217  44.958  1.00  0.00     0.062 A 
ATOM     11  C   UNL     1      17.537  26.270  43.956  1.00  0.00     0.022 A 
ENDROOT
BRANCH   9  12
ATOM     12  O   UNL     1      18.047  29.065  46.332  1.00  0.00    -0.504 OA
ATOM     13  H   UNL     1      18.172  30.057  46.167  1.00  0.00     0.293 HD
ENDBRANCH   9  12
BRANCH   8  14
ATOM     14  O   UNL     1      20.565  28.965  45.058  1.00  0.00    -0.504 OA
ATOM     15  H   UNL     1      20.377  29.830  45.551  1.00  0.00     0.293 HD
ENDBRANCH   8  14
TORSDOF 2
ENDMDL
MODEL 3
REMARK VINA RESULT:    -5.332      1.126      2.265
REMARK INTER + INTRA:          -5.643
REMARK INTER:                  -5.643
REMARK INTRA:                   0.000
REMARK UNBOUND:                 0.000
REMARK SMILES O=c1ccc2cc(O)c(O)cc2o1
REMARK SMILES IDX 4 1 3 2 2 3 1 4 13 5 12 6 11 7 9 8 7 9 6 10 5 11 8 12 10 14
REMARK H PARENT 8 13 10 15
REMARK Flexibility Score: inf
ROOT
ATOM      1  C   UNL     1      17.863  24.552  43.858  1.00  0.00     0.019 A 
ATOM      2  C   UNL     1      16.728  23.833  44.232  1.00  0.00     0.094 A 
ATOM      3  C   UNL     1      15.826  24.410  45.133  1.00  0.00     0.336 A 
ATOM      4  O   UNL     1      14.796  23.776  45.484  1.00  0.00    -0.246 OA
ATOM      5  O   UNL     1      16.049  25.626  45.623  1.00  0.00    -0.423 OA
ATOM      6  C   UNL     1      17.118  26.346  45.292  1.00  0.00     0.142 A 
ATOM      7  C   UNL     1      17.300  27.621  45.839  1.00  0.00     0.098 A 
ATOM      8  C   UNL     1      18.421  28.385  45.497  1.00  0.00     0.161 A 
ATOM      9  C   UNL     1      19.373  27.870  44.596  1.00  0.00     0.158 A 
ATOM     10  C   UNL     1      19.195  26.592  44.045  1.00  0.00     0.062 A 
ATOM     11  C   UNL     1      18.072  25.829  44.389  1.00  0.00     0.022 A 
ENDROOT
BRANCH   9  12
ATOM     12  O   UNL     1      20.490  28.631  44.254  1.00  0.00    -0.504 OA
ATOM     13  H   UNL     1      20.400  29.549  43.835  1.00  0.00     0.293 HD
ENDBRANCH   9  12
BRANCH   8  14
ATOM     14  O   UNL     1      18.575  29.651  46.060  1.00  0.00    -0.504 OA
ATOM     15  H   UNL     1      18.122  30.471  45.673  1.00  0.00     0.293 HD
ENDBRANCH   8  14
TORSDOF 2
ENDMDL
MODEL 4
REMARK VINA RESULT:    -5.148      2.137      3.171
REMARK INTER + INTRA:          -5.449
REMARK INTER:                  -5.449
REMARK INTRA:                   0.000
REMARK UNBOUND:                 0.000
REMARK SMILES O=c1ccc2cc(O)c(O)cc2o1
REMARK SMILES IDX 4 1 3 2 2 3 1 4 13 5 12 6 11 7 9 8 7 9 6 10 5 11 8 12 10 14
REMARK H PARENT 8 13 10 15
REMARK Flexibility Score: inf
ROOT
ATOM      1  C   UNL     1      19.257  25.458  41.739  1.00  0.00     0.019 A 
ATOM      2  C   UNL     1      18.292  24.592  41.225  1.00  0.00     0.094 A 
ATOM      3  C   UNL     1      17.035  24.536  41.837  1.00  0.00     0.336 A 
ATOM      4  O   UNL     1      16.151  23.760  41.387  1.00  0.00    -0.246 OA
ATOM      5  O   UNL     1      16.767  25.299  42.893  1.00  0.00    -0.423 OA
ATOM      6  C   UNL     1      17.658  26.138  43.415  1.00  0.00     0.142 A 
ATOM      7  C   UNL     1      17.318  26.916  44.528  1.00  0.00     0.098 A 
ATOM      8  C   UNL     1      18.249  27.801  45.083  1.00  0.00     0.161 A 
ATOM      9  C   UNL     1      19.535  27.911  44.521  1.00  0.00     0.158 A 
ATOM     10  C   UNL     1      19.880  27.133  43.405  1.00  0.00     0.062 A 
ATOM     11  C   UNL     1      18.946  26.247  42.851  1.00  0.00     0.022 A 
ENDROOT
BRANCH   9  12
ATOM     12  O   UNL     1      20.463  28.793  45.073  1.00  0.00    -0.504 OA
ATOM     13  H   UNL     1      20.429  29.788  44.883  1.00  0.00     0.293 HD
ENDBRANCH   9  12
BRANCH   8  14
ATOM     14  O   UNL     1      17.881  28.562  46.192  1.00  0.00    -0.504 OA
ATOM     15  H   UNL     1      16.927  28.868  46.342  1.00  0.00     0.293 HD
ENDBRANCH   8  14
TORSDOF 2
ENDMDL
MODEL 5
REMARK VINA RESULT:    -5.094      1.649      1.856
REMARK INTER + INTRA:          -5.392
REMARK INTER:                  -5.392
REMARK INTRA:                   0.000
REMARK UNBOUND:                 0.000
REMARK SMILES O=c1ccc2cc(O)c(O)cc2o1
REMARK SMILES IDX 4 1 3 2 2 3 1 4 13 5 12 6 11 7 9 8 7 9 6 10 5 11 8 12 10 14
REMARK H PARENT 8 13 10 15
REMARK Flexibility Score: inf
ROOT
ATOM      1  C   UNL     1      16.594  25.697  44.934  1.00  0.00     0.019 A 
ATOM      2  C   UNL     1      15.880  24.730  44.227  1.00  0.00     0.094 A 
ATOM      3  C   UNL     1      16.325  24.353  42.956  1.00  0.00     0.336 A 
ATOM      4  O   UNL     1      15.693  23.482  42.301  1.00  0.00    -0.246 OA
ATOM      5  O   UNL     1      17.414  24.908  42.432  1.00  0.00    -0.423 OA
ATOM      6  C   UNL     1      18.125  25.833  43.073  1.00  0.00     0.142 A 
ATOM      7  C   UNL     1      19.263  26.381  42.471  1.00  0.00     0.098 A 
ATOM      8  C   UNL     1      20.016  27.354  43.138  1.00  0.00     0.161 A 
ATOM      9  C   UNL     1      19.629  27.785  44.421  1.00  0.00     0.158 A 
ATOM     10  C   UNL     1      18.488  27.237  45.028  1.00  0.00     0.062 A 
ATOM     11  C   UNL     1      17.736  26.264  44.358  1.00  0.00     0.022 A 
ENDROOT
BRANCH   9  12
ATOM     12  O   UNL     1      20.379  28.754  45.087  1.00  0.00    -0.504 OA
ATOM     13  H   UNL     1      20.356  28.841  46.096  1.00  0.00     0.293 HD
ENDBRANCH   9  12
BRANCH   8  14
ATOM     14  O   UNL     1      21.144  27.883  42.512  1.00  0.00    -0.504 OA
ATOM     15  H   UNL     1      21.593  28.732  42.836  1.00  0.00     0.293 HD
ENDBRANCH   8  14
TORSDOF 2
ENDMDL
MODEL 6
REMARK VINA RESULT:    -5.044      3.999      4.756
REMARK INTER + INTRA:          -5.338
REMARK INTER:                  -5.338
REMARK INTRA:                   0.000
REMARK UNBOUND:                 0.000
REMARK SMILES O=c1ccc2cc(O)c(O)cc2o1
REMARK SMILES IDX 4 1 3 2 2 3 1 4 13 5 12 6 11 7 9 8 7 9 6 10 5 11 8 12 10 14
REMARK H PARENT 8 13 10 15
REMARK Flexibility Score: inf
ROOT
ATOM      1  C   UNL     1      18.270  24.540  41.411  1.00  0.00     0.019 A 
ATOM      2  C   UNL     1      18.267  23.760  40.255  1.00  0.00     0.094 A 
ATOM      3  C   UNL     1      19.239  23.992  39.277  1.00  0.00     0.336 A 
ATOM      4  O   UNL     1      19.252  23.299  38.226  1.00  0.00    -0.246 OA
ATOM      5  O   UNL     1      20.153  24.944  39.449  1.00  0.00    -0.423 OA
ATOM      6  C   UNL     1      20.193  25.710  40.537  1.00  0.00     0.142 A 
ATOM      7  C   UNL     1      21.178  26.695  40.663  1.00  0.00     0.098 A 
ATOM      8  C   UNL     1      21.227  27.505  41.803  1.00  0.00     0.161 A 
ATOM      9  C   UNL     1      20.281  27.329  42.829  1.00  0.00     0.158 A 
ATOM     10  C   UNL     1      19.291  26.342  42.708  1.00  0.00     0.062 A 
ATOM     11  C   UNL     1      19.243  25.533  41.565  1.00  0.00     0.022 A 
ENDROOT
BRANCH   9  12
ATOM     12  O   UNL     1      20.329  28.135  43.967  1.00  0.00    -0.504 OA
ATOM     13  H   UNL     1      19.558  28.742  44.220  1.00  0.00     0.293 HD
ENDBRANCH   9  12
BRANCH   8  14
ATOM     14  O   UNL     1      22.221  28.478  41.898  1.00  0.00    -0.504 OA
ATOM     15  H   UNL     1      23.196  28.273  41.714  1.00  0.00     0.293 HD
ENDBRANCH   8  14
TORSDOF 2
ENDMDL
MODEL 7
REMARK VINA RESULT:    -5.024      6.503      7.782
REMARK INTER + INTRA:          -5.318
REMARK INTER:                  -5.318
REMARK INTRA:                   0.000
REMARK UNBOUND:                 0.000
REMARK SMILES O=c1ccc2cc(O)c(O)cc2o1
REMARK SMILES IDX 4 1 3 2 2 3 1 4 13 5 12 6 11 7 9 8 7 9 6 10 5 11 8 12 10 14
REMARK H PARENT 8 13 10 15
REMARK Flexibility Score: inf
ROOT
ATOM      1  C   UNL     1      18.007  24.674  40.502  1.00  0.00     0.019 A 
ATOM      2  C   UNL     1      16.951  25.340  39.881  1.00  0.00     0.094 A 
ATOM      3  C   UNL     1      16.676  25.070  38.536  1.00  0.00     0.336 A 
ATOM      4  O   UNL     1      15.727  25.662  37.958  1.00  0.00    -0.246 OA
ATOM      5  O   UNL     1      17.412  24.190  37.862  1.00  0.00    -0.423 OA
ATOM      6  C   UNL     1      18.427  23.532  38.417  1.00  0.00     0.142 A 
ATOM      7  C   UNL     1      19.165  22.618  37.658  1.00  0.00     0.098 A 
ATOM      8  C   UNL     1      20.235  21.922  38.233  1.00  0.00     0.161 A 
ATOM      9  C   UNL     1      20.571  22.141  39.582  1.00  0.00     0.158 A 
ATOM     10  C   UNL     1      19.834  23.058  40.347  1.00  0.00     0.062 A 
ATOM     11  C   UNL     1      18.763  23.754  39.769  1.00  0.00     0.022 A 
ENDROOT
BRANCH   9  12
ATOM     12  O   UNL     1      21.636  21.448  40.156  1.00  0.00    -0.504 OA
ATOM     13  H   UNL     1      22.598  21.720  39.990  1.00  0.00     0.293 HD
ENDBRANCH   9  12
BRANCH   8  14
ATOM     14  O   UNL     1      20.952  21.017  37.451  1.00  0.00    -0.504 OA
ATOM     15  H   UNL     1      21.921  20.791  37.640  1.00  0.00     0.293 HD
ENDBRANCH   8  14
TORSDOF 2
ENDMDL
MODEL 8
REMARK VINA RESULT:    -4.994      1.691      2.560
REMARK INTER + INTRA:          -5.286
REMARK INTER:                  -5.286
REMARK INTRA:                   0.000
REMARK UNBOUND:                 0.000
REMARK SMILES O=c1ccc2cc(O)c(O)cc2o1
REMARK SMILES IDX 4 1 3 2 2 3 1 4 13 5 12 6 11 7 9 8 7 9 6 10 5 11 8 12 10 14
REMARK H PARENT 8 13 10 15
REMARK Flexibility Score: inf
ROOT
ATOM      1  C   UNL     1      16.862  24.782  43.388  1.00  0.00     0.019 A 
ATOM      2  C   UNL     1      15.753  24.481  44.178  1.00  0.00     0.094 A 
ATOM      3  C   UNL     1      15.537  25.211  45.351  1.00  0.00     0.336 A 
ATOM      4  O   UNL     1      14.541  24.953  46.078  1.00  0.00    -0.246 OA
ATOM      5  O   UNL     1      16.378  26.179  45.706  1.00  0.00    -0.423 OA
ATOM      6  C   UNL     1      17.447  26.499  44.981  1.00  0.00     0.142 A 
ATOM      7  C   UNL     1      18.296  27.527  45.404  1.00  0.00     0.098 A 
ATOM      8  C   UNL     1      19.423  27.870  44.648  1.00  0.00     0.161 A 
ATOM      9  C   UNL     1      19.705  27.179  43.455  1.00  0.00     0.158 A 
ATOM     10  C   UNL     1      18.856  26.147  43.027  1.00  0.00     0.062 A 
ATOM     11  C   UNL     1      17.729  25.805  43.786  1.00  0.00     0.022 A 
ENDROOT
BRANCH   9  12
ATOM     12  O   UNL     1      20.827  27.520  42.700  1.00  0.00    -0.504 OA
ATOM     13  H   UNL     1      21.395  26.815  42.245  1.00  0.00     0.293 HD
ENDBRANCH   9  12
BRANCH   8  14
ATOM     14  O   UNL     1      20.251  28.899  45.096  1.00  0.00    -0.504 OA
ATOM     15  H   UNL     1      20.703  29.544  44.458  1.00  0.00     0.293 HD
ENDBRANCH   8  14
TORSDOF 2
ENDMDL
