MODEL 1
REMARK VINA RESULT:    -6.775      0.000      0.000
REMARK INTER + INTRA:         -12.982
REMARK INTER:                 -12.320
REMARK INTRA:                  -0.662
REMARK UNBOUND:                -0.662
REMARK SMILES CCCCCCCCCCCCCCCC(=O)[O-]
REMARK SMILES IDX 9 1 10 2 11 3 12 4 13 5 14 6 15 7 16 8 17 9 18 10 8 11 7 12
REMARK SMILES IDX 6 13 5 14 4 15 3 16 2 17 1 18
REMARK H PARENT
REMARK Flexibility Score: inf
ROOT
ATOM      1  C   UNL     1      32.251  -8.892  20.761  1.00  0.00     0.000 C 
ENDROOT
BRANCH   1   2
ATOM      2  C   UNL     1      32.962  -9.657  19.631  1.00  0.00     0.000 C 
BRANCH   2   3
ATOM      3  C   UNL     1      34.427  -9.986  19.964  1.00  0.00     0.000 C 
BRANCH   3   4
ATOM      4  C   UNL     1      35.052  -9.126  21.082  1.00  0.00     0.000 C 
BRANCH   4   5
ATOM      5  C   UNL     1      36.240  -9.773  21.817  1.00  0.00     0.000 C 
BRANCH   5   6
ATOM      6  C   UNL     1      37.004 -10.783  20.945  1.00  0.00     0.006 C 
BRANCH   6   7
ATOM      7  C   UNL     1      38.009 -11.607  21.761  1.00  0.00     0.053 C 
BRANCH   7   8
ATOM      8  C   UNL     1      39.143 -12.094  20.913  1.00  0.00     0.041 C 
ATOM      9  O   UNL     1      39.753 -11.296  20.153  1.00  0.00    -0.550 OA
ATOM     10  O   UNL     1      39.502 -13.435  20.933  1.00  0.00    -0.550 OA
ENDBRANCH   7   8
ENDBRANCH   6   7
ENDBRANCH   5   6
ENDBRANCH   4   5
ENDBRANCH   3   4
ENDBRANCH   2   3
ENDBRANCH   1   2
BRANCH   1  11
ATOM     11  C   UNL     1      30.736  -9.150  20.781  1.00  0.00     0.000 C 
BRANCH  11  12
ATOM     12  C   UNL     1      30.199  -9.388  22.204  1.00  0.00    -0.000 C 
BRANCH  12  13
ATOM     13  C   UNL     1      28.700  -9.724  22.219  1.00  0.00    -0.000 C 
BRANCH  13  14
ATOM     14  C   UNL     1      28.349 -10.893  21.282  1.00  0.00    -0.000 C 
BRANCH  14  15
ATOM     15  C   UNL     1      27.190 -10.557  20.330  1.00  0.00    -0.000 C 
BRANCH  15  16
ATOM     16  C   UNL     1      26.488 -11.815  19.790  1.00  0.00    -0.000 C 
BRANCH  16  17
ATOM     17  C   UNL     1      27.477 -12.941  19.450  1.00  0.00    -0.003 C 
ATOM     18  C   UNL     1      27.182 -13.598  18.103  1.00  0.00     0.004 C 
ENDBRANCH  16  17
ENDBRANCH  15  16
ENDBRANCH  14  15
ENDBRANCH  13  14
ENDBRANCH  12  13
ENDBRANCH  11  12
ENDBRANCH   1  11
TORSDOF 14
ENDMDL
MODEL 2
REMARK VINA RESULT:    -6.700      1.004      1.379
REMARK INTER + INTRA:         -12.845
REMARK INTER:                 -12.163
REMARK INTRA:                  -0.682
REMARK UNBOUND:                -0.662
REMARK SMILES CCCCCCCCCCCCCCCC(=O)[O-]
REMARK SMILES IDX 9 1 10 2 11 3 12 4 13 5 14 6 15 7 16 8 17 9 18 10 8 11 7 12
REMARK SMILES IDX 6 13 5 14 4 15 3 16 2 17 1 18
REMARK H PARENT
REMARK Flexibility Score: inf
ROOT
ATOM      1  C   UNL     1      31.514  -7.694  21.893  1.00  0.00     0.000 C 
ENDROOT
BRANCH   1   2
ATOM      2  C   UNL     1      32.982  -7.645  21.439  1.00  0.00     0.000 C 
BRANCH   2   3
ATOM      3  C   UNL     1      33.318  -8.721  20.391  1.00  0.00     0.000 C 
BRANCH   3   4
ATOM      4  C   UNL     1      34.644  -9.473  20.628  1.00  0.00     0.000 C 
BRANCH   4   5
ATOM      5  C   UNL     1      35.577  -8.838  21.675  1.00  0.00     0.000 C 
BRANCH   5   6
ATOM      6  C   UNL     1      36.939  -9.546  21.769  1.00  0.00     0.006 C 
BRANCH   6   7
ATOM      7  C   UNL     1      37.001 -10.798  20.884  1.00  0.00     0.053 C 
BRANCH   7   8
ATOM      8  C   UNL     1      38.359 -11.431  20.917  1.00  0.00     0.041 C 
ATOM      9  O   UNL     1      39.347 -10.837  20.410  1.00  0.00    -0.550 OA
ATOM     10  O   UNL     1      38.526 -12.693  21.473  1.00  0.00    -0.550 OA
ENDBRANCH   7   8
ENDBRANCH   6   7
ENDBRANCH   5   6
ENDBRANCH   4   5
ENDBRANCH   3   4
ENDBRANCH   2   3
ENDBRANCH   1   2
BRANCH   1  11
ATOM     11  C   UNL     1      30.994  -9.133  22.045  1.00  0.00     0.000 C 
BRANCH  11  12
ATOM     12  C   UNL     1      29.934  -9.490  20.988  1.00  0.00    -0.000 C 
BRANCH  12  13
ATOM     13  C   UNL     1      28.508  -9.487  21.559  1.00  0.00    -0.000 C 
BRANCH  13  14
ATOM     14  C   UNL     1      27.912 -10.901  21.667  1.00  0.00    -0.000 C 
BRANCH  14  15
ATOM     15  C   UNL     1      27.415 -11.437  20.315  1.00  0.00    -0.000 C 
BRANCH  15  16
ATOM     16  C   UNL     1      27.911 -12.864  20.028  1.00  0.00    -0.000 C 
BRANCH  16  17
ATOM     17  C   UNL     1      27.296 -13.455  18.749  1.00  0.00    -0.003 C 
ATOM     18  C   UNL     1      26.267 -12.526  18.107  1.00  0.00     0.004 C 
ENDBRANCH  16  17
ENDBRANCH  15  16
ENDBRANCH  14  15
ENDBRANCH  13  14
ENDBRANCH  12  13
ENDBRANCH  11  12
ENDBRANCH   1  11
TORSDOF 14
ENDMDL
MODEL 3
REMARK VINA RESULT:    -6.560      1.621      1.958
REMARK INTER + INTRA:         -12.591
REMARK INTER:                 -12.024
REMARK INTRA:                  -0.567
REMARK UNBOUND:                -0.662
REMARK SMILES CCCCCCCCCCCCCCCC(=O)[O-]
REMARK SMILES IDX 9 1 10 2 11 3 12 4 13 5 14 6 15 7 16 8 17 9 18 10 8 11 7 12
REMARK SMILES IDX 6 13 5 14 4 15 3 16 2 17 1 18
REMARK H PARENT
REMARK Flexibility Score: inf
ROOT
ATOM      1  C   UNL     1      32.404  -9.116  21.460  1.00  0.00     0.000 C 
ENDROOT
BRANCH   1   2
ATOM      2  C   UNL     1      33.444  -9.153  20.327  1.00  0.00     0.000 C 
BRANCH   2   3
ATOM      3  C   UNL     1      34.892  -9.166  20.848  1.00  0.00     0.000 C 
BRANCH   3   4
ATOM      4  C   UNL     1      35.706 -10.425  20.482  1.00  0.00     0.000 C 
BRANCH   4   5
ATOM      5  C   UNL     1      36.933 -10.690  21.372  1.00  0.00     0.000 C 
BRANCH   5   6
ATOM      6  C   UNL     1      37.409  -9.434  22.122  1.00  0.00     0.006 C 
BRANCH   6   7
ATOM      7  C   UNL     1      38.167  -9.784  23.410  1.00  0.00     0.053 C 
BRANCH   7   8
ATOM      8  C   UNL     1      39.633  -9.962  23.158  1.00  0.00     0.041 C 
ATOM      9  O   UNL     1      40.143 -11.113  23.173  1.00  0.00    -0.550 OA
ATOM     10  O   UNL     1      40.442  -8.854  22.944  1.00  0.00    -0.550 OA
ENDBRANCH   7   8
ENDBRANCH   6   7
ENDBRANCH   5   6
ENDBRANCH   4   5
ENDBRANCH   3   4
ENDBRANCH   2   3
ENDBRANCH   1   2
BRANCH   1  11
ATOM     11  C   UNL     1      30.961  -9.070  20.931  1.00  0.00     0.000 C 
BRANCH  11  12
ATOM     12  C   UNL     1      29.921  -9.311  22.040  1.00  0.00    -0.000 C 
BRANCH  12  13
ATOM     13  C   UNL     1      28.483  -9.354  21.499  1.00  0.00    -0.000 C 
BRANCH  13  14
ATOM     14  C   UNL     1      27.803 -10.713  21.739  1.00  0.00    -0.000 C 
BRANCH  14  15
ATOM     15  C   UNL     1      27.274 -11.345  20.442  1.00  0.00    -0.000 C 
BRANCH  15  16
ATOM     16  C   UNL     1      28.053 -12.610  20.042  1.00  0.00    -0.000 C 
BRANCH  16  17
ATOM     17  C   UNL     1      27.274 -13.493  19.054  1.00  0.00    -0.003 C 
ATOM     18  C   UNL     1      26.299 -12.693  18.191  1.00  0.00     0.004 C 
ENDBRANCH  16  17
ENDBRANCH  15  16
ENDBRANCH  14  15
ENDBRANCH  13  14
ENDBRANCH  12  13
ENDBRANCH  11  12
ENDBRANCH   1  11
TORSDOF 14
ENDMDL
MODEL 4
REMARK VINA RESULT:    -6.469      3.111      3.792
REMARK INTER + INTRA:         -12.425
REMARK INTER:                 -11.818
REMARK INTRA:                  -0.607
REMARK UNBOUND:                -0.662
REMARK SMILES CCCCCCCCCCCCCCCC(=O)[O-]
REMARK SMILES IDX 9 1 10 2 11 3 12 4 13 5 14 6 15 7 16 8 17 9 18 10 8 11 7 12
REMARK SMILES IDX 6 13 5 14 4 15 3 16 2 17 1 18
REMARK H PARENT
REMARK Flexibility Score: inf
ROOT
ATOM      1  C   UNL     1      33.408  -9.210  19.742  1.00  0.00     0.000 C 
ENDROOT
BRANCH   1   2
ATOM      2  C   UNL     1      34.369  -9.022  20.928  1.00  0.00     0.000 C 
BRANCH   2   3
ATOM      3  C   UNL     1      35.587  -9.960  20.861  1.00  0.00     0.000 C 
BRANCH   3   4
ATOM      4  C   UNL     1      36.790  -9.532  21.728  1.00  0.00     0.000 C 
BRANCH   4   5
ATOM      5  C   UNL     1      36.634  -8.175  22.437  1.00  0.00     0.000 C 
BRANCH   5   6
ATOM      6  C   UNL     1      37.813  -7.849  23.369  1.00  0.00     0.006 C 
BRANCH   6   7
ATOM      7  C   UNL     1      37.676  -6.461  24.009  1.00  0.00     0.053 C 
BRANCH   7   8
ATOM      8  C   UNL     1      38.999  -5.935  24.477  1.00  0.00     0.041 C 
ATOM      9  O   UNL     1      40.047  -6.191  23.829  1.00  0.00    -0.550 OA
ATOM     10  O   UNL     1      39.078  -5.193  25.649  1.00  0.00    -0.550 OA
ENDBRANCH   7   8
ENDBRANCH   6   7
ENDBRANCH   5   6
ENDBRANCH   4   5
ENDBRANCH   3   4
ENDBRANCH   2   3
ENDBRANCH   1   2
BRANCH   1  11
ATOM     11  C   UNL     1      31.958  -9.447  20.194  1.00  0.00     0.000 C 
BRANCH  11  12
ATOM     12  C   UNL     1      31.644  -8.771  21.541  1.00  0.00    -0.000 C 
BRANCH  12  13
ATOM     13  C   UNL     1      30.320  -9.259  22.150  1.00  0.00    -0.000 C 
BRANCH  13  14
ATOM     14  C   UNL     1      29.286  -9.647  21.079  1.00  0.00    -0.000 C 
BRANCH  14  15
ATOM     15  C   UNL     1      28.266 -10.677  21.589  1.00  0.00    -0.000 C 
BRANCH  15  16
ATOM     16  C   UNL     1      27.458 -11.321  20.449  1.00  0.00    -0.000 C 
BRANCH  16  17
ATOM     17  C   UNL     1      27.997 -12.706  20.054  1.00  0.00    -0.003 C 
ATOM     18  C   UNL     1      27.226 -13.329  18.892  1.00  0.00     0.004 C 
ENDBRANCH  16  17
ENDBRANCH  15  16
ENDBRANCH  14  15
ENDBRANCH  13  14
ENDBRANCH  12  13
ENDBRANCH  11  12
ENDBRANCH   1  11
TORSDOF 14
ENDMDL
MODEL 5
REMARK VINA RESULT:    -6.460      0.938      1.380
REMARK INTER + INTRA:         -12.409
REMARK INTER:                 -11.728
REMARK INTRA:                  -0.681
REMARK UNBOUND:                -0.662
REMARK SMILES CCCCCCCCCCCCCCCC(=O)[O-]
REMARK SMILES IDX 9 1 10 2 11 3 12 4 13 5 14 6 15 7 16 8 17 9 18 10 8 11 7 12
REMARK SMILES IDX 6 13 5 14 4 15 3 16 2 17 1 18
REMARK H PARENT
REMARK Flexibility Score: inf
ROOT
ATOM      1  C   UNL     1      31.007  -9.070  21.969  1.00  0.00     0.000 C 
ENDROOT
BRANCH   1   2
ATOM      2  C   UNL     1      32.254  -8.960  21.077  1.00  0.00     0.000 C 
BRANCH   2   3
ATOM      3  C   UNL     1      33.158  -7.775  21.459  1.00  0.00     0.000 C 
BRANCH   3   4
ATOM      4  C   UNL     1      34.673  -8.066  21.413  1.00  0.00     0.000 C 
BRANCH   4   5
ATOM      5  C   UNL     1      35.047  -9.538  21.167  1.00  0.00     0.000 C 
BRANCH   5   6
ATOM      6  C   UNL     1      36.550  -9.812  21.351  1.00  0.00     0.006 C 
BRANCH   6   7
ATOM      7  C   UNL     1      37.014 -11.041  20.559  1.00  0.00     0.053 C 
BRANCH   7   8
ATOM      8  C   UNL     1      38.389 -11.475  20.968  1.00  0.00     0.041 C 
ATOM      9  O   UNL     1      39.400 -11.019  20.372  1.00  0.00    -0.550 OA
ATOM     10  O   UNL     1      38.551 -12.411  21.981  1.00  0.00    -0.550 OA
ENDBRANCH   7   8
ENDBRANCH   6   7
ENDBRANCH   5   6
ENDBRANCH   4   5
ENDBRANCH   3   4
ENDBRANCH   2   3
ENDBRANCH   1   2
BRANCH   1  11
ATOM     11  C   UNL     1      29.787  -8.355  21.364  1.00  0.00     0.000 C 
BRANCH  11  12
ATOM     12  C   UNL     1      28.456  -8.893  21.919  1.00  0.00    -0.000 C 
BRANCH  12  13
ATOM     13  C   UNL     1      28.468 -10.418  22.103  1.00  0.00    -0.000 C 
BRANCH  13  14
ATOM     14  C   UNL     1      28.157 -11.172  20.798  1.00  0.00    -0.000 C 
BRANCH  14  15
ATOM     15  C   UNL     1      26.709 -10.964  20.328  1.00  0.00    -0.000 C 
BRANCH  15  16
ATOM     16  C   UNL     1      26.355 -11.829  19.106  1.00  0.00    -0.000 C 
BRANCH  16  17
ATOM     17  C   UNL     1      26.781 -13.296  19.280  1.00  0.00    -0.003 C 
ATOM     18  C   UNL     1      27.476 -13.859  18.041  1.00  0.00     0.004 C 
ENDBRANCH  16  17
ENDBRANCH  15  16
ENDBRANCH  14  15
ENDBRANCH  13  14
ENDBRANCH  12  13
ENDBRANCH  11  12
ENDBRANCH   1  11
TORSDOF 14
ENDMDL
MODEL 6
REMARK VINA RESULT:    -6.322      5.017      9.294
REMARK INTER + INTRA:         -12.158
REMARK INTER:                 -11.185
REMARK INTRA:                  -0.972
REMARK UNBOUND:                -0.662
REMARK SMILES CCCCCCCCCCCCCCCC(=O)[O-]
REMARK SMILES IDX 9 1 10 2 11 3 12 4 13 5 14 6 15 7 16 8 17 9 18 10 8 11 7 12
REMARK SMILES IDX 6 13 5 14 4 15 3 16 2 17 1 18
REMARK H PARENT
REMARK Flexibility Score: inf
ROOT
ATOM      1  C   UNL     1      29.800  -9.633  22.277  1.00  0.00     0.000 C 
ENDROOT
BRANCH   1   2
ATOM      2  C   UNL     1      28.437 -10.342  22.218  1.00  0.00     0.000 C 
BRANCH   2   3
ATOM      3  C   UNL     1      28.110 -10.891  20.818  1.00  0.00     0.000 C 
BRANCH   3   4
ATOM      4  C   UNL     1      26.632 -10.764  20.395  1.00  0.00     0.000 C 
BRANCH   4   5
ATOM      5  C   UNL     1      26.331  -9.624  19.405  1.00  0.00     0.000 C 
BRANCH   5   6
ATOM      6  C   UNL     1      26.823  -8.255  19.904  1.00  0.00     0.006 C 
BRANCH   6   7
ATOM      7  C   UNL     1      27.598  -7.491  18.822  1.00  0.00     0.053 C 
BRANCH   7   8
ATOM      8  C   UNL     1      27.137  -6.069  18.712  1.00  0.00     0.041 C 
ATOM      9  O   UNL     1      26.030  -5.723  19.200  1.00  0.00    -0.550 OA
ATOM     10  O   UNL     1      27.915  -5.136  18.038  1.00  0.00    -0.550 OA
ENDBRANCH   7   8
ENDBRANCH   6   7
ENDBRANCH   5   6
ENDBRANCH   4   5
ENDBRANCH   3   4
ENDBRANCH   2   3
ENDBRANCH   1   2
BRANCH   1  11
ATOM     11  C   UNL     1      30.259  -9.127  20.899  1.00  0.00     0.000 C 
BRANCH  11  12
ATOM     12  C   UNL     1      31.787  -9.197  20.726  1.00  0.00    -0.000 C 
BRANCH  12  13
ATOM     13  C   UNL     1      32.510  -8.026  21.411  1.00  0.00    -0.000 C 
BRANCH  13  14
ATOM     14  C   UNL     1      33.938  -8.392  21.852  1.00  0.00    -0.000 C 
BRANCH  14  15
ATOM     15  C   UNL     1      34.647  -9.314  20.847  1.00  0.00    -0.000 C 
BRANCH  15  16
ATOM     16  C   UNL     1      36.053  -9.726  21.316  1.00  0.00    -0.000 C 
BRANCH  16  17
ATOM     17  C   UNL     1      36.583 -10.962  20.572  1.00  0.00    -0.003 C 
ATOM     18  C   UNL     1      38.085 -11.164  20.760  1.00  0.00     0.004 C 
ENDBRANCH  16  17
ENDBRANCH  15  16
ENDBRANCH  14  15
ENDBRANCH  13  14
ENDBRANCH  12  13
ENDBRANCH  11  12
ENDBRANCH   1  11
TORSDOF 14
ENDMDL
MODEL 7
REMARK VINA RESULT:    -6.257      6.236      8.468
REMARK INTER + INTRA:         -12.039
REMARK INTER:                 -10.473
REMARK INTRA:                  -1.567
REMARK UNBOUND:                -0.662
REMARK SMILES CCCCCCCCCCCCCCCC(=O)[O-]
REMARK SMILES IDX 9 1 10 2 11 3 12 4 13 5 14 6 15 7 16 8 17 9 18 10 8 11 7 12
REMARK SMILES IDX 6 13 5 14 4 15 3 16 2 17 1 18
REMARK H PARENT
REMARK Flexibility Score: inf
ROOT
ATOM      1  C   UNL     1      28.715  -6.924  21.784  1.00  0.00     0.000 C 
ENDROOT
BRANCH   1   2
ATOM      2  C   UNL     1      27.316  -6.414  22.169  1.00  0.00     0.000 C 
BRANCH   2   3
ATOM      3  C   UNL     1      26.195  -7.066  21.340  1.00  0.00     0.000 C 
BRANCH   3   4
ATOM      4  C   UNL     1      26.671  -7.832  20.087  1.00  0.00     0.000 C 
BRANCH   4   5
ATOM      5  C   UNL     1      25.956  -7.450  18.778  1.00  0.00     0.000 C 
BRANCH   5   6
ATOM      6  C   UNL     1      26.150  -5.972  18.400  1.00  0.00     0.006 C 
BRANCH   6   7
ATOM      7  C   UNL     1      27.631  -5.568  18.392  1.00  0.00     0.053 C 
BRANCH   7   8
ATOM      8  C   UNL     1      27.819  -4.150  18.836  1.00  0.00     0.041 C 
ATOM      9  O   UNL     1      26.857  -3.339  18.791  1.00  0.00    -0.550 OA
ATOM     10  O   UNL     1      29.067  -3.714  19.263  1.00  0.00    -0.550 OA
ENDBRANCH   7   8
ENDBRANCH   6   7
ENDBRANCH   5   6
ENDBRANCH   4   5
ENDBRANCH   3   4
ENDBRANCH   2   3
ENDBRANCH   1   2
BRANCH   1  11
ATOM     11  C   UNL     1      29.200  -8.057  22.704  1.00  0.00     0.000 C 
BRANCH  11  12
ATOM     12  C   UNL     1      30.189  -9.003  21.999  1.00  0.00    -0.000 C 
BRANCH  12  13
ATOM     13  C   UNL     1      29.491  -9.964  21.024  1.00  0.00    -0.000 C 
BRANCH  13  14
ATOM     14  C   UNL     1      28.230 -10.604  21.628  1.00  0.00    -0.000 C 
BRANCH  14  15
ATOM     15  C   UNL     1      27.417 -11.397  20.593  1.00  0.00    -0.000 C 
BRANCH  15  16
ATOM     16  C   UNL     1      28.153 -12.657  20.105  1.00  0.00    -0.000 C 
BRANCH  16  17
ATOM     17  C   UNL     1      27.421 -13.355  18.947  1.00  0.00    -0.003 C 
ATOM     18  C   UNL     1      26.283 -12.511  18.377  1.00  0.00     0.004 C 
ENDBRANCH  16  17
ENDBRANCH  15  16
ENDBRANCH  14  15
ENDBRANCH  13  14
ENDBRANCH  12  13
ENDBRANCH  11  12
ENDBRANCH   1  11
TORSDOF 14
ENDMDL
MODEL 8
REMARK VINA RESULT:    -6.246      1.338      2.242
REMARK INTER + INTRA:         -12.019
REMARK INTER:                 -11.177
REMARK INTRA:                  -0.842
REMARK UNBOUND:                -0.662
REMARK SMILES CCCCCCCCCCCCCCCC(=O)[O-]
REMARK SMILES IDX 9 1 10 2 11 3 12 4 13 5 14 6 15 7 16 8 17 9 18 10 8 11 7 12
REMARK SMILES IDX 6 13 5 14 4 15 3 16 2 17 1 18
REMARK H PARENT
REMARK Flexibility Score: inf
ROOT
ATOM      1  C   UNL     1      31.537  -9.357  20.580  1.00  0.00     0.000 C 
ENDROOT
BRANCH   1   2
ATOM      2  C   UNL     1      32.386  -8.536  21.565  1.00  0.00     0.000 C 
BRANCH   2   3
ATOM      3  C   UNL     1      33.793  -8.226  21.024  1.00  0.00     0.000 C 
BRANCH   3   4
ATOM      4  C   UNL     1      34.651  -9.464  20.686  1.00  0.00     0.000 C 
BRANCH   4   5
ATOM      5  C   UNL     1      36.007  -9.536  21.410  1.00  0.00     0.000 C 
BRANCH   5   6
ATOM      6  C   UNL     1      36.879 -10.709  20.931  1.00  0.00     0.006 C 
BRANCH   6   7
ATOM      7  C   UNL     1      38.216 -10.778  21.681  1.00  0.00     0.053 C 
BRANCH   7   8
ATOM      8  C   UNL     1      38.917 -12.081  21.441  1.00  0.00     0.041 C 
ATOM      9  O   UNL     1      38.649 -13.084  22.152  1.00  0.00    -0.550 OA
ATOM     10  O   UNL     1      39.893 -12.175  20.457  1.00  0.00    -0.550 OA
ENDBRANCH   7   8
ENDBRANCH   6   7
ENDBRANCH   5   6
ENDBRANCH   4   5
ENDBRANCH   3   4
ENDBRANCH   2   3
ENDBRANCH   1   2
BRANCH   1  11
ATOM     11  C   UNL     1      30.032  -9.082  20.731  1.00  0.00     0.000 C 
BRANCH  11  12
ATOM     12  C   UNL     1      29.523  -9.368  22.156  1.00  0.00    -0.000 C 
BRANCH  12  13
ATOM     13  C   UNL     1      28.358 -10.371  22.173  1.00  0.00    -0.000 C 
BRANCH  13  14
ATOM     14  C   UNL     1      28.186 -11.099  20.829  1.00  0.00    -0.000 C 
BRANCH  14  15
ATOM     15  C   UNL     1      26.818 -10.830  20.183  1.00  0.00    -0.000 C 
BRANCH  15  16
ATOM     16  C   UNL     1      26.407  -9.350  20.268  1.00  0.00    -0.000 C 
BRANCH  16  17
ATOM     17  C   UNL     1      26.232  -8.707  18.883  1.00  0.00    -0.003 C 
ATOM     18  C   UNL     1      26.937  -7.356  18.768  1.00  0.00     0.004 C 
ENDBRANCH  16  17
ENDBRANCH  15  16
ENDBRANCH  14  15
ENDBRANCH  13  14
ENDBRANCH  12  13
ENDBRANCH  11  12
ENDBRANCH   1  11
TORSDOF 14
ENDMDL
MODEL 9
REMARK VINA RESULT:    -6.056      6.558      7.778
REMARK INTER + INTRA:         -11.674
REMARK INTER:                  -9.976
REMARK INTRA:                  -1.698
REMARK UNBOUND:                -0.662
REMARK SMILES CCCCCCCCCCCCCCCC(=O)[O-]
REMARK SMILES IDX 9 1 10 2 11 3 12 4 13 5 14 6 15 7 16 8 17 9 18 10 8 11 7 12
REMARK SMILES IDX 6 13 5 14 4 15 3 16 2 17 1 18
REMARK H PARENT
REMARK Flexibility Score: inf
ROOT
ATOM      1  C   UNL     1      27.377  -6.268  18.478  1.00  0.00     0.000 C 
ENDROOT
BRANCH   1   2
ATOM      2  C   UNL     1      26.380  -5.284  19.113  1.00  0.00     0.000 C 
BRANCH   2   3
ATOM      3  C   UNL     1      27.019  -4.410  20.207  1.00  0.00     0.000 C 
BRANCH   3   4
ATOM      4  C   UNL     1      26.374  -4.534  21.603  1.00  0.00     0.000 C 
BRANCH   4   5
ATOM      5  C   UNL     1      26.113  -5.975  22.077  1.00  0.00     0.000 C 
BRANCH   5   6
ATOM      6  C   UNL     1      26.999  -6.382  23.267  1.00  0.00     0.006 C 
BRANCH   6   7
ATOM      7  C   UNL     1      28.302  -5.573  23.320  1.00  0.00     0.053 C 
BRANCH   7   8
ATOM      8  C   UNL     1      29.430  -6.296  22.649  1.00  0.00     0.041 C 
ATOM      9  O   UNL     1      30.167  -5.694  21.825  1.00  0.00    -0.550 OA
ATOM     10  O   UNL     1      29.642  -7.644  22.907  1.00  0.00    -0.550 OA
ENDBRANCH   7   8
ENDBRANCH   6   7
ENDBRANCH   5   6
ENDBRANCH   4   5
ENDBRANCH   3   4
ENDBRANCH   2   3
ENDBRANCH   1   2
BRANCH   1  11
ATOM     11  C   UNL     1      27.038  -7.734  18.793  1.00  0.00     0.000 C 
BRANCH  11  12
ATOM     12  C   UNL     1      27.903  -8.305  19.932  1.00  0.00    -0.000 C 
BRANCH  12  13
ATOM     13  C   UNL     1      27.166  -9.379  20.748  1.00  0.00    -0.000 C 
BRANCH  13  14
ATOM     14  C   UNL     1      28.066 -10.578  21.093  1.00  0.00    -0.000 C 
BRANCH  14  15
ATOM     15  C   UNL     1      27.745 -11.819  20.245  1.00  0.00    -0.000 C 
BRANCH  15  16
ATOM     16  C   UNL     1      26.352 -11.745  19.595  1.00  0.00    -0.000 C 
BRANCH  16  17
ATOM     17  C   UNL     1      26.248 -12.609  18.328  1.00  0.00    -0.003 C 
ATOM     18  C   UNL     1      27.352 -13.661  18.239  1.00  0.00     0.004 C 
ENDBRANCH  16  17
ENDBRANCH  15  16
ENDBRANCH  14  15
ENDBRANCH  13  14
ENDBRANCH  12  13
ENDBRANCH  11  12
ENDBRANCH   1  11
TORSDOF 14
ENDMDL
