MODEL 1
REMARK VINA RESULT:    -4.771      0.000      0.000
REMARK INTER + INTRA:         -15.088
REMARK INTER:                 -10.907
REMARK INTRA:                  -4.181
REMARK UNBOUND:                -4.181
REMARK SMILES CCCCCCCCCCCCCCCCCCCCCCCC(=O)[O-]
REMARK SMILES IDX 13 1 14 2 15 3 16 4 17 5 18 6 19 7 20 8 21 9 22 10 23 11
REMARK SMILES IDX 24 12 25 13 26 14 12 15 11 16 10 17 9 18 8 19 7 20 6 21 5 22
REMARK SMILES IDX 4 23 3 24 2 25 1 26
REMARK H PARENT
REMARK Flexibility Score: inf
ROOT
ATOM      1  C   UNL     1      45.294  44.466  39.230  1.00  0.00     0.000 C 
ENDROOT
BRANCH   1   2
ATOM      2  C   UNL     1      45.568  43.627  37.973  1.00  0.00     0.000 C 
BRANCH   2   3
ATOM      3  C   UNL     1      47.051  43.248  37.824  1.00  0.00     0.000 C 
BRANCH   3   4
ATOM      4  C   UNL     1      47.274  42.117  36.805  1.00  0.00     0.000 C 
BRANCH   4   5
ATOM      5  C   UNL     1      46.058  41.909  35.887  1.00  0.00     0.000 C 
BRANCH   5   6
ATOM      6  C   UNL     1      46.027  40.512  35.249  1.00  0.00     0.000 C 
BRANCH   6   7
ATOM      7  C   UNL     1      45.350  39.501  36.187  1.00  0.00     0.000 C 
BRANCH   7   8
ATOM      8  C   UNL     1      44.012  40.012  36.751  1.00  0.00     0.000 C 
BRANCH   8   9
ATOM      9  C   UNL     1      43.874  39.926  38.285  1.00  0.00     0.000 C 
BRANCH   9  10
ATOM     10  C   UNL     1      45.199  40.014  39.065  1.00  0.00     0.006 C 
BRANCH  10  11
ATOM     11  C   UNL     1      45.448  38.791  39.955  1.00  0.00     0.053 C 
BRANCH  11  12
ATOM     12  C   UNL     1      46.197  37.737  39.201  1.00  0.00     0.041 C 
ATOM     13  O   UNL     1      47.414  37.902  38.915  1.00  0.00    -0.550 OA
ATOM     14  O   UNL     1      45.557  36.561  38.829  1.00  0.00    -0.550 OA
ENDBRANCH  11  12
ENDBRANCH  10  11
ENDBRANCH   9  10
ENDBRANCH   8   9
ENDBRANCH   7   8
ENDBRANCH   6   7
ENDBRANCH   5   6
ENDBRANCH   4   5
ENDBRANCH   3   4
ENDBRANCH   2   3
ENDBRANCH   1   2
BRANCH   1  15
ATOM     15  C   UNL     1      46.426  45.477  39.472  1.00  0.00     0.000 C 
BRANCH  15  16
ATOM     16  C   UNL     1      45.900  46.875  39.833  1.00  0.00     0.000 C 
BRANCH  16  17
ATOM     17  C   UNL     1      44.492  47.141  39.271  1.00  0.00     0.000 C 
BRANCH  17  18
ATOM     18  C   UNL     1      44.413  48.438  38.445  1.00  0.00    -0.000 C 
BRANCH  18  19
ATOM     19  C   UNL     1      45.760  49.156  38.240  1.00  0.00    -0.000 C 
BRANCH  19  20
ATOM     20  C   UNL     1      45.879  49.819  36.856  1.00  0.00    -0.000 C 
BRANCH  20  21
ATOM     21  C   UNL     1      46.753  48.997  35.883  1.00  0.00    -0.000 C 
BRANCH  21  22
ATOM     22  C   UNL     1      47.569  47.888  36.573  1.00  0.00    -0.000 C 
BRANCH  22  23
ATOM     23  C   UNL     1      47.244  46.459  36.099  1.00  0.00    -0.000 C 
BRANCH  23  24
ATOM     24  C   UNL     1      45.846  46.278  35.473  1.00  0.00    -0.000 C 
BRANCH  24  25
ATOM     25  C   UNL     1      45.782  45.286  34.297  1.00  0.00    -0.003 C 
ATOM     26  C   UNL     1      47.161  44.818  33.837  1.00  0.00     0.004 C 
ENDBRANCH  24  25
ENDBRANCH  23  24
ENDBRANCH  22  23
ENDBRANCH  21  22
ENDBRANCH  20  21
ENDBRANCH  19  20
ENDBRANCH  18  19
ENDBRANCH  17  18
ENDBRANCH  16  17
ENDBRANCH  15  16
ENDBRANCH   1  15
TORSDOF 22
ENDMDL
MODEL 2
REMARK VINA RESULT:    -4.758     15.072     17.418
REMARK INTER + INTRA:         -15.058
REMARK INTER:                 -11.379
REMARK INTRA:                  -3.679
REMARK UNBOUND:                -4.181
REMARK SMILES CCCCCCCCCCCCCCCCCCCCCCCC(=O)[O-]
REMARK SMILES IDX 13 1 14 2 15 3 16 4 17 5 18 6 19 7 20 8 21 9 22 10 23 11
REMARK SMILES IDX 24 12 25 13 26 14 12 15 11 16 10 17 9 18 8 19 7 20 6 21 5 22
REMARK SMILES IDX 4 23 3 24 2 25 1 26
REMARK H PARENT
REMARK Flexibility Score: inf
ROOT
ATOM      1  C   UNL     1      30.057  43.031  46.343  1.00  0.00     0.000 C 
ENDROOT
BRANCH   1   2
ATOM      2  C   UNL     1      30.051  44.037  47.504  1.00  0.00     0.000 C 
BRANCH   2   3
ATOM      3  C   UNL     1      30.123  43.355  48.881  1.00  0.00     0.000 C 
BRANCH   3   4
ATOM      4  C   UNL     1      31.454  43.621  49.604  1.00  0.00     0.000 C 
BRANCH   4   5
ATOM      5  C   UNL     1      32.563  42.651  49.163  1.00  0.00     0.000 C 
BRANCH   5   6
ATOM      6  C   UNL     1      33.953  43.306  49.146  1.00  0.00     0.000 C 
BRANCH   6   7
ATOM      7  C   UNL     1      33.833  44.835  49.215  1.00  0.00     0.000 C 
BRANCH   7   8
ATOM      8  C   UNL     1      35.103  45.511  49.762  1.00  0.00     0.000 C 
BRANCH   8   9
ATOM      9  C   UNL     1      35.844  44.717  50.857  1.00  0.00     0.000 C 
BRANCH   9  10
ATOM     10  C   UNL     1      35.327  44.942  52.290  1.00  0.00     0.006 C 
BRANCH  10  11
ATOM     11  C   UNL     1      34.512  43.758  52.822  1.00  0.00     0.053 C 
BRANCH  11  12
ATOM     12  C   UNL     1      33.051  44.087  52.828  1.00  0.00     0.041 C 
ATOM     13  O   UNL     1      32.665  45.271  52.636  1.00  0.00    -0.550 OA
ATOM     14  O   UNL     1      32.114  43.081  53.028  1.00  0.00    -0.550 OA
ENDBRANCH  11  12
ENDBRANCH  10  11
ENDBRANCH   9  10
ENDBRANCH   8   9
ENDBRANCH   7   8
ENDBRANCH   6   7
ENDBRANCH   5   6
ENDBRANCH   4   5
ENDBRANCH   3   4
ENDBRANCH   2   3
ENDBRANCH   1   2
BRANCH   1  15
ATOM     15  C   UNL     1      31.434  42.985  45.664  1.00  0.00     0.000 C 
BRANCH  15  16
ATOM     16  C   UNL     1      32.015  44.386  45.414  1.00  0.00     0.000 C 
BRANCH  16  17
ATOM     17  C   UNL     1      32.666  44.518  44.026  1.00  0.00     0.000 C 
BRANCH  17  18
ATOM     18  C   UNL     1      34.171  44.836  44.100  1.00  0.00    -0.000 C 
BRANCH  18  19
ATOM     19  C   UNL     1      34.772  44.793  45.517  1.00  0.00    -0.000 C 
BRANCH  19  20
ATOM     20  C   UNL     1      35.403  43.431  45.858  1.00  0.00    -0.000 C 
BRANCH  20  21
ATOM     21  C   UNL     1      36.619  43.565  46.801  1.00  0.00    -0.000 C 
BRANCH  21  22
ATOM     22  C   UNL     1      37.040  42.236  47.457  1.00  0.00    -0.000 C 
BRANCH  22  23
ATOM     23  C   UNL     1      37.656  42.377  48.862  1.00  0.00    -0.000 C 
BRANCH  23  24
ATOM     24  C   UNL     1      38.650  41.265  49.255  1.00  0.00    -0.000 C 
BRANCH  24  25
ATOM     25  C   UNL     1      39.193  41.356  50.693  1.00  0.00    -0.003 C 
ATOM     26  C   UNL     1      39.097  42.764  51.278  1.00  0.00     0.004 C 
ENDBRANCH  24  25
ENDBRANCH  23  24
ENDBRANCH  22  23
ENDBRANCH  21  22
ENDBRANCH  20  21
ENDBRANCH  19  20
ENDBRANCH  18  19
ENDBRANCH  17  18
ENDBRANCH  16  17
ENDBRANCH  15  16
ENDBRANCH   1  15
TORSDOF 22
ENDMDL
MODEL 3
REMARK VINA RESULT:    -4.661      1.935      4.125
REMARK INTER + INTRA:         -14.837
REMARK INTER:                 -10.474
REMARK INTRA:                  -4.363
REMARK UNBOUND:                -4.181
REMARK SMILES CCCCCCCCCCCCCCCCCCCCCCCC(=O)[O-]
REMARK SMILES IDX 13 1 14 2 15 3 16 4 17 5 18 6 19 7 20 8 21 9 22 10 23 11
REMARK SMILES IDX 24 12 25 13 26 14 12 15 11 16 10 17 9 18 8 19 7 20 6 21 5 22
REMARK SMILES IDX 4 23 3 24 2 25 1 26
REMARK H PARENT
REMARK Flexibility Score: inf
ROOT
ATOM      1  C   UNL     1      45.976  45.070  35.366  1.00  0.00     0.000 C 
ENDROOT
BRANCH   1   2
ATOM      2  C   UNL     1      46.610  43.802  34.774  1.00  0.00     0.000 C 
BRANCH   2   3
ATOM      3  C   UNL     1      46.447  42.575  35.687  1.00  0.00     0.000 C 
BRANCH   3   4
ATOM      4  C   UNL     1      46.058  42.955  37.126  1.00  0.00     0.000 C 
BRANCH   4   5
ATOM      5  C   UNL     1      47.132  42.548  38.149  1.00  0.00     0.000 C 
BRANCH   5   6
ATOM      6  C   UNL     1      48.456  42.135  37.487  1.00  0.00     0.000 C 
BRANCH   6   7
ATOM      7  C   UNL     1      49.097  40.959  38.240  1.00  0.00     0.000 C 
BRANCH   7   8
ATOM      8  C   UNL     1      48.103  39.820  38.526  1.00  0.00     0.000 C 
BRANCH   8   9
ATOM      9  C   UNL     1      47.462  39.182  37.276  1.00  0.00     0.000 C 
BRANCH   9  10
ATOM     10  C   UNL     1      46.026  38.664  37.470  1.00  0.00     0.006 C 
BRANCH  10  11
ATOM     11  C   UNL     1      45.298  39.347  38.634  1.00  0.00     0.053 C 
BRANCH  11  12
ATOM     12  C   UNL     1      44.113  40.114  38.135  1.00  0.00     0.041 C 
ATOM     13  O   UNL     1      43.464  40.861  38.915  1.00  0.00    -0.550 OA
ATOM     14  O   UNL     1      43.736  40.019  36.801  1.00  0.00    -0.550 OA
ENDBRANCH  11  12
ENDBRANCH  10  11
ENDBRANCH   9  10
ENDBRANCH   8   9
ENDBRANCH   7   8
ENDBRANCH   6   7
ENDBRANCH   5   6
ENDBRANCH   4   5
ENDBRANCH   3   4
ENDBRANCH   2   3
ENDBRANCH   1   2
BRANCH   1  15
ATOM     15  C   UNL     1      47.018  46.190  35.507  1.00  0.00     0.000 C 
BRANCH  15  16
ATOM     16  C   UNL     1      48.390  45.665  35.958  1.00  0.00     0.000 C 
BRANCH  16  17
ATOM     17  C   UNL     1      49.006  46.511  37.087  1.00  0.00     0.000 C 
BRANCH  17  18
ATOM     18  C   UNL     1      48.762  45.913  38.484  1.00  0.00    -0.000 C 
BRANCH  18  19
ATOM     19  C   UNL     1      47.684  46.632  39.315  1.00  0.00    -0.000 C 
BRANCH  19  20
ATOM     20  C   UNL     1      46.484  45.727  39.650  1.00  0.00    -0.000 C 
BRANCH  20  21
ATOM     21  C   UNL     1      45.211  46.126  38.872  1.00  0.00    -0.000 C 
BRANCH  21  22
ATOM     22  C   UNL     1      44.411  47.260  39.540  1.00  0.00    -0.000 C 
BRANCH  22  23
ATOM     23  C   UNL     1      43.919  48.356  38.575  1.00  0.00    -0.000 C 
BRANCH  23  24
ATOM     24  C   UNL     1      44.902  48.723  37.444  1.00  0.00    -0.000 C 
BRANCH  24  25
ATOM     25  C   UNL     1      45.656  50.050  37.642  1.00  0.00    -0.003 C 
ATOM     26  C   UNL     1      47.173  49.874  37.677  1.00  0.00     0.004 C 
ENDBRANCH  24  25
ENDBRANCH  23  24
ENDBRANCH  22  23
ENDBRANCH  21  22
ENDBRANCH  20  21
ENDBRANCH  19  20
ENDBRANCH  18  19
ENDBRANCH  17  18
ENDBRANCH  16  17
ENDBRANCH  15  16
ENDBRANCH   1  15
TORSDOF 22
ENDMDL
MODEL 4
REMARK VINA RESULT:    -4.643      1.825      2.482
REMARK INTER + INTRA:         -14.796
REMARK INTER:                 -10.618
REMARK INTRA:                  -4.178
REMARK UNBOUND:                -4.181
REMARK SMILES CCCCCCCCCCCCCCCCCCCCCCCC(=O)[O-]
REMARK SMILES IDX 13 1 14 2 15 3 16 4 17 5 18 6 19 7 20 8 21 9 22 10 23 11
REMARK SMILES IDX 24 12 25 13 26 14 12 15 11 16 10 17 9 18 8 19 7 20 6 21 5 22
REMARK SMILES IDX 4 23 3 24 2 25 1 26
REMARK H PARENT
REMARK Flexibility Score: inf
ROOT
ATOM      1  C   UNL     1      46.136  43.347  38.382  1.00  0.00     0.000 C 
ENDROOT
BRANCH   1   2
ATOM      2  C   UNL     1      47.637  43.520  38.105  1.00  0.00     0.000 C 
BRANCH   2   3
ATOM      3  C   UNL     1      48.459  42.281  38.497  1.00  0.00     0.000 C 
BRANCH   3   4
ATOM      4  C   UNL     1      49.362  41.784  37.354  1.00  0.00     0.000 C 
BRANCH   4   5
ATOM      5  C   UNL     1      48.940  42.349  35.988  1.00  0.00     0.000 C 
BRANCH   5   6
ATOM      6  C   UNL     1      48.303  41.288  35.077  1.00  0.00     0.000 C 
BRANCH   6   7
ATOM      7  C   UNL     1      46.780  41.248  35.272  1.00  0.00     0.000 C 
BRANCH   7   8
ATOM      8  C   UNL     1      46.263  39.850  35.657  1.00  0.00     0.000 C 
BRANCH   8   9
ATOM      9  C   UNL     1      46.403  39.490  37.150  1.00  0.00     0.000 C 
BRANCH   9  10
ATOM     10  C   UNL     1      45.075  39.368  37.920  1.00  0.00     0.006 C 
BRANCH  10  11
ATOM     11  C   UNL     1      43.879  39.922  37.137  1.00  0.00     0.053 C 
BRANCH  11  12
ATOM     12  C   UNL     1      42.878  40.532  38.067  1.00  0.00     0.041 C 
ATOM     13  O   UNL     1      43.258  41.289  39.001  1.00  0.00    -0.550 OA
ATOM     14  O   UNL     1      41.523  40.279  37.894  1.00  0.00    -0.550 OA
ENDBRANCH  11  12
ENDBRANCH  10  11
ENDBRANCH   9  10
ENDBRANCH   8   9
ENDBRANCH   7   8
ENDBRANCH   6   7
ENDBRANCH   5   6
ENDBRANCH   4   5
ENDBRANCH   3   4
ENDBRANCH   2   3
ENDBRANCH   1   2
BRANCH   1  15
ATOM     15  C   UNL     1      45.532  44.637  38.959  1.00  0.00     0.000 C 
BRANCH  15  16
ATOM     16  C   UNL     1      46.605  45.665  39.352  1.00  0.00     0.000 C 
BRANCH  16  17
ATOM     17  C   UNL     1      46.006  47.035  39.718  1.00  0.00     0.000 C 
BRANCH  17  18
ATOM     18  C   UNL     1      44.502  47.132  39.405  1.00  0.00    -0.000 C 
BRANCH  18  19
ATOM     19  C   UNL     1      44.109  48.295  38.476  1.00  0.00    -0.000 C 
BRANCH  19  20
ATOM     20  C   UNL     1      45.327  49.057  37.923  1.00  0.00    -0.000 C 
BRANCH  20  21
ATOM     21  C   UNL     1      45.660  48.658  36.469  1.00  0.00    -0.000 C 
BRANCH  21  22
ATOM     22  C   UNL     1      47.088  48.106  36.293  1.00  0.00    -0.000 C 
BRANCH  22  23
ATOM     23  C   UNL     1      47.161  46.603  35.961  1.00  0.00    -0.000 C 
BRANCH  23  24
ATOM     24  C   UNL     1      45.842  45.979  35.458  1.00  0.00    -0.000 C 
BRANCH  24  25
ATOM     25  C   UNL     1      46.006  44.688  34.635  1.00  0.00    -0.003 C 
ATOM     26  C   UNL     1      47.080  44.802  33.555  1.00  0.00     0.004 C 
ENDBRANCH  24  25
ENDBRANCH  23  24
ENDBRANCH  22  23
ENDBRANCH  21  22
ENDBRANCH  20  21
ENDBRANCH  19  20
ENDBRANCH  18  19
ENDBRANCH  17  18
ENDBRANCH  16  17
ENDBRANCH  15  16
ENDBRANCH   1  15
TORSDOF 22
ENDMDL
MODEL 5
REMARK VINA RESULT:    -4.603      1.985      2.750
REMARK INTER + INTRA:         -14.703
REMARK INTER:                 -11.105
REMARK INTRA:                  -3.597
REMARK UNBOUND:                -4.181
REMARK SMILES CCCCCCCCCCCCCCCCCCCCCCCC(=O)[O-]
REMARK SMILES IDX 13 1 14 2 15 3 16 4 17 5 18 6 19 7 20 8 21 9 22 10 23 11
REMARK SMILES IDX 24 12 25 13 26 14 12 15 11 16 10 17 9 18 8 19 7 20 6 21 5 22
REMARK SMILES IDX 4 23 3 24 2 25 1 26
REMARK H PARENT
REMARK Flexibility Score: inf
ROOT
ATOM      1  C   UNL     1      45.827  44.723  38.872  1.00  0.00     0.000 C 
ENDROOT
BRANCH   1   2
ATOM      2  C   UNL     1      46.708  43.725  38.106  1.00  0.00     0.000 C 
BRANCH   2   3
ATOM      3  C   UNL     1      48.210  44.004  38.280  1.00  0.00     0.000 C 
BRANCH   3   4
ATOM      4  C   UNL     1      49.093  42.976  37.551  1.00  0.00     0.000 C 
BRANCH   4   5
ATOM      5  C   UNL     1      49.850  42.060  38.527  1.00  0.00     0.000 C 
BRANCH   5   6
ATOM      6  C   UNL     1      48.959  40.958  39.121  1.00  0.00     0.000 C 
BRANCH   6   7
ATOM      7  C   UNL     1      48.237  40.184  38.008  1.00  0.00     0.000 C 
BRANCH   7   8
ATOM      8  C   UNL     1      47.561  38.898  38.516  1.00  0.00     0.000 C 
BRANCH   8   9
ATOM      9  C   UNL     1      46.019  38.937  38.539  1.00  0.00     0.000 C 
BRANCH   9  10
ATOM     10  C   UNL     1      45.405  40.310  38.867  1.00  0.00     0.006 C 
BRANCH  10  11
ATOM     11  C   UNL     1      44.440  40.806  37.784  1.00  0.00     0.053 C 
BRANCH  11  12
ATOM     12  C   UNL     1      43.024  40.714  38.260  1.00  0.00     0.041 C 
ATOM     13  O   UNL     1      42.133  40.226  37.514  1.00  0.00    -0.550 OA
ATOM     14  O   UNL     1      42.690  41.152  39.535  1.00  0.00    -0.550 OA
ENDBRANCH  11  12
ENDBRANCH  10  11
ENDBRANCH   9  10
ENDBRANCH   8   9
ENDBRANCH   7   8
ENDBRANCH   6   7
ENDBRANCH   5   6
ENDBRANCH   4   5
ENDBRANCH   3   4
ENDBRANCH   2   3
ENDBRANCH   1   2
BRANCH   1  15
ATOM     15  C   UNL     1      46.688  45.735  39.644  1.00  0.00     0.000 C 
BRANCH  15  16
ATOM     16  C   UNL     1      46.071  47.143  39.658  1.00  0.00     0.000 C 
BRANCH  16  17
ATOM     17  C   UNL     1      44.580  47.140  39.278  1.00  0.00     0.000 C 
BRANCH  17  18
ATOM     18  C   UNL     1      44.163  48.393  38.487  1.00  0.00    -0.000 C 
BRANCH  18  19
ATOM     19  C   UNL     1      45.331  49.208  37.905  1.00  0.00    -0.000 C 
BRANCH  19  20
ATOM     20  C   UNL     1      45.517  48.992  36.392  1.00  0.00    -0.000 C 
BRANCH  20  21
ATOM     21  C   UNL     1      46.900  48.399  36.047  1.00  0.00    -0.000 C 
BRANCH  21  22
ATOM     22  C   UNL     1      46.932  46.859  36.062  1.00  0.00    -0.000 C 
BRANCH  22  23
ATOM     23  C   UNL     1      45.680  46.182  35.472  1.00  0.00    -0.000 C 
BRANCH  23  24
ATOM     24  C   UNL     1      45.941  45.271  34.255  1.00  0.00    -0.000 C 
BRANCH  24  25
ATOM     25  C   UNL     1      47.023  44.196  34.466  1.00  0.00    -0.003 C 
ATOM     26  C   UNL     1      48.301  44.474  33.678  1.00  0.00     0.004 C 
ENDBRANCH  24  25
ENDBRANCH  23  24
ENDBRANCH  22  23
ENDBRANCH  21  22
ENDBRANCH  20  21
ENDBRANCH  19  20
ENDBRANCH  18  19
ENDBRANCH  17  18
ENDBRANCH  16  17
ENDBRANCH  15  16
ENDBRANCH   1  15
TORSDOF 22
ENDMDL
MODEL 6
REMARK VINA RESULT:    -4.600      1.578      3.456
REMARK INTER + INTRA:         -14.697
REMARK INTER:                 -10.836
REMARK INTRA:                  -3.861
REMARK UNBOUND:                -4.181
REMARK SMILES CCCCCCCCCCCCCCCCCCCCCCCC(=O)[O-]
REMARK SMILES IDX 13 1 14 2 15 3 16 4 17 5 18 6 19 7 20 8 21 9 22 10 23 11
REMARK SMILES IDX 24 12 25 13 26 14 12 15 11 16 10 17 9 18 8 19 7 20 6 21 5 22
REMARK SMILES IDX 4 23 3 24 2 25 1 26
REMARK H PARENT
REMARK Flexibility Score: inf
ROOT
ATOM      1  C   UNL     1      49.314  42.532  38.521  1.00  0.00     0.000 C 
ENDROOT
BRANCH   1   2
ATOM      2  C   UNL     1      48.248  41.427  38.557  1.00  0.00     0.000 C 
BRANCH   2   3
ATOM      3  C   UNL     1      48.385  40.433  37.392  1.00  0.00     0.000 C 
BRANCH   3   4
ATOM      4  C   UNL     1      47.168  40.453  36.450  1.00  0.00     0.000 C 
BRANCH   4   5
ATOM      5  C   UNL     1      46.165  41.560  36.816  1.00  0.00     0.000 C 
BRANCH   5   6
ATOM      6  C   UNL     1      44.779  41.008  37.185  1.00  0.00     0.000 C 
BRANCH   6   7
ATOM      7  C   UNL     1      44.604  40.957  38.710  1.00  0.00     0.000 C 
BRANCH   7   8
ATOM      8  C   UNL     1      43.873  39.689  39.186  1.00  0.00     0.000 C 
BRANCH   8   9
ATOM      9  C   UNL     1      44.736  38.706  40.004  1.00  0.00     0.000 C 
BRANCH   9  10
ATOM     10  C   UNL     1      45.998  38.193  39.287  1.00  0.00     0.006 C 
BRANCH  10  11
ATOM     11  C   UNL     1      45.805  36.807  38.661  1.00  0.00     0.053 C 
BRANCH  11  12
ATOM     12  C   UNL     1      46.032  36.861  37.183  1.00  0.00     0.041 C 
ATOM     13  O   UNL     1      47.035  36.293  36.672  1.00  0.00    -0.550 OA
ATOM     14  O   UNL     1      45.126  37.525  36.365  1.00  0.00    -0.550 OA
ENDBRANCH  11  12
ENDBRANCH  10  11
ENDBRANCH   9  10
ENDBRANCH   8   9
ENDBRANCH   7   8
ENDBRANCH   6   7
ENDBRANCH   5   6
ENDBRANCH   4   5
ENDBRANCH   3   4
ENDBRANCH   2   3
ENDBRANCH   1   2
BRANCH   1  15
ATOM     15  C   UNL     1      48.700  43.873  38.089  1.00  0.00     0.000 C 
BRANCH  15  16
ATOM     16  C   UNL     1      48.905  44.160  36.593  1.00  0.00     0.000 C 
BRANCH  16  17
ATOM     17  C   UNL     1      48.287  45.501  36.158  1.00  0.00     0.000 C 
BRANCH  17  18
ATOM     18  C   UNL     1      46.908  45.335  35.493  1.00  0.00    -0.000 C 
BRANCH  18  19
ATOM     19  C   UNL     1      45.878  46.418  35.862  1.00  0.00    -0.000 C 
BRANCH  19  20
ATOM     20  C   UNL     1      46.506  47.816  36.009  1.00  0.00    -0.000 C 
BRANCH  20  21
ATOM     21  C   UNL     1      45.642  48.762  36.872  1.00  0.00    -0.000 C 
BRANCH  21  22
ATOM     22  C   UNL     1      45.461  48.279  38.323  1.00  0.00    -0.000 C 
BRANCH  22  23
ATOM     23  C   UNL     1      46.765  47.873  39.035  1.00  0.00    -0.000 C 
BRANCH  23  24
ATOM     24  C   UNL     1      46.707  46.531  39.794  1.00  0.00    -0.000 C 
BRANCH  24  25
ATOM     25  C   UNL     1      45.317  45.871  39.842  1.00  0.00    -0.003 C 
ATOM     26  C   UNL     1      45.245  44.574  39.038  1.00  0.00     0.004 C 
ENDBRANCH  24  25
ENDBRANCH  23  24
ENDBRANCH  22  23
ENDBRANCH  21  22
ENDBRANCH  20  21
ENDBRANCH  19  20
ENDBRANCH  18  19
ENDBRANCH  17  18
ENDBRANCH  16  17
ENDBRANCH  15  16
ENDBRANCH   1  15
TORSDOF 22
ENDMDL
MODEL 7
REMARK VINA RESULT:    -4.588      3.421      8.069
REMARK INTER + INTRA:         -14.669
REMARK INTER:                 -10.661
REMARK INTRA:                  -4.009
REMARK UNBOUND:                -4.181
REMARK SMILES CCCCCCCCCCCCCCCCCCCCCCCC(=O)[O-]
REMARK SMILES IDX 13 1 14 2 15 3 16 4 17 5 18 6 19 7 20 8 21 9 22 10 23 11
REMARK SMILES IDX 24 12 25 13 26 14 12 15 11 16 10 17 9 18 8 19 7 20 6 21 5 22
REMARK SMILES IDX 4 23 3 24 2 25 1 26
REMARK H PARENT
REMARK Flexibility Score: inf
ROOT
ATOM      1  C   UNL     1      48.286  39.574  37.645  1.00  0.00     0.000 C 
ENDROOT
BRANCH   1   2
ATOM      2  C   UNL     1      48.222  40.686  38.702  1.00  0.00     0.000 C 
BRANCH   2   3
ATOM      3  C   UNL     1      49.582  41.367  38.930  1.00  0.00     0.000 C 
BRANCH   3   4
ATOM      4  C   UNL     1      49.587  42.842  38.490  1.00  0.00     0.000 C 
BRANCH   4   5
ATOM      5  C   UNL     1      49.877  43.004  36.989  1.00  0.00     0.000 C 
BRANCH   5   6
ATOM      6  C   UNL     1      49.024  44.102  36.334  1.00  0.00     0.000 C 
BRANCH   6   7
ATOM      7  C   UNL     1      47.837  43.489  35.577  1.00  0.00     0.000 C 
BRANCH   7   8
ATOM      8  C   UNL     1      46.475  43.911  36.157  1.00  0.00     0.000 C 
BRANCH   8   9
ATOM      9  C   UNL     1      46.151  43.332  37.549  1.00  0.00     0.000 C 
BRANCH   9  10
ATOM     10  C   UNL     1      45.666  44.360  38.587  1.00  0.00     0.006 C 
BRANCH  10  11
ATOM     11  C   UNL     1      46.781  45.300  39.060  1.00  0.00     0.053 C 
BRANCH  11  12
ATOM     12  C   UNL     1      46.211  46.435  39.852  1.00  0.00     0.041 C 
ATOM     13  O   UNL     1      46.191  46.385  41.111  1.00  0.00    -0.550 OA
ATOM     14  O   UNL     1      45.718  47.559  39.200  1.00  0.00    -0.550 OA
ENDBRANCH  11  12
ENDBRANCH  10  11
ENDBRANCH   9  10
ENDBRANCH   8   9
ENDBRANCH   7   8
ENDBRANCH   6   7
ENDBRANCH   5   6
ENDBRANCH   4   5
ENDBRANCH   3   4
ENDBRANCH   2   3
ENDBRANCH   1   2
BRANCH   1  15
ATOM     15  C   UNL     1      47.597  40.013  36.344  1.00  0.00     0.000 C 
BRANCH  15  16
ATOM     16  C   UNL     1      46.774  38.884  35.704  1.00  0.00     0.000 C 
BRANCH  16  17
ATOM     17  C   UNL     1      47.547  37.555  35.631  1.00  0.00     0.000 C 
BRANCH  17  18
ATOM     18  C   UNL     1      46.926  36.454  36.510  1.00  0.00    -0.000 C 
BRANCH  18  19
ATOM     19  C   UNL     1      45.626  36.858  37.230  1.00  0.00    -0.000 C 
BRANCH  19  20
ATOM     20  C   UNL     1      45.717  36.706  38.759  1.00  0.00    -0.000 C 
BRANCH  20  21
ATOM     21  C   UNL     1      45.835  38.066  39.481  1.00  0.00    -0.000 C 
BRANCH  21  22
ATOM     22  C   UNL     1      44.550  38.486  40.220  1.00  0.00    -0.000 C 
BRANCH  22  23
ATOM     23  C   UNL     1      43.826  39.702  39.613  1.00  0.00    -0.000 C 
BRANCH  23  24
ATOM     24  C   UNL     1      44.423  40.228  38.292  1.00  0.00    -0.000 C 
BRANCH  24  25
ATOM     25  C   UNL     1      43.510  40.083  37.061  1.00  0.00    -0.003 C 
ATOM     26  C   UNL     1      42.025  40.132  37.412  1.00  0.00     0.004 C 
ENDBRANCH  24  25
ENDBRANCH  23  24
ENDBRANCH  22  23
ENDBRANCH  21  22
ENDBRANCH  20  21
ENDBRANCH  19  20
ENDBRANCH  18  19
ENDBRANCH  17  18
ENDBRANCH  16  17
ENDBRANCH  15  16
ENDBRANCH   1  15
TORSDOF 22
ENDMDL
MODEL 8
REMARK VINA RESULT:    -4.557      3.049      7.467
REMARK INTER + INTRA:         -14.599
REMARK INTER:                 -10.599
REMARK INTRA:                  -4.000
REMARK UNBOUND:                -4.181
REMARK SMILES CCCCCCCCCCCCCCCCCCCCCCCC(=O)[O-]
REMARK SMILES IDX 13 1 14 2 15 3 16 4 17 5 18 6 19 7 20 8 21 9 22 10 23 11
REMARK SMILES IDX 24 12 25 13 26 14 12 15 11 16 10 17 9 18 8 19 7 20 6 21 5 22
REMARK SMILES IDX 4 23 3 24 2 25 1 26
REMARK H PARENT
REMARK Flexibility Score: inf
ROOT
ATOM      1  C   UNL     1      49.494  42.586  37.959  1.00  0.00     0.000 C 
ENDROOT
BRANCH   1   2
ATOM      2  C   UNL     1      49.843  43.349  36.673  1.00  0.00     0.000 C 
BRANCH   2   3
ATOM      3  C   UNL     1      48.630  44.069  36.062  1.00  0.00     0.000 C 
BRANCH   3   4
ATOM      4  C   UNL     1      47.929  43.233  34.977  1.00  0.00     0.000 C 
BRANCH   4   5
ATOM      5  C   UNL     1      46.449  43.615  34.810  1.00  0.00     0.000 C 
BRANCH   5   6
ATOM      6  C   UNL     1      46.256  44.894  33.980  1.00  0.00     0.000 C 
BRANCH   6   7
ATOM      7  C   UNL     1      45.412  45.919  34.751  1.00  0.00     0.000 C 
BRANCH   7   8
ATOM      8  C   UNL     1      46.235  46.726  35.771  1.00  0.00     0.000 C 
BRANCH   8   9
ATOM      9  C   UNL     1      45.626  46.805  37.186  1.00  0.00     0.000 C 
BRANCH   9  10
ATOM     10  C   UNL     1      45.660  45.489  37.986  1.00  0.00     0.006 C 
BRANCH  10  11
ATOM     11  C   UNL     1      46.841  45.417  38.961  1.00  0.00     0.053 C 
BRANCH  11  12
ATOM     12  C   UNL     1      46.656  46.390  40.083  1.00  0.00     0.041 C 
ATOM     13  O   UNL     1      47.427  47.381  40.199  1.00  0.00    -0.550 OA
ATOM     14  O   UNL     1      45.620  46.215  40.992  1.00  0.00    -0.550 OA
ENDBRANCH  11  12
ENDBRANCH  10  11
ENDBRANCH   9  10
ENDBRANCH   8   9
ENDBRANCH   7   8
ENDBRANCH   6   7
ENDBRANCH   5   6
ENDBRANCH   4   5
ENDBRANCH   3   4
ENDBRANCH   2   3
ENDBRANCH   1   2
BRANCH   1  15
ATOM     15  C   UNL     1      49.316  41.086  37.676  1.00  0.00     0.000 C 
BRANCH  15  16
ATOM     16  C   UNL     1      47.849  40.638  37.774  1.00  0.00     0.000 C 
BRANCH  16  17
ATOM     17  C   UNL     1      46.964  41.665  38.503  1.00  0.00     0.000 C 
BRANCH  17  18
ATOM     18  C   UNL     1      45.587  41.844  37.839  1.00  0.00    -0.000 C 
BRANCH  18  19
ATOM     19  C   UNL     1      45.083  40.620  37.054  1.00  0.00    -0.000 C 
BRANCH  19  20
ATOM     20  C   UNL     1      43.896  39.918  37.738  1.00  0.00    -0.000 C 
BRANCH  20  21
ATOM     21  C   UNL     1      43.990  39.969  39.279  1.00  0.00    -0.000 C 
BRANCH  21  22
ATOM     22  C   UNL     1      44.392  38.626  39.917  1.00  0.00    -0.000 C 
BRANCH  22  23
ATOM     23  C   UNL     1      45.797  38.124  39.531  1.00  0.00    -0.000 C 
BRANCH  23  24
ATOM     24  C   UNL     1      45.829  36.759  38.812  1.00  0.00    -0.000 C 
BRANCH  24  25
ATOM     25  C   UNL     1      46.806  36.673  37.625  1.00  0.00    -0.003 C 
ATOM     26  C   UNL     1      46.218  37.225  36.328  1.00  0.00     0.004 C 
ENDBRANCH  24  25
ENDBRANCH  23  24
ENDBRANCH  22  23
ENDBRANCH  21  22
ENDBRANCH  20  21
ENDBRANCH  19  20
ENDBRANCH  18  19
ENDBRANCH  17  18
ENDBRANCH  16  17
ENDBRANCH  15  16
ENDBRANCH   1  15
TORSDOF 22
ENDMDL
MODEL 9
REMARK VINA RESULT:    -4.528      2.180      4.600
REMARK INTER + INTRA:         -14.533
REMARK INTER:                 -10.553
REMARK INTRA:                  -3.980
REMARK UNBOUND:                -4.181
REMARK SMILES CCCCCCCCCCCCCCCCCCCCCCCC(=O)[O-]
REMARK SMILES IDX 13 1 14 2 15 3 16 4 17 5 18 6 19 7 20 8 21 9 22 10 23 11
REMARK SMILES IDX 24 12 25 13 26 14 12 15 11 16 10 17 9 18 8 19 7 20 6 21 5 22
REMARK SMILES IDX 4 23 3 24 2 25 1 26
REMARK H PARENT
REMARK Flexibility Score: inf
ROOT
ATOM      1  C   UNL     1      48.274  39.887  37.656  1.00  0.00     0.000 C 
ENDROOT
BRANCH   1   2
ATOM      2  C   UNL     1      47.418  40.433  36.503  1.00  0.00     0.000 C 
BRANCH   2   3
ATOM      3  C   UNL     1      46.102  41.063  36.988  1.00  0.00     0.000 C 
BRANCH   3   4
ATOM      4  C   UNL     1      44.864  40.424  36.336  1.00  0.00     0.000 C 
BRANCH   4   5
ATOM      5  C   UNL     1      43.785  40.056  37.368  1.00  0.00     0.000 C 
BRANCH   5   6
ATOM      6  C   UNL     1      44.171  40.456  38.800  1.00  0.00     0.000 C 
BRANCH   6   7
ATOM      7  C   UNL     1      44.203  39.226  39.719  1.00  0.00     0.000 C 
BRANCH   7   8
ATOM      8  C   UNL     1      45.563  38.504  39.706  1.00  0.00     0.000 C 
BRANCH   8   9
ATOM      9  C   UNL     1      45.523  37.046  39.205  1.00  0.00     0.000 C 
BRANCH   9  10
ATOM     10  C   UNL     1      46.463  36.734  38.027  1.00  0.00     0.006 C 
BRANCH  10  11
ATOM     11  C   UNL     1      45.785  36.902  36.662  1.00  0.00     0.053 C 
BRANCH  11  12
ATOM     12  C   UNL     1      46.694  36.448  35.564  1.00  0.00     0.041 C 
ATOM     13  O   UNL     1      47.583  37.220  35.114  1.00  0.00    -0.550 OA
ATOM     14  O   UNL     1      46.573  35.164  35.047  1.00  0.00    -0.550 OA
ENDBRANCH  11  12
ENDBRANCH  10  11
ENDBRANCH   9  10
ENDBRANCH   8   9
ENDBRANCH   7   8
ENDBRANCH   6   7
ENDBRANCH   5   6
ENDBRANCH   4   5
ENDBRANCH   3   4
ENDBRANCH   2   3
ENDBRANCH   1   2
BRANCH   1  15
ATOM     15  C   UNL     1      48.226  40.829  38.868  1.00  0.00     0.000 C 
BRANCH  15  16
ATOM     16  C   UNL     1      49.623  41.306  39.299  1.00  0.00     0.000 C 
BRANCH  16  17
ATOM     17  C   UNL     1      50.074  42.572  38.547  1.00  0.00     0.000 C 
BRANCH  17  18
ATOM     18  C   UNL     1      48.897  43.480  38.146  1.00  0.00    -0.000 C 
BRANCH  18  19
ATOM     19  C   UNL     1      49.028  44.134  36.759  1.00  0.00    -0.000 C 
BRANCH  19  20
ATOM     20  C   UNL     1      47.675  44.298  36.044  1.00  0.00    -0.000 C 
BRANCH  20  21
ATOM     21  C   UNL     1      47.228  45.774  35.961  1.00  0.00    -0.000 C 
BRANCH  21  22
ATOM     22  C   UNL     1      45.740  45.987  36.296  1.00  0.00    -0.000 C 
BRANCH  22  23
ATOM     23  C   UNL     1      45.476  46.693  37.640  1.00  0.00    -0.000 C 
BRANCH  23  24
ATOM     24  C   UNL     1      45.307  45.753  38.851  1.00  0.00    -0.000 C 
BRANCH  24  25
ATOM     25  C   UNL     1      46.279  46.011  40.017  1.00  0.00    -0.003 C 
ATOM     26  C   UNL     1      47.567  46.703  39.576  1.00  0.00     0.004 C 
ENDBRANCH  24  25
ENDBRANCH  23  24
ENDBRANCH  22  23
ENDBRANCH  21  22
ENDBRANCH  20  21
ENDBRANCH  19  20
ENDBRANCH  18  19
ENDBRANCH  17  18
ENDBRANCH  16  17
ENDBRANCH  15  16
ENDBRANCH   1  15
TORSDOF 22
ENDMDL
