MODEL 1
REMARK VINA RESULT:    -8.121      0.000      0.000
REMARK INTER + INTRA:          -8.998
REMARK INTER:                  -8.833
REMARK INTRA:                  -0.164
REMARK UNBOUND:                -0.164
REMARK SMILES C[C@@H]1[C@H](C)CC[C@]2(C(=O)[O-])CC[C@@]3(C)C(=CC[C@@H]4[C@]5(C)CC[C@H](O)C(C)(C)[C@@H]5CC[C@@]43C)[C@H]12
REMARK SMILES IDX 7 1 6 2 11 3 33 4 5 5 12 6 15 7 2 8 3 9 13 10 16 11 1 12
REMARK SMILES IDX 4 13 14 14 31 15 17 16 18 17 30 18 32 19 19 20 29 21 28 22
REMARK SMILES IDX 21 23 20 24 25 25 22 26 23 27 26 28 27 29 8 30 9 31 10 32
REMARK SMILES IDX 24 33
REMARK H PARENT 24 34
REMARK Flexibility Score: inf
ROOT
ATOM      1  C   UNL     1     -11.736  -6.150  15.100  1.00  0.00     0.017 C 
ATOM      2  C   UNL     1     -12.133  -6.408  16.608  1.00  0.00     0.014 C 
ATOM      3  C   UNL     1     -11.480  -7.488  14.370  1.00  0.00     0.014 C 
ATOM      4  C   UNL     1     -10.489  -5.170  14.978  1.00  0.00     0.030 C 
ATOM      5  C   UNL     1     -11.017  -6.132  17.624  1.00  0.00     0.004 C 
ATOM      6  C   UNL     1     -10.185  -8.154  14.821  1.00  0.00     0.013 C 
ATOM      7  C   UNL     1      -9.097  -5.854  14.837  1.00  0.00    -0.063 C 
ATOM      8  C   UNL     1     -10.620  -4.093  16.122  1.00  0.00    -0.003 C 
ATOM      9  C   UNL     1     -10.483  -4.686  17.555  1.00  0.00    -0.011 C 
ATOM     10  C   UNL     1      -8.924  -7.331  14.412  1.00  0.00    -0.006 C 
ATOM     11  C   UNL     1      -8.022  -5.060  14.631  1.00  0.00    -0.027 C 
ATOM     12  C   UNL     1      -9.885  -2.755  15.916  1.00  0.00     0.008 C 
ATOM     13  C   UNL     1      -9.058  -4.622  18.135  1.00  0.00     0.008 C 
ATOM     14  C   UNL     1      -8.870  -7.347  12.839  1.00  0.00     0.017 C 
ATOM     15  C   UNL     1      -7.563  -7.962  15.032  1.00  0.00    -0.020 C 
ATOM     16  C   UNL     1      -6.678  -5.595  14.243  1.00  0.00     0.032 C 
ATOM     17  C   UNL     1      -6.341  -6.910  14.988  1.00  0.00     0.006 C 
ATOM     18  C   UNL     1      -7.253  -9.336  14.332  1.00  0.00     0.008 C 
ATOM     19  C   UNL     1      -7.758  -8.308  16.547  1.00  0.00     0.012 C 
ATOM     20  C   UNL     1      -4.825  -7.445  14.745  1.00  0.00    -0.025 C 
ATOM     21  C   UNL     1      -5.942  -9.388  13.577  1.00  0.00     0.005 C 
ATOM     22  C   UNL     1      -4.775  -9.011  14.520  1.00  0.00     0.003 C 
ATOM     23  C   UNL     1      -4.153  -6.739  13.513  1.00  0.00     0.010 C 
ATOM     24  C   UNL     1      -4.019  -7.048  16.021  1.00  0.00     0.012 C 
ATOM     25  C   UNL     1      -3.368  -9.605  14.041  1.00  0.00    -0.006 C 
ATOM     26  C   UNL     1      -2.773  -7.281  13.122  1.00  0.00     0.033 C 
ATOM     27  C   UNL     1      -2.800  -8.790  12.841  1.00  0.00     0.120 C 
ATOM     28  C   UNL     1      -3.494 -11.101  13.610  1.00  0.00     0.014 C 
ATOM     29  C   UNL     1      -2.334  -9.622  15.215  1.00  0.00     0.014 C 
ENDROOT
BRANCH   1  30
ATOM     30  C   UNL     1     -12.969  -5.546  14.421  1.00  0.00     0.048 C 
ATOM     31  O   UNL     1     -14.122  -5.921  14.771  1.00  0.00    -0.550 OA
ATOM     32  O   UNL     1     -12.861  -4.600  13.404  1.00  0.00    -0.550 OA
ENDBRANCH   1  30
BRANCH  27  33
ATOM     33  O   UNL     1      -3.559  -9.026  11.679  1.00  0.00    -0.393 OA
ATOM     34  H   UNL     1      -4.492  -9.204  11.972  1.00  0.00     0.210 HD
ENDBRANCH  27  33
TORSDOF 2
ENDMDL
MODEL 2
REMARK VINA RESULT:    -7.980      2.510      4.169
REMARK INTER + INTRA:          -8.844
REMARK INTER:                  -8.668
REMARK INTRA:                  -0.176
REMARK UNBOUND:                -0.164
REMARK SMILES C[C@@H]1[C@H](C)CC[C@]2(C(=O)[O-])CC[C@@]3(C)C(=CC[C@@H]4[C@]5(C)CC[C@H](O)C(C)(C)[C@@H]5CC[C@@]43C)[C@H]12
REMARK SMILES IDX 7 1 6 2 11 3 33 4 5 5 12 6 15 7 2 8 3 9 13 10 16 11 1 12
REMARK SMILES IDX 4 13 14 14 31 15 17 16 18 17 30 18 32 19 19 20 29 21 28 22
REMARK SMILES IDX 21 23 20 24 25 25 22 26 23 27 26 28 27 29 8 30 9 31 10 32
REMARK SMILES IDX 24 33
REMARK H PARENT 24 34
REMARK Flexibility Score: inf
ROOT
ATOM      1  C   UNL     1      -8.016  -8.319  15.196  1.00  0.00     0.017 C 
ATOM      2  C   UNL     1      -8.132  -8.102  16.757  1.00  0.00     0.014 C 
ATOM      3  C   UNL     1      -7.514  -9.747  14.882  1.00  0.00     0.014 C 
ATOM      4  C   UNL     1      -7.097  -7.214  14.514  1.00  0.00     0.030 C 
ATOM      5  C   UNL     1      -7.005  -7.264  17.376  1.00  0.00     0.004 C 
ATOM      6  C   UNL     1      -6.042  -9.933  15.234  1.00  0.00     0.013 C 
ATOM      7  C   UNL     1      -5.604  -7.606  14.302  1.00  0.00    -0.063 C 
ATOM      8  C   UNL     1      -7.356  -5.853  15.265  1.00  0.00    -0.003 C 
ATOM      9  C   UNL     1      -6.884  -5.860  16.748  1.00  0.00    -0.011 C 
ATOM     10  C   UNL     1      -5.106  -9.070  14.332  1.00  0.00    -0.006 C 
ATOM     11  C   UNL     1      -4.812  -6.736  13.636  1.00  0.00    -0.027 C 
ATOM     12  C   UNL     1      -7.032  -4.554  14.502  1.00  0.00     0.008 C 
ATOM     13  C   UNL     1      -5.463  -5.307  16.965  1.00  0.00     0.008 C 
ATOM     14  C   UNL     1      -5.254  -9.629  12.868  1.00  0.00     0.017 C 
ATOM     15  C   UNL     1      -3.558  -9.150  14.816  1.00  0.00    -0.020 C 
ATOM     16  C   UNL     1      -3.436  -7.089  13.159  1.00  0.00     0.032 C 
ATOM     17  C   UNL     1      -2.672  -7.957  14.188  1.00  0.00     0.006 C 
ATOM     18  C   UNL     1      -2.991 -10.590  14.530  1.00  0.00     0.008 C 
ATOM     19  C   UNL     1      -3.458  -8.971  16.368  1.00  0.00     0.012 C 
ATOM     20  C   UNL     1      -1.114  -8.224  13.810  1.00  0.00    -0.025 C 
ATOM     21  C   UNL     1      -1.823 -10.638  13.569  1.00  0.00     0.005 C 
ATOM     22  C   UNL     1      -0.683  -9.723  14.079  1.00  0.00     0.003 C 
ATOM     23  C   UNL     1      -0.817  -7.878  12.307  1.00  0.00     0.010 C 
ATOM     24  C   UNL     1      -0.282  -7.247  14.698  1.00  0.00     0.012 C 
ATOM     25  C   UNL     1       0.756 -10.150  13.523  1.00  0.00    -0.006 C 
ATOM     26  C   UNL     1       0.595  -8.232  11.822  1.00  0.00     0.033 C 
ATOM     27  C   UNL     1       0.929  -9.715  12.037  1.00  0.00     0.120 C 
ATOM     28  C   UNL     1       0.973 -11.694  13.616  1.00  0.00     0.014 C 
ATOM     29  C   UNL     1       1.901  -9.540  14.398  1.00  0.00     0.014 C 
ENDROOT
BRANCH   1  30
ATOM     30  C   UNL     1      -9.441  -8.258  14.639  1.00  0.00     0.048 C 
ATOM     31  O   UNL     1      -9.624  -8.239  13.390  1.00  0.00    -0.550 OA
ATOM     32  O   UNL     1     -10.556  -8.203  15.472  1.00  0.00    -0.550 OA
ENDBRANCH   1  30
BRANCH  27  33
ATOM     33  O   UNL     1       0.115 -10.495  11.195  1.00  0.00    -0.393 OA
ATOM     34  H   UNL     1      -0.827 -10.230  11.372  1.00  0.00     0.210 HD
ENDBRANCH  27  33
TORSDOF 2
ENDMDL
MODEL 3
REMARK VINA RESULT:    -7.957      4.352      7.675
REMARK INTER + INTRA:          -8.819
REMARK INTER:                  -8.647
REMARK INTRA:                  -0.172
REMARK UNBOUND:                -0.164
REMARK SMILES C[C@@H]1[C@H](C)CC[C@]2(C(=O)[O-])CC[C@@]3(C)C(=CC[C@@H]4[C@]5(C)CC[C@H](O)C(C)(C)[C@@H]5CC[C@@]43C)[C@H]12
REMARK SMILES IDX 7 1 6 2 11 3 33 4 5 5 12 6 15 7 2 8 3 9 13 10 16 11 1 12
REMARK SMILES IDX 4 13 14 14 31 15 17 16 18 17 30 18 32 19 19 20 29 21 28 22
REMARK SMILES IDX 21 23 20 24 25 25 22 26 23 27 26 28 27 29 8 30 9 31 10 32
REMARK SMILES IDX 24 33
REMARK H PARENT 24 34
REMARK Flexibility Score: inf
ROOT
ATOM      1  C   UNL     1      -5.307  -9.490  13.927  1.00  0.00     0.017 C 
ATOM      2  C   UNL     1      -5.482 -10.956  13.363  1.00  0.00     0.014 C 
ATOM      3  C   UNL     1      -4.625  -8.583  12.877  1.00  0.00     0.014 C 
ATOM      4  C   UNL     1      -4.516  -9.480  15.307  1.00  0.00     0.030 C 
ATOM      5  C   UNL     1      -4.482 -11.981  13.913  1.00  0.00     0.004 C 
ATOM      6  C   UNL     1      -3.150  -8.919  12.692  1.00  0.00     0.013 C 
ATOM      7  C   UNL     1      -2.982  -9.225  15.212  1.00  0.00    -0.063 C 
ATOM      8  C   UNL     1      -4.958 -10.759  16.115  1.00  0.00    -0.003 C 
ATOM      9  C   UNL     1      -4.521 -12.098  15.451  1.00  0.00    -0.011 C 
ATOM     10  C   UNL     1      -2.308  -8.603  13.967  1.00  0.00    -0.006 C 
ATOM     11  C   UNL     1      -2.290  -9.110  16.367  1.00  0.00    -0.027 C 
ATOM     12  C   UNL     1      -4.780 -10.723  17.645  1.00  0.00     0.008 C 
ATOM     13  C   UNL     1      -3.185 -12.657  15.971  1.00  0.00     0.008 C 
ATOM     14  C   UNL     1      -2.354  -7.042  14.159  1.00  0.00     0.017 C 
ATOM     15  C   UNL     1      -0.773  -9.111  13.819  1.00  0.00    -0.020 C 
ATOM     16  C   UNL     1      -0.871  -8.632  16.421  1.00  0.00     0.032 C 
ATOM     17  C   UNL     1      -0.028  -9.189  15.248  1.00  0.00     0.006 C 
ATOM     18  C   UNL     1      -0.027  -8.229  12.752  1.00  0.00     0.008 C 
ATOM     19  C   UNL     1      -0.729 -10.569  13.249  1.00  0.00     0.012 C 
ATOM     20  C   UNL     1       1.559  -8.852  15.348  1.00  0.00    -0.025 C 
ATOM     21  C   UNL     1       1.159  -7.452  13.282  1.00  0.00     0.005 C 
ATOM     22  C   UNL     1       2.166  -8.418  13.952  1.00  0.00     0.003 C 
ATOM     23  C   UNL     1       1.844  -7.715  16.393  1.00  0.00     0.010 C 
ATOM     24  C   UNL     1       2.245 -10.156  15.862  1.00  0.00     0.012 C 
ATOM     25  C   UNL     1       3.658  -7.840  13.984  1.00  0.00    -0.006 C 
ATOM     26  C   UNL     1       3.299  -7.232  16.454  1.00  0.00     0.033 C 
ATOM     27  C   UNL     1       3.809  -6.751  15.088  1.00  0.00     0.120 C 
ATOM     28  C   UNL     1       4.062  -7.215  12.611  1.00  0.00     0.014 C 
ATOM     29  C   UNL     1       4.700  -8.985  14.214  1.00  0.00     0.014 C 
ENDROOT
BRANCH   1  30
ATOM     30  C   UNL     1      -6.716  -8.918  14.105  1.00  0.00     0.048 C 
ATOM     31  O   UNL     1      -6.895  -7.670  14.054  1.00  0.00    -0.550 OA
ATOM     32  O   UNL     1      -7.819  -9.735  14.343  1.00  0.00    -0.550 OA
ENDBRANCH   1  30
BRANCH  27  33
ATOM     33  O   UNL     1       3.116  -5.581  14.725  1.00  0.00    -0.393 OA
ATOM     34  H   UNL     1       2.903  -5.096  15.567  1.00  0.00     0.210 HD
ENDBRANCH  27  33
TORSDOF 2
ENDMDL
MODEL 4
REMARK VINA RESULT:    -7.880      2.844      5.042
REMARK INTER + INTRA:          -8.735
REMARK INTER:                  -8.583
REMARK INTRA:                  -0.152
REMARK UNBOUND:                -0.164
REMARK SMILES C[C@@H]1[C@H](C)CC[C@]2(C(=O)[O-])CC[C@@]3(C)C(=CC[C@@H]4[C@]5(C)CC[C@H](O)C(C)(C)[C@@H]5CC[C@@]43C)[C@H]12
REMARK SMILES IDX 7 1 6 2 11 3 33 4 5 5 12 6 15 7 2 8 3 9 13 10 16 11 1 12
REMARK SMILES IDX 4 13 14 14 31 15 17 16 18 17 30 18 32 19 19 20 29 21 28 22
REMARK SMILES IDX 21 23 20 24 25 25 22 26 23 27 26 28 27 29 8 30 9 31 10 32
REMARK SMILES IDX 24 33
REMARK H PARENT 24 34
REMARK Flexibility Score: inf
ROOT
ATOM      1  C   UNL     1      -7.745  -8.633  14.838  1.00  0.00     0.017 C 
ATOM      2  C   UNL     1      -8.124 -10.128  15.184  1.00  0.00     0.014 C 
ATOM      3  C   UNL     1      -7.252  -8.523  13.377  1.00  0.00     0.014 C 
ATOM      4  C   UNL     1      -6.677  -8.043  15.859  1.00  0.00     0.030 C 
ATOM      5  C   UNL     1      -7.091 -10.872  16.041  1.00  0.00     0.004 C 
ATOM      6  C   UNL     1      -5.873  -9.144  13.183  1.00  0.00     0.013 C 
ATOM      7  C   UNL     1      -5.187  -8.131  15.413  1.00  0.00    -0.063 C 
ATOM      8  C   UNL     1      -7.010  -8.631  17.283  1.00  0.00    -0.003 C 
ATOM      9  C   UNL     1      -6.806 -10.171  17.386  1.00  0.00    -0.011 C 
ATOM     10  C   UNL     1      -4.760  -8.360  13.944  1.00  0.00    -0.006 C 
ATOM     11  C   UNL     1      -4.257  -7.552  16.206  1.00  0.00    -0.027 C 
ATOM     12  C   UNL     1      -6.506  -7.842  18.506  1.00  0.00     0.008 C 
ATOM     13  C   UNL     1      -5.424 -10.594  17.918  1.00  0.00     0.008 C 
ATOM     14  C   UNL     1      -4.672  -6.940  13.272  1.00  0.00     0.017 C 
ATOM     15  C   UNL     1      -3.326  -9.115  13.864  1.00  0.00    -0.020 C 
ATOM     16  C   UNL     1      -2.834  -7.356  15.780  1.00  0.00     0.032 C 
ATOM     17  C   UNL     1      -2.297  -8.567  14.980  1.00  0.00     0.006 C 
ATOM     18  C   UNL     1      -2.775  -9.046  12.393  1.00  0.00     0.008 C 
ATOM     19  C   UNL     1      -3.492 -10.643  14.168  1.00  0.00     0.012 C 
ATOM     20  C   UNL     1      -0.708  -8.493  14.643  1.00  0.00    -0.025 C 
ATOM     21  C   UNL     1      -1.459  -8.314  12.237  1.00  0.00     0.005 C 
ATOM     22  C   UNL     1      -0.391  -8.947  13.160  1.00  0.00     0.003 C 
ATOM     23  C   UNL     1      -0.139  -7.045  14.857  1.00  0.00     0.010 C 
ATOM     24  C   UNL     1      -0.007  -9.438  15.668  1.00  0.00     0.012 C 
ATOM     25  C   UNL     1       1.105  -8.690  12.653  1.00  0.00    -0.006 C 
ATOM     26  C   UNL     1       1.320  -6.847  14.429  1.00  0.00     0.033 C 
ATOM     27  C   UNL     1       1.553  -7.230  12.961  1.00  0.00     0.120 C 
ATOM     28  C   UNL     1       1.241  -8.938  11.117  1.00  0.00     0.014 C 
ATOM     29  C   UNL     1       2.103  -9.705  13.303  1.00  0.00     0.014 C 
ENDROOT
BRANCH   1  30
ATOM     30  C   UNL     1      -9.047  -7.828  14.889  1.00  0.00     0.048 C 
ATOM     31  O   UNL     1     -10.105  -8.322  14.411  1.00  0.00    -0.550 OA
ATOM     32  O   UNL     1      -9.101  -6.548  15.435  1.00  0.00    -0.550 OA
ENDBRANCH   1  30
BRANCH  27  33
ATOM     33  O   UNL     1       0.869  -6.319  12.136  1.00  0.00    -0.393 OA
ATOM     34  H   UNL     1       1.528  -5.631  11.851  1.00  0.00     0.210 HD
ENDBRANCH  27  33
TORSDOF 2
ENDMDL
MODEL 5
REMARK VINA RESULT:    -7.819      5.160      8.313
REMARK INTER + INTRA:          -8.669
REMARK INTER:                  -8.540
REMARK INTRA:                  -0.129
REMARK UNBOUND:                -0.164
REMARK SMILES C[C@@H]1[C@H](C)CC[C@]2(C(=O)[O-])CC[C@@]3(C)C(=CC[C@@H]4[C@]5(C)CC[C@H](O)C(C)(C)[C@@H]5CC[C@@]43C)[C@H]12
REMARK SMILES IDX 7 1 6 2 11 3 33 4 5 5 12 6 15 7 2 8 3 9 13 10 16 11 1 12
REMARK SMILES IDX 4 13 14 14 31 15 17 16 18 17 30 18 32 19 19 20 29 21 28 22
REMARK SMILES IDX 21 23 20 24 25 25 22 26 23 27 26 28 27 29 8 30 9 31 10 32
REMARK SMILES IDX 24 33
REMARK H PARENT 24 34
REMARK Flexibility Score: inf
ROOT
ATOM      1  C   UNL     1      -3.757  -8.767  13.786  1.00  0.00     0.017 C 
ATOM      2  C   UNL     1      -4.272  -9.571  15.046  1.00  0.00     0.014 C 
ATOM      3  C   UNL     1      -2.912  -9.681  12.869  1.00  0.00     0.014 C 
ATOM      4  C   UNL     1      -2.954  -7.461  14.207  1.00  0.00     0.030 C 
ATOM      5  C   UNL     1      -3.517  -9.277  16.349  1.00  0.00     0.004 C 
ATOM      6  C   UNL     1      -1.555 -10.017  13.478  1.00  0.00     0.013 C 
ATOM      7  C   UNL     1      -1.404  -7.607  14.280  1.00  0.00    -0.063 C 
ATOM      8  C   UNL     1      -3.655  -6.867  15.488  1.00  0.00    -0.003 C 
ATOM      9  C   UNL     1      -3.547  -7.785  16.741  1.00  0.00    -0.011 C 
ATOM     10  C   UNL     1      -0.635  -8.763  13.598  1.00  0.00    -0.006 C 
ATOM     11  C   UNL     1      -0.678  -6.497  14.537  1.00  0.00    -0.027 C 
ATOM     12  C   UNL     1      -3.439  -5.369  15.779  1.00  0.00     0.008 C 
ATOM     13  C   UNL     1      -2.360  -7.459  17.666  1.00  0.00     0.008 C 
ATOM     14  C   UNL     1      -0.323  -8.294  12.129  1.00  0.00     0.017 C 
ATOM     15  C   UNL     1       0.741  -9.096  14.391  1.00  0.00    -0.020 C 
ATOM     16  C   UNL     1       0.813  -6.450  14.398  1.00  0.00     0.032 C 
ATOM     17  C   UNL     1       1.482  -7.755  14.895  1.00  0.00     0.006 C 
ATOM     18  C   UNL     1       1.643 -10.035  13.509  1.00  0.00     0.008 C 
ATOM     19  C   UNL     1       0.442  -9.918  15.690  1.00  0.00     0.012 C 
ATOM     20  C   UNL     1       3.106  -7.698  14.937  1.00  0.00    -0.025 C 
ATOM     21  C   UNL     1       2.986  -9.453  13.122  1.00  0.00     0.005 C 
ATOM     22  C   UNL     1       3.763  -9.031  14.392  1.00  0.00     0.003 C 
ATOM     23  C   UNL     1       3.664  -6.487  14.106  1.00  0.00     0.010 C 
ATOM     24  C   UNL     1       3.491  -7.469  16.432  1.00  0.00     0.012 C 
ATOM     25  C   UNL     1       5.348  -8.992  14.171  1.00  0.00    -0.006 C 
ATOM     26  C   UNL     1       5.191  -6.436  13.972  1.00  0.00     0.033 C 
ATOM     27  C   UNL     1       5.765  -7.724  13.367  1.00  0.00     0.120 C 
ATOM     28  C   UNL     1       5.852 -10.255  13.402  1.00  0.00     0.014 C 
ATOM     29  C   UNL     1       6.109  -9.036  15.537  1.00  0.00     0.014 C 
ENDROOT
BRANCH   1  30
ATOM     30  C   UNL     1      -4.997  -8.401  12.964  1.00  0.00     0.048 C 
ATOM     31  O   UNL     1      -5.068  -7.269  12.413  1.00  0.00    -0.550 OA
ATOM     32  O   UNL     1      -6.069  -9.278  12.818  1.00  0.00    -0.550 OA
ENDBRANCH   1  30
BRANCH  27  33
ATOM     33  O   UNL     1       5.347  -7.828  12.028  1.00  0.00    -0.393 OA
ATOM     34  H   UNL     1       6.133  -8.127  11.498  1.00  0.00     0.210 HD
ENDBRANCH  27  33
TORSDOF 2
ENDMDL
MODEL 6
REMARK VINA RESULT:    -7.811      3.526      9.608
REMARK INTER + INTRA:          -8.660
REMARK INTER:                  -8.496
REMARK INTRA:                  -0.164
REMARK UNBOUND:                -0.164
REMARK SMILES C[C@@H]1[C@H](C)CC[C@]2(C(=O)[O-])CC[C@@]3(C)C(=CC[C@@H]4[C@]5(C)CC[C@H](O)C(C)(C)[C@@H]5CC[C@@]43C)[C@H]12
REMARK SMILES IDX 7 1 6 2 11 3 33 4 5 5 12 6 15 7 2 8 3 9 13 10 16 11 1 12
REMARK SMILES IDX 4 13 14 14 31 15 17 16 18 17 30 18 32 19 19 20 29 21 28 22
REMARK SMILES IDX 21 23 20 24 25 25 22 26 23 27 26 28 27 29 8 30 9 31 10 32
REMARK SMILES IDX 24 33
REMARK H PARENT 24 34
REMARK Flexibility Score: inf
ROOT
ATOM      1  C   UNL     1       1.566  -7.679  15.584  1.00  0.00     0.017 C 
ATOM      2  C   UNL     1       2.086  -9.107  16.016  1.00  0.00     0.014 C 
ATOM      3  C   UNL     1       0.646  -7.084  16.675  1.00  0.00     0.014 C 
ATOM      4  C   UNL     1       0.842  -7.718  14.168  1.00  0.00     0.030 C 
ATOM      5  C   UNL     1       1.392 -10.284  15.316  1.00  0.00     0.004 C 
ATOM      6  C   UNL     1      -0.703  -7.791  16.743  1.00  0.00     0.013 C 
ATOM      7  C   UNL     1      -0.709  -7.861  14.200  1.00  0.00    -0.063 C 
ATOM      8  C   UNL     1       1.615  -8.756  13.270  1.00  0.00    -0.003 C 
ATOM      9  C   UNL     1       1.508 -10.224  13.779  1.00  0.00    -0.011 C 
ATOM     10  C   UNL     1      -1.556  -7.559  15.459  1.00  0.00    -0.006 C 
ATOM     11  C   UNL     1      -1.372  -7.798  13.024  1.00  0.00    -0.027 C 
ATOM     12  C   UNL     1       1.482  -8.603  11.743  1.00  0.00     0.008 C 
ATOM     13  C   UNL     1       0.371 -11.037  13.133  1.00  0.00     0.008 C 
ATOM     14  C   UNL     1      -1.897  -6.024  15.418  1.00  0.00     0.017 C 
ATOM     15  C   UNL     1      -2.918  -8.442  15.471  1.00  0.00    -0.020 C 
ATOM     16  C   UNL     1      -2.863  -7.681  12.936  1.00  0.00     0.032 C 
ATOM     17  C   UNL     1      -3.576  -8.550  14.001  1.00  0.00     0.006 C 
ATOM     18  C   UNL     1      -3.895  -7.889  16.572  1.00  0.00     0.008 C 
ATOM     19  C   UNL     1      -2.613  -9.918  15.898  1.00  0.00     0.012 C 
ATOM     20  C   UNL     1      -5.193  -8.606  13.844  1.00  0.00    -0.025 C 
ATOM     21  C   UNL     1      -5.221  -7.377  16.052  1.00  0.00     0.005 C 
ATOM     22  C   UNL     1      -5.932  -8.485  15.239  1.00  0.00     0.003 C 
ATOM     23  C   UNL     1      -5.721  -7.470  12.896  1.00  0.00     0.010 C 
ATOM     24  C   UNL     1      -5.513  -9.977  13.171  1.00  0.00     0.012 C 
ATOM     25  C   UNL     1      -7.520  -8.292  15.177  1.00  0.00    -0.006 C 
ATOM     26  C   UNL     1      -7.247  -7.357  12.800  1.00  0.00     0.033 C 
ATOM     27  C   UNL     1      -7.904  -7.164  14.174  1.00  0.00     0.120 C 
ATOM     28  C   UNL     1      -8.110  -7.935  16.578  1.00  0.00     0.014 C 
ATOM     29  C   UNL     1      -8.234  -9.628  14.781  1.00  0.00     0.014 C 
ENDROOT
BRANCH   1  30
ATOM     30  C   UNL     1       2.792  -6.761  15.541  1.00  0.00     0.048 C 
ATOM     31  O   UNL     1       2.786  -5.746  14.793  1.00  0.00    -0.550 OA
ATOM     32  O   UNL     1       3.934  -7.022  16.294  1.00  0.00    -0.550 OA
ENDBRANCH   1  30
BRANCH  27  33
ATOM     33  O   UNL     1      -7.539  -5.904  14.684  1.00  0.00    -0.393 OA
ATOM     34  H   UNL     1      -7.297  -6.035  15.640  1.00  0.00     0.210 HD
ENDBRANCH  27  33
TORSDOF 2
ENDMDL
MODEL 7
REMARK VINA RESULT:    -7.798      1.761      2.541
REMARK INTER + INTRA:          -8.646
REMARK INTER:                  -8.498
REMARK INTRA:                  -0.148
REMARK UNBOUND:                -0.164
REMARK SMILES C[C@@H]1[C@H](C)CC[C@]2(C(=O)[O-])CC[C@@]3(C)C(=CC[C@@H]4[C@]5(C)CC[C@H](O)C(C)(C)[C@@H]5CC[C@@]43C)[C@H]12
REMARK SMILES IDX 7 1 6 2 11 3 33 4 5 5 12 6 15 7 2 8 3 9 13 10 16 11 1 12
REMARK SMILES IDX 4 13 14 14 31 15 17 16 18 17 30 18 32 19 19 20 29 21 28 22
REMARK SMILES IDX 21 23 20 24 25 25 22 26 23 27 26 28 27 29 8 30 9 31 10 32
REMARK SMILES IDX 24 33
REMARK H PARENT 24 34
REMARK Flexibility Score: inf
ROOT
ATOM      1  C   UNL     1     -12.287  -4.385  12.993  1.00  0.00     0.017 C 
ATOM      2  C   UNL     1     -13.323  -5.461  13.507  1.00  0.00     0.014 C 
ATOM      3  C   UNL     1     -11.481  -4.937  11.795  1.00  0.00     0.014 C 
ATOM      4  C   UNL     1     -11.329  -3.884  14.160  1.00  0.00     0.030 C 
ATOM      5  C   UNL     1     -12.917  -6.180  14.801  1.00  0.00     0.004 C 
ATOM      6  C   UNL     1     -10.483  -6.011  12.215  1.00  0.00     0.013 C 
ATOM      7  C   UNL     1      -9.954  -4.608  14.270  1.00  0.00    -0.063 C 
ATOM      8  C   UNL     1     -12.186  -3.819  15.481  1.00  0.00    -0.003 C 
ATOM      9  C   UNL     1     -12.673  -5.211  15.977  1.00  0.00    -0.011 C 
ATOM     10  C   UNL     1      -9.346  -5.440  13.117  1.00  0.00    -0.006 C 
ATOM     11  C   UNL     1      -9.070  -4.147  15.183  1.00  0.00    -0.027 C 
ATOM     12  C   UNL     1     -11.685  -2.886  16.600  1.00  0.00     0.008 C 
ATOM     13  C   UNL     1     -11.753  -5.871  17.020  1.00  0.00     0.008 C 
ATOM     14  C   UNL     1      -8.523  -4.440  12.222  1.00  0.00     0.017 C 
ATOM     15  C   UNL     1      -8.381  -6.614  13.689  1.00  0.00    -0.020 C 
ATOM     16  C   UNL     1      -7.640  -4.592  15.228  1.00  0.00     0.032 C 
ATOM     17  C   UNL     1      -7.495  -6.105  14.938  1.00  0.00     0.006 C 
ATOM     18  C   UNL     1      -7.538  -7.224  12.510  1.00  0.00     0.008 C 
ATOM     19  C   UNL     1      -9.234  -7.805  14.242  1.00  0.00     0.012 C 
ATOM     20  C   UNL     1      -5.991  -6.684  15.146  1.00  0.00    -0.025 C 
ATOM     21  C   UNL     1      -6.038  -7.072  12.650  1.00  0.00     0.005 C 
ATOM     22  C   UNL     1      -5.570  -7.682  13.992  1.00  0.00     0.003 C 
ATOM     23  C   UNL     1      -4.931  -5.526  15.220  1.00  0.00     0.010 C 
ATOM     24  C   UNL     1      -5.997  -7.413  16.526  1.00  0.00     0.012 C 
ATOM     25  C   UNL     1      -4.032  -8.125  13.974  1.00  0.00    -0.006 C 
ATOM     26  C   UNL     1      -3.468  -5.983  15.275  1.00  0.00     0.033 C 
ATOM     27  C   UNL     1      -3.095  -6.885  14.090  1.00  0.00     0.120 C 
ATOM     28  C   UNL     1      -3.672  -8.898  12.665  1.00  0.00     0.014 C 
ATOM     29  C   UNL     1      -3.724  -9.139  15.124  1.00  0.00     0.014 C 
ENDROOT
BRANCH   1  30
ATOM     30  C   UNL     1     -13.108  -3.221  12.429  1.00  0.00     0.048 C 
ATOM     31  O   UNL     1     -14.125  -3.460  11.721  1.00  0.00    -0.550 OA
ATOM     32  O   UNL     1     -12.757  -1.893  12.656  1.00  0.00    -0.550 OA
ENDBRANCH   1  30
BRANCH  27  33
ATOM     33  O   UNL     1      -3.132  -6.125  12.906  1.00  0.00    -0.393 OA
ATOM     34  H   UNL     1      -2.207  -5.799  12.740  1.00  0.00     0.210 HD
ENDBRANCH  27  33
TORSDOF 2
ENDMDL
MODEL 8
REMARK VINA RESULT:    -7.795      5.108     11.593
REMARK INTER + INTRA:          -8.643
REMARK INTER:                  -8.507
REMARK INTRA:                  -0.136
REMARK UNBOUND:                -0.164
REMARK SMILES C[C@@H]1[C@H](C)CC[C@]2(C(=O)[O-])CC[C@@]3(C)C(=CC[C@@H]4[C@]5(C)CC[C@H](O)C(C)(C)[C@@H]5CC[C@@]43C)[C@H]12
REMARK SMILES IDX 7 1 6 2 11 3 33 4 5 5 12 6 15 7 2 8 3 9 13 10 16 11 1 12
REMARK SMILES IDX 4 13 14 14 31 15 17 16 18 17 30 18 32 19 19 20 29 21 28 22
REMARK SMILES IDX 21 23 20 24 25 25 22 26 23 27 26 28 27 29 8 30 9 31 10 32
REMARK SMILES IDX 24 33
REMARK H PARENT 24 34
REMARK Flexibility Score: inf
ROOT
ATOM      1  C   UNL     1       4.306  -8.085  12.165  1.00  0.00     0.017 C 
ATOM      2  C   UNL     1       4.781  -6.705  12.771  1.00  0.00     0.014 C 
ATOM      3  C   UNL     1       3.176  -7.864  11.133  1.00  0.00     0.014 C 
ATOM      4  C   UNL     1       3.867  -9.108  13.301  1.00  0.00     0.030 C 
ATOM      5  C   UNL     1       4.272  -6.416  14.190  1.00  0.00     0.004 C 
ATOM      6  C   UNL     1       1.863  -7.457  11.792  1.00  0.00     0.013 C 
ATOM      7  C   UNL     1       2.344  -9.154  13.626  1.00  0.00    -0.063 C 
ATOM      8  C   UNL     1       4.831  -8.894  14.529  1.00  0.00    -0.003 C 
ATOM      9  C   UNL     1       4.676  -7.502  15.209  1.00  0.00    -0.011 C 
ATOM     10  C   UNL     1       1.263  -8.599  12.668  1.00  0.00    -0.006 C 
ATOM     11  C   UNL     1       1.916 -10.079  14.513  1.00  0.00    -0.027 C 
ATOM     12  C   UNL     1       4.987 -10.067  15.516  1.00  0.00     0.008 C 
ATOM     13  C   UNL     1       3.711  -7.485  16.408  1.00  0.00     0.008 C 
ATOM     14  C   UNL     1       0.886  -9.768  11.685  1.00  0.00     0.017 C 
ATOM     15  C   UNL     1      -0.047  -8.106  13.491  1.00  0.00    -0.020 C 
ATOM     16  C   UNL     1       0.466 -10.387  14.732  1.00  0.00     0.032 C 
ATOM     17  C   UNL     1      -0.408  -9.110  14.701  1.00  0.00     0.006 C 
ATOM     18  C   UNL     1      -1.234  -7.854  12.489  1.00  0.00     0.008 C 
ATOM     19  C   UNL     1       0.219  -6.719  14.167  1.00  0.00     0.012 C 
ATOM     20  C   UNL     1      -1.962  -9.355  15.108  1.00  0.00    -0.025 C 
ATOM     21  C   UNL     1      -2.452  -8.725  12.710  1.00  0.00     0.005 C 
ATOM     22  C   UNL     1      -2.958  -8.566  14.164  1.00  0.00     0.003 C 
ATOM     23  C   UNL     1      -2.337 -10.880  15.068  1.00  0.00     0.010 C 
ATOM     24  C   UNL     1      -2.104  -8.867  16.583  1.00  0.00     0.012 C 
ATOM     25  C   UNL     1      -4.510  -8.920  14.327  1.00  0.00    -0.006 C 
ATOM     26  C   UNL     1      -3.820 -11.195  15.301  1.00  0.00     0.033 C 
ATOM     27  C   UNL     1      -4.733 -10.462  14.308  1.00  0.00     0.120 C 
ATOM     28  C   UNL     1      -5.369  -8.280  13.190  1.00  0.00     0.014 C 
ATOM     29  C   UNL     1      -5.091  -8.311  15.646  1.00  0.00     0.014 C 
ENDROOT
BRANCH   1  30
ATOM     30  C   UNL     1       5.487  -8.639  11.362  1.00  0.00     0.048 C 
ATOM     31  O   UNL     1       6.125  -7.878  10.584  1.00  0.00    -0.550 OA
ATOM     32  O   UNL     1       5.875  -9.975  11.448  1.00  0.00    -0.550 OA
ENDBRANCH   1  30
BRANCH  27  33
ATOM     33  O   UNL     1      -4.512 -10.977  13.017  1.00  0.00    -0.393 OA
ATOM     34  H   UNL     1      -3.584 -10.731  12.759  1.00  0.00     0.210 HD
ENDBRANCH  27  33
TORSDOF 2
ENDMDL
MODEL 9
REMARK VINA RESULT:    -7.755      4.664     11.060
REMARK INTER + INTRA:          -8.599
REMARK INTER:                  -8.488
REMARK INTRA:                  -0.111
REMARK UNBOUND:                -0.164
REMARK SMILES C[C@@H]1[C@H](C)CC[C@]2(C(=O)[O-])CC[C@@]3(C)C(=CC[C@@H]4[C@]5(C)CC[C@H](O)C(C)(C)[C@@H]5CC[C@@]43C)[C@H]12
REMARK SMILES IDX 7 1 6 2 11 3 33 4 5 5 12 6 15 7 2 8 3 9 13 10 16 11 1 12
REMARK SMILES IDX 4 13 14 14 31 15 17 16 18 17 30 18 32 19 19 20 29 21 28 22
REMARK SMILES IDX 21 23 20 24 25 25 22 26 23 27 26 28 27 29 8 30 9 31 10 32
REMARK SMILES IDX 24 33
REMARK H PARENT 24 34
REMARK Flexibility Score: inf
ROOT
ATOM      1  C   UNL     1       3.747  -8.188  16.146  1.00  0.00     0.017 C 
ATOM      2  C   UNL     1       3.933  -9.004  17.487  1.00  0.00     0.014 C 
ATOM      3  C   UNL     1       2.978  -6.874  16.413  1.00  0.00     0.014 C 
ATOM      4  C   UNL     1       3.040  -9.059  15.019  1.00  0.00     0.030 C 
ATOM      5  C   UNL     1       2.998 -10.211  17.641  1.00  0.00     0.004 C 
ATOM      6  C   UNL     1       1.505  -7.118  16.721  1.00  0.00     0.013 C 
ATOM      7  C   UNL     1       1.496  -8.891  14.896  1.00  0.00    -0.063 C 
ATOM      8  C   UNL     1       3.567 -10.537  15.163  1.00  0.00    -0.003 C 
ATOM      9  C   UNL     1       3.132 -11.228  16.489  1.00  0.00    -0.011 C 
ATOM     10  C   UNL     1       0.731  -7.685  15.491  1.00  0.00    -0.006 C 
ATOM     11  C   UNL     1       0.870  -9.536  13.887  1.00  0.00    -0.027 C 
ATOM     12  C   UNL     1       3.479 -11.441  13.919  1.00  0.00     0.008 C 
ATOM     13  C   UNL     1       1.846 -12.067  16.375  1.00  0.00     0.008 C 
ATOM     14  C   UNL     1       0.741  -6.556  14.395  1.00  0.00     0.017 C 
ATOM     15  C   UNL     1      -0.794  -8.092  15.872  1.00  0.00    -0.020 C 
ATOM     16  C   UNL     1      -0.557  -9.273  13.514  1.00  0.00     0.032 C 
ATOM     17  C   UNL     1      -1.451  -9.059  14.760  1.00  0.00     0.006 C 
ATOM     18  C   UNL     1      -1.628  -6.791  16.165  1.00  0.00     0.008 C 
ATOM     19  C   UNL     1      -0.828  -8.910  17.206  1.00  0.00     0.012 C 
ATOM     20  C   UNL     1      -3.039  -8.946  14.431  1.00  0.00    -0.025 C 
ATOM     21  C   UNL     1      -2.804  -6.563  15.239  1.00  0.00     0.005 C 
ATOM     22  C   UNL     1      -3.740  -7.795  15.262  1.00  0.00     0.003 C 
ATOM     23  C   UNL     1      -3.295  -8.688  12.902  1.00  0.00     0.010 C 
ATOM     24  C   UNL     1      -3.653 -10.334  14.791  1.00  0.00     0.012 C 
ATOM     25  C   UNL     1      -5.244  -7.444  14.843  1.00  0.00    -0.006 C 
ATOM     26  C   UNL     1      -4.757  -8.427  12.521  1.00  0.00     0.033 C 
ATOM     27  C   UNL     1      -5.362  -7.252  13.302  1.00  0.00     0.120 C 
ATOM     28  C   UNL     1      -5.747  -6.143  15.546  1.00  0.00     0.014 C 
ATOM     29  C   UNL     1      -6.236  -8.556  15.322  1.00  0.00     0.014 C 
ENDROOT
BRANCH   1  30
ATOM     30  C   UNL     1       5.147  -7.756  15.700  1.00  0.00     0.048 C 
ATOM     31  O   UNL     1       6.124  -8.536  15.865  1.00  0.00    -0.550 OA
ATOM     32  O   UNL     1       5.386  -6.508  15.127  1.00  0.00    -0.550 OA
ENDBRANCH   1  30
BRANCH  27  33
ATOM     33  O   UNL     1      -4.727  -6.062  12.902  1.00  0.00    -0.393 OA
ATOM     34  H   UNL     1      -4.114  -6.294  12.155  1.00  0.00     0.210 HD
ENDBRANCH  27  33
TORSDOF 2
ENDMDL
