MODEL 1
REMARK VINA RESULT:   147.205      0.000      0.000
REMARK INTER + INTRA:         160.057
REMARK INTER:                 160.114
REMARK INTRA:                  -0.057
REMARK UNBOUND:                -0.057
REMARK SMILES C[C@@H]1[C@@H](C)CC[C@@]2(C(=O)[O-])CC[C@@]3(C)C(=CC[C@H]4[C@@]5(C)CC[C@H](O)C(C)(C)[C@@H]5CC[C@]43C)[C@@H]12
REMARK SMILES IDX 7 1 6 2 11 3 33 4 5 5 12 6 15 7 2 8 3 9 13 10 16 11 1 12
REMARK SMILES IDX 4 13 14 14 31 15 17 16 18 17 30 18 32 19 19 20 29 21 28 22
REMARK SMILES IDX 21 23 20 24 25 25 22 26 23 27 26 28 27 29 8 30 9 31 10 32
REMARK SMILES IDX 24 33
REMARK H PARENT 24 34
REMARK Flexibility Score: inf
ROOT
ATOM      1  C   UNL     1     -37.575  29.275 -21.007  1.00  0.00     0.017 C 
ATOM      2  C   UNL     1     -38.756  29.661 -21.946  1.00  0.00     0.014 C 
ATOM      3  C   UNL     1     -36.355  30.190 -21.344  1.00  0.00     0.014 C 
ATOM      4  C   UNL     1     -38.016  29.392 -19.489  1.00  0.00     0.030 C 
ATOM      5  C   UNL     1     -40.078  29.091 -21.435  1.00  0.00     0.004 C 
ATOM      6  C   UNL     1     -36.179  31.398 -20.410  1.00  0.00     0.013 C 
ATOM      7  C   UNL     1     -36.827  29.791 -18.593  1.00  0.00    -0.063 C 
ATOM      8  C   UNL     1     -39.289  30.276 -19.264  1.00  0.00    -0.003 C 
ATOM      9  C   UNL     1     -40.505  29.773 -20.114  1.00  0.00    -0.011 C 
ATOM     10  C   UNL     1     -35.985  31.036 -18.886  1.00  0.00    -0.006 C 
ATOM     11  C   UNL     1     -36.591  29.051 -17.504  1.00  0.00    -0.027 C 
ATOM     12  C   UNL     1     -39.688  30.313 -17.772  1.00  0.00     0.008 C 
ATOM     13  C   UNL     1     -41.485  30.925 -20.410  1.00  0.00     0.008 C 
ATOM     14  C   UNL     1     -36.609  32.202 -18.055  1.00  0.00     0.017 C 
ATOM     15  C   UNL     1     -34.434  30.842 -18.449  1.00  0.00    -0.020 C 
ATOM     16  C   UNL     1     -35.347  29.117 -16.684  1.00  0.00     0.032 C 
ATOM     17  C   UNL     1     -34.330  30.271 -16.959  1.00  0.00     0.006 C 
ATOM     18  C   UNL     1     -33.700  29.852 -19.400  1.00  0.00     0.008 C 
ATOM     19  C   UNL     1     -33.721  32.239 -18.545  1.00  0.00     0.012 C 
ATOM     20  C   UNL     1     -32.845  29.866 -16.485  1.00  0.00    -0.025 C 
ATOM     21  C   UNL     1     -32.269  29.467 -18.975  1.00  0.00     0.005 C 
ATOM     22  C   UNL     1     -32.220  28.879 -17.546  1.00  0.00     0.003 C 
ATOM     23  C   UNL     1     -32.878  29.138 -15.094  1.00  0.00     0.010 C 
ATOM     24  C   UNL     1     -31.994  31.166 -16.278  1.00  0.00     0.012 C 
ATOM     25  C   UNL     1     -30.842  28.209 -17.147  1.00  0.00    -0.006 C 
ATOM     26  C   UNL     1     -31.530  28.523 -14.674  1.00  0.00     0.033 C 
ATOM     27  C   UNL     1     -30.989  27.554 -15.737  1.00  0.00     0.120 C 
ATOM     28  C   UNL     1     -29.640  29.190 -17.181  1.00  0.00     0.014 C 
ATOM     29  C   UNL     1     -30.516  27.064 -18.148  1.00  0.00     0.014 C 
ENDROOT
BRANCH   1  30
ATOM     30  C   UNL     1     -37.162  27.839 -21.351  1.00  0.00     0.048 C 
ATOM     31  O   UNL     1     -37.683  27.261 -22.346  1.00  0.00    -0.550 OA
ATOM     32  O   UNL     1     -36.204  27.148 -20.609  1.00  0.00    -0.550 OA
ENDBRANCH   1  30
BRANCH  27  33
ATOM     33  O   UNL     1     -29.752  27.043 -15.299  1.00  0.00    -0.393 OA
ATOM     34  H   UNL     1     -29.948  26.394 -14.574  1.00  0.00     0.210 HD
ENDBRANCH  27  33
TORSDOF 2
ENDMDL
