MODEL 1
REMARK VINA RESULT:    -5.135      0.000      0.000
REMARK INTER + INTRA:         -11.576
REMARK INTER:                  -9.337
REMARK INTRA:                  -2.239
REMARK UNBOUND:                -2.239
REMARK SMILES CCCCCCCCCCCCCCCC(=O)[O-]
REMARK SMILES IDX 9 1 10 2 11 3 12 4 13 5 14 6 15 7 16 8 17 9 18 10 8 11 7 12
REMARK SMILES IDX 6 13 5 14 4 15 3 16 2 17 1 18
REMARK H PARENT
REMARK Flexibility Score: inf
ROOT
ATOM      1  C   UNL     1     104.285 -82.335  23.018  1.00  0.00     0.000 C 
ENDROOT
BRANCH   1   2
ATOM      2  C   UNL     1     104.714 -83.811  23.017  1.00  0.00     0.000 C 
BRANCH   2   3
ATOM      3  C   UNL     1     105.855 -84.099  24.007  1.00  0.00     0.000 C 
BRANCH   3   4
ATOM      4  C   UNL     1     107.245 -83.957  23.363  1.00  0.00     0.000 C 
BRANCH   4   5
ATOM      5  C   UNL     1     108.033 -82.760  23.919  1.00  0.00     0.000 C 
BRANCH   5   6
ATOM      6  C   UNL     1     109.498 -82.742  23.447  1.00  0.00     0.006 C 
BRANCH   6   7
ATOM      7  C   UNL     1     110.186 -81.402  23.745  1.00  0.00     0.053 C 
BRANCH   7   8
ATOM      8  C   UNL     1     110.206 -80.510  22.543  1.00  0.00     0.041 C 
ATOM      9  O   UNL     1     110.350 -81.000  21.392  1.00  0.00    -0.550 OA
ATOM     10  O   UNL     1     110.034 -79.139  22.690  1.00  0.00    -0.550 OA
ENDBRANCH   7   8
ENDBRANCH   6   7
ENDBRANCH   5   6
ENDBRANCH   4   5
ENDBRANCH   3   4
ENDBRANCH   2   3
ENDBRANCH   1   2
BRANCH   1  11
ATOM     11  C   UNL     1     103.169 -82.088  21.992  1.00  0.00     0.000 C 
BRANCH  11  12
ATOM     12  C   UNL     1     102.972 -83.272  21.030  1.00  0.00    -0.000 C 
BRANCH  12  13
ATOM     13  C   UNL     1     103.460 -82.961  19.604  1.00  0.00    -0.000 C 
BRANCH  13  14
ATOM     14  C   UNL     1     104.723 -83.753  19.227  1.00  0.00    -0.000 C 
BRANCH  14  15
ATOM     15  C   UNL     1     105.871 -82.844  18.754  1.00  0.00    -0.000 C 
BRANCH  15  16
ATOM     16  C   UNL     1     105.867 -81.474  19.453  1.00  0.00    -0.000 C 
BRANCH  16  17
ATOM     17  C   UNL     1     106.896 -81.384  20.589  1.00  0.00    -0.003 C 
ATOM     18  C   UNL     1     106.767 -80.065  21.344  1.00  0.00     0.004 C 
ENDBRANCH  16  17
ENDBRANCH  15  16
ENDBRANCH  14  15
ENDBRANCH  13  14
ENDBRANCH  12  13
ENDBRANCH  11  12
ENDBRANCH   1  11
TORSDOF 14
ENDMDL
MODEL 2
REMARK VINA RESULT:    -5.007      4.256      7.904
REMARK INTER + INTRA:         -11.345
REMARK INTER:                  -9.942
REMARK INTRA:                  -1.402
REMARK UNBOUND:                -2.239
REMARK SMILES CCCCCCCCCCCCCCCC(=O)[O-]
REMARK SMILES IDX 9 1 10 2 11 3 12 4 13 5 14 6 15 7 16 8 17 9 18 10 8 11 7 12
REMARK SMILES IDX 6 13 5 14 4 15 3 16 2 17 1 18
REMARK H PARENT
REMARK Flexibility Score: inf
ROOT
ATOM      1  C   UNL     1     112.984 -83.255  21.458  1.00  0.00     0.000 C 
ENDROOT
BRANCH   1   2
ATOM      2  C   UNL     1     112.038 -82.209  20.845  1.00  0.00     0.000 C 
BRANCH   2   3
ATOM      3  C   UNL     1     110.963 -81.729  21.834  1.00  0.00     0.000 C 
BRANCH   3   4
ATOM      4  C   UNL     1     110.794 -82.679  23.031  1.00  0.00     0.000 C 
BRANCH   4   5
ATOM      5  C   UNL     1     109.325 -82.849  23.447  1.00  0.00     0.000 C 
BRANCH   5   6
ATOM      6  C   UNL     1     108.666 -81.520  23.861  1.00  0.00     0.006 C 
BRANCH   6   7
ATOM      7  C   UNL     1     107.165 -81.679  24.136  1.00  0.00     0.053 C 
BRANCH   7   8
ATOM      8  C   UNL     1     106.903 -82.667  25.230  1.00  0.00     0.041 C 
ATOM      9  O   UNL     1     106.338 -83.763  24.973  1.00  0.00    -0.550 OA
ATOM     10  O   UNL     1     107.312 -82.393  26.529  1.00  0.00    -0.550 OA
ENDBRANCH   7   8
ENDBRANCH   6   7
ENDBRANCH   5   6
ENDBRANCH   4   5
ENDBRANCH   3   4
ENDBRANCH   2   3
ENDBRANCH   1   2
BRANCH   1  11
ATOM     11  C   UNL     1     114.008 -83.740  20.422  1.00  0.00     0.000 C 
BRANCH  11  12
ATOM     12  C   UNL     1     115.427 -83.213  20.694  1.00  0.00    -0.000 C 
BRANCH  12  13
ATOM     13  C   UNL     1     115.451 -82.109  21.766  1.00  0.00    -0.000 C 
BRANCH  13  14
ATOM     14  C   UNL     1     116.183 -80.842  21.292  1.00  0.00    -0.000 C 
BRANCH  14  15
ATOM     15  C   UNL     1     115.386 -80.062  20.230  1.00  0.00    -0.000 C 
BRANCH  15  16
ATOM     16  C   UNL     1     114.344 -79.117  20.850  1.00  0.00    -0.000 C 
BRANCH  16  17
ATOM     17  C   UNL     1     113.147 -78.864  19.922  1.00  0.00    -0.003 C 
ATOM     18  C   UNL     1     111.996 -78.206  20.677  1.00  0.00     0.004 C 
ENDBRANCH  16  17
ENDBRANCH  15  16
ENDBRANCH  14  15
ENDBRANCH  13  14
ENDBRANCH  12  13
ENDBRANCH  11  12
ENDBRANCH   1  11
TORSDOF 14
ENDMDL
MODEL 3
REMARK VINA RESULT:    -4.981      4.927      9.098
REMARK INTER + INTRA:         -11.296
REMARK INTER:                  -9.446
REMARK INTRA:                  -1.851
REMARK UNBOUND:                -2.239
REMARK SMILES CCCCCCCCCCCCCCCC(=O)[O-]
REMARK SMILES IDX 9 1 10 2 11 3 12 4 13 5 14 6 15 7 16 8 17 9 18 10 8 11 7 12
REMARK SMILES IDX 6 13 5 14 4 15 3 16 2 17 1 18
REMARK H PARENT
REMARK Flexibility Score: inf
ROOT
ATOM      1  C   UNL     1     115.760 -82.052  21.883  1.00  0.00     0.000 C 
ENDROOT
BRANCH   1   2
ATOM      2  C   UNL     1     115.814 -83.382  21.114  1.00  0.00     0.000 C 
BRANCH   2   3
ATOM      3  C   UNL     1     114.469 -83.748  20.464  1.00  0.00     0.000 C 
BRANCH   3   4
ATOM      4  C   UNL     1     113.268 -83.413  21.364  1.00  0.00     0.000 C 
BRANCH   4   5
ATOM      5  C   UNL     1     112.336 -82.363  20.738  1.00  0.00     0.000 C 
BRANCH   5   6
ATOM      6  C   UNL     1     111.405 -81.703  21.771  1.00  0.00     0.006 C 
BRANCH   6   7
ATOM      7  C   UNL     1     110.870 -82.712  22.797  1.00  0.00     0.053 C 
BRANCH   7   8
ATOM      8  C   UNL     1     109.532 -82.304  23.331  1.00  0.00     0.041 C 
ATOM      9  O   UNL     1     109.217 -81.086  23.387  1.00  0.00    -0.550 OA
ATOM     10  O   UNL     1     108.620 -83.270  23.737  1.00  0.00    -0.550 OA
ENDBRANCH   7   8
ENDBRANCH   6   7
ENDBRANCH   5   6
ENDBRANCH   4   5
ENDBRANCH   3   4
ENDBRANCH   2   3
ENDBRANCH   1   2
BRANCH   1  11
ATOM     11  C   UNL     1     116.906 -81.124  21.453  1.00  0.00     0.000 C 
BRANCH  11  12
ATOM     12  C   UNL     1     116.406 -79.838  20.773  1.00  0.00    -0.000 C 
BRANCH  12  13
ATOM     13  C   UNL     1     115.040 -80.023  20.090  1.00  0.00    -0.000 C 
BRANCH  13  14
ATOM     14  C   UNL     1     114.034 -78.926  20.478  1.00  0.00    -0.000 C 
BRANCH  14  15
ATOM     15  C   UNL     1     114.078 -78.588  21.979  1.00  0.00    -0.000 C 
BRANCH  15  16
ATOM     16  C   UNL     1     114.415 -77.112  22.242  1.00  0.00    -0.000 C 
BRANCH  16  17
ATOM     17  C   UNL     1     115.774 -76.927  22.933  1.00  0.00    -0.003 C 
ATOM     18  C   UNL     1     116.004 -78.004  23.989  1.00  0.00     0.004 C 
ENDBRANCH  16  17
ENDBRANCH  15  16
ENDBRANCH  14  15
ENDBRANCH  13  14
ENDBRANCH  12  13
ENDBRANCH  11  12
ENDBRANCH   1  11
TORSDOF 14
ENDMDL
MODEL 4
REMARK VINA RESULT:    -4.965      5.879     10.145
REMARK INTER + INTRA:         -11.267
REMARK INTER:                  -9.264
REMARK INTRA:                  -2.003
REMARK UNBOUND:                -2.239
REMARK SMILES CCCCCCCCCCCCCCCC(=O)[O-]
REMARK SMILES IDX 9 1 10 2 11 3 12 4 13 5 14 6 15 7 16 8 17 9 18 10 8 11 7 12
REMARK SMILES IDX 6 13 5 14 4 15 3 16 2 17 1 18
REMARK H PARENT
REMARK Flexibility Score: inf
ROOT
ATOM      1  C   UNL     1     117.365 -83.369  21.414  1.00  0.00     0.000 C 
ENDROOT
BRANCH   1   2
ATOM      2  C   UNL     1     115.855 -83.093  21.478  1.00  0.00     0.000 C 
BRANCH   2   3
ATOM      3  C   UNL     1     115.149 -83.335  20.133  1.00  0.00     0.000 C 
BRANCH   3   4
ATOM      4  C   UNL     1     113.657 -83.666  20.300  1.00  0.00     0.000 C 
BRANCH   4   5
ATOM      5  C   UNL     1     113.192 -83.570  21.762  1.00  0.00     0.000 C 
BRANCH   5   6
ATOM      6  C   UNL     1     111.967 -82.654  21.937  1.00  0.00     0.006 C 
BRANCH   6   7
ATOM      7  C   UNL     1     111.733 -81.759  20.713  1.00  0.00     0.053 C 
BRANCH   7   8
ATOM      8  C   UNL     1     111.183 -80.421  21.100  1.00  0.00     0.041 C 
ATOM      9  O   UNL     1     111.388 -79.416  20.370  1.00  0.00    -0.550 OA
ATOM     10  O   UNL     1     110.416 -80.289  22.251  1.00  0.00    -0.550 OA
ENDBRANCH   7   8
ENDBRANCH   6   7
ENDBRANCH   5   6
ENDBRANCH   4   5
ENDBRANCH   3   4
ENDBRANCH   2   3
ENDBRANCH   1   2
BRANCH   1  11
ATOM     11  C   UNL     1     118.155 -82.259  22.124  1.00  0.00     0.000 C 
BRANCH  11  12
ATOM     12  C   UNL     1     118.810 -81.273  21.141  1.00  0.00    -0.000 C 
BRANCH  12  13
ATOM     13  C   UNL     1     118.677 -79.809  21.596  1.00  0.00    -0.000 C 
BRANCH  13  14
ATOM     14  C   UNL     1     117.657 -79.635  22.734  1.00  0.00    -0.000 C 
BRANCH  14  15
ATOM     15  C   UNL     1     117.014 -78.236  22.742  1.00  0.00    -0.000 C 
BRANCH  15  16
ATOM     16  C   UNL     1     115.818 -78.130  21.782  1.00  0.00    -0.000 C 
BRANCH  16  17
ATOM     17  C   UNL     1     115.077 -79.464  21.607  1.00  0.00    -0.003 C 
ATOM     18  C   UNL     1     114.841 -79.772  20.132  1.00  0.00     0.004 C 
ENDBRANCH  16  17
ENDBRANCH  15  16
ENDBRANCH  14  15
ENDBRANCH  13  14
ENDBRANCH  12  13
ENDBRANCH  11  12
ENDBRANCH   1  11
TORSDOF 14
ENDMDL
MODEL 5
REMARK VINA RESULT:    -4.948      7.020      9.391
REMARK INTER + INTRA:         -11.237
REMARK INTER:                  -9.605
REMARK INTRA:                  -1.632
REMARK UNBOUND:                -2.239
REMARK SMILES CCCCCCCCCCCCCCCC(=O)[O-]
REMARK SMILES IDX 9 1 10 2 11 3 12 4 13 5 14 6 15 7 16 8 17 9 18 10 8 11 7 12
REMARK SMILES IDX 6 13 5 14 4 15 3 16 2 17 1 18
REMARK H PARENT
REMARK Flexibility Score: inf
ROOT
ATOM      1  C   UNL     1     112.139 -82.275  21.087  1.00  0.00     0.000 C 
ENDROOT
BRANCH   1   2
ATOM      2  C   UNL     1     113.213 -83.312  21.451  1.00  0.00     0.000 C 
BRANCH   2   3
ATOM      3  C   UNL     1     114.068 -83.732  20.243  1.00  0.00     0.000 C 
BRANCH   3   4
ATOM      4  C   UNL     1     115.562 -83.429  20.443  1.00  0.00     0.000 C 
BRANCH   4   5
ATOM      5  C   UNL     1     115.846 -82.714  21.773  1.00  0.00     0.000 C 
BRANCH   5   6
ATOM      6  C   UNL     1     117.210 -83.098  22.376  1.00  0.00     0.006 C 
BRANCH   6   7
ATOM      7  C   UNL     1     118.364 -82.873  21.389  1.00  0.00     0.053 C 
BRANCH   7   8
ATOM      8  C   UNL     1     119.014 -81.540  21.591  1.00  0.00     0.041 C 
ATOM      9  O   UNL     1     119.236 -80.788  20.606  1.00  0.00    -0.550 OA
ATOM     10  O   UNL     1     119.346 -81.113  22.871  1.00  0.00    -0.550 OA
ENDBRANCH   7   8
ENDBRANCH   6   7
ENDBRANCH   5   6
ENDBRANCH   4   5
ENDBRANCH   3   4
ENDBRANCH   2   3
ENDBRANCH   1   2
BRANCH   1  11
ATOM     11  C   UNL     1     112.571 -80.865  21.516  1.00  0.00     0.000 C 
BRANCH  11  12
ATOM     12  C   UNL     1     112.186 -79.786  20.490  1.00  0.00    -0.000 C 
BRANCH  12  13
ATOM     13  C   UNL     1     113.390 -78.940  20.042  1.00  0.00    -0.000 C 
BRANCH  13  14
ATOM     14  C   UNL     1     114.728 -79.677  20.221  1.00  0.00    -0.000 C 
BRANCH  14  15
ATOM     15  C   UNL     1     115.661 -78.972  21.222  1.00  0.00    -0.000 C 
BRANCH  15  16
ATOM     16  C   UNL     1     115.009 -77.742  21.873  1.00  0.00    -0.000 C 
BRANCH  16  17
ATOM     17  C   UNL     1     115.696 -77.329  23.183  1.00  0.00    -0.003 C 
ATOM     18  C   UNL     1     115.332 -75.898  23.567  1.00  0.00     0.004 C 
ENDBRANCH  16  17
ENDBRANCH  15  16
ENDBRANCH  14  15
ENDBRANCH  13  14
ENDBRANCH  12  13
ENDBRANCH  11  12
ENDBRANCH   1  11
TORSDOF 14
ENDMDL
MODEL 6
REMARK VINA RESULT:    -4.941      5.810      9.959
REMARK INTER + INTRA:         -11.224
REMARK INTER:                  -9.488
REMARK INTRA:                  -1.736
REMARK UNBOUND:                -2.239
REMARK SMILES CCCCCCCCCCCCCCCC(=O)[O-]
REMARK SMILES IDX 9 1 10 2 11 3 12 4 13 5 14 6 15 7 16 8 17 9 18 10 8 11 7 12
REMARK SMILES IDX 6 13 5 14 4 15 3 16 2 17 1 18
REMARK H PARENT
REMARK Flexibility Score: inf
ROOT
ATOM      1  C   UNL     1     118.777 -82.392  21.912  1.00  0.00     0.000 C 
ENDROOT
BRANCH   1   2
ATOM      2  C   UNL     1     117.848 -83.321  21.113  1.00  0.00     0.000 C 
BRANCH   2   3
ATOM      3  C   UNL     1     116.411 -83.336  21.659  1.00  0.00     0.000 C 
BRANCH   3   4
ATOM      4  C   UNL     1     115.370 -82.954  20.592  1.00  0.00     0.000 C 
BRANCH   4   5
ATOM      5  C   UNL     1     114.198 -83.945  20.530  1.00  0.00     0.000 C 
BRANCH   5   6
ATOM      6  C   UNL     1     113.043 -83.561  21.472  1.00  0.00     0.006 C 
BRANCH   6   7
ATOM      7  C   UNL     1     112.353 -82.259  21.042  1.00  0.00     0.053 C 
BRANCH   7   8
ATOM      8  C   UNL     1     111.170 -81.948  21.904  1.00  0.00     0.041 C 
ATOM      9  O   UNL     1     110.990 -82.571  22.983  1.00  0.00    -0.550 OA
ATOM     10  O   UNL     1     110.282 -80.945  21.533  1.00  0.00    -0.550 OA
ENDBRANCH   7   8
ENDBRANCH   6   7
ENDBRANCH   5   6
ENDBRANCH   4   5
ENDBRANCH   3   4
ENDBRANCH   2   3
ENDBRANCH   1   2
BRANCH   1  11
ATOM     11  C   UNL     1     119.098 -81.120  21.113  1.00  0.00     0.000 C 
BRANCH  11  12
ATOM     12  C   UNL     1     118.428 -79.865  21.698  1.00  0.00    -0.000 C 
BRANCH  12  13
ATOM     13  C   UNL     1     117.015 -79.634  21.136  1.00  0.00    -0.000 C 
BRANCH  13  14
ATOM     14  C   UNL     1     115.929 -79.696  22.224  1.00  0.00    -0.000 C 
BRANCH  14  15
ATOM     15  C   UNL     1     114.610 -79.039  21.780  1.00  0.00    -0.000 C 
BRANCH  15  16
ATOM     16  C   UNL     1     114.309 -79.264  20.289  1.00  0.00    -0.000 C 
BRANCH  16  17
ATOM     17  C   UNL     1     112.874 -78.872  19.908  1.00  0.00    -0.003 C 
ATOM     18  C   UNL     1     112.377 -77.711  20.764  1.00  0.00     0.004 C 
ENDBRANCH  16  17
ENDBRANCH  15  16
ENDBRANCH  14  15
ENDBRANCH  13  14
ENDBRANCH  12  13
ENDBRANCH  11  12
ENDBRANCH   1  11
TORSDOF 14
ENDMDL
MODEL 7
REMARK VINA RESULT:    -4.916      2.178      4.367
REMARK INTER + INTRA:         -11.178
REMARK INTER:                  -8.994
REMARK INTRA:                  -2.184
REMARK UNBOUND:                -2.239
REMARK SMILES CCCCCCCCCCCCCCCC(=O)[O-]
REMARK SMILES IDX 9 1 10 2 11 3 12 4 13 5 14 6 15 7 16 8 17 9 18 10 8 11 7 12
REMARK SMILES IDX 6 13 5 14 4 15 3 16 2 17 1 18
REMARK H PARENT
REMARK Flexibility Score: inf
ROOT
ATOM      1  C   UNL     1     108.936 -81.889  24.822  1.00  0.00     0.000 C 
ENDROOT
BRANCH   1   2
ATOM      2  C   UNL     1     109.222 -82.561  23.470  1.00  0.00     0.000 C 
BRANCH   2   3
ATOM      3  C   UNL     1     110.132 -81.713  22.564  1.00  0.00     0.000 C 
BRANCH   3   4
ATOM      4  C   UNL     1     109.964 -80.204  22.806  1.00  0.00     0.000 C 
BRANCH   4   5
ATOM      5  C   UNL     1     109.145 -79.517  21.703  1.00  0.00     0.000 C 
BRANCH   5   6
ATOM      6  C   UNL     1     107.764 -79.045  22.193  1.00  0.00     0.006 C 
BRANCH   6   7
ATOM      7  C   UNL     1     106.945 -78.388  21.073  1.00  0.00     0.053 C 
BRANCH   7   8
ATOM      8  C   UNL     1     107.378 -76.977  20.825  1.00  0.00     0.041 C 
ATOM      9  O   UNL     1     108.054 -76.692  19.802  1.00  0.00    -0.550 OA
ATOM     10  O   UNL     1     107.006 -75.968  21.706  1.00  0.00    -0.550 OA
ENDBRANCH   7   8
ENDBRANCH   6   7
ENDBRANCH   5   6
ENDBRANCH   4   5
ENDBRANCH   3   4
ENDBRANCH   2   3
ENDBRANCH   1   2
BRANCH   1  11
ATOM     11  C   UNL     1     107.539 -82.266  25.336  1.00  0.00     0.000 C 
BRANCH  11  12
ATOM     12  C   UNL     1     106.600 -82.741  24.215  1.00  0.00    -0.000 C 
BRANCH  12  13
ATOM     13  C   UNL     1     105.704 -81.612  23.677  1.00  0.00    -0.000 C 
BRANCH  13  14
ATOM     14  C   UNL     1     105.082 -81.951  22.312  1.00  0.00    -0.000 C 
BRANCH  14  15
ATOM     15  C   UNL     1     106.015 -82.804  21.433  1.00  0.00    -0.000 C 
BRANCH  15  16
ATOM     16  C   UNL     1     106.693 -81.985  20.323  1.00  0.00    -0.000 C 
BRANCH  16  17
ATOM     17  C   UNL     1     106.219 -82.385  18.917  1.00  0.00    -0.003 C 
ATOM     18  C   UNL     1     105.085 -81.482  18.443  1.00  0.00     0.004 C 
ENDBRANCH  16  17
ENDBRANCH  15  16
ENDBRANCH  14  15
ENDBRANCH  13  14
ENDBRANCH  12  13
ENDBRANCH  11  12
ENDBRANCH   1  11
TORSDOF 14
ENDMDL
MODEL 8
REMARK VINA RESULT:    -4.910      5.858      9.997
REMARK INTER + INTRA:         -11.168
REMARK INTER:                  -9.654
REMARK INTRA:                  -1.514
REMARK UNBOUND:                -2.239
REMARK SMILES CCCCCCCCCCCCCCCC(=O)[O-]
REMARK SMILES IDX 9 1 10 2 11 3 12 4 13 5 14 6 15 7 16 8 17 9 18 10 8 11 7 12
REMARK SMILES IDX 6 13 5 14 4 15 3 16 2 17 1 18
REMARK H PARENT
REMARK Flexibility Score: inf
ROOT
ATOM      1  C   UNL     1     116.280 -83.362  21.590  1.00  0.00     0.000 C 
ENDROOT
BRANCH   1   2
ATOM      2  C   UNL     1     115.358 -82.992  20.417  1.00  0.00     0.000 C 
BRANCH   2   3
ATOM      3  C   UNL     1     114.079 -83.845  20.375  1.00  0.00     0.000 C 
BRANCH   3   4
ATOM      4  C   UNL     1     113.033 -83.392  21.408  1.00  0.00     0.000 C 
BRANCH   4   5
ATOM      5  C   UNL     1     112.075 -82.329  20.849  1.00  0.00     0.000 C 
BRANCH   5   6
ATOM      6  C   UNL     1     111.210 -81.675  21.942  1.00  0.00     0.006 C 
BRANCH   6   7
ATOM      7  C   UNL     1     110.729 -82.693  22.986  1.00  0.00     0.053 C 
BRANCH   7   8
ATOM      8  C   UNL     1     109.401 -82.310  23.563  1.00  0.00     0.041 C 
ATOM      9  O   UNL     1     109.319 -81.918  24.756  1.00  0.00    -0.550 OA
ATOM     10  O   UNL     1     108.259 -82.355  22.773  1.00  0.00    -0.550 OA
ENDBRANCH   7   8
ENDBRANCH   6   7
ENDBRANCH   5   6
ENDBRANCH   4   5
ENDBRANCH   3   4
ENDBRANCH   2   3
ENDBRANCH   1   2
BRANCH   1  11
ATOM     11  C   UNL     1     117.756 -83.287  21.171  1.00  0.00     0.000 C 
BRANCH  11  12
ATOM     12  C   UNL     1     118.693 -82.960  22.346  1.00  0.00    -0.000 C 
BRANCH  12  13
ATOM     13  C   UNL     1     119.180 -81.501  22.324  1.00  0.00    -0.000 C 
BRANCH  13  14
ATOM     14  C   UNL     1     118.668 -80.725  21.099  1.00  0.00    -0.000 C 
BRANCH  14  15
ATOM     15  C   UNL     1     117.940 -79.425  21.484  1.00  0.00    -0.000 C 
BRANCH  15  16
ATOM     16  C   UNL     1     116.473 -79.662  21.877  1.00  0.00    -0.000 C 
BRANCH  16  17
ATOM     17  C   UNL     1     115.492 -79.299  20.752  1.00  0.00    -0.003 C 
ATOM     18  C   UNL     1     114.066 -79.183  21.284  1.00  0.00     0.004 C 
ENDBRANCH  16  17
ENDBRANCH  15  16
ENDBRANCH  14  15
ENDBRANCH  13  14
ENDBRANCH  12  13
ENDBRANCH  11  12
ENDBRANCH   1  11
TORSDOF 14
ENDMDL
MODEL 9
REMARK VINA RESULT:    -4.872      7.016      9.889
REMARK INTER + INTRA:         -11.099
REMARK INTER:                  -9.260
REMARK INTRA:                  -1.839
REMARK UNBOUND:                -2.239
REMARK SMILES CCCCCCCCCCCCCCCC(=O)[O-]
REMARK SMILES IDX 9 1 10 2 11 3 12 4 13 5 14 6 15 7 16 8 17 9 18 10 8 11 7 12
REMARK SMILES IDX 6 13 5 14 4 15 3 16 2 17 1 18
REMARK H PARENT
REMARK Flexibility Score: inf
ROOT
ATOM      1  C   UNL     1     113.782 -83.697  20.659  1.00  0.00     0.000 C 
ENDROOT
BRANCH   1   2
ATOM      2  C   UNL     1     115.133 -83.061  20.296  1.00  0.00     0.000 C 
BRANCH   2   3
ATOM      3  C   UNL     1     115.982 -82.722  21.533  1.00  0.00     0.000 C 
BRANCH   3   4
ATOM      4  C   UNL     1     117.378 -83.367  21.486  1.00  0.00     0.000 C 
BRANCH   4   5
ATOM      5  C   UNL     1     118.507 -82.326  21.464  1.00  0.00     0.000 C 
BRANCH   5   6
ATOM      6  C   UNL     1     118.947 -81.895  22.876  1.00  0.00     0.006 C 
BRANCH   6   7
ATOM      7  C   UNL     1     119.622 -83.039  23.646  1.00  0.00     0.053 C 
BRANCH   7   8
ATOM      8  C   UNL     1     119.812 -82.698  25.091  1.00  0.00     0.041 C 
ATOM      9  O   UNL     1     120.640 -81.812  25.430  1.00  0.00    -0.550 OA
ATOM     10  O   UNL     1     119.050 -83.335  26.064  1.00  0.00    -0.550 OA
ENDBRANCH   7   8
ENDBRANCH   6   7
ENDBRANCH   5   6
ENDBRANCH   4   5
ENDBRANCH   3   4
ENDBRANCH   2   3
ENDBRANCH   1   2
BRANCH   1  11
ATOM     11  C   UNL     1     113.156 -82.997  21.874  1.00  0.00     0.000 C 
BRANCH  11  12
ATOM     12  C   UNL     1     111.782 -82.378  21.562  1.00  0.00    -0.000 C 
BRANCH  12  13
ATOM     13  C   UNL     1     111.892 -81.071  20.759  1.00  0.00    -0.000 C 
BRANCH  13  14
ATOM     14  C   UNL     1     112.902 -80.085  21.371  1.00  0.00    -0.000 C 
BRANCH  14  15
ATOM     15  C   UNL     1     113.845 -79.475  20.318  1.00  0.00    -0.000 C 
BRANCH  15  16
ATOM     16  C   UNL     1     115.256 -79.216  20.868  1.00  0.00    -0.000 C 
BRANCH  16  17
ATOM     17  C   UNL     1     115.307 -79.232  22.403  1.00  0.00    -0.003 C 
ATOM     18  C   UNL     1     116.720 -78.957  22.909  1.00  0.00     0.004 C 
ENDBRANCH  16  17
ENDBRANCH  15  16
ENDBRANCH  14  15
ENDBRANCH  13  14
ENDBRANCH  12  13
ENDBRANCH  11  12
ENDBRANCH   1  11
TORSDOF 14
ENDMDL
