MODEL 1
REMARK VINA RESULT:    -7.727      0.000      0.000
REMARK INTER + INTRA:          -8.963
REMARK INTER:                  -9.308
REMARK INTRA:                   0.345
REMARK UNBOUND:                 0.345
REMARK SMILES O=c1c(O)c(-c2ccc(O)c(O)c2)oc2cc(O)cc(O)c12
REMARK SMILES IDX 5 1 3 2 2 3 1 4 22 5 20 6 19 7 17 8 16 9 15 10 14 11 6 12
REMARK SMILES IDX 7 13 8 14 9 15 13 16 11 17 10 18 12 20 4 22 21 24 18 26
REMARK H PARENT 10 19 12 21 4 23 21 25 18 27
REMARK Flexibility Score: inf
ROOT
ATOM      1  C   UNL     1      -1.148  -0.134  27.148  1.00  0.00     0.180 A 
ATOM      2  C   UNL     1      -0.307  -0.827  28.036  1.00  0.00     0.208 A 
ATOM      3  C   UNL     1      -0.724  -1.015  29.363  1.00  0.00     0.238 A 
ATOM      4  O   UNL     1       0.057  -1.589  30.166  1.00  0.00    -0.285 OA
ATOM      5  C   UNL     1      -1.982  -0.521  29.783  1.00  0.00     0.111 A 
ATOM      6  C   UNL     1      -2.523  -0.689  31.093  1.00  0.00     0.134 A 
ATOM      7  C   UNL     1      -3.719  -0.047  31.434  1.00  0.00     0.093 A 
ATOM      8  C   UNL     1      -4.427   0.705  30.493  1.00  0.00     0.123 A 
ATOM      9  C   UNL     1      -3.938   0.825  29.194  1.00  0.00     0.094 A 
ATOM     10  C   UNL     1      -2.728   0.225  28.834  1.00  0.00     0.146 A 
ATOM     11  O   UNL     1      -2.293   0.374  27.588  1.00  0.00    -0.452 OA
ENDROOT
BRANCH   1  12
ATOM     12  C   UNL     1      -0.789   0.081  25.728  1.00  0.00     0.025 A 
ATOM     13  C   UNL     1      -1.806   0.239  24.775  1.00  0.00     0.016 A 
ATOM     14  C   UNL     1      -1.490   0.423  23.428  1.00  0.00     0.051 A 
ATOM     15  C   UNL     1      -0.157   0.439  23.003  1.00  0.00     0.157 A 
ATOM     16  C   UNL     1       0.550   0.075  25.301  1.00  0.00     0.062 A 
ATOM     17  C   UNL     1       0.876   0.256  23.951  1.00  0.00     0.158 A 
BRANCH  15  18
ATOM     18  O   UNL     1       0.091   0.636  21.642  1.00  0.00    -0.504 OA
ATOM     19  H   UNL     1       0.243   1.541  21.222  1.00  0.00     0.293 HD
ENDBRANCH  15  18
BRANCH  17  20
ATOM     20  O   UNL     1       2.228   0.239  23.599  1.00  0.00    -0.504 OA
ATOM     21  H   UNL     1       2.767   1.067  23.388  1.00  0.00     0.293 HD
ENDBRANCH  17  20
ENDBRANCH   1  12
BRANCH   2  22
ATOM     22  O   UNL     1       0.942  -1.287  27.606  1.00  0.00    -0.502 OA
ATOM     23  H   UNL     1       1.159  -2.273  27.522  1.00  0.00     0.293 HD
ENDBRANCH   2  22
BRANCH   6  24
ATOM     24  O   UNL     1      -1.943  -1.493  32.079  1.00  0.00    -0.507 OA
ATOM     25  H   UNL     1      -2.263  -2.417  32.330  1.00  0.00     0.293 HD
ENDBRANCH   6  24
BRANCH   8  26
ATOM     26  O   UNL     1      -5.625   1.328  30.836  1.00  0.00    -0.508 OA
ATOM     27  H   UNL     1      -5.882   1.484  31.804  1.00  0.00     0.293 HD
ENDBRANCH   8  26
TORSDOF 6
ENDMDL
MODEL 2
REMARK VINA RESULT:    -7.596      4.942     11.011
REMARK INTER + INTRA:          -8.805
REMARK INTER:                  -9.125
REMARK INTRA:                   0.320
REMARK UNBOUND:                 0.345
REMARK SMILES O=c1c(O)c(-c2ccc(O)c(O)c2)oc2cc(O)cc(O)c12
REMARK SMILES IDX 5 1 3 2 2 3 1 4 22 5 20 6 19 7 17 8 16 9 15 10 14 11 6 12
REMARK SMILES IDX 7 13 8 14 9 15 13 16 11 17 10 18 12 20 4 22 21 24 18 26
REMARK H PARENT 10 19 12 21 4 23 21 25 18 27
REMARK Flexibility Score: inf
ROOT
ATOM      1  C   UNL     1       0.745   0.048  19.733  1.00  0.00     0.180 A 
ATOM      2  C   UNL     1      -0.054  -0.585  18.765  1.00  0.00     0.208 A 
ATOM      3  C   UNL     1       0.402  -0.641  17.438  1.00  0.00     0.238 A 
ATOM      4  O   UNL     1      -0.342  -1.161  16.566  1.00  0.00    -0.285 OA
ATOM      5  C   UNL     1       1.655  -0.078  17.098  1.00  0.00     0.111 A 
ATOM      6  C   UNL     1       2.233  -0.113  15.794  1.00  0.00     0.134 A 
ATOM      7  C   UNL     1       3.417   0.590  15.544  1.00  0.00     0.093 A 
ATOM      8  C   UNL     1       4.080   1.272  16.567  1.00  0.00     0.123 A 
ATOM      9  C   UNL     1       3.555   1.262  17.857  1.00  0.00     0.094 A 
ATOM     10  C   UNL     1       2.356   0.600  18.130  1.00  0.00     0.146 A 
ATOM     11  O   UNL     1       1.886   0.625  19.372  1.00  0.00    -0.452 OA
ENDROOT
BRANCH   1  12
ATOM     12  C   UNL     1       0.345   0.125  21.157  1.00  0.00     0.025 A 
ATOM     13  C   UNL     1      -1.015   0.200  21.489  1.00  0.00     0.016 A 
ATOM     14  C   UNL     1      -1.413   0.294  22.824  1.00  0.00     0.051 A 
ATOM     15  C   UNL     1      -0.463   0.328  23.851  1.00  0.00     0.157 A 
ATOM     16  C   UNL     1       1.302   0.181  22.185  1.00  0.00     0.062 A 
ATOM     17  C   UNL     1       0.912   0.278  23.526  1.00  0.00     0.158 A 
BRANCH  15  18
ATOM     18  O   UNL     1      -0.927   0.413  25.166  1.00  0.00    -0.504 OA
ATOM     19  H   UNL     1      -1.731  -0.089  25.514  1.00  0.00     0.293 HD
ENDBRANCH  15  18
BRANCH  17  20
ATOM     20  O   UNL     1       1.918   0.328  24.495  1.00  0.00    -0.504 OA
ATOM     21  H   UNL     1       2.746   0.900  24.421  1.00  0.00     0.293 HD
ENDBRANCH  17  20
ENDBRANCH   1  12
BRANCH   2  22
ATOM     22  O   UNL     1      -1.298  -1.115  19.118  1.00  0.00    -0.502 OA
ATOM     23  H   UNL     1      -1.581  -1.242  20.082  1.00  0.00     0.293 HD
ENDBRANCH   2  22
BRANCH   6  24
ATOM     24  O   UNL     1       1.701  -0.839  14.724  1.00  0.00    -0.507 OA
ATOM     25  H   UNL     1       1.035  -0.476  14.057  1.00  0.00     0.293 HD
ENDBRANCH   6  24
BRANCH   8  26
ATOM     26  O   UNL     1       5.267   1.956  16.313  1.00  0.00    -0.508 OA
ATOM     27  H   UNL     1       5.849   2.304  17.066  1.00  0.00     0.293 HD
ENDBRANCH   8  26
TORSDOF 6
ENDMDL
MODEL 3
REMARK VINA RESULT:    -7.594      0.610      1.439
REMARK INTER + INTRA:          -8.803
REMARK INTER:                  -9.164
REMARK INTRA:                   0.360
REMARK UNBOUND:                 0.345
REMARK SMILES O=c1c(O)c(-c2ccc(O)c(O)c2)oc2cc(O)cc(O)c12
REMARK SMILES IDX 5 1 3 2 2 3 1 4 22 5 20 6 19 7 17 8 16 9 15 10 14 11 6 12
REMARK SMILES IDX 7 13 8 14 9 15 13 16 11 17 10 18 12 20 4 22 21 24 18 26
REMARK H PARENT 10 19 12 21 4 23 21 25 18 27
REMARK Flexibility Score: inf
ROOT
ATOM      1  C   UNL     1      -0.880  -0.338  27.216  1.00  0.00     0.180 A 
ATOM      2  C   UNL     1      -0.104  -1.076  28.127  1.00  0.00     0.208 A 
ATOM      3  C   UNL     1      -0.576  -1.251  29.438  1.00  0.00     0.238 A 
ATOM      4  O   UNL     1       0.149  -1.866  30.263  1.00  0.00    -0.285 OA
ATOM      5  C   UNL     1      -1.823  -0.700  29.818  1.00  0.00     0.111 A 
ATOM      6  C   UNL     1      -2.416  -0.849  31.107  1.00  0.00     0.134 A 
ATOM      7  C   UNL     1      -3.591  -0.152  31.411  1.00  0.00     0.093 A 
ATOM      8  C   UNL     1      -4.230   0.638  30.452  1.00  0.00     0.123 A 
ATOM      9  C   UNL     1      -3.690   0.742  29.172  1.00  0.00     0.094 A 
ATOM     10  C   UNL     1      -2.499   0.087  28.849  1.00  0.00     0.146 A 
ATOM     11  O   UNL     1      -2.015   0.222  27.620  1.00  0.00    -0.452 OA
ENDROOT
BRANCH   1  12
ATOM     12  C   UNL     1      -0.463  -0.132  25.810  1.00  0.00     0.025 A 
ATOM     13  C   UNL     1       0.903  -0.127  25.489  1.00  0.00     0.016 A 
ATOM     14  C   UNL     1       1.318   0.085  24.174  1.00  0.00     0.051 A 
ATOM     15  C   UNL     1       0.384   0.310  23.157  1.00  0.00     0.157 A 
ATOM     16  C   UNL     1      -1.403   0.114  24.795  1.00  0.00     0.062 A 
ATOM     17  C   UNL     1      -0.995   0.331  23.473  1.00  0.00     0.158 A 
BRANCH  15  18
ATOM     18  O   UNL     1       0.865   0.507  21.860  1.00  0.00    -0.504 OA
ATOM     19  H   UNL     1       0.962  -0.230  21.177  1.00  0.00     0.293 HD
ENDBRANCH  15  18
BRANCH  17  20
ATOM     20  O   UNL     1      -1.984   0.569  22.516  1.00  0.00    -0.504 OA
ATOM     21  H   UNL     1      -2.301   1.490  22.248  1.00  0.00     0.293 HD
ENDBRANCH  17  20
ENDBRANCH   1  12
BRANCH   2  22
ATOM     22  O   UNL     1       1.135  -1.593  27.737  1.00  0.00    -0.502 OA
ATOM     23  H   UNL     1       1.723  -2.127  28.365  1.00  0.00     0.293 HD
ENDBRANCH   2  22
BRANCH   6  24
ATOM     24  O   UNL     1      -1.909  -1.685  32.106  1.00  0.00    -0.507 OA
ATOM     25  H   UNL     1      -0.928  -1.821  32.299  1.00  0.00     0.293 HD
ENDBRANCH   6  24
BRANCH   8  26
ATOM     26  O   UNL     1      -5.407   1.316  30.759  1.00  0.00    -0.508 OA
ATOM     27  H   UNL     1      -6.014   1.011  31.511  1.00  0.00     0.293 HD
ENDBRANCH   8  26
TORSDOF 6
ENDMDL
MODEL 4
REMARK VINA RESULT:    -7.489      5.242     11.265
REMARK INTER + INTRA:          -8.676
REMARK INTER:                  -8.520
REMARK INTRA:                  -0.156
REMARK UNBOUND:                 0.345
REMARK SMILES O=c1c(O)c(-c2ccc(O)c(O)c2)oc2cc(O)cc(O)c12
REMARK SMILES IDX 5 1 3 2 2 3 1 4 22 5 20 6 19 7 17 8 16 9 15 10 14 11 6 12
REMARK SMILES IDX 7 13 8 14 9 15 13 16 11 17 10 18 12 20 4 22 21 24 18 26
REMARK H PARENT 10 19 12 21 4 23 21 25 18 27
REMARK Flexibility Score: inf
ROOT
ATOM      1  C   UNL     1       0.916  -0.468  19.532  1.00  0.00     0.180 A 
ATOM      2  C   UNL     1       0.048  -0.887  18.509  1.00  0.00     0.208 A 
ATOM      3  C   UNL     1       0.456  -0.752  17.172  1.00  0.00     0.238 A 
ATOM      4  O   UNL     1      -0.347  -1.079  16.260  1.00  0.00    -0.285 OA
ATOM      5  C   UNL     1       1.731  -0.214  16.875  1.00  0.00     0.111 A 
ATOM      6  C   UNL     1       2.264  -0.070  15.560  1.00  0.00     0.134 A 
ATOM      7  C   UNL     1       3.482   0.594  15.377  1.00  0.00     0.093 A 
ATOM      8  C   UNL     1       4.219   1.061  16.468  1.00  0.00     0.123 A 
ATOM      9  C   UNL     1       3.736   0.871  17.761  1.00  0.00     0.094 A 
ATOM     10  C   UNL     1       2.506   0.244  17.973  1.00  0.00     0.146 A 
ATOM     11  O   UNL     1       2.078   0.093  19.221  1.00  0.00    -0.452 OA
ENDROOT
BRANCH   1  12
ATOM     12  C   UNL     1       0.567  -0.601  20.965  1.00  0.00     0.025 A 
ATOM     13  C   UNL     1       0.532   0.542  21.777  1.00  0.00     0.016 A 
ATOM     14  C   UNL     1       0.225   0.436  23.134  1.00  0.00     0.051 A 
ATOM     15  C   UNL     1      -0.038  -0.811  23.711  1.00  0.00     0.157 A 
ATOM     16  C   UNL     1       0.324  -1.858  21.546  1.00  0.00     0.062 A 
ATOM     17  C   UNL     1       0.019  -1.974  22.908  1.00  0.00     0.158 A 
BRANCH  15  18
ATOM     18  O   UNL     1      -0.347  -0.848  25.073  1.00  0.00    -0.504 OA
ATOM     19  H   UNL     1      -0.783  -0.086  25.573  1.00  0.00     0.293 HD
ENDBRANCH  15  18
BRANCH  17  20
ATOM     20  O   UNL     1      -0.212  -3.254  23.418  1.00  0.00    -0.504 OA
ATOM     21  H   UNL     1       0.050  -3.547  24.348  1.00  0.00     0.293 HD
ENDBRANCH  17  20
ENDBRANCH   1  12
BRANCH   2  22
ATOM     22  O   UNL     1      -1.217  -1.394  18.824  1.00  0.00    -0.502 OA
ATOM     23  H   UNL     1      -1.916  -0.847  19.311  1.00  0.00     0.293 HD
ENDBRANCH   2  22
BRANCH   6  24
ATOM     24  O   UNL     1       1.652  -0.580  14.410  1.00  0.00    -0.507 OA
ATOM     25  H   UNL     1       1.411  -0.033  13.597  1.00  0.00     0.293 HD
ENDBRANCH   6  24
BRANCH   8  26
ATOM     26  O   UNL     1       5.439   1.707  16.278  1.00  0.00    -0.508 OA
ATOM     27  H   UNL     1       5.707   2.508  16.837  1.00  0.00     0.293 HD
ENDBRANCH   8  26
TORSDOF 6
ENDMDL
MODEL 5
REMARK VINA RESULT:    -7.359      1.320      1.401
REMARK INTER + INTRA:          -8.520
REMARK INTER:                  -8.244
REMARK INTRA:                  -0.276
REMARK UNBOUND:                 0.345
REMARK SMILES O=c1c(O)c(-c2ccc(O)c(O)c2)oc2cc(O)cc(O)c12
REMARK SMILES IDX 5 1 3 2 2 3 1 4 22 5 20 6 19 7 17 8 16 9 15 10 14 11 6 12
REMARK SMILES IDX 7 13 8 14 9 15 13 16 11 17 10 18 12 20 4 22 21 24 18 26
REMARK H PARENT 10 19 12 21 4 23 21 25 18 27
REMARK Flexibility Score: inf
ROOT
ATOM      1  C   UNL     1      -1.056  -1.116  27.474  1.00  0.00     0.180 A 
ATOM      2  C   UNL     1      -0.163  -1.519  28.482  1.00  0.00     0.208 A 
ATOM      3  C   UNL     1      -0.558  -1.408  29.825  1.00  0.00     0.238 A 
ATOM      4  O   UNL     1       0.266  -1.720  30.724  1.00  0.00    -0.285 OA
ATOM      5  C   UNL     1      -1.845  -0.912  30.143  1.00  0.00     0.111 A 
ATOM      6  C   UNL     1      -2.364  -0.795  31.467  1.00  0.00     0.134 A 
ATOM      7  C   UNL     1      -3.600  -0.169  31.672  1.00  0.00     0.093 A 
ATOM      8  C   UNL     1      -4.364   0.287  30.594  1.00  0.00     0.123 A 
ATOM      9  C   UNL     1      -3.892   0.123  29.294  1.00  0.00     0.094 A 
ATOM     10  C   UNL     1      -2.647  -0.466  29.060  1.00  0.00     0.146 A 
ATOM     11  O   UNL     1      -2.231  -0.592  27.805  1.00  0.00    -0.452 OA
ENDROOT
BRANCH   1  12
ATOM     12  C   UNL     1      -0.722  -1.225  26.036  1.00  0.00     0.025 A 
ATOM     13  C   UNL     1      -0.754  -2.482  25.413  1.00  0.00     0.016 A 
ATOM     14  C   UNL     1      -0.423  -2.610  24.063  1.00  0.00     0.051 A 
ATOM     15  C   UNL     1      -0.041  -1.493  23.312  1.00  0.00     0.157 A 
ATOM     16  C   UNL     1      -0.318  -0.105  25.290  1.00  0.00     0.062 A 
ATOM     17  C   UNL     1       0.019  -0.225  23.936  1.00  0.00     0.158 A 
BRANCH  15  18
ATOM     18  O   UNL     1       0.269  -1.689  21.964  1.00  0.00    -0.504 OA
ATOM     19  H   UNL     1       0.878  -2.420  21.626  1.00  0.00     0.293 HD
ENDBRANCH  15  18
BRANCH  17  20
ATOM     20  O   UNL     1       0.410   0.931  23.256  1.00  0.00    -0.504 OA
ATOM     21  H   UNL     1       0.133   1.152  22.311  1.00  0.00     0.293 HD
ENDBRANCH  17  20
ENDBRANCH   1  12
BRANCH   2  22
ATOM     22  O   UNL     1       1.111  -1.986  28.147  1.00  0.00    -0.502 OA
ATOM     23  H   UNL     1       1.801  -2.233  28.846  1.00  0.00     0.293 HD
ENDBRANCH   2  22
BRANCH   6  24
ATOM     24  O   UNL     1      -1.724  -1.298  32.603  1.00  0.00    -0.507 OA
ATOM     25  H   UNL     1      -0.774  -1.084  32.870  1.00  0.00     0.293 HD
ENDBRANCH   6  24
BRANCH   8  26
ATOM     26  O   UNL     1      -5.599   0.895  30.805  1.00  0.00    -0.508 OA
ATOM     27  H   UNL     1      -6.363   0.785  30.149  1.00  0.00     0.293 HD
ENDBRANCH   8  26
TORSDOF 6
ENDMDL
MODEL 6
REMARK VINA RESULT:    -7.230      6.049      9.267
REMARK INTER + INTRA:          -8.365
REMARK INTER:                  -8.170
REMARK INTRA:                  -0.194
REMARK UNBOUND:                 0.345
REMARK SMILES O=c1c(O)c(-c2ccc(O)c(O)c2)oc2cc(O)cc(O)c12
REMARK SMILES IDX 5 1 3 2 2 3 1 4 22 5 20 6 19 7 17 8 16 9 15 10 14 11 6 12
REMARK SMILES IDX 7 13 8 14 9 15 13 16 11 17 10 18 12 20 4 22 21 24 18 26
REMARK H PARENT 10 19 12 21 4 23 21 25 18 27
REMARK Flexibility Score: inf
ROOT
ATOM      1  C   UNL     1       1.734  -1.044  18.629  1.00  0.00     0.180 A 
ATOM      2  C   UNL     1       1.828  -2.442  18.739  1.00  0.00     0.208 A 
ATOM      3  C   UNL     1       1.129  -3.092  19.770  1.00  0.00     0.238 A 
ATOM      4  O   UNL     1       1.261  -4.337  19.896  1.00  0.00    -0.285 OA
ATOM      5  C   UNL     1       0.335  -2.339  20.666  1.00  0.00     0.111 A 
ATOM      6  C   UNL     1      -0.447  -2.897  21.722  1.00  0.00     0.134 A 
ATOM      7  C   UNL     1      -1.092  -2.047  22.628  1.00  0.00     0.093 A 
ATOM      8  C   UNL     1      -1.036  -0.659  22.479  1.00  0.00     0.123 A 
ATOM      9  C   UNL     1      -0.324  -0.106  21.417  1.00  0.00     0.094 A 
ATOM     10  C   UNL     1       0.359  -0.928  20.516  1.00  0.00     0.146 A 
ATOM     11  O   UNL     1       1.033  -0.358  19.525  1.00  0.00    -0.452 OA
ENDROOT
BRANCH   1  12
ATOM     12  C   UNL     1       2.420  -0.290  17.555  1.00  0.00     0.025 A 
ATOM     13  C   UNL     1       3.394   0.661  17.892  1.00  0.00     0.016 A 
ATOM     14  C   UNL     1       4.038   1.396  16.896  1.00  0.00     0.051 A 
ATOM     15  C   UNL     1       3.715   1.209  15.548  1.00  0.00     0.157 A 
ATOM     16  C   UNL     1       2.077  -0.465  16.203  1.00  0.00     0.062 A 
ATOM     17  C   UNL     1       2.716   0.271  15.197  1.00  0.00     0.158 A 
BRANCH  15  18
ATOM     18  O   UNL     1       4.403   1.971  14.600  1.00  0.00    -0.504 OA
ATOM     19  H   UNL     1       5.167   2.591  14.822  1.00  0.00     0.293 HD
ENDBRANCH  15  18
BRANCH  17  20
ATOM     20  O   UNL     1       2.325   0.044  13.875  1.00  0.00    -0.504 OA
ATOM     21  H   UNL     1       1.467   0.391  13.472  1.00  0.00     0.293 HD
ENDBRANCH  17  20
ENDBRANCH   1  12
BRANCH   2  22
ATOM     22  O   UNL     1       2.637  -3.164  17.856  1.00  0.00    -0.502 OA
ATOM     23  H   UNL     1       2.639  -4.176  17.826  1.00  0.00     0.293 HD
ENDBRANCH   2  22
BRANCH   6  24
ATOM     24  O   UNL     1      -0.643  -4.269  21.905  1.00  0.00    -0.507 OA
ATOM     25  H   UNL     1       0.098  -4.945  22.025  1.00  0.00     0.293 HD
ENDBRANCH   6  24
BRANCH   8  26
ATOM     26  O   UNL     1      -1.693   0.179  23.377  1.00  0.00    -0.508 OA
ATOM     27  H   UNL     1      -2.267   0.951  23.058  1.00  0.00     0.293 HD
ENDBRANCH   8  26
TORSDOF 6
ENDMDL
MODEL 7
REMARK VINA RESULT:    -7.116      2.256      7.064
REMARK INTER + INTRA:          -8.227
REMARK INTER:                  -7.949
REMARK INTRA:                  -0.278
REMARK UNBOUND:                 0.345
REMARK SMILES O=c1c(O)c(-c2ccc(O)c(O)c2)oc2cc(O)cc(O)c12
REMARK SMILES IDX 5 1 3 2 2 3 1 4 22 5 20 6 19 7 17 8 16 9 15 10 14 11 6 12
REMARK SMILES IDX 7 13 8 14 9 15 13 16 11 17 10 18 12 20 4 22 21 24 18 26
REMARK H PARENT 10 19 12 21 4 23 21 25 18 27
REMARK Flexibility Score: inf
ROOT
ATOM      1  C   UNL     1      -1.864  -1.588  28.564  1.00  0.00     0.180 A 
ATOM      2  C   UNL     1      -2.089  -2.917  28.165  1.00  0.00     0.208 A 
ATOM      3  C   UNL     1      -1.458  -3.396  27.006  1.00  0.00     0.238 A 
ATOM      4  O   UNL     1      -1.706  -4.569  26.625  1.00  0.00    -0.285 OA
ATOM      5  C   UNL     1      -0.599  -2.546  26.269  1.00  0.00     0.111 A 
ATOM      6  C   UNL     1       0.124  -2.938  25.103  1.00  0.00     0.134 A 
ATOM      7  C   UNL     1       0.843  -1.978  24.380  1.00  0.00     0.093 A 
ATOM      8  C   UNL     1       0.918  -0.654  24.818  1.00  0.00     0.123 A 
ATOM      9  C   UNL     1       0.265  -0.275  25.989  1.00  0.00     0.094 A 
ATOM     10  C   UNL     1      -0.490  -1.202  26.712  1.00  0.00     0.146 A 
ATOM     11  O   UNL     1      -1.105  -0.795  27.817  1.00  0.00    -0.452 OA
ENDROOT
BRANCH   1  12
ATOM     12  C   UNL     1      -2.473  -1.019  29.788  1.00  0.00     0.025 A 
ATOM     13  C   UNL     1      -1.952  -1.365  31.044  1.00  0.00     0.016 A 
ATOM     14  C   UNL     1      -2.525  -0.855  32.211  1.00  0.00     0.051 A 
ATOM     15  C   UNL     1      -3.633  -0.004  32.150  1.00  0.00     0.157 A 
ATOM     16  C   UNL     1      -3.600  -0.181  29.725  1.00  0.00     0.062 A 
ATOM     17  C   UNL     1      -4.182   0.332  30.890  1.00  0.00     0.158 A 
BRANCH  15  18
ATOM     18  O   UNL     1      -4.152   0.478  33.354  1.00  0.00    -0.504 OA
ATOM     19  H   UNL     1      -4.002   0.037  34.250  1.00  0.00     0.293 HD
ENDBRANCH  15  18
BRANCH  17  20
ATOM     20  O   UNL     1      -5.299   1.160  30.751  1.00  0.00    -0.504 OA
ATOM     21  H   UNL     1      -5.442   1.789  29.975  1.00  0.00     0.293 HD
ENDBRANCH  17  20
ENDBRANCH   1  12
BRANCH   2  22
ATOM     22  O   UNL     1      -2.959  -3.732  28.896  1.00  0.00    -0.502 OA
ATOM     23  H   UNL     1      -3.290  -4.624  28.547  1.00  0.00     0.293 HD
ENDBRANCH   2  22
BRANCH   6  24
ATOM     24  O   UNL     1       0.190  -4.252  24.631  1.00  0.00    -0.507 OA
ATOM     25  H   UNL     1       0.823  -4.575  23.914  1.00  0.00     0.293 HD
ENDBRANCH   6  24
BRANCH   8  26
ATOM     26  O   UNL     1       1.648   0.292  24.102  1.00  0.00    -0.508 OA
ATOM     27  H   UNL     1       1.803   1.226  24.462  1.00  0.00     0.293 HD
ENDBRANCH   8  26
TORSDOF 6
ENDMDL
MODEL 8
REMARK VINA RESULT:    -7.027      4.292      9.954
REMARK INTER + INTRA:          -8.120
REMARK INTER:                  -7.841
REMARK INTRA:                  -0.279
REMARK UNBOUND:                 0.345
REMARK SMILES O=c1c(O)c(-c2ccc(O)c(O)c2)oc2cc(O)cc(O)c12
REMARK SMILES IDX 5 1 3 2 2 3 1 4 22 5 20 6 19 7 17 8 16 9 15 10 14 11 6 12
REMARK SMILES IDX 7 13 8 14 9 15 13 16 11 17 10 18 12 20 4 22 21 24 18 26
REMARK H PARENT 10 19 12 21 4 23 21 25 18 27
REMARK Flexibility Score: inf
ROOT
ATOM      1  C   UNL     1       0.060  -0.603  20.763  1.00  0.00     0.180 A 
ATOM      2  C   UNL     1       1.123   0.119  20.193  1.00  0.00     0.208 A 
ATOM      3  C   UNL     1       1.411  -0.056  18.830  1.00  0.00     0.238 A 
ATOM      4  O   UNL     1       2.398   0.551  18.339  1.00  0.00    -0.285 OA
ATOM      5  C   UNL     1       0.624  -0.938  18.051  1.00  0.00     0.111 A 
ATOM      6  C   UNL     1       0.801  -1.161  16.653  1.00  0.00     0.134 A 
ATOM      7  C   UNL     1       0.049  -2.152  16.011  1.00  0.00     0.093 A 
ATOM      8  C   UNL     1      -0.920  -2.883  16.703  1.00  0.00     0.123 A 
ATOM      9  C   UNL     1      -1.141  -2.630  18.055  1.00  0.00     0.094 A 
ATOM     10  C   UNL     1      -0.382  -1.672  18.731  1.00  0.00     0.146 A 
ATOM     11  O   UNL     1      -0.619  -1.471  20.022  1.00  0.00    -0.452 OA
ENDROOT
BRANCH   1  12
ATOM     12  C   UNL     1      -0.321  -0.453  22.186  1.00  0.00     0.025 A 
ATOM     13  C   UNL     1      -1.410   0.363  22.527  1.00  0.00     0.016 A 
ATOM     14  C   UNL     1      -1.773   0.534  23.864  1.00  0.00     0.051 A 
ATOM     15  C   UNL     1      -1.051  -0.092  24.886  1.00  0.00     0.157 A 
ATOM     16  C   UNL     1       0.420  -1.065  23.212  1.00  0.00     0.062 A 
ATOM     17  C   UNL     1       0.064  -0.896  24.556  1.00  0.00     0.158 A 
BRANCH  15  18
ATOM     18  O   UNL     1      -1.472   0.113  26.202  1.00  0.00    -0.504 OA
ATOM     19  H   UNL     1      -2.421  -0.024  26.519  1.00  0.00     0.293 HD
ENDBRANCH  15  18
BRANCH  17  20
ATOM     20  O   UNL     1       0.845  -1.536  25.522  1.00  0.00    -0.504 OA
ATOM     21  H   UNL     1       0.782  -1.350  26.512  1.00  0.00     0.293 HD
ENDBRANCH  17  20
ENDBRANCH   1  12
BRANCH   2  22
ATOM     22  O   UNL     1       1.902   0.967  20.987  1.00  0.00    -0.502 OA
ATOM     23  H   UNL     1       2.563   1.624  20.592  1.00  0.00     0.293 HD
ENDBRANCH   2  22
BRANCH   6  24
ATOM     24  O   UNL     1       1.676  -0.424  15.850  1.00  0.00    -0.507 OA
ATOM     25  H   UNL     1       2.622  -0.698  15.628  1.00  0.00     0.293 HD
ENDBRANCH   6  24
BRANCH   8  26
ATOM     26  O   UNL     1      -1.675  -3.856  16.053  1.00  0.00    -0.508 OA
ATOM     27  H   UNL     1      -2.416  -4.357  16.529  1.00  0.00     0.293 HD
ENDBRANCH   8  26
TORSDOF 6
ENDMDL
MODEL 9
REMARK VINA RESULT:    -6.949      6.586      9.337
REMARK INTER + INTRA:          -8.026
REMARK INTER:                  -7.752
REMARK INTRA:                  -0.274
REMARK UNBOUND:                 0.345
REMARK SMILES O=c1c(O)c(-c2ccc(O)c(O)c2)oc2cc(O)cc(O)c12
REMARK SMILES IDX 5 1 3 2 2 3 1 4 22 5 20 6 19 7 17 8 16 9 15 10 14 11 6 12
REMARK SMILES IDX 7 13 8 14 9 15 13 16 11 17 10 18 12 20 4 22 21 24 18 26
REMARK H PARENT 10 19 12 21 4 23 21 25 18 27
REMARK Flexibility Score: inf
ROOT
ATOM      1  C   UNL     1       1.165  -0.746  18.781  1.00  0.00     0.180 A 
ATOM      2  C   UNL     1       0.295   0.078  19.516  1.00  0.00     0.208 A 
ATOM      3  C   UNL     1      -0.349  -0.449  20.646  1.00  0.00     0.238 A 
ATOM      4  O   UNL     1      -1.168   0.277  21.268  1.00  0.00    -0.285 OA
ATOM      5  C   UNL     1      -0.105  -1.787  21.037  1.00  0.00     0.111 A 
ATOM      6  C   UNL     1      -0.672  -2.412  22.188  1.00  0.00     0.134 A 
ATOM      7  C   UNL     1      -0.463  -3.779  22.405  1.00  0.00     0.093 A 
ATOM      8  C   UNL     1       0.346  -4.530  21.548  1.00  0.00     0.123 A 
ATOM      9  C   UNL     1       0.953  -3.915  20.456  1.00  0.00     0.094 A 
ATOM     10  C   UNL     1       0.734  -2.560  20.193  1.00  0.00     0.146 A 
ATOM     11  O   UNL     1       1.324  -2.017  19.134  1.00  0.00    -0.452 OA
ENDROOT
BRANCH   1  12
ATOM     12  C   UNL     1       1.900  -0.256  17.593  1.00  0.00     0.025 A 
ATOM     13  C   UNL     1       1.529  -0.704  16.317  1.00  0.00     0.016 A 
ATOM     14  C   UNL     1       2.222  -0.269  15.186  1.00  0.00     0.051 A 
ATOM     15  C   UNL     1       3.305   0.608  15.305  1.00  0.00     0.157 A 
ATOM     16  C   UNL     1       3.002   0.608  17.718  1.00  0.00     0.062 A 
ATOM     17  C   UNL     1       3.705   1.047  16.589  1.00  0.00     0.158 A 
BRANCH  15  18
ATOM     18  O   UNL     1       3.950   1.011  14.134  1.00  0.00    -0.504 OA
ATOM     19  H   UNL     1       3.472   1.208  13.266  1.00  0.00     0.293 HD
ENDBRANCH  15  18
BRANCH  17  20
ATOM     20  O   UNL     1       4.789   1.905  16.789  1.00  0.00    -0.504 OA
ATOM     21  H   UNL     1       5.142   2.542  16.088  1.00  0.00     0.293 HD
ENDBRANCH  17  20
ENDBRANCH   1  12
BRANCH   2  22
ATOM     22  O   UNL     1       0.051   1.390  19.099  1.00  0.00    -0.502 OA
ATOM     23  H   UNL     1       0.556   1.819  18.333  1.00  0.00     0.293 HD
ENDBRANCH   2  22
BRANCH   6  24
ATOM     24  O   UNL     1      -1.420  -1.734  23.155  1.00  0.00    -0.507 OA
ATOM     25  H   UNL     1      -1.285  -0.767  23.412  1.00  0.00     0.293 HD
ENDBRANCH   6  24
BRANCH   8  26
ATOM     26  O   UNL     1       0.561  -5.886  21.781  1.00  0.00    -0.508 OA
ATOM     27  H   UNL     1      -0.146  -6.468  22.213  1.00  0.00     0.293 HD
ENDBRANCH   8  26
TORSDOF 6
ENDMDL
