MODEL 1
REMARK VINA RESULT:    -3.052      0.000      0.000
REMARK INTER + INTRA:          -8.447
REMARK INTER:                  -5.907
REMARK INTRA:                  -2.540
REMARK UNBOUND:                -2.540
REMARK SMILES CCCCCCCCCCCCCCCCCC(=O)[O-]
REMARK SMILES IDX 10 1 11 2 12 3 13 4 14 5 15 6 16 7 17 8 18 9 19 10 20 11
REMARK SMILES IDX 9 12 8 13 7 14 6 15 5 16 4 17 3 18 2 19 1 20
REMARK H PARENT
REMARK Flexibility Score: inf
ROOT
ATOM      1  C   UNL     1     141.047 142.130 146.528  1.00  0.00     0.000 C 
ENDROOT
BRANCH   1   2
ATOM      2  C   UNL     1     141.293 141.003 145.503  1.00  0.00     0.000 C 
BRANCH   2   3
ATOM      3  C   UNL     1     142.494 140.118 145.883  1.00  0.00     0.000 C 
BRANCH   3   4
ATOM      4  C   UNL     1     142.880 140.266 147.371  1.00  0.00     0.000 C 
BRANCH   4   5
ATOM      5  C   UNL     1     144.386 140.486 147.599  1.00  0.00     0.000 C 
BRANCH   5   6
ATOM      6  C   UNL     1     144.756 141.970 147.755  1.00  0.00     0.000 C 
BRANCH   6   7
ATOM      7  C   UNL     1     145.144 142.624 146.413  1.00  0.00     0.006 C 
BRANCH   7   8
ATOM      8  C   UNL     1     146.064 141.749 145.547  1.00  0.00     0.053 C 
BRANCH   8   9
ATOM      9  C   UNL     1     145.777 141.896 144.085  1.00  0.00     0.041 C 
ATOM     10  O   UNL     1     146.708 141.799 143.243  1.00  0.00    -0.550 OA
ATOM     11  O   UNL     1     144.477 142.116 143.650  1.00  0.00    -0.550 OA
ENDBRANCH   8   9
ENDBRANCH   7   8
ENDBRANCH   6   7
ENDBRANCH   5   6
ENDBRANCH   4   5
ENDBRANCH   3   4
ENDBRANCH   2   3
ENDBRANCH   1   2
BRANCH   1  12
ATOM     12  C   UNL     1     141.656 143.486 146.122  1.00  0.00     0.000 C 
BRANCH  12  13
ATOM     13  C   UNL     1     141.898 144.464 147.285  1.00  0.00    -0.000 C 
BRANCH  13  14
ATOM     14  C   UNL     1     141.378 143.927 148.630  1.00  0.00    -0.000 C 
BRANCH  14  15
ATOM     15  C   UNL     1     142.465 143.904 149.719  1.00  0.00    -0.000 C 
BRANCH  15  16
ATOM     16  C   UNL     1     142.337 142.752 150.734  1.00  0.00    -0.000 C 
BRANCH  16  17
ATOM     17  C   UNL     1     140.995 141.990 150.639  1.00  0.00    -0.000 C 
BRANCH  17  18
ATOM     18  C   UNL     1     140.076 142.219 151.854  1.00  0.00    -0.000 C 
BRANCH  18  19
ATOM     19  C   UNL     1     140.757 141.941 153.206  1.00  0.00    -0.003 C 
ATOM     20  C   UNL     1     140.882 143.192 154.074  1.00  0.00     0.004 C 
ENDBRANCH  18  19
ENDBRANCH  17  18
ENDBRANCH  16  17
ENDBRANCH  15  16
ENDBRANCH  14  15
ENDBRANCH  13  14
ENDBRANCH  12  13
ENDBRANCH   1  12
TORSDOF 16
ENDMDL
MODEL 2
REMARK VINA RESULT:    -2.874      3.585      5.891
REMARK INTER + INTRA:          -8.102
REMARK INTER:                  -5.168
REMARK INTRA:                  -2.934
REMARK UNBOUND:                -2.540
REMARK SMILES CCCCCCCCCCCCCCCCCC(=O)[O-]
REMARK SMILES IDX 10 1 11 2 12 3 13 4 14 5 15 6 16 7 17 8 18 9 19 10 20 11
REMARK SMILES IDX 9 12 8 13 7 14 6 15 5 16 4 17 3 18 2 19 1 20
REMARK H PARENT
REMARK Flexibility Score: inf
ROOT
ATOM      1  C   UNL     1     144.563 140.205 146.134  1.00  0.00     0.000 C 
ENDROOT
BRANCH   1   2
ATOM      2  C   UNL     1     145.254 141.284 146.994  1.00  0.00     0.000 C 
BRANCH   2   3
ATOM      3  C   UNL     1     144.817 141.226 148.469  1.00  0.00     0.000 C 
BRANCH   3   4
ATOM      4  C   UNL     1     143.900 140.018 148.759  1.00  0.00     0.000 C 
BRANCH   4   5
ATOM      5  C   UNL     1     142.549 140.406 149.386  1.00  0.00     0.000 C 
BRANCH   5   6
ATOM      6  C   UNL     1     142.618 141.713 150.193  1.00  0.00     0.000 C 
BRANCH   6   7
ATOM      7  C   UNL     1     141.262 142.447 150.241  1.00  0.00     0.006 C 
BRANCH   7   8
ATOM      8  C   UNL     1     140.469 142.186 151.531  1.00  0.00     0.053 C 
BRANCH   8   9
ATOM      9  C   UNL     1     141.277 142.460 152.761  1.00  0.00     0.041 C 
ATOM     10  O   UNL     1     141.637 143.635 153.035  1.00  0.00    -0.550 OA
ATOM     11  O   UNL     1     141.611 141.420 153.619  1.00  0.00    -0.550 OA
ENDBRANCH   8   9
ENDBRANCH   7   8
ENDBRANCH   6   7
ENDBRANCH   5   6
ENDBRANCH   4   5
ENDBRANCH   3   4
ENDBRANCH   2   3
ENDBRANCH   1   2
BRANCH   1  12
ATOM     12  C   UNL     1     143.446 140.753 145.225  1.00  0.00     0.000 C 
BRANCH  12  13
ATOM     13  C   UNL     1     142.040 140.204 145.520  1.00  0.00    -0.000 C 
BRANCH  13  14
ATOM     14  C   UNL     1     140.958 141.298 145.498  1.00  0.00    -0.000 C 
BRANCH  14  15
ATOM     15  C   UNL     1     141.105 142.301 146.656  1.00  0.00    -0.000 C 
BRANCH  15  16
ATOM     16  C   UNL     1     141.640 143.686 146.245  1.00  0.00    -0.000 C 
BRANCH  16  17
ATOM     17  C   UNL     1     142.983 144.056 146.916  1.00  0.00    -0.000 C 
BRANCH  17  18
ATOM     18  C   UNL     1     142.829 145.060 148.075  1.00  0.00    -0.000 C 
BRANCH  18  19
ATOM     19  C   UNL     1     144.048 145.111 149.014  1.00  0.00    -0.003 C 
ATOM     20  C   UNL     1     143.657 145.303 150.479  1.00  0.00     0.004 C 
ENDBRANCH  18  19
ENDBRANCH  17  18
ENDBRANCH  16  17
ENDBRANCH  15  16
ENDBRANCH  14  15
ENDBRANCH  13  14
ENDBRANCH  12  13
ENDBRANCH   1  12
TORSDOF 16
ENDMDL
MODEL 3
REMARK VINA RESULT:    -2.863      4.183      7.758
REMARK INTER + INTRA:          -8.080
REMARK INTER:                  -6.276
REMARK INTRA:                  -1.804
REMARK UNBOUND:                -2.540
REMARK SMILES CCCCCCCCCCCCCCCCCC(=O)[O-]
REMARK SMILES IDX 10 1 11 2 12 3 13 4 14 5 15 6 16 7 17 8 18 9 19 10 20 11
REMARK SMILES IDX 9 12 8 13 7 14 6 15 5 16 4 17 3 18 2 19 1 20
REMARK H PARENT
REMARK Flexibility Score: inf
ROOT
ATOM      1  C   UNL     1     142.549 143.308 148.940  1.00  0.00     0.000 C 
ENDROOT
BRANCH   1   2
ATOM      2  C   UNL     1     141.669 143.431 150.203  1.00  0.00     0.000 C 
BRANCH   2   3
ATOM      3  C   UNL     1     141.368 142.063 150.841  1.00  0.00     0.000 C 
BRANCH   3   4
ATOM      4  C   UNL     1     142.364 141.713 151.968  1.00  0.00     0.000 C 
BRANCH   4   5
ATOM      5  C   UNL     1     141.737 141.734 153.374  1.00  0.00     0.000 C 
BRANCH   5   6
ATOM      6  C   UNL     1     140.240 142.079 153.356  1.00  0.00     0.000 C 
BRANCH   6   7
ATOM      7  C   UNL     1     139.875 143.173 154.380  1.00  0.00     0.006 C 
BRANCH   7   8
ATOM      8  C   UNL     1     140.230 144.594 153.913  1.00  0.00     0.053 C 
BRANCH   8   9
ATOM      9  C   UNL     1     141.247 145.245 154.796  1.00  0.00     0.041 C 
ATOM     10  O   UNL     1     141.857 144.570 155.666  1.00  0.00    -0.550 OA
ATOM     11  O   UNL     1     141.541 146.594 154.641  1.00  0.00    -0.550 OA
ENDBRANCH   8   9
ENDBRANCH   7   8
ENDBRANCH   6   7
ENDBRANCH   5   6
ENDBRANCH   4   5
ENDBRANCH   3   4
ENDBRANCH   2   3
ENDBRANCH   1   2
BRANCH   1  12
ATOM     12  C   UNL     1     142.085 144.195 147.768  1.00  0.00     0.000 C 
BRANCH  12  13
ATOM     13  C   UNL     1     141.721 143.435 146.482  1.00  0.00    -0.000 C 
BRANCH  13  14
ATOM     14  C   UNL     1     141.084 142.062 146.764  1.00  0.00    -0.000 C 
BRANCH  14  15
ATOM     15  C   UNL     1     141.302 141.061 145.615  1.00  0.00    -0.000 C 
BRANCH  15  16
ATOM     16  C   UNL     1     142.439 140.048 145.850  1.00  0.00    -0.000 C 
BRANCH  16  17
ATOM     17  C   UNL     1     143.409 139.916 144.653  1.00  0.00    -0.000 C 
BRANCH  17  18
ATOM     18  C   UNL     1     144.760 140.621 144.883  1.00  0.00    -0.000 C 
BRANCH  18  19
ATOM     19  C   UNL     1     144.944 141.152 146.317  1.00  0.00    -0.003 C 
ATOM     20  C   UNL     1     145.338 142.628 146.354  1.00  0.00     0.004 C 
ENDBRANCH  18  19
ENDBRANCH  17  18
ENDBRANCH  16  17
ENDBRANCH  15  16
ENDBRANCH  14  15
ENDBRANCH  13  14
ENDBRANCH  12  13
ENDBRANCH   1  12
TORSDOF 16
ENDMDL
MODEL 4
REMARK VINA RESULT:    -2.834      3.646      6.876
REMARK INTER + INTRA:          -8.024
REMARK INTER:                  -5.557
REMARK INTRA:                  -2.468
REMARK UNBOUND:                -2.540
REMARK SMILES CCCCCCCCCCCCCCCCCC(=O)[O-]
REMARK SMILES IDX 10 1 11 2 12 3 13 4 14 5 15 6 16 7 17 8 18 9 19 10 20 11
REMARK SMILES IDX 9 12 8 13 7 14 6 15 5 16 4 17 3 18 2 19 1 20
REMARK H PARENT
REMARK Flexibility Score: inf
ROOT
ATOM      1  C   UNL     1     143.946 140.209 145.891  1.00  0.00     0.000 C 
ENDROOT
BRANCH   1   2
ATOM      2  C   UNL     1     144.814 141.251 146.627  1.00  0.00     0.000 C 
BRANCH   2   3
ATOM      3  C   UNL     1     144.612 141.210 148.153  1.00  0.00     0.000 C 
BRANCH   3   4
ATOM      4  C   UNL     1     143.770 139.994 148.597  1.00  0.00     0.000 C 
BRANCH   4   5
ATOM      5  C   UNL     1     142.531 140.371 149.428  1.00  0.00     0.000 C 
BRANCH   5   6
ATOM      6  C   UNL     1     142.253 141.883 149.434  1.00  0.00     0.000 C 
BRANCH   6   7
ATOM      7  C   UNL     1     141.582 142.353 150.741  1.00  0.00     0.006 C 
BRANCH   7   8
ATOM      8  C   UNL     1     142.581 142.654 151.870  1.00  0.00     0.053 C 
BRANCH   8   9
ATOM      9  C   UNL     1     142.299 141.858 153.106  1.00  0.00     0.041 C 
ATOM     10  O   UNL     1     141.573 142.336 154.017  1.00  0.00    -0.550 OA
ATOM     11  O   UNL     1     142.816 140.576 153.241  1.00  0.00    -0.550 OA
ENDBRANCH   8   9
ENDBRANCH   7   8
ENDBRANCH   6   7
ENDBRANCH   5   6
ENDBRANCH   4   5
ENDBRANCH   3   4
ENDBRANCH   2   3
ENDBRANCH   1   2
BRANCH   1  12
ATOM     12  C   UNL     1     142.782 140.822 145.089  1.00  0.00     0.000 C 
BRANCH  12  13
ATOM     13  C   UNL     1     141.460 140.959 145.863  1.00  0.00    -0.000 C 
BRANCH  13  14
ATOM     14  C   UNL     1     140.900 142.392 145.832  1.00  0.00    -0.000 C 
BRANCH  14  15
ATOM     15  C   UNL     1     141.940 143.445 146.255  1.00  0.00    -0.000 C 
BRANCH  15  16
ATOM     16  C   UNL     1     141.777 144.819 145.579  1.00  0.00    -0.000 C 
BRANCH  16  17
ATOM     17  C   UNL     1     142.866 145.123 144.523  1.00  0.00    -0.000 C 
BRANCH  17  18
ATOM     18  C   UNL     1     144.094 144.198 144.631  1.00  0.00    -0.000 C 
BRANCH  18  19
ATOM     19  C   UNL     1     144.513 143.569 143.290  1.00  0.00    -0.003 C 
ATOM     20  C   UNL     1     144.286 144.503 142.102  1.00  0.00     0.004 C 
ENDBRANCH  18  19
ENDBRANCH  17  18
ENDBRANCH  16  17
ENDBRANCH  15  16
ENDBRANCH  14  15
ENDBRANCH  13  14
ENDBRANCH  12  13
ENDBRANCH   1  12
TORSDOF 16
ENDMDL
MODEL 5
REMARK VINA RESULT:    -2.823      1.670      3.680
REMARK INTER + INTRA:          -8.003
REMARK INTER:                  -5.690
REMARK INTRA:                  -2.313
REMARK UNBOUND:                -2.540
REMARK SMILES CCCCCCCCCCCCCCCCCC(=O)[O-]
REMARK SMILES IDX 10 1 11 2 12 3 13 4 14 5 15 6 16 7 17 8 18 9 19 10 20 11
REMARK SMILES IDX 9 12 8 13 7 14 6 15 5 16 4 17 3 18 2 19 1 20
REMARK H PARENT
REMARK Flexibility Score: inf
ROOT
ATOM      1  C   UNL     1     143.741 143.216 148.920  1.00  0.00     0.000 C 
ENDROOT
BRANCH   1   2
ATOM      2  C   UNL     1     142.553 144.199 148.860  1.00  0.00     0.000 C 
BRANCH   2   3
ATOM      3  C   UNL     1     141.345 143.613 148.107  1.00  0.00     0.000 C 
BRANCH   3   4
ATOM      4  C   UNL     1     141.718 143.139 146.685  1.00  0.00     0.000 C 
BRANCH   4   5
ATOM      5  C   UNL     1     140.698 142.163 146.073  1.00  0.00     0.000 C 
BRANCH   5   6
ATOM      6  C   UNL     1     141.360 140.935 145.427  1.00  0.00     0.000 C 
BRANCH   6   7
ATOM      7  C   UNL     1     142.660 140.520 146.145  1.00  0.00     0.006 C 
BRANCH   7   8
ATOM      8  C   UNL     1     143.698 139.877 145.212  1.00  0.00     0.053 C 
BRANCH   8   9
ATOM      9  C   UNL     1     144.738 140.854 144.761  1.00  0.00     0.041 C 
ATOM     10  O   UNL     1     144.545 141.558 143.735  1.00  0.00    -0.550 OA
ATOM     11  O   UNL     1     145.912 141.005 145.487  1.00  0.00    -0.550 OA
ENDBRANCH   8   9
ENDBRANCH   7   8
ENDBRANCH   6   7
ENDBRANCH   5   6
ENDBRANCH   4   5
ENDBRANCH   3   4
ENDBRANCH   2   3
ENDBRANCH   1   2
BRANCH   1  12
ATOM     12  C   UNL     1     143.403 141.870 149.591  1.00  0.00     0.000 C 
BRANCH  12  13
ATOM     13  C   UNL     1     144.203 141.562 150.867  1.00  0.00    -0.000 C 
BRANCH  13  14
ATOM     14  C   UNL     1     143.722 140.283 151.576  1.00  0.00    -0.000 C 
BRANCH  14  15
ATOM     15  C   UNL     1     143.269 140.542 153.023  1.00  0.00    -0.000 C 
BRANCH  15  16
ATOM     16  C   UNL     1     143.433 141.998 153.499  1.00  0.00    -0.000 C 
BRANCH  16  17
ATOM     17  C   UNL     1     142.091 142.723 153.751  1.00  0.00    -0.000 C 
BRANCH  17  18
ATOM     18  C   UNL     1     141.802 143.843 152.732  1.00  0.00    -0.000 C 
BRANCH  18  19
ATOM     19  C   UNL     1     140.499 143.636 151.939  1.00  0.00    -0.003 C 
ATOM     20  C   UNL     1     140.266 142.175 151.556  1.00  0.00     0.004 C 
ENDBRANCH  18  19
ENDBRANCH  17  18
ENDBRANCH  16  17
ENDBRANCH  15  16
ENDBRANCH  14  15
ENDBRANCH  13  14
ENDBRANCH  12  13
ENDBRANCH   1  12
TORSDOF 16
ENDMDL
MODEL 6
REMARK VINA RESULT:    -2.782      3.613      6.725
REMARK INTER + INTRA:          -7.924
REMARK INTER:                  -5.624
REMARK INTRA:                  -2.300
REMARK UNBOUND:                -2.540
REMARK SMILES CCCCCCCCCCCCCCCCCC(=O)[O-]
REMARK SMILES IDX 10 1 11 2 12 3 13 4 14 5 15 6 16 7 17 8 18 9 19 10 20 11
REMARK SMILES IDX 9 12 8 13 7 14 6 15 5 16 4 17 3 18 2 19 1 20
REMARK H PARENT
REMARK Flexibility Score: inf
ROOT
ATOM      1  C   UNL     1     144.199 141.633 148.240  1.00  0.00     0.000 C 
ENDROOT
BRANCH   1   2
ATOM      2  C   UNL     1     143.704 140.466 149.120  1.00  0.00     0.000 C 
BRANCH   2   3
ATOM      3  C   UNL     1     142.243 140.649 149.568  1.00  0.00     0.000 C 
BRANCH   3   4
ATOM      4  C   UNL     1     142.076 141.834 150.545  1.00  0.00     0.000 C 
BRANCH   4   5
ATOM      5  C   UNL     1     142.992 141.749 151.779  1.00  0.00     0.000 C 
BRANCH   5   6
ATOM      6  C   UNL     1     142.231 141.387 153.065  1.00  0.00     0.000 C 
BRANCH   6   7
ATOM      7  C   UNL     1     141.934 142.621 153.941  1.00  0.00     0.006 C 
BRANCH   7   8
ATOM      8  C   UNL     1     140.445 143.000 153.980  1.00  0.00     0.053 C 
BRANCH   8   9
ATOM      9  C   UNL     1     140.172 144.305 153.300  1.00  0.00     0.041 C 
ATOM     10  O   UNL     1     140.185 144.380 152.043  1.00  0.00    -0.550 OA
ATOM     11  O   UNL     1     139.879 145.434 154.053  1.00  0.00    -0.550 OA
ENDBRANCH   8   9
ENDBRANCH   7   8
ENDBRANCH   6   7
ENDBRANCH   5   6
ENDBRANCH   4   5
ENDBRANCH   3   4
ENDBRANCH   2   3
ENDBRANCH   1   2
BRANCH   1  12
ATOM     12  C   UNL     1     144.625 141.207 146.821  1.00  0.00     0.000 C 
BRANCH  12  13
ATOM     13  C   UNL     1     143.650 140.256 146.107  1.00  0.00    -0.000 C 
BRANCH  13  14
ATOM     14  C   UNL     1     142.693 140.993 145.153  1.00  0.00    -0.000 C 
BRANCH  14  15
ATOM     15  C   UNL     1     141.251 141.050 145.688  1.00  0.00    -0.000 C 
BRANCH  15  16
ATOM     16  C   UNL     1     140.889 142.352 146.428  1.00  0.00    -0.000 C 
BRANCH  16  17
ATOM     17  C   UNL     1     141.721 143.574 145.975  1.00  0.00    -0.000 C 
BRANCH  17  18
ATOM     18  C   UNL     1     142.205 144.450 147.147  1.00  0.00    -0.000 C 
BRANCH  18  19
ATOM     19  C   UNL     1     141.246 144.456 148.351  1.00  0.00    -0.003 C 
ATOM     20  C   UNL     1     140.696 145.848 148.662  1.00  0.00     0.004 C 
ENDBRANCH  18  19
ENDBRANCH  17  18
ENDBRANCH  16  17
ENDBRANCH  15  16
ENDBRANCH  14  15
ENDBRANCH  13  14
ENDBRANCH  12  13
ENDBRANCH   1  12
TORSDOF 16
ENDMDL
MODEL 7
REMARK VINA RESULT:    -2.768      1.403      2.331
REMARK INTER + INTRA:          -7.897
REMARK INTER:                  -5.914
REMARK INTRA:                  -1.983
REMARK UNBOUND:                -2.540
REMARK SMILES CCCCCCCCCCCCCCCCCC(=O)[O-]
REMARK SMILES IDX 10 1 11 2 12 3 13 4 14 5 15 6 16 7 17 8 18 9 19 10 20 11
REMARK SMILES IDX 9 12 8 13 7 14 6 15 5 16 4 17 3 18 2 19 1 20
REMARK H PARENT
REMARK Flexibility Score: inf
ROOT
ATOM      1  C   UNL     1     142.402 144.254 146.997  1.00  0.00     0.000 C 
ENDROOT
BRANCH   1   2
ATOM      2  C   UNL     1     141.514 143.521 145.970  1.00  0.00     0.000 C 
BRANCH   2   3
ATOM      3  C   UNL     1     140.998 142.172 146.500  1.00  0.00     0.000 C 
BRANCH   3   4
ATOM      4  C   UNL     1     141.283 141.012 145.522  1.00  0.00     0.000 C 
BRANCH   4   5
ATOM      5  C   UNL     1     142.583 140.249 145.831  1.00  0.00     0.000 C 
BRANCH   5   6
ATOM      6  C   UNL     1     143.424 139.966 144.576  1.00  0.00     0.000 C 
BRANCH   6   7
ATOM      7  C   UNL     1     144.677 140.861 144.492  1.00  0.00     0.006 C 
BRANCH   7   8
ATOM      8  C   UNL     1     144.369 142.311 144.086  1.00  0.00     0.053 C 
BRANCH   8   9
ATOM      9  C   UNL     1     145.574 143.019 143.549  1.00  0.00     0.041 C 
ATOM     10  O   UNL     1     145.973 144.086 144.084  1.00  0.00    -0.550 OA
ATOM     11  O   UNL     1     146.272 142.485 142.473  1.00  0.00    -0.550 OA
ENDBRANCH   8   9
ENDBRANCH   7   8
ENDBRANCH   6   7
ENDBRANCH   5   6
ENDBRANCH   4   5
ENDBRANCH   3   4
ENDBRANCH   2   3
ENDBRANCH   1   2
BRANCH   1  12
ATOM     12  C   UNL     1     143.559 143.397 147.546  1.00  0.00     0.000 C 
BRANCH  12  13
ATOM     13  C   UNL     1     143.724 143.429 149.075  1.00  0.00    -0.000 C 
BRANCH  13  14
ATOM     14  C   UNL     1     143.376 142.085 149.739  1.00  0.00    -0.000 C 
BRANCH  14  15
ATOM     15  C   UNL     1     141.868 141.926 150.001  1.00  0.00    -0.000 C 
BRANCH  15  16
ATOM     16  C   UNL     1     141.131 143.236 150.339  1.00  0.00    -0.000 C 
BRANCH  16  17
ATOM     17  C   UNL     1     140.515 143.253 151.757  1.00  0.00    -0.000 C 
BRANCH  17  18
ATOM     18  C   UNL     1     141.046 142.126 152.665  1.00  0.00    -0.000 C 
BRANCH  18  19
ATOM     19  C   UNL     1     140.772 142.358 154.162  1.00  0.00    -0.003 C 
ATOM     20  C   UNL     1     141.289 143.709 154.655  1.00  0.00     0.004 C 
ENDBRANCH  18  19
ENDBRANCH  17  18
ENDBRANCH  16  17
ENDBRANCH  15  16
ENDBRANCH  14  15
ENDBRANCH  13  14
ENDBRANCH  12  13
ENDBRANCH   1  12
TORSDOF 16
ENDMDL
MODEL 8
REMARK VINA RESULT:    -2.726      1.752      4.253
REMARK INTER + INTRA:          -7.817
REMARK INTER:                  -5.349
REMARK INTRA:                  -2.468
REMARK UNBOUND:                -2.540
REMARK SMILES CCCCCCCCCCCCCCCCCC(=O)[O-]
REMARK SMILES IDX 10 1 11 2 12 3 13 4 14 5 15 6 16 7 17 8 18 9 19 10 20 11
REMARK SMILES IDX 9 12 8 13 7 14 6 15 5 16 4 17 3 18 2 19 1 20
REMARK H PARENT
REMARK Flexibility Score: inf
ROOT
ATOM      1  C   UNL     1     144.388 142.811 151.156  1.00  0.00     0.000 C 
ENDROOT
BRANCH   1   2
ATOM      2  C   UNL     1     144.517 141.863 149.944  1.00  0.00     0.000 C 
BRANCH   2   3
ATOM      3  C   UNL     1     143.813 140.515 150.179  1.00  0.00     0.000 C 
BRANCH   3   4
ATOM      4  C   UNL     1     142.558 140.350 149.295  1.00  0.00     0.000 C 
BRANCH   4   5
ATOM      5  C   UNL     1     142.862 140.333 147.787  1.00  0.00     0.000 C 
BRANCH   5   6
ATOM      6  C   UNL     1     142.044 141.370 147.000  1.00  0.00     0.000 C 
BRANCH   6   7
ATOM      7  C   UNL     1     142.197 141.206 145.474  1.00  0.00     0.006 C 
BRANCH   7   8
ATOM      8  C   UNL     1     143.078 140.013 145.071  1.00  0.00     0.053 C 
BRANCH   8   9
ATOM      9  C   UNL     1     144.448 140.437 144.643  1.00  0.00     0.041 C 
ATOM     10  O   UNL     1     145.466 139.877 145.129  1.00  0.00    -0.550 OA
ATOM     11  O   UNL     1     144.601 141.433 143.687  1.00  0.00    -0.550 OA
ENDBRANCH   8   9
ENDBRANCH   7   8
ENDBRANCH   6   7
ENDBRANCH   5   6
ENDBRANCH   4   5
ENDBRANCH   3   4
ENDBRANCH   2   3
ENDBRANCH   1   2
BRANCH   1  12
ATOM     12  C   UNL     1     144.441 142.092 152.518  1.00  0.00     0.000 C 
BRANCH  12  13
ATOM     13  C   UNL     1     143.273 142.411 153.467  1.00  0.00    -0.000 C 
BRANCH  13  14
ATOM     14  C   UNL     1     142.127 141.389 153.364  1.00  0.00    -0.000 C 
BRANCH  14  15
ATOM     15  C   UNL     1     140.745 142.058 153.254  1.00  0.00    -0.000 C 
BRANCH  15  16
ATOM     16  C   UNL     1     140.262 142.306 151.812  1.00  0.00    -0.000 C 
BRANCH  16  17
ATOM     17  C   UNL     1     140.635 143.703 151.265  1.00  0.00    -0.000 C 
BRANCH  17  18
ATOM     18  C   UNL     1     141.200 143.665 149.832  1.00  0.00    -0.000 C 
BRANCH  18  19
ATOM     19  C   UNL     1     141.870 144.982 149.397  1.00  0.00    -0.003 C 
ATOM     20  C   UNL     1     142.757 144.814 148.164  1.00  0.00     0.004 C 
ENDBRANCH  18  19
ENDBRANCH  17  18
ENDBRANCH  16  17
ENDBRANCH  15  16
ENDBRANCH  14  15
ENDBRANCH  13  14
ENDBRANCH  12  13
ENDBRANCH   1  12
TORSDOF 16
ENDMDL
MODEL 9
REMARK VINA RESULT:    -2.649      1.799      3.569
REMARK INTER + INTRA:          -7.668
REMARK INTER:                  -5.150
REMARK INTRA:                  -2.517
REMARK UNBOUND:                -2.540
REMARK SMILES CCCCCCCCCCCCCCCCCC(=O)[O-]
REMARK SMILES IDX 10 1 11 2 12 3 13 4 14 5 15 6 16 7 17 8 18 9 19 10 20 11
REMARK SMILES IDX 9 12 8 13 7 14 6 15 5 16 4 17 3 18 2 19 1 20
REMARK H PARENT
REMARK Flexibility Score: inf
ROOT
ATOM      1  C   UNL     1     144.103 141.356 144.663  1.00  0.00     0.000 C 
ENDROOT
BRANCH   1   2
ATOM      2  C   UNL     1     143.526 139.928 144.749  1.00  0.00     0.000 C 
BRANCH   2   3
ATOM      3  C   UNL     1     142.151 139.893 145.441  1.00  0.00     0.000 C 
BRANCH   3   4
ATOM      4  C   UNL     1     141.483 141.284 145.483  1.00  0.00     0.000 C 
BRANCH   4   5
ATOM      5  C   UNL     1     141.169 141.775 146.907  1.00  0.00     0.000 C 
BRANCH   5   6
ATOM      6  C   UNL     1     141.645 143.215 147.162  1.00  0.00     0.000 C 
BRANCH   6   7
ATOM      7  C   UNL     1     141.750 144.039 145.862  1.00  0.00     0.006 C 
BRANCH   7   8
ATOM      8  C   UNL     1     143.021 144.899 145.782  1.00  0.00     0.053 C 
BRANCH   8   9
ATOM      9  C   UNL     1     143.324 145.337 144.383  1.00  0.00     0.041 C 
ATOM     10  O   UNL     1     142.632 146.235 143.836  1.00  0.00    -0.550 OA
ATOM     11  O   UNL     1     144.386 144.769 143.691  1.00  0.00    -0.550 OA
ENDBRANCH   8   9
ENDBRANCH   7   8
ENDBRANCH   6   7
ENDBRANCH   5   6
ENDBRANCH   4   5
ENDBRANCH   3   4
ENDBRANCH   2   3
ENDBRANCH   1   2
BRANCH   1  12
ATOM     12  C   UNL     1     145.414 141.549 145.450  1.00  0.00     0.000 C 
BRANCH  12  13
ATOM     13  C   UNL     1     145.567 140.647 146.687  1.00  0.00    -0.000 C 
BRANCH  13  14
ATOM     14  C   UNL     1     144.651 141.071 147.848  1.00  0.00    -0.000 C 
BRANCH  14  15
ATOM     15  C   UNL     1     143.949 139.875 148.516  1.00  0.00    -0.000 C 
BRANCH  15  16
ATOM     16  C   UNL     1     143.097 140.234 149.749  1.00  0.00    -0.000 C 
BRANCH  16  17
ATOM     17  C   UNL     1     143.267 141.699 150.214  1.00  0.00    -0.000 C 
BRANCH  17  18
ATOM     18  C   UNL     1     141.980 142.303 150.807  1.00  0.00    -0.000 C 
BRANCH  18  19
ATOM     19  C   UNL     1     142.141 142.804 152.254  1.00  0.00    -0.003 C 
ATOM     20  C   UNL     1     140.808 142.919 152.992  1.00  0.00     0.004 C 
ENDBRANCH  18  19
ENDBRANCH  17  18
ENDBRANCH  16  17
ENDBRANCH  15  16
ENDBRANCH  14  15
ENDBRANCH  13  14
ENDBRANCH  12  13
ENDBRANCH   1  12
TORSDOF 16
ENDMDL
