MODEL 1
REMARK VINA RESULT:    -4.244      0.000      0.000
REMARK INTER + INTRA:         -12.319
REMARK INTER:                  -9.206
REMARK INTRA:                  -3.113
REMARK UNBOUND:                -3.113
REMARK SMILES CCCCCCCCCCCCCCCCCCCCCC(=O)[O-]
REMARK SMILES IDX 12 1 11 2 10 3 9 4 8 5 7 6 6 7 5 8 4 9 3 10 2 11 1 12 13 13
REMARK SMILES IDX 14 14 15 15 16 16 17 17 18 18 19 19 20 20 21 21 22 22 23 23
REMARK SMILES IDX 24 24
REMARK H PARENT
REMARK Flexibility Score: inf
ROOT
ATOM      1  C   UNL     1      23.692   3.601  18.366  1.00  0.00     0.000 C 
ENDROOT
BRANCH   1   2
ATOM      2  C   UNL     1      25.210   3.350  18.332  1.00  0.00     0.000 C 
BRANCH   2   3
ATOM      3  C   UNL     1      25.791   3.231  16.908  1.00  0.00     0.000 C 
BRANCH   3   4
ATOM      4  C   UNL     1      26.541   4.505  16.486  1.00  0.00    -0.000 C 
BRANCH   4   5
ATOM      5  C   UNL     1      27.348   4.324  15.190  1.00  0.00    -0.000 C 
BRANCH   5   6
ATOM      6  C   UNL     1      27.826   5.663  14.604  1.00  0.00    -0.000 C 
BRANCH   6   7
ATOM      7  C   UNL     1      28.746   6.437  15.564  1.00  0.00    -0.000 C 
BRANCH   7   8
ATOM      8  C   UNL     1      30.161   5.842  15.642  1.00  0.00    -0.000 C 
BRANCH   8   9
ATOM      9  C   UNL     1      30.744   5.986  17.054  1.00  0.00    -0.000 C 
BRANCH   9  10
ATOM     10  C   UNL     1      29.713   5.571  18.115  1.00  0.00    -0.000 C 
BRANCH  10  11
ATOM     11  C   UNL     1      30.104   4.272  18.839  1.00  0.00    -0.003 C 
ATOM     12  C   UNL     1      28.954   3.266  18.908  1.00  0.00     0.004 C 
ENDBRANCH  10  11
ENDBRANCH   9  10
ENDBRANCH   8   9
ENDBRANCH   7   8
ENDBRANCH   6   7
ENDBRANCH   5   6
ENDBRANCH   4   5
ENDBRANCH   3   4
ENDBRANCH   2   3
ENDBRANCH   1   2
BRANCH   1  13
ATOM     13  C   UNL     1      23.275   4.618  19.441  1.00  0.00     0.000 C 
BRANCH  13  14
ATOM     14  C   UNL     1      23.047   6.022  18.855  1.00  0.00     0.000 C 
BRANCH  14  15
ATOM     15  C   UNL     1      22.940   6.003  17.322  1.00  0.00     0.000 C 
BRANCH  15  16
ATOM     16  C   UNL     1      23.807   7.104  16.693  1.00  0.00     0.000 C 
BRANCH  16  17
ATOM     17  C   UNL     1      24.205   6.793  15.237  1.00  0.00     0.000 C 
BRANCH  17  18
ATOM     18  C   UNL     1      23.499   5.574  14.617  1.00  0.00     0.000 C 
BRANCH  18  19
ATOM     19  C   UNL     1      24.085   5.170  13.257  1.00  0.00     0.000 C 
BRANCH  19  20
ATOM     20  C   UNL     1      23.293   5.808  12.106  1.00  0.00     0.006 C 
BRANCH  20  21
ATOM     21  C   UNL     1      21.857   6.167  12.514  1.00  0.00     0.053 C 
BRANCH  21  22
ATOM     22  C   UNL     1      21.438   7.498  11.969  1.00  0.00     0.041 C 
ATOM     23  O   UNL     1      20.284   7.944  12.206  1.00  0.00    -0.550 OA
ATOM     24  O   UNL     1      22.308   8.231  11.167  1.00  0.00    -0.550 OA
ENDBRANCH  21  22
ENDBRANCH  20  21
ENDBRANCH  19  20
ENDBRANCH  18  19
ENDBRANCH  17  18
ENDBRANCH  16  17
ENDBRANCH  15  16
ENDBRANCH  14  15
ENDBRANCH  13  14
ENDBRANCH   1  13
TORSDOF 20
ENDMDL
MODEL 2
REMARK VINA RESULT:    -4.193      3.807      8.279
REMARK INTER + INTRA:         -12.208
REMARK INTER:                  -8.769
REMARK INTRA:                  -3.439
REMARK UNBOUND:                -3.113
REMARK SMILES CCCCCCCCCCCCCCCCCCCCCC(=O)[O-]
REMARK SMILES IDX 12 1 11 2 10 3 9 4 8 5 7 6 6 7 5 8 4 9 3 10 2 11 1 12 13 13
REMARK SMILES IDX 14 14 15 15 16 16 17 17 18 18 19 19 20 20 21 21 22 22 23 23
REMARK SMILES IDX 24 24
REMARK H PARENT
REMARK Flexibility Score: inf
ROOT
ATOM      1  C   UNL     1      23.895   3.576  11.293  1.00  0.00     0.000 C 
ENDROOT
BRANCH   1   2
ATOM      2  C   UNL     1      23.683   4.562  10.130  1.00  0.00     0.000 C 
BRANCH   2   3
ATOM      3  C   UNL     1      24.579   5.817  10.206  1.00  0.00     0.000 C 
BRANCH   3   4
ATOM      4  C   UNL     1      23.762   7.113  10.066  1.00  0.00    -0.000 C 
BRANCH   4   5
ATOM      5  C   UNL     1      22.258   6.901  10.303  1.00  0.00    -0.000 C 
BRANCH   5   6
ATOM      6  C   UNL     1      21.805   7.402  11.686  1.00  0.00    -0.000 C 
BRANCH   6   7
ATOM      7  C   UNL     1      20.621   6.599  12.250  1.00  0.00    -0.000 C 
BRANCH   7   8
ATOM      8  C   UNL     1      20.057   5.583  11.243  1.00  0.00    -0.000 C 
BRANCH   8   9
ATOM      9  C   UNL     1      18.644   5.976  10.793  1.00  0.00    -0.000 C 
BRANCH   9  10
ATOM     10  C   UNL     1      18.702   6.991   9.640  1.00  0.00    -0.000 C 
BRANCH  10  11
ATOM     11  C   UNL     1      18.052   8.334  10.005  1.00  0.00    -0.003 C 
ATOM     12  C   UNL     1      17.481   8.347  11.425  1.00  0.00     0.004 C 
ENDBRANCH  10  11
ENDBRANCH   9  10
ENDBRANCH   8   9
ENDBRANCH   7   8
ENDBRANCH   6   7
ENDBRANCH   5   6
ENDBRANCH   4   5
ENDBRANCH   3   4
ENDBRANCH   2   3
ENDBRANCH   1   2
BRANCH   1  13
ATOM     13  C   UNL     1      22.660   3.444  12.200  1.00  0.00     0.000 C 
BRANCH  13  14
ATOM     14  C   UNL     1      22.974   3.798  13.663  1.00  0.00     0.000 C 
BRANCH  14  15
ATOM     15  C   UNL     1      21.705   3.890  14.525  1.00  0.00     0.000 C 
BRANCH  15  16
ATOM     16  C   UNL     1      21.968   4.682  15.815  1.00  0.00     0.000 C 
BRANCH  16  17
ATOM     17  C   UNL     1      22.223   6.179  15.556  1.00  0.00     0.000 C 
BRANCH  17  18
ATOM     18  C   UNL     1      23.131   6.871  16.589  1.00  0.00     0.000 C 
BRANCH  18  19
ATOM     19  C   UNL     1      24.401   7.467  15.965  1.00  0.00     0.000 C 
BRANCH  19  20
ATOM     20  C   UNL     1      25.193   6.394  15.201  1.00  0.00     0.006 C 
BRANCH  20  21
ATOM     21  C   UNL     1      25.381   6.753  13.720  1.00  0.00     0.053 C 
BRANCH  21  22
ATOM     22  C   UNL     1      26.747   6.385  13.226  1.00  0.00     0.041 C 
ATOM     23  O   UNL     1      27.181   5.213  13.381  1.00  0.00    -0.550 OA
ATOM     24  O   UNL     1      27.556   7.346  12.627  1.00  0.00    -0.550 OA
ENDBRANCH  21  22
ENDBRANCH  20  21
ENDBRANCH  19  20
ENDBRANCH  18  19
ENDBRANCH  17  18
ENDBRANCH  16  17
ENDBRANCH  15  16
ENDBRANCH  14  15
ENDBRANCH  13  14
ENDBRANCH   1  13
TORSDOF 20
ENDMDL
MODEL 3
REMARK VINA RESULT:    -4.170      4.127      9.117
REMARK INTER + INTRA:         -12.158
REMARK INTER:                  -8.645
REMARK INTRA:                  -3.513
REMARK UNBOUND:                -3.113
REMARK SMILES CCCCCCCCCCCCCCCCCCCCCC(=O)[O-]
REMARK SMILES IDX 12 1 11 2 10 3 9 4 8 5 7 6 6 7 5 8 4 9 3 10 2 11 1 12 13 13
REMARK SMILES IDX 14 14 15 15 16 16 17 17 18 18 19 19 20 20 21 21 22 22 23 23
REMARK SMILES IDX 24 24
REMARK H PARENT
REMARK Flexibility Score: inf
ROOT
ATOM      1  C   UNL     1      21.396   6.942  10.535  1.00  0.00     0.000 C 
ENDROOT
BRANCH   1   2
ATOM      2  C   UNL     1      22.827   7.430  10.249  1.00  0.00     0.000 C 
BRANCH   2   3
ATOM      3  C   UNL     1      23.889   6.311  10.299  1.00  0.00     0.000 C 
BRANCH   3   4
ATOM      4  C   UNL     1      23.998   5.564   8.959  1.00  0.00    -0.000 C 
BRANCH   4   5
ATOM      5  C   UNL     1      23.383   4.156   9.007  1.00  0.00    -0.000 C 
BRANCH   5   6
ATOM      6  C   UNL     1      22.157   4.019   8.088  1.00  0.00    -0.000 C 
BRANCH   6   7
ATOM      7  C   UNL     1      20.854   3.776   8.867  1.00  0.00    -0.000 C 
BRANCH   7   8
ATOM      8  C   UNL     1      19.744   3.164   7.997  1.00  0.00    -0.000 C 
BRANCH   8   9
ATOM      9  C   UNL     1      18.646   4.192   7.698  1.00  0.00    -0.000 C 
BRANCH   9  10
ATOM     10  C   UNL     1      18.678   5.339   8.720  1.00  0.00    -0.000 C 
BRANCH  10  11
ATOM     11  C   UNL     1      18.213   6.675   8.121  1.00  0.00    -0.003 C 
ATOM     12  C   UNL     1      18.056   7.772   9.175  1.00  0.00     0.004 C 
ENDBRANCH  10  11
ENDBRANCH   9  10
ENDBRANCH   8   9
ENDBRANCH   7   8
ENDBRANCH   6   7
ENDBRANCH   5   6
ENDBRANCH   4   5
ENDBRANCH   3   4
ENDBRANCH   2   3
ENDBRANCH   1   2
BRANCH   1  13
ATOM     13  C   UNL     1      20.755   7.638  11.747  1.00  0.00     0.000 C 
BRANCH  13  14
ATOM     14  C   UNL     1      20.324   6.638  12.832  1.00  0.00     0.000 C 
BRANCH  14  15
ATOM     15  C   UNL     1      20.173   5.210  12.281  1.00  0.00     0.000 C 
BRANCH  15  16
ATOM     16  C   UNL     1      20.882   4.191  13.185  1.00  0.00     0.000 C 
BRANCH  16  17
ATOM     17  C   UNL     1      22.041   3.465  12.474  1.00  0.00     0.000 C 
BRANCH  17  18
ATOM     18  C   UNL     1      23.450   3.915  12.904  1.00  0.00     0.000 C 
BRANCH  18  19
ATOM     19  C   UNL     1      23.437   5.188  13.761  1.00  0.00     0.000 C 
BRANCH  19  20
ATOM     20  C   UNL     1      24.746   5.329  14.553  1.00  0.00     0.006 C 
BRANCH  20  21
ATOM     21  C   UNL     1      25.473   6.647  14.249  1.00  0.00     0.053 C 
BRANCH  21  22
ATOM     22  C   UNL     1      26.600   6.451  13.281  1.00  0.00     0.041 C 
ATOM     23  O   UNL     1      26.755   5.341  12.706  1.00  0.00    -0.550 OA
ATOM     24  O   UNL     1      27.502   7.483  13.041  1.00  0.00    -0.550 OA
ENDBRANCH  21  22
ENDBRANCH  20  21
ENDBRANCH  19  20
ENDBRANCH  18  19
ENDBRANCH  17  18
ENDBRANCH  16  17
ENDBRANCH  15  16
ENDBRANCH  14  15
ENDBRANCH  13  14
ENDBRANCH   1  13
TORSDOF 20
ENDMDL
MODEL 4
REMARK VINA RESULT:    -4.144      1.998      5.848
REMARK INTER + INTRA:         -12.101
REMARK INTER:                  -9.394
REMARK INTRA:                  -2.706
REMARK UNBOUND:                -3.113
REMARK SMILES CCCCCCCCCCCCCCCCCCCCCC(=O)[O-]
REMARK SMILES IDX 12 1 11 2 10 3 9 4 8 5 7 6 6 7 5 8 4 9 3 10 2 11 1 12 13 13
REMARK SMILES IDX 14 14 15 15 16 16 17 17 18 18 19 19 20 20 21 21 22 22 23 23
REMARK SMILES IDX 24 24
REMARK H PARENT
REMARK Flexibility Score: inf
ROOT
ATOM      1  C   UNL     1      30.222   4.206  18.827  1.00  0.00     0.000 C 
ENDROOT
BRANCH   1   2
ATOM      2  C   UNL     1      29.039   3.236  18.997  1.00  0.00     0.000 C 
BRANCH   2   3
ATOM      3  C   UNL     1      27.834   3.557  18.087  1.00  0.00     0.000 C 
BRANCH   3   4
ATOM      4  C   UNL     1      26.500   3.155  18.740  1.00  0.00    -0.000 C 
BRANCH   4   5
ATOM      5  C   UNL     1      26.497   1.705  19.250  1.00  0.00    -0.000 C 
BRANCH   5   6
ATOM      6  C   UNL     1      25.369   0.865  18.626  1.00  0.00    -0.000 C 
BRANCH   6   7
ATOM      7  C   UNL     1      23.982   1.229  19.181  1.00  0.00    -0.000 C 
BRANCH   7   8
ATOM      8  C   UNL     1      23.965   1.344  20.714  1.00  0.00    -0.000 C 
BRANCH   8   9
ATOM      9  C   UNL     1      23.370   2.686  21.161  1.00  0.00    -0.000 C 
BRANCH   9  10
ATOM     10  C   UNL     1      22.571   3.336  20.020  1.00  0.00    -0.000 C 
BRANCH  10  11
ATOM     11  C   UNL     1      22.960   4.805  19.792  1.00  0.00    -0.003 C 
ATOM     12  C   UNL     1      23.232   5.122  18.320  1.00  0.00     0.004 C 
ENDBRANCH  10  11
ENDBRANCH   9  10
ENDBRANCH   8   9
ENDBRANCH   7   8
ENDBRANCH   6   7
ENDBRANCH   5   6
ENDBRANCH   4   5
ENDBRANCH   3   4
ENDBRANCH   2   3
ENDBRANCH   1   2
BRANCH   1  13
ATOM     13  C   UNL     1      29.781   5.630  18.452  1.00  0.00     0.000 C 
BRANCH  13  14
ATOM     14  C   UNL     1      30.490   6.144  17.188  1.00  0.00     0.000 C 
BRANCH  14  15
ATOM     15  C   UNL     1      29.497   6.645  16.126  1.00  0.00     0.000 C 
BRANCH  15  16
ATOM     16  C   UNL     1      29.418   5.673  14.940  1.00  0.00     0.000 C 
BRANCH  16  17
ATOM     17  C   UNL     1      28.018   5.055  14.765  1.00  0.00     0.000 C 
BRANCH  17  18
ATOM     18  C   UNL     1      26.871   5.848  15.420  1.00  0.00     0.000 C 
BRANCH  18  19
ATOM     19  C   UNL     1      25.516   5.134  15.320  1.00  0.00     0.000 C 
BRANCH  19  20
ATOM     20  C   UNL     1      25.021   5.097  13.865  1.00  0.00     0.006 C 
BRANCH  20  21
ATOM     21  C   UNL     1      24.855   6.503  13.270  1.00  0.00     0.053 C 
BRANCH  21  22
ATOM     22  C   UNL     1      25.547   6.635  11.948  1.00  0.00     0.041 C 
ATOM     23  O   UNL     1      24.877   6.656  10.882  1.00  0.00    -0.550 OA
ATOM     24  O   UNL     1      26.936   6.696  11.889  1.00  0.00    -0.550 OA
ENDBRANCH  21  22
ENDBRANCH  20  21
ENDBRANCH  19  20
ENDBRANCH  18  19
ENDBRANCH  17  18
ENDBRANCH  16  17
ENDBRANCH  15  16
ENDBRANCH  14  15
ENDBRANCH  13  14
ENDBRANCH   1  13
TORSDOF 20
ENDMDL
MODEL 5
REMARK VINA RESULT:    -4.132      4.234      7.495
REMARK INTER + INTRA:         -12.076
REMARK INTER:                  -9.499
REMARK INTRA:                  -2.578
REMARK UNBOUND:                -3.113
REMARK SMILES CCCCCCCCCCCCCCCCCCCCCC(=O)[O-]
REMARK SMILES IDX 12 1 11 2 10 3 9 4 8 5 7 6 6 7 5 8 4 9 3 10 2 11 1 12 13 13
REMARK SMILES IDX 14 14 15 15 16 16 17 17 18 18 19 19 20 20 21 21 22 22 23 23
REMARK SMILES IDX 24 24
REMARK H PARENT
REMARK Flexibility Score: inf
ROOT
ATOM      1  C   UNL     1      30.456   6.164  17.493  1.00  0.00     0.000 C 
ENDROOT
BRANCH   1   2
ATOM      2  C   UNL     1      30.009   5.651  16.114  1.00  0.00     0.000 C 
BRANCH   2   3
ATOM      3  C   UNL     1      28.833   6.443  15.505  1.00  0.00     0.000 C 
BRANCH   3   4
ATOM      4  C   UNL     1      27.570   5.576  15.362  1.00  0.00    -0.000 C 
BRANCH   4   5
ATOM      5  C   UNL     1      26.281   6.409  15.261  1.00  0.00    -0.000 C 
BRANCH   5   6
ATOM      6  C   UNL     1      25.030   5.603  15.653  1.00  0.00    -0.000 C 
BRANCH   6   7
ATOM      7  C   UNL     1      23.762   6.471  15.718  1.00  0.00    -0.000 C 
BRANCH   7   8
ATOM      8  C   UNL     1      23.175   6.561  17.136  1.00  0.00    -0.000 C 
BRANCH   8   9
ATOM      9  C   UNL     1      22.910   5.165  17.715  1.00  0.00    -0.000 C 
BRANCH   9  10
ATOM     10  C   UNL     1      23.073   5.167  19.243  1.00  0.00    -0.000 C 
BRANCH  10  11
ATOM     11  C   UNL     1      22.840   3.780  19.861  1.00  0.00    -0.003 C 
ATOM     12  C   UNL     1      22.470   3.849  21.344  1.00  0.00     0.004 C 
ENDBRANCH  10  11
ENDBRANCH   9  10
ENDBRANCH   8   9
ENDBRANCH   7   8
ENDBRANCH   6   7
ENDBRANCH   5   6
ENDBRANCH   4   5
ENDBRANCH   3   4
ENDBRANCH   2   3
ENDBRANCH   1   2
BRANCH   1  13
ATOM     13  C   UNL     1      29.758   5.443  18.658  1.00  0.00     0.000 C 
BRANCH  13  14
ATOM     14  C   UNL     1      30.082   3.941  18.689  1.00  0.00     0.000 C 
BRANCH  14  15
ATOM     15  C   UNL     1      28.825   3.077  18.879  1.00  0.00     0.000 C 
BRANCH  15  16
ATOM     16  C   UNL     1      27.561   3.839  18.455  1.00  0.00     0.000 C 
BRANCH  16  17
ATOM     17  C   UNL     1      26.263   3.083  18.799  1.00  0.00     0.000 C 
BRANCH  17  18
ATOM     18  C   UNL     1      25.557   2.426  17.599  1.00  0.00     0.000 C 
BRANCH  18  19
ATOM     19  C   UNL     1      25.349   0.916  17.781  1.00  0.00     0.000 C 
BRANCH  19  20
ATOM     20  C   UNL     1      26.133   0.123  16.723  1.00  0.00     0.006 C 
BRANCH  20  21
ATOM     21  C   UNL     1      27.496  -0.354  17.243  1.00  0.00     0.053 C 
BRANCH  21  22
ATOM     22  C   UNL     1      27.797  -1.759  16.816  1.00  0.00     0.041 C 
ATOM     23  O   UNL     1      28.955  -2.231  16.963  1.00  0.00    -0.550 OA
ATOM     24  O   UNL     1      26.807  -2.534  16.220  1.00  0.00    -0.550 OA
ENDBRANCH  21  22
ENDBRANCH  20  21
ENDBRANCH  19  20
ENDBRANCH  18  19
ENDBRANCH  17  18
ENDBRANCH  16  17
ENDBRANCH  15  16
ENDBRANCH  14  15
ENDBRANCH  13  14
ENDBRANCH   1  13
TORSDOF 20
ENDMDL
MODEL 6
REMARK VINA RESULT:    -4.102      2.497      4.539
REMARK INTER + INTRA:         -12.011
REMARK INTER:                  -8.398
REMARK INTRA:                  -3.613
REMARK UNBOUND:                -3.113
REMARK SMILES CCCCCCCCCCCCCCCCCCCCCC(=O)[O-]
REMARK SMILES IDX 12 1 11 2 10 3 9 4 8 5 7 6 6 7 5 8 4 9 3 10 2 11 1 12 13 13
REMARK SMILES IDX 14 14 15 15 16 16 17 17 18 18 19 19 20 20 21 21 22 22 23 23
REMARK SMILES IDX 24 24
REMARK H PARENT
REMARK Flexibility Score: inf
ROOT
ATOM      1  C   UNL     1      28.021   1.661  17.747  1.00  0.00     0.000 C 
ENDROOT
BRANCH   1   2
ATOM      2  C   UNL     1      28.255   2.630  18.920  1.00  0.00     0.000 C 
BRANCH   2   3
ATOM      3  C   UNL     1      28.222   4.119  18.515  1.00  0.00     0.000 C 
BRANCH   3   4
ATOM      4  C   UNL     1      28.956   4.368  17.187  1.00  0.00    -0.000 C 
BRANCH   4   5
ATOM      5  C   UNL     1      29.778   5.667  17.192  1.00  0.00    -0.000 C 
BRANCH   5   6
ATOM      6  C   UNL     1      30.301   6.026  18.594  1.00  0.00    -0.000 C 
BRANCH   6   7
ATOM      7  C   UNL     1      31.652   5.363  18.911  1.00  0.00    -0.000 C 
BRANCH   7   8
ATOM      8  C   UNL     1      31.629   4.562  20.223  1.00  0.00    -0.000 C 
BRANCH   8   9
ATOM      9  C   UNL     1      32.012   3.096  19.982  1.00  0.00    -0.000 C 
BRANCH   9  10
ATOM     10  C   UNL     1      31.963   2.758  18.484  1.00  0.00    -0.000 C 
BRANCH  10  11
ATOM     11  C   UNL     1      33.255   2.089  17.990  1.00  0.00    -0.003 C 
ATOM     12  C   UNL     1      33.509   2.324  16.499  1.00  0.00     0.004 C 
ENDBRANCH  10  11
ENDBRANCH   9  10
ENDBRANCH   8   9
ENDBRANCH   7   8
ENDBRANCH   6   7
ENDBRANCH   5   6
ENDBRANCH   4   5
ENDBRANCH   3   4
ENDBRANCH   2   3
ENDBRANCH   1   2
BRANCH   1  13
ATOM     13  C   UNL     1      26.867   0.678  18.003  1.00  0.00     0.000 C 
BRANCH  13  14
ATOM     14  C   UNL     1      26.276   0.829  19.414  1.00  0.00     0.000 C 
BRANCH  14  15
ATOM     15  C   UNL     1      24.766   1.118  19.385  1.00  0.00     0.000 C 
BRANCH  15  16
ATOM     16  C   UNL     1      24.470   2.560  19.822  1.00  0.00     0.000 C 
BRANCH  16  17
ATOM     17  C   UNL     1      24.513   3.560  18.651  1.00  0.00     0.000 C 
BRANCH  17  18
ATOM     18  C   UNL     1      24.108   2.978  17.284  1.00  0.00     0.000 C 
BRANCH  18  19
ATOM     19  C   UNL     1      25.027   3.434  16.143  1.00  0.00     0.000 C 
BRANCH  19  20
ATOM     20  C   UNL     1      25.366   4.928  16.274  1.00  0.00     0.006 C 
BRANCH  20  21
ATOM     21  C   UNL     1      26.159   5.454  15.070  1.00  0.00     0.053 C 
BRANCH  21  22
ATOM     22  C   UNL     1      25.418   6.535  14.343  1.00  0.00     0.041 C 
ATOM     23  O   UNL     1      24.186   6.702  14.543  1.00  0.00    -0.550 OA
ATOM     24  O   UNL     1      26.080   7.334  13.416  1.00  0.00    -0.550 OA
ENDBRANCH  21  22
ENDBRANCH  20  21
ENDBRANCH  19  20
ENDBRANCH  18  19
ENDBRANCH  17  18
ENDBRANCH  16  17
ENDBRANCH  15  16
ENDBRANCH  14  15
ENDBRANCH  13  14
ENDBRANCH   1  13
TORSDOF 20
ENDMDL
MODEL 7
REMARK VINA RESULT:    -4.085     10.221     12.252
REMARK INTER + INTRA:         -11.974
REMARK INTER:                  -8.135
REMARK INTRA:                  -3.839
REMARK UNBOUND:                -3.113
REMARK SMILES CCCCCCCCCCCCCCCCCCCCCC(=O)[O-]
REMARK SMILES IDX 12 1 11 2 10 3 9 4 8 5 7 6 6 7 5 8 4 9 3 10 2 11 1 12 13 13
REMARK SMILES IDX 14 14 15 15 16 16 17 17 18 18 19 19 20 20 21 21 22 22 23 23
REMARK SMILES IDX 24 24
REMARK H PARENT
REMARK Flexibility Score: inf
ROOT
ATOM      1  C   UNL     1      30.415  -1.602  10.333  1.00  0.00     0.000 C 
ENDROOT
BRANCH   1   2
ATOM      2  C   UNL     1      29.731  -0.225  10.387  1.00  0.00     0.000 C 
BRANCH   2   3
ATOM      3  C   UNL     1      28.493  -0.106   9.474  1.00  0.00     0.000 C 
BRANCH   3   4
ATOM      4  C   UNL     1      27.206  -0.544  10.193  1.00  0.00    -0.000 C 
BRANCH   4   5
ATOM      5  C   UNL     1      26.687  -1.910   9.712  1.00  0.00    -0.000 C 
BRANCH   5   6
ATOM      6  C   UNL     1      26.935  -3.027  10.740  1.00  0.00    -0.000 C 
BRANCH   6   7
ATOM      7  C   UNL     1      27.014  -2.500  12.183  1.00  0.00    -0.000 C 
BRANCH   7   8
ATOM      8  C   UNL     1      27.949  -3.336  13.072  1.00  0.00    -0.000 C 
BRANCH   8   9
ATOM      9  C   UNL     1      29.099  -2.482  13.622  1.00  0.00    -0.000 C 
BRANCH   9  10
ATOM     10  C   UNL     1      30.323  -3.354  13.940  1.00  0.00    -0.000 C 
BRANCH  10  11
ATOM     11  C   UNL     1      31.649  -2.652  13.609  1.00  0.00    -0.003 C 
ATOM     12  C   UNL     1      32.548  -3.487  12.695  1.00  0.00     0.004 C 
ENDBRANCH  10  11
ENDBRANCH   9  10
ENDBRANCH   8   9
ENDBRANCH   7   8
ENDBRANCH   6   7
ENDBRANCH   5   6
ENDBRANCH   4   5
ENDBRANCH   3   4
ENDBRANCH   2   3
ENDBRANCH   1   2
BRANCH   1  13
ATOM     13  C   UNL     1      31.619  -1.637   9.378  1.00  0.00     0.000 C 
BRANCH  13  14
ATOM     14  C   UNL     1      31.996  -3.071   8.970  1.00  0.00     0.000 C 
BRANCH  14  15
ATOM     15  C   UNL     1      30.787  -4.020   8.990  1.00  0.00     0.000 C 
BRANCH  15  16
ATOM     16  C   UNL     1      30.721  -4.859   7.706  1.00  0.00     0.000 C 
BRANCH  16  17
ATOM     17  C   UNL     1      29.360  -4.752   6.990  1.00  0.00     0.000 C 
BRANCH  17  18
ATOM     18  C   UNL     1      28.620  -3.419   7.200  1.00  0.00     0.000 C 
BRANCH  18  19
ATOM     19  C   UNL     1      28.723  -2.480   5.990  1.00  0.00     0.000 C 
BRANCH  19  20
ATOM     20  C   UNL     1      29.665  -1.303   6.288  1.00  0.00     0.006 C 
BRANCH  20  21
ATOM     21  C   UNL     1      30.983  -1.399   5.506  1.00  0.00     0.053 C 
BRANCH  21  22
ATOM     22  C   UNL     1      30.784  -1.144   4.043  1.00  0.00     0.041 C 
ATOM     23  O   UNL     1      31.381  -1.853   3.190  1.00  0.00    -0.550 OA
ATOM     24  O   UNL     1      29.968  -0.099   3.620  1.00  0.00    -0.550 OA
ENDBRANCH  21  22
ENDBRANCH  20  21
ENDBRANCH  19  20
ENDBRANCH  18  19
ENDBRANCH  17  18
ENDBRANCH  16  17
ENDBRANCH  15  16
ENDBRANCH  14  15
ENDBRANCH  13  14
ENDBRANCH   1  13
TORSDOF 20
ENDMDL
MODEL 8
REMARK VINA RESULT:    -4.065      2.632      3.665
REMARK INTER + INTRA:         -11.931
REMARK INTER:                  -9.611
REMARK INTRA:                  -2.320
REMARK UNBOUND:                -3.113
REMARK SMILES CCCCCCCCCCCCCCCCCCCCCC(=O)[O-]
REMARK SMILES IDX 12 1 11 2 10 3 9 4 8 5 7 6 6 7 5 8 4 9 3 10 2 11 1 12 13 13
REMARK SMILES IDX 14 14 15 15 16 16 17 17 18 18 19 19 20 20 21 21 22 22 23 23
REMARK SMILES IDX 24 24
REMARK H PARENT
REMARK Flexibility Score: inf
ROOT
ATOM      1  C   UNL     1      24.044   2.232  20.640  1.00  0.00     0.000 C 
ENDROOT
BRANCH   1   2
ATOM      2  C   UNL     1      24.640   1.184  19.684  1.00  0.00     0.000 C 
BRANCH   2   3
ATOM      3  C   UNL     1      26.030   1.563  19.132  1.00  0.00     0.000 C 
BRANCH   3   4
ATOM      4  C   UNL     1      26.082   3.027  18.666  1.00  0.00    -0.000 C 
BRANCH   4   5
ATOM      5  C   UNL     1      27.511   3.595  18.634  1.00  0.00    -0.000 C 
BRANCH   5   6
ATOM      6  C   UNL     1      28.334   3.046  17.456  1.00  0.00    -0.000 C 
BRANCH   6   7
ATOM      7  C   UNL     1      29.535   2.200  17.914  1.00  0.00    -0.000 C 
BRANCH   7   8
ATOM      8  C   UNL     1      30.864   2.675  17.306  1.00  0.00    -0.000 C 
BRANCH   8   9
ATOM      9  C   UNL     1      31.880   3.023  18.401  1.00  0.00    -0.000 C 
BRANCH   9  10
ATOM     10  C   UNL     1      31.219   3.843  19.520  1.00  0.00    -0.000 C 
BRANCH  10  11
ATOM     11  C   UNL     1      31.435   5.355  19.347  1.00  0.00    -0.003 C 
ATOM     12  C   UNL     1      30.290   6.033  18.592  1.00  0.00     0.004 C 
ENDBRANCH  10  11
ENDBRANCH   9  10
ENDBRANCH   8   9
ENDBRANCH   7   8
ENDBRANCH   6   7
ENDBRANCH   5   6
ENDBRANCH   4   5
ENDBRANCH   3   4
ENDBRANCH   2   3
ENDBRANCH   1   2
BRANCH   1  13
ATOM     13  C   UNL     1      22.623   2.667  20.244  1.00  0.00     0.000 C 
BRANCH  13  14
ATOM     14  C   UNL     1      22.630   3.840  19.251  1.00  0.00     0.000 C 
BRANCH  14  15
ATOM     15  C   UNL     1      22.396   3.379  17.803  1.00  0.00     0.000 C 
BRANCH  15  16
ATOM     16  C   UNL     1      22.985   4.383  16.801  1.00  0.00     0.000 C 
BRANCH  16  17
ATOM     17  C   UNL     1      23.262   5.763  17.429  1.00  0.00     0.000 C 
BRANCH  17  18
ATOM     18  C   UNL     1      23.159   6.951  16.455  1.00  0.00     0.000 C 
BRANCH  18  19
ATOM     19  C   UNL     1      23.989   6.755  15.180  1.00  0.00     0.000 C 
BRANCH  19  20
ATOM     20  C   UNL     1      25.454   7.158  15.410  1.00  0.00     0.006 C 
BRANCH  20  21
ATOM     21  C   UNL     1      26.437   6.080  14.934  1.00  0.00     0.053 C 
BRANCH  21  22
ATOM     22  C   UNL     1      26.773   6.232  13.482  1.00  0.00     0.041 C 
ATOM     23  O   UNL     1      26.516   5.302  12.672  1.00  0.00    -0.550 OA
ATOM     24  O   UNL     1      27.404   7.386  13.027  1.00  0.00    -0.550 OA
ENDBRANCH  21  22
ENDBRANCH  20  21
ENDBRANCH  19  20
ENDBRANCH  18  19
ENDBRANCH  17  18
ENDBRANCH  16  17
ENDBRANCH  15  16
ENDBRANCH  14  15
ENDBRANCH  13  14
ENDBRANCH   1  13
TORSDOF 20
ENDMDL
MODEL 9
REMARK VINA RESULT:    -4.041      4.381      7.588
REMARK INTER + INTRA:         -11.878
REMARK INTER:                  -8.149
REMARK INTRA:                  -3.730
REMARK UNBOUND:                -3.113
REMARK SMILES CCCCCCCCCCCCCCCCCCCCCC(=O)[O-]
REMARK SMILES IDX 12 1 11 2 10 3 9 4 8 5 7 6 6 7 5 8 4 9 3 10 2 11 1 12 13 13
REMARK SMILES IDX 14 14 15 15 16 16 17 17 18 18 19 19 20 20 21 21 22 22 23 23
REMARK SMILES IDX 24 24
REMARK H PARENT
REMARK Flexibility Score: inf
ROOT
ATOM      1  C   UNL     1      25.601   5.153  13.868  1.00  0.00     0.000 C 
ENDROOT
BRANCH   1   2
ATOM      2  C   UNL     1      24.684   4.133  13.169  1.00  0.00     0.000 C 
BRANCH   2   3
ATOM      3  C   UNL     1      23.373   3.848  13.933  1.00  0.00     0.000 C 
BRANCH   3   4
ATOM      4  C   UNL     1      22.134   4.216  13.101  1.00  0.00    -0.000 C 
BRANCH   4   5
ATOM      5  C   UNL     1      21.436   5.492  13.600  1.00  0.00    -0.000 C 
BRANCH   5   6
ATOM      6  C   UNL     1      22.131   6.773  13.105  1.00  0.00    -0.000 C 
BRANCH   6   7
ATOM      7  C   UNL     1      21.408   7.417  11.910  1.00  0.00    -0.000 C 
BRANCH   7   8
ATOM      8  C   UNL     1      22.211   7.314  10.603  1.00  0.00    -0.000 C 
BRANCH   8   9
ATOM      9  C   UNL     1      23.686   6.995  10.885  1.00  0.00    -0.000 C 
BRANCH   9  10
ATOM     10  C   UNL     1      24.188   5.876   9.959  1.00  0.00    -0.000 C 
BRANCH  10  11
ATOM     11  C   UNL     1      23.061   4.934   9.509  1.00  0.00    -0.003 C 
ATOM     12  C   UNL     1      23.427   3.457   9.667  1.00  0.00     0.004 C 
ENDBRANCH  10  11
ENDBRANCH   9  10
ENDBRANCH   8   9
ENDBRANCH   7   8
ENDBRANCH   6   7
ENDBRANCH   5   6
ENDBRANCH   4   5
ENDBRANCH   3   4
ENDBRANCH   2   3
ENDBRANCH   1   2
BRANCH   1  13
ATOM     13  C   UNL     1      25.113   5.534  15.275  1.00  0.00     0.000 C 
BRANCH  13  14
ATOM     14  C   UNL     1      25.063   7.057  15.480  1.00  0.00     0.000 C 
BRANCH  14  15
ATOM     15  C   UNL     1      23.880   7.487  16.362  1.00  0.00     0.000 C 
BRANCH  15  16
ATOM     16  C   UNL     1      23.021   6.280  16.764  1.00  0.00     0.000 C 
BRANCH  16  17
ATOM     17  C   UNL     1      23.042   6.008  18.280  1.00  0.00     0.000 C 
BRANCH  17  18
ATOM     18  C   UNL     1      23.518   4.599  18.681  1.00  0.00     0.000 C 
BRANCH  18  19
ATOM     19  C   UNL     1      22.873   3.488  17.841  1.00  0.00     0.000 C 
BRANCH  19  20
ATOM     20  C   UNL     1      23.660   2.174  17.972  1.00  0.00     0.006 C 
BRANCH  20  21
ATOM     21  C   UNL     1      25.040   2.382  18.613  1.00  0.00     0.053 C 
BRANCH  21  22
ATOM     22  C   UNL     1      25.308   1.382  19.696  1.00  0.00     0.041 C 
ATOM     23  O   UNL     1      26.379   0.718  19.692  1.00  0.00    -0.550 OA
ATOM     24  O   UNL     1      24.361   1.157  20.689  1.00  0.00    -0.550 OA
ENDBRANCH  21  22
ENDBRANCH  20  21
ENDBRANCH  19  20
ENDBRANCH  18  19
ENDBRANCH  17  18
ENDBRANCH  16  17
ENDBRANCH  15  16
ENDBRANCH  14  15
ENDBRANCH  13  14
ENDBRANCH   1  13
TORSDOF 20
ENDMDL
