MODEL 1
REMARK VINA RESULT:    21.225      0.000      0.000
REMARK INTER + INTRA:          28.463
REMARK INTER:                  28.050
REMARK INTRA:                   0.413
REMARK UNBOUND:                 0.413
REMARK SMILES CC[C@H](C=C[C@H](C)[C@@H]1CC[C@H]2[C@@H]3CC=C4C[C@H](O)CC[C@]4(C)[C@@H]3CC[C@]21C)C(C)C
REMARK SMILES IDX 6 1 7 2 5 3 4 4 3 5 2 6 1 7 28 8 29 9 30 10 8 11 9 12 26 13
REMARK SMILES IDX 10 14 11 15 25 16 27 17 12 18 24 19 23 20 13 21 21 22 14 23
REMARK SMILES IDX 15 24 20 25 22 26 16 27 19 28 17 29 18 30
REMARK H PARENT 18 31
REMARK Flexibility Score: inf
ROOT
ATOM      1  C   UNL     1       3.307  12.634  12.920  1.00  0.00     0.012 C 
ATOM      2  C   UNL     1       2.033  11.970  12.375  1.00  0.00     0.012 C 
ENDROOT
BRANCH   1   3
ATOM      3  C   UNL     1       3.381  14.048  12.366  1.00  0.00    -0.028 C 
ATOM      4  C   UNL     1       3.851  14.385  11.147  1.00  0.00    -0.027 C 
BRANCH   4   5
ATOM      5  C   UNL     1       4.407  13.418  10.112  1.00  0.00     0.014 C 
BRANCH   5   6
ATOM      6  C   UNL     1       3.445  13.350   8.898  1.00  0.00     0.004 C 
ATOM      7  C   UNL     1       2.302  12.338   9.029  1.00  0.00     0.004 C 
ENDBRANCH   5   6
BRANCH   5   8
ATOM      8  C   UNL     1       5.879  13.788   9.748  1.00  0.00    -0.011 C 
ATOM      9  C   UNL     1       6.531  12.689   8.888  1.00  0.00     0.008 C 
ATOM     10  C   UNL     1       5.969  15.126   8.996  1.00  0.00     0.008 C 
ENDBRANCH   5   8
ENDBRANCH   4   5
ENDBRANCH   1   3
BRANCH   1  11
ATOM     11  C   UNL     1       3.348  12.667  14.485  1.00  0.00     0.002 C 
ATOM     12  C   UNL     1       1.939  12.616  15.079  1.00  0.00     0.005 C 
ATOM     13  C   UNL     1       4.010  13.899  15.182  1.00  0.00    -0.026 C 
ATOM     14  C   UNL     1       2.048  13.146  16.499  1.00  0.00     0.005 C 
ATOM     15  C   UNL     1       3.406  13.874  16.626  1.00  0.00    -0.001 C 
ATOM     16  C   UNL     1       5.564  13.782  15.204  1.00  0.00     0.007 C 
ATOM     17  C   UNL     1       3.601  15.233  14.497  1.00  0.00     0.012 C 
ATOM     18  C   UNL     1       4.346  13.199  17.679  1.00  0.00     0.000 C 
ATOM     19  C   UNL     1       6.167  14.525  16.394  1.00  0.00     0.005 C 
ATOM     20  C   UNL     1       5.761  13.870  17.741  1.00  0.00     0.003 C 
ATOM     21  C   UNL     1       3.669  13.072  19.065  1.00  0.00     0.031 C 
ATOM     22  C   UNL     1       6.040  14.783  19.002  1.00  0.00    -0.008 C 
ATOM     23  C   UNL     1       4.601  13.157  20.236  1.00  0.00    -0.027 C 
ATOM     24  C   UNL     1       5.599  14.060  20.271  1.00  0.00    -0.065 C 
ATOM     25  C   UNL     1       5.275  16.140  18.986  1.00  0.00     0.014 C 
ATOM     26  C   UNL     1       7.574  15.048  19.057  1.00  0.00     0.016 C 
ATOM     27  C   UNL     1       5.849  14.760  21.588  1.00  0.00     0.063 C 
ATOM     28  C   UNL     1       5.433  16.936  20.307  1.00  0.00     0.033 C 
ATOM     29  C   UNL     1       5.100  16.106  21.572  1.00  0.00     0.118 C 
BRANCH  29  30
ATOM     30  O   UNL     1       3.716  15.869  21.642  1.00  0.00    -0.393 OA
ATOM     31  H   UNL     1       3.312  16.655  22.093  1.00  0.00     0.210 HD
ENDBRANCH  29  30
ENDBRANCH   1  11
TORSDOF 6
ENDMDL
MODEL 2
REMARK VINA RESULT:    23.102      0.620      1.658
REMARK INTER + INTRA:          30.943
REMARK INTER:                  29.680
REMARK INTRA:                   1.263
REMARK UNBOUND:                 0.413
REMARK SMILES CC[C@H](C=C[C@H](C)[C@@H]1CC[C@H]2[C@@H]3CC=C4C[C@H](O)CC[C@]4(C)[C@@H]3CC[C@]21C)C(C)C
REMARK SMILES IDX 6 1 7 2 5 3 4 4 3 5 2 6 1 7 28 8 29 9 30 10 8 11 9 12 26 13
REMARK SMILES IDX 10 14 11 15 25 16 27 17 12 18 24 19 23 20 13 21 21 22 14 23
REMARK SMILES IDX 15 24 20 25 22 26 16 27 19 28 17 29 18 30
REMARK H PARENT 18 31
REMARK Flexibility Score: inf
ROOT
ATOM      1  C   UNL     1       2.759  13.049  12.977  1.00  0.00     0.012 C 
ATOM      2  C   UNL     1       3.346  14.348  12.403  1.00  0.00     0.012 C 
ENDROOT
BRANCH   1   3
ATOM      3  C   UNL     1       3.427  11.875  12.278  1.00  0.00    -0.028 C 
ATOM      4  C   UNL     1       4.076  11.937  11.097  1.00  0.00    -0.027 C 
BRANCH   4   5
ATOM      5  C   UNL     1       4.243  13.184  10.240  1.00  0.00     0.014 C 
BRANCH   5   6
ATOM      6  C   UNL     1       5.744  13.383   9.905  1.00  0.00     0.004 C 
ATOM      7  C   UNL     1       6.355  12.312   8.995  1.00  0.00     0.004 C 
ENDBRANCH   5   6
BRANCH   5   8
ATOM      8  C   UNL     1       3.306  13.124   8.993  1.00  0.00    -0.011 C 
ATOM      9  C   UNL     1       2.402  11.878   9.036  1.00  0.00     0.008 C 
ATOM     10  C   UNL     1       2.420  14.376   8.877  1.00  0.00     0.008 C 
ENDBRANCH   5   8
ENDBRANCH   4   5
ENDBRANCH   1   3
BRANCH   1  11
ATOM     11  C   UNL     1       2.952  12.933  14.527  1.00  0.00     0.002 C 
ATOM     12  C   UNL     1       1.609  12.785  15.244  1.00  0.00     0.005 C 
ATOM     13  C   UNL     1       3.655  14.111  15.274  1.00  0.00    -0.026 C 
ATOM     14  C   UNL     1       1.847  13.181  16.693  1.00  0.00     0.005 C 
ATOM     15  C   UNL     1       3.196  13.931  16.759  1.00  0.00    -0.001 C 
ATOM     16  C   UNL     1       5.206  14.037  15.136  1.00  0.00     0.007 C 
ATOM     17  C   UNL     1       3.156  15.492  14.764  1.00  0.00     0.012 C 
ATOM     18  C   UNL     1       4.248  13.186  17.647  1.00  0.00     0.000 C 
ATOM     19  C   UNL     1       5.909  14.680  16.330  1.00  0.00     0.005 C 
ATOM     20  C   UNL     1       5.649  13.888  17.639  1.00  0.00     0.003 C 
ATOM     21  C   UNL     1       3.712  12.908  19.072  1.00  0.00     0.031 C 
ATOM     22  C   UNL     1       6.033  14.684  18.950  1.00  0.00    -0.008 C 
ATOM     23  C   UNL     1       4.752  12.908  20.151  1.00  0.00    -0.027 C 
ATOM     24  C   UNL     1       5.731  13.831  20.179  1.00  0.00    -0.065 C 
ATOM     25  C   UNL     1       5.243  16.014  19.140  1.00  0.00     0.014 C 
ATOM     26  C   UNL     1       7.559  14.986  18.884  1.00  0.00     0.016 C 
ATOM     27  C   UNL     1       6.096  14.409  21.529  1.00  0.00     0.063 C 
ATOM     28  C   UNL     1       5.514  16.685  20.512  1.00  0.00     0.033 C 
ATOM     29  C   UNL     1       5.323  15.728  21.716  1.00  0.00     0.118 C 
BRANCH  29  30
ATOM     30  O   UNL     1       3.958  15.447  21.894  1.00  0.00    -0.393 OA
ATOM     31  H   UNL     1       3.569  15.326  20.989  1.00  0.00     0.210 HD
ENDBRANCH  29  30
ENDBRANCH   1  11
TORSDOF 6
ENDMDL
MODEL 3
REMARK VINA RESULT:    23.351      2.714      8.980
REMARK INTER + INTRA:          31.272
REMARK INTER:                  31.123
REMARK INTRA:                   0.149
REMARK UNBOUND:                 0.413
REMARK SMILES CC[C@H](C=C[C@H](C)[C@@H]1CC[C@H]2[C@@H]3CC=C4C[C@H](O)CC[C@]4(C)[C@@H]3CC[C@]21C)C(C)C
REMARK SMILES IDX 6 1 7 2 5 3 4 4 3 5 2 6 1 7 28 8 29 9 30 10 8 11 9 12 26 13
REMARK SMILES IDX 10 14 11 15 25 16 27 17 12 18 24 19 23 20 13 21 21 22 14 23
REMARK SMILES IDX 15 24 20 25 22 26 16 27 19 28 17 29 18 30
REMARK H PARENT 18 31
REMARK Flexibility Score: inf
ROOT
ATOM      1  C   UNL     1       4.721  13.809  18.265  1.00  0.00     0.012 C 
ATOM      2  C   UNL     1       3.648  12.892  18.875  1.00  0.00     0.012 C 
ENDROOT
BRANCH   1   3
ATOM      3  C   UNL     1       5.988  13.676  19.095  1.00  0.00    -0.028 C 
ATOM      4  C   UNL     1       6.404  14.556  20.029  1.00  0.00    -0.027 C 
BRANCH   4   5
ATOM      5  C   UNL     1       5.694  15.846  20.412  1.00  0.00     0.014 C 
BRANCH   5   6
ATOM      6  C   UNL     1       4.656  15.554  21.526  1.00  0.00     0.004 C 
ATOM      7  C   UNL     1       3.844  16.768  21.993  1.00  0.00     0.004 C 
ENDBRANCH   5   6
BRANCH   5   8
ATOM      8  C   UNL     1       6.730  16.958  20.771  1.00  0.00    -0.011 C 
ATOM      9  C   UNL     1       6.236  17.817  21.951  1.00  0.00     0.008 C 
ATOM     10  C   UNL     1       8.106  16.371  21.127  1.00  0.00     0.008 C 
ENDBRANCH   5   8
ENDBRANCH   4   5
ENDBRANCH   1   3
BRANCH   1  11
ATOM     11  C   UNL     1       5.022  13.471  16.766  1.00  0.00     0.002 C 
ATOM     12  C   UNL     1       6.324  14.124  16.299  1.00  0.00     0.005 C 
ATOM     13  C   UNL     1       3.975  13.898  15.688  1.00  0.00    -0.026 C 
ATOM     14  C   UNL     1       6.267  14.167  14.781  1.00  0.00     0.005 C 
ATOM     15  C   UNL     1       4.802  13.917  14.359  1.00  0.00    -0.001 C 
ATOM     16  C   UNL     1       2.784  12.895  15.612  1.00  0.00     0.007 C 
ATOM     17  C   UNL     1       3.430  15.329  15.953  1.00  0.00     0.012 C 
ATOM     18  C   UNL     1       4.642  12.611  13.510  1.00  0.00     0.000 C 
ATOM     19  C   UNL     1       2.161  12.866  14.218  1.00  0.00     0.005 C 
ATOM     20  C   UNL     1       3.147  12.298  13.163  1.00  0.00     0.003 C 
ATOM     21  C   UNL     1       5.571  12.606  12.273  1.00  0.00     0.031 C 
ATOM     22  C   UNL     1       2.709  12.576  11.669  1.00  0.00    -0.008 C 
ATOM     23  C   UNL     1       5.033  11.875  11.080  1.00  0.00    -0.027 C 
ATOM     24  C   UNL     1       3.744  11.992  10.711  1.00  0.00    -0.065 C 
ATOM     25  C   UNL     1       2.591  14.088  11.312  1.00  0.00     0.014 C 
ATOM     26  C   UNL     1       1.335  11.876  11.446  1.00  0.00     0.016 C 
ATOM     27  C   UNL     1       3.457  12.107   9.230  1.00  0.00     0.063 C 
ATOM     28  C   UNL     1       2.328  14.332   9.804  1.00  0.00     0.033 C 
ATOM     29  C   UNL     1       3.332  13.602   8.876  1.00  0.00     0.118 C 
BRANCH  29  30
ATOM     30  O   UNL     1       4.596  14.208   8.963  1.00  0.00    -0.393 OA
ATOM     31  H   UNL     1       5.269  13.490   8.841  1.00  0.00     0.210 HD
ENDBRANCH  29  30
ENDBRANCH   1  11
TORSDOF 6
ENDMDL
