MODEL 1
REMARK VINA RESULT:    -3.411      0.000      0.000
REMARK INTER + INTRA:         -11.410
REMARK INTER:                  -7.399
REMARK INTRA:                  -4.011
REMARK UNBOUND:                -4.011
REMARK SMILES CCCCCCCCCCCCCCCCCCCCCC(=O)[O-]
REMARK SMILES IDX 12 1 11 2 10 3 9 4 8 5 7 6 6 7 5 8 4 9 3 10 2 11 1 12 13 13
REMARK SMILES IDX 14 14 15 15 16 16 17 17 18 18 19 19 20 20 21 21 22 22 23 23
REMARK SMILES IDX 24 24
REMARK H PARENT
REMARK Flexibility Score: inf
ROOT
ATOM      1  C   UNL     1     162.058 165.300 186.258  1.00  0.00     0.000 C 
ENDROOT
BRANCH   1   2
ATOM      2  C   UNL     1     163.291 164.725 185.543  1.00  0.00     0.000 C 
BRANCH   2   3
ATOM      3  C   UNL     1     164.301 164.104 186.525  1.00  0.00     0.000 C 
BRANCH   3   4
ATOM      4  C   UNL     1     164.023 164.492 187.986  1.00  0.00    -0.000 C 
BRANCH   4   5
ATOM      5  C   UNL     1     164.821 163.646 188.992  1.00  0.00    -0.000 C 
BRANCH   5   6
ATOM      6  C   UNL     1     166.280 164.118 189.072  1.00  0.00    -0.000 C 
BRANCH   6   7
ATOM      7  C   UNL     1     167.233 163.001 189.551  1.00  0.00    -0.000 C 
BRANCH   7   8
ATOM      8  C   UNL     1     166.510 161.717 189.990  1.00  0.00    -0.000 C 
BRANCH   8   9
ATOM      9  C   UNL     1     166.883 160.496 189.132  1.00  0.00    -0.000 C 
BRANCH   9  10
ATOM     10  C   UNL     1     166.501 160.672 187.654  1.00  0.00    -0.000 C 
BRANCH  10  11
ATOM     11  C   UNL     1     167.707 160.535 186.713  1.00  0.00    -0.003 C 
ATOM     12  C   UNL     1     168.016 161.859 186.021  1.00  0.00     0.004 C 
ENDBRANCH  10  11
ENDBRANCH   9  10
ENDBRANCH   8   9
ENDBRANCH   7   8
ENDBRANCH   6   7
ENDBRANCH   5   6
ENDBRANCH   4   5
ENDBRANCH   3   4
ENDBRANCH   2   3
ENDBRANCH   1   2
BRANCH   1  13
ATOM     13  C   UNL     1     160.738 164.814 185.641  1.00  0.00     0.000 C 
BRANCH  13  14
ATOM     14  C   UNL     1     159.881 164.083 186.685  1.00  0.00     0.000 C 
BRANCH  14  15
ATOM     15  C   UNL     1     160.311 164.381 188.133  1.00  0.00     0.000 C 
BRANCH  15  16
ATOM     16  C   UNL     1     160.604 163.138 188.993  1.00  0.00     0.000 C 
BRANCH  16  17
ATOM     17  C   UNL     1     160.782 161.861 188.158  1.00  0.00     0.000 C 
BRANCH  17  18
ATOM     18  C   UNL     1     162.189 161.276 188.338  1.00  0.00     0.000 C 
BRANCH  18  19
ATOM     19  C   UNL     1     162.856 161.028 186.978  1.00  0.00     0.000 C 
BRANCH  19  20
ATOM     20  C   UNL     1     161.894 161.240 185.793  1.00  0.00     0.006 C 
BRANCH  20  21
ATOM     21  C   UNL     1     162.412 160.694 184.453  1.00  0.00     0.053 C 
BRANCH  21  22
ATOM     22  C   UNL     1     162.667 161.786 183.461  1.00  0.00     0.041 C 
ATOM     23  O   UNL     1     163.834 161.995 183.035  1.00  0.00    -0.550 OA
ATOM     24  O   UNL     1     161.624 162.602 183.043  1.00  0.00    -0.550 OA
ENDBRANCH  21  22
ENDBRANCH  20  21
ENDBRANCH  19  20
ENDBRANCH  18  19
ENDBRANCH  17  18
ENDBRANCH  16  17
ENDBRANCH  15  16
ENDBRANCH  14  15
ENDBRANCH  13  14
ENDBRANCH   1  13
TORSDOF 20
ENDMDL
MODEL 2
REMARK VINA RESULT:    -3.367      1.820      5.452
REMARK INTER + INTRA:         -11.314
REMARK INTER:                  -7.241
REMARK INTRA:                  -4.073
REMARK UNBOUND:                -4.011
REMARK SMILES CCCCCCCCCCCCCCCCCCCCCC(=O)[O-]
REMARK SMILES IDX 12 1 11 2 10 3 9 4 8 5 7 6 6 7 5 8 4 9 3 10 2 11 1 12 13 13
REMARK SMILES IDX 14 14 15 15 16 16 17 17 18 18 19 19 20 20 21 21 22 22 23 23
REMARK SMILES IDX 24 24
REMARK H PARENT
REMARK Flexibility Score: inf
ROOT
ATOM      1  C   UNL     1     164.440 163.884 187.395  1.00  0.00     0.000 C 
ENDROOT
BRANCH   1   2
ATOM      2  C   UNL     1     163.185 164.391 188.123  1.00  0.00     0.000 C 
BRANCH   2   3
ATOM      3  C   UNL     1     162.349 163.243 188.717  1.00  0.00     0.000 C 
BRANCH   3   4
ATOM      4  C   UNL     1     160.866 163.614 188.884  1.00  0.00    -0.000 C 
BRANCH   4   5
ATOM      5  C   UNL     1     159.925 162.686 188.099  1.00  0.00    -0.000 C 
BRANCH   5   6
ATOM      6  C   UNL     1     160.636 161.382 187.709  1.00  0.00    -0.000 C 
BRANCH   6   7
ATOM      7  C   UNL     1     160.515 161.076 186.200  1.00  0.00    -0.000 C 
BRANCH   7   8
ATOM      8  C   UNL     1     161.485 161.886 185.324  1.00  0.00    -0.000 C 
BRANCH   8   9
ATOM      9  C   UNL     1     160.777 162.964 184.485  1.00  0.00    -0.000 C 
BRANCH   9  10
ATOM     10  C   UNL     1     161.147 164.390 184.919  1.00  0.00    -0.000 C 
BRANCH  10  11
ATOM     11  C   UNL     1     162.402 164.916 184.208  1.00  0.00    -0.003 C 
ATOM     12  C   UNL     1     162.915 166.191 184.871  1.00  0.00     0.004 C 
ENDBRANCH  10  11
ENDBRANCH   9  10
ENDBRANCH   8   9
ENDBRANCH   7   8
ENDBRANCH   6   7
ENDBRANCH   5   6
ENDBRANCH   4   5
ENDBRANCH   3   4
ENDBRANCH   2   3
ENDBRANCH   1   2
BRANCH   1  13
ATOM     13  C   UNL     1     165.738 164.426 188.012  1.00  0.00     0.000 C 
BRANCH  13  14
ATOM     14  C   UNL     1     166.646 163.277 188.477  1.00  0.00     0.000 C 
BRANCH  14  15
ATOM     15  C   UNL     1     166.530 162.991 189.986  1.00  0.00     0.000 C 
BRANCH  15  16
ATOM     16  C   UNL     1     166.568 161.501 190.370  1.00  0.00     0.000 C 
BRANCH  16  17
ATOM     17  C   UNL     1     166.212 160.572 189.200  1.00  0.00     0.000 C 
BRANCH  17  18
ATOM     18  C   UNL     1     164.708 160.270 189.173  1.00  0.00     0.000 C 
BRANCH  18  19
ATOM     19  C   UNL     1     164.186 160.220 187.730  1.00  0.00     0.000 C 
BRANCH  19  20
ATOM     20  C   UNL     1     165.317 160.115 186.688  1.00  0.00     0.006 C 
BRANCH  20  21
ATOM     21  C   UNL     1     165.074 160.929 185.408  1.00  0.00     0.053 C 
BRANCH  21  22
ATOM     22  C   UNL     1     166.354 161.273 184.710  1.00  0.00     0.041 C 
ATOM     23  O   UNL     1     167.365 161.622 185.376  1.00  0.00    -0.550 OA
ATOM     24  O   UNL     1     166.415 161.254 183.322  1.00  0.00    -0.550 OA
ENDBRANCH  21  22
ENDBRANCH  20  21
ENDBRANCH  19  20
ENDBRANCH  18  19
ENDBRANCH  17  18
ENDBRANCH  16  17
ENDBRANCH  15  16
ENDBRANCH  14  15
ENDBRANCH  13  14
ENDBRANCH   1  13
TORSDOF 20
ENDMDL
MODEL 3
REMARK VINA RESULT:    -3.351     15.063     17.673
REMARK INTER + INTRA:         -11.280
REMARK INTER:                  -8.125
REMARK INTRA:                  -3.156
REMARK UNBOUND:                -4.011
REMARK SMILES CCCCCCCCCCCCCCCCCCCCCC(=O)[O-]
REMARK SMILES IDX 12 1 11 2 10 3 9 4 8 5 7 6 6 7 5 8 4 9 3 10 2 11 1 12 13 13
REMARK SMILES IDX 14 14 15 15 16 16 17 17 18 18 19 19 20 20 21 21 22 22 23 23
REMARK SMILES IDX 24 24
REMARK H PARENT
REMARK Flexibility Score: inf
ROOT
ATOM      1  C   UNL     1     173.426 173.738 187.735  1.00  0.00     0.000 C 
ENDROOT
BRANCH   1   2
ATOM      2  C   UNL     1     173.956 172.888 188.901  1.00  0.00     0.000 C 
BRANCH   2   3
ATOM      3  C   UNL     1     175.339 172.282 188.602  1.00  0.00     0.000 C 
BRANCH   3   4
ATOM      4  C   UNL     1     176.327 172.455 189.767  1.00  0.00    -0.000 C 
BRANCH   4   5
ATOM      5  C   UNL     1     176.127 173.776 190.529  1.00  0.00    -0.000 C 
BRANCH   5   6
ATOM      6  C   UNL     1     176.938 174.911 189.885  1.00  0.00    -0.000 C 
BRANCH   6   7
ATOM      7  C   UNL     1     178.261 174.410 189.267  1.00  0.00    -0.000 C 
BRANCH   7   8
ATOM      8  C   UNL     1     178.293 174.484 187.731  1.00  0.00    -0.000 C 
BRANCH   8   9
ATOM      9  C   UNL     1     178.992 173.274 187.088  1.00  0.00    -0.000 C 
BRANCH   9  10
ATOM     10  C   UNL     1     179.771 172.429 188.107  1.00  0.00    -0.000 C 
BRANCH  10  11
ATOM     11  C   UNL     1     179.807 170.940 187.734  1.00  0.00    -0.003 C 
ATOM     12  C   UNL     1     179.023 170.102 188.740  1.00  0.00     0.004 C 
ENDBRANCH  10  11
ENDBRANCH   9  10
ENDBRANCH   8   9
ENDBRANCH   7   8
ENDBRANCH   6   7
ENDBRANCH   5   6
ENDBRANCH   4   5
ENDBRANCH   3   4
ENDBRANCH   2   3
ENDBRANCH   1   2
BRANCH   1  13
ATOM     13  C   UNL     1     174.004 175.161 187.732  1.00  0.00     0.000 C 
BRANCH  13  14
ATOM     14  C   UNL     1     174.557 175.526 186.347  1.00  0.00     0.000 C 
BRANCH  14  15
ATOM     15  C   UNL     1     175.336 176.854 186.340  1.00  0.00     0.000 C 
BRANCH  15  16
ATOM     16  C   UNL     1     175.600 177.460 187.731  1.00  0.00     0.000 C 
BRANCH  16  17
ATOM     17  C   UNL     1     175.716 178.991 187.705  1.00  0.00     0.000 C 
BRANCH  17  18
ATOM     18  C   UNL     1     174.361 179.642 187.401  1.00  0.00     0.000 C 
BRANCH  18  19
ATOM     19  C   UNL     1     173.353 179.358 188.524  1.00  0.00     0.000 C 
BRANCH  19  20
ATOM     20  C   UNL     1     171.963 178.960 187.993  1.00  0.00     0.006 C 
BRANCH  20  21
ATOM     21  C   UNL     1     171.235 177.913 188.850  1.00  0.00     0.053 C 
BRANCH  21  22
ATOM     22  C   UNL     1     170.493 176.917 188.013  1.00  0.00     0.041 C 
ATOM     23  O   UNL     1     169.836 177.299 187.008  1.00  0.00    -0.550 OA
ATOM     24  O   UNL     1     170.490 175.575 188.370  1.00  0.00    -0.550 OA
ENDBRANCH  21  22
ENDBRANCH  20  21
ENDBRANCH  19  20
ENDBRANCH  18  19
ENDBRANCH  17  18
ENDBRANCH  16  17
ENDBRANCH  15  16
ENDBRANCH  14  15
ENDBRANCH  13  14
ENDBRANCH   1  13
TORSDOF 20
ENDMDL
MODEL 4
REMARK VINA RESULT:    -3.334      2.677      4.900
REMARK INTER + INTRA:         -11.244
REMARK INTER:                  -6.944
REMARK INTRA:                  -4.300
REMARK UNBOUND:                -4.011
REMARK SMILES CCCCCCCCCCCCCCCCCCCCCC(=O)[O-]
REMARK SMILES IDX 12 1 11 2 10 3 9 4 8 5 7 6 6 7 5 8 4 9 3 10 2 11 1 12 13 13
REMARK SMILES IDX 14 14 15 15 16 16 17 17 18 18 19 19 20 20 21 21 22 22 23 23
REMARK SMILES IDX 24 24
REMARK H PARENT
REMARK Flexibility Score: inf
ROOT
ATOM      1  C   UNL     1     160.473 163.191 184.563  1.00  0.00     0.000 C 
ENDROOT
BRANCH   1   2
ATOM      2  C   UNL     1     160.191 164.340 185.545  1.00  0.00     0.000 C 
BRANCH   2   3
ATOM      3  C   UNL     1     161.473 165.084 185.959  1.00  0.00     0.000 C 
BRANCH   3   4
ATOM      4  C   UNL     1     162.013 164.621 187.322  1.00  0.00    -0.000 C 
BRANCH   4   5
ATOM      5  C   UNL     1     160.904 164.152 188.278  1.00  0.00    -0.000 C 
BRANCH   5   6
ATOM      6  C   UNL     1     161.166 162.719 188.765  1.00  0.00    -0.000 C 
BRANCH   6   7
ATOM      7  C   UNL     1     162.602 162.245 188.451  1.00  0.00    -0.000 C 
BRANCH   7   8
ATOM      8  C   UNL     1     162.762 160.716 188.440  1.00  0.00    -0.000 C 
BRANCH   8   9
ATOM      9  C   UNL     1     164.207 160.262 188.704  1.00  0.00    -0.000 C 
BRANCH   9  10
ATOM     10  C   UNL     1     165.165 161.441 188.933  1.00  0.00    -0.000 C 
BRANCH  10  11
ATOM     11  C   UNL     1     166.494 161.007 189.569  1.00  0.00    -0.003 C 
ATOM     12  C   UNL     1     167.506 160.602 188.502  1.00  0.00     0.004 C 
ENDBRANCH  10  11
ENDBRANCH   9  10
ENDBRANCH   8   9
ENDBRANCH   7   8
ENDBRANCH   6   7
ENDBRANCH   5   6
ENDBRANCH   4   5
ENDBRANCH   3   4
ENDBRANCH   2   3
ENDBRANCH   1   2
BRANCH   1  13
ATOM     13  C   UNL     1     160.335 161.809 185.216  1.00  0.00     0.000 C 
BRANCH  13  14
ATOM     14  C   UNL     1     161.608 160.974 185.009  1.00  0.00     0.000 C 
BRANCH  14  15
ATOM     15  C   UNL     1     162.865 161.838 184.793  1.00  0.00     0.000 C 
BRANCH  15  16
ATOM     16  C   UNL     1     164.197 161.141 185.124  1.00  0.00     0.000 C 
BRANCH  16  17
ATOM     17  C   UNL     1     165.345 162.130 185.373  1.00  0.00     0.000 C 
BRANCH  17  18
ATOM     18  C   UNL     1     164.861 163.580 185.243  1.00  0.00     0.000 C 
BRANCH  18  19
ATOM     19  C   UNL     1     165.698 164.518 186.125  1.00  0.00     0.000 C 
BRANCH  19  20
ATOM     20  C   UNL     1     166.884 163.803 186.800  1.00  0.00     0.006 C 
BRANCH  20  21
ATOM     21  C   UNL     1     167.678 164.682 187.779  1.00  0.00     0.053 C 
BRANCH  21  22
ATOM     22  C   UNL     1     166.801 165.283 188.834  1.00  0.00     0.041 C 
ATOM     23  O   UNL     1     166.285 164.551 189.721  1.00  0.00    -0.550 OA
ATOM     24  O   UNL     1     166.515 166.642 188.809  1.00  0.00    -0.550 OA
ENDBRANCH  21  22
ENDBRANCH  20  21
ENDBRANCH  19  20
ENDBRANCH  18  19
ENDBRANCH  17  18
ENDBRANCH  16  17
ENDBRANCH  15  16
ENDBRANCH  14  15
ENDBRANCH  13  14
ENDBRANCH   1  13
TORSDOF 20
ENDMDL
MODEL 5
REMARK VINA RESULT:    -3.310      1.416      5.271
REMARK INTER + INTRA:         -11.192
REMARK INTER:                  -7.368
REMARK INTRA:                  -3.824
REMARK UNBOUND:                -4.011
REMARK SMILES CCCCCCCCCCCCCCCCCCCCCC(=O)[O-]
REMARK SMILES IDX 12 1 11 2 10 3 9 4 8 5 7 6 6 7 5 8 4 9 3 10 2 11 1 12 13 13
REMARK SMILES IDX 14 14 15 15 16 16 17 17 18 18 19 19 20 20 21 21 22 22 23 23
REMARK SMILES IDX 24 24
REMARK H PARENT
REMARK Flexibility Score: inf
ROOT
ATOM      1  C   UNL     1     163.936 164.238 187.497  1.00  0.00     0.000 C 
ENDROOT
BRANCH   1   2
ATOM      2  C   UNL     1     162.603 164.997 187.593  1.00  0.00     0.000 C 
BRANCH   2   3
ATOM      3  C   UNL     1     162.252 165.733 186.288  1.00  0.00     0.000 C 
BRANCH   3   4
ATOM      4  C   UNL     1     160.740 165.764 186.012  1.00  0.00    -0.000 C 
BRANCH   4   5
ATOM      5  C   UNL     1     160.127 164.361 185.881  1.00  0.00    -0.000 C 
BRANCH   5   6
ATOM      6  C   UNL     1     160.463 163.738 184.518  1.00  0.00    -0.000 C 
BRANCH   6   7
ATOM      7  C   UNL     1     161.363 162.490 184.649  1.00  0.00    -0.000 C 
BRANCH   7   8
ATOM      8  C   UNL     1     160.902 161.506 185.737  1.00  0.00    -0.000 C 
BRANCH   8   9
ATOM      9  C   UNL     1     162.049 161.043 186.651  1.00  0.00    -0.000 C 
BRANCH   9  10
ATOM     10  C   UNL     1     161.784 161.351 188.133  1.00  0.00    -0.000 C 
BRANCH  10  11
ATOM     11  C   UNL     1     160.309 161.673 188.414  1.00  0.00    -0.003 C 
ATOM     12  C   UNL     1     160.177 162.920 189.284  1.00  0.00     0.004 C 
ENDBRANCH  10  11
ENDBRANCH   9  10
ENDBRANCH   8   9
ENDBRANCH   7   8
ENDBRANCH   6   7
ENDBRANCH   5   6
ENDBRANCH   4   5
ENDBRANCH   3   4
ENDBRANCH   2   3
ENDBRANCH   1   2
BRANCH   1  13
ATOM     13  C   UNL     1     164.405 163.693 188.854  1.00  0.00     0.000 C 
BRANCH  13  14
ATOM     14  C   UNL     1     165.879 163.268 188.795  1.00  0.00     0.000 C 
BRANCH  14  15
ATOM     15  C   UNL     1     166.300 162.387 189.986  1.00  0.00     0.000 C 
BRANCH  15  16
ATOM     16  C   UNL     1     166.596 160.918 189.636  1.00  0.00     0.000 C 
BRANCH  16  17
ATOM     17  C   UNL     1     166.725 160.677 188.124  1.00  0.00     0.000 C 
BRANCH  17  18
ATOM     18  C   UNL     1     165.453 160.036 187.557  1.00  0.00     0.000 C 
BRANCH  18  19
ATOM     19  C   UNL     1     165.460 160.069 186.022  1.00  0.00     0.000 C 
BRANCH  19  20
ATOM     20  C   UNL     1     165.671 161.486 185.456  1.00  0.00     0.006 C 
BRANCH  20  21
ATOM     21  C   UNL     1     164.828 161.801 184.210  1.00  0.00     0.053 C 
BRANCH  21  22
ATOM     22  C   UNL     1     164.621 160.592 183.351  1.00  0.00     0.041 C 
ATOM     23  O   UNL     1     165.503 160.246 182.521  1.00  0.00    -0.550 OA
ATOM     24  O   UNL     1     163.434 159.875 183.436  1.00  0.00    -0.550 OA
ENDBRANCH  21  22
ENDBRANCH  20  21
ENDBRANCH  19  20
ENDBRANCH  18  19
ENDBRANCH  17  18
ENDBRANCH  16  17
ENDBRANCH  15  16
ENDBRANCH  14  15
ENDBRANCH  13  14
ENDBRANCH   1  13
TORSDOF 20
ENDMDL
MODEL 6
REMARK VINA RESULT:    -3.289      1.629      4.333
REMARK INTER + INTRA:         -11.146
REMARK INTER:                  -7.528
REMARK INTRA:                  -3.618
REMARK UNBOUND:                -4.011
REMARK SMILES CCCCCCCCCCCCCCCCCCCCCC(=O)[O-]
REMARK SMILES IDX 12 1 11 2 10 3 9 4 8 5 7 6 6 7 5 8 4 9 3 10 2 11 1 12 13 13
REMARK SMILES IDX 14 14 15 15 16 16 17 17 18 18 19 19 20 20 21 21 22 22 23 23
REMARK SMILES IDX 24 24
REMARK H PARENT
REMARK Flexibility Score: inf
ROOT
ATOM      1  C   UNL     1     166.602 164.429 187.992  1.00  0.00     0.000 C 
ENDROOT
BRANCH   1   2
ATOM      2  C   UNL     1     166.379 163.992 189.449  1.00  0.00     0.000 C 
BRANCH   2   3
ATOM      3  C   UNL     1     167.162 162.716 189.805  1.00  0.00     0.000 C 
BRANCH   3   4
ATOM      4  C   UNL     1     166.250 161.495 190.000  1.00  0.00    -0.000 C 
BRANCH   4   5
ATOM      5  C   UNL     1     166.548 160.360 189.006  1.00  0.00    -0.000 C 
BRANCH   5   6
ATOM      6  C   UNL     1     167.649 160.770 188.016  1.00  0.00    -0.000 C 
BRANCH   6   7
ATOM      7  C   UNL     1     167.288 160.418 186.557  1.00  0.00    -0.000 C 
BRANCH   7   8
ATOM      8  C   UNL     1     165.775 160.338 186.295  1.00  0.00    -0.000 C 
BRANCH   8   9
ATOM      9  C   UNL     1     165.430 160.225 184.801  1.00  0.00    -0.000 C 
BRANCH   9  10
ATOM     10  C   UNL     1     165.013 161.570 184.187  1.00  0.00    -0.000 C 
BRANCH  10  11
ATOM     11  C   UNL     1     163.636 161.508 183.510  1.00  0.00    -0.003 C 
ATOM     12  C   UNL     1     162.656 160.680 184.336  1.00  0.00     0.004 C 
ENDBRANCH  10  11
ENDBRANCH   9  10
ENDBRANCH   8   9
ENDBRANCH   7   8
ENDBRANCH   6   7
ENDBRANCH   5   6
ENDBRANCH   4   5
ENDBRANCH   3   4
ENDBRANCH   2   3
ENDBRANCH   1   2
BRANCH   1  13
ATOM     13  C   UNL     1     165.443 164.022 187.070  1.00  0.00     0.000 C 
BRANCH  13  14
ATOM     14  C   UNL     1     164.171 163.735 187.882  1.00  0.00     0.000 C 
BRANCH  14  15
ATOM     15  C   UNL     1     163.312 162.609 187.277  1.00  0.00     0.000 C 
BRANCH  15  16
ATOM     16  C   UNL     1     162.641 161.680 188.305  1.00  0.00     0.000 C 
BRANCH  16  17
ATOM     17  C   UNL     1     161.139 161.488 188.048  1.00  0.00     0.000 C 
BRANCH  17  18
ATOM     18  C   UNL     1     160.307 162.004 189.229  1.00  0.00     0.000 C 
BRANCH  18  19
ATOM     19  C   UNL     1     160.253 163.538 189.232  1.00  0.00     0.000 C 
BRANCH  19  20
ATOM     20  C   UNL     1     159.875 164.125 187.858  1.00  0.00     0.006 C 
BRANCH  20  21
ATOM     21  C   UNL     1     160.752 165.307 187.414  1.00  0.00     0.053 C 
BRANCH  21  22
ATOM     22  C   UNL     1     160.720 165.503 185.929  1.00  0.00     0.041 C 
ATOM     23  O   UNL     1     160.980 166.633 185.434  1.00  0.00    -0.550 OA
ATOM     24  O   UNL     1     160.358 164.452 185.097  1.00  0.00    -0.550 OA
ENDBRANCH  21  22
ENDBRANCH  20  21
ENDBRANCH  19  20
ENDBRANCH  18  19
ENDBRANCH  17  18
ENDBRANCH  16  17
ENDBRANCH  15  16
ENDBRANCH  14  15
ENDBRANCH  13  14
ENDBRANCH   1  13
TORSDOF 20
ENDMDL
MODEL 7
REMARK VINA RESULT:    -3.273      2.350      3.894
REMARK INTER + INTRA:         -11.110
REMARK INTER:                  -7.251
REMARK INTRA:                  -3.859
REMARK UNBOUND:                -4.011
REMARK SMILES CCCCCCCCCCCCCCCCCCCCCC(=O)[O-]
REMARK SMILES IDX 12 1 11 2 10 3 9 4 8 5 7 6 6 7 5 8 4 9 3 10 2 11 1 12 13 13
REMARK SMILES IDX 14 14 15 15 16 16 17 17 18 18 19 19 20 20 21 21 22 22 23 23
REMARK SMILES IDX 24 24
REMARK H PARENT
REMARK Flexibility Score: inf
ROOT
ATOM      1  C   UNL     1     162.850 161.027 184.905  1.00  0.00     0.000 C 
ENDROOT
BRANCH   1   2
ATOM      2  C   UNL     1     164.278 161.434 185.303  1.00  0.00     0.000 C 
BRANCH   2   3
ATOM      3  C   UNL     1     164.448 161.555 186.828  1.00  0.00     0.000 C 
BRANCH   3   4
ATOM      4  C   UNL     1     164.738 160.205 187.502  1.00  0.00    -0.000 C 
BRANCH   4   5
ATOM      5  C   UNL     1     164.477 160.224 189.017  1.00  0.00    -0.000 C 
BRANCH   5   6
ATOM      6  C   UNL     1     165.796 160.157 189.803  1.00  0.00    -0.000 C 
BRANCH   6   7
ATOM      7  C   UNL     1     166.723 161.353 189.497  1.00  0.00    -0.000 C 
BRANCH   7   8
ATOM      8  C   UNL     1     166.442 162.592 190.364  1.00  0.00    -0.000 C 
BRANCH   8   9
ATOM      9  C   UNL     1     166.955 163.896 189.730  1.00  0.00    -0.000 C 
BRANCH   9  10
ATOM     10  C   UNL     1     166.072 164.375 188.567  1.00  0.00    -0.000 C 
BRANCH  10  11
ATOM     11  C   UNL     1     166.881 165.061 187.457  1.00  0.00    -0.003 C 
ATOM     12  C   UNL     1     166.446 164.572 186.079  1.00  0.00     0.004 C 
ENDBRANCH  10  11
ENDBRANCH   9  10
ENDBRANCH   8   9
ENDBRANCH   7   8
ENDBRANCH   6   7
ENDBRANCH   5   6
ENDBRANCH   4   5
ENDBRANCH   3   4
ENDBRANCH   2   3
ENDBRANCH   1   2
BRANCH   1  13
ATOM     13  C   UNL     1     162.031 162.205 184.358  1.00  0.00     0.000 C 
BRANCH  13  14
ATOM     14  C   UNL     1     160.607 162.198 184.934  1.00  0.00     0.000 C 
BRANCH  14  15
ATOM     15  C   UNL     1     160.348 161.013 185.883  1.00  0.00     0.000 C 
BRANCH  15  16
ATOM     16  C   UNL     1     159.875 161.403 187.296  1.00  0.00     0.000 C 
BRANCH  16  17
ATOM     17  C   UNL     1     161.024 161.477 188.313  1.00  0.00     0.000 C 
BRANCH  17  18
ATOM     18  C   UNL     1     161.077 162.854 188.986  1.00  0.00     0.000 C 
BRANCH  18  19
ATOM     19  C   UNL     1     162.251 163.683 188.445  1.00  0.00     0.000 C 
BRANCH  19  20
ATOM     20  C   UNL     1     161.799 164.819 187.507  1.00  0.00     0.006 C 
BRANCH  20  21
ATOM     21  C   UNL     1     162.856 165.246 186.477  1.00  0.00     0.053 C 
BRANCH  21  22
ATOM     22  C   UNL     1     163.358 166.635 186.729  1.00  0.00     0.041 C 
ATOM     23  O   UNL     1     163.543 167.426 185.766  1.00  0.00    -0.550 OA
ATOM     24  O   UNL     1     163.665 167.039 188.022  1.00  0.00    -0.550 OA
ENDBRANCH  21  22
ENDBRANCH  20  21
ENDBRANCH  19  20
ENDBRANCH  18  19
ENDBRANCH  17  18
ENDBRANCH  16  17
ENDBRANCH  15  16
ENDBRANCH  14  15
ENDBRANCH  13  14
ENDBRANCH   1  13
TORSDOF 20
ENDMDL
MODEL 8
REMARK VINA RESULT:    -3.267     12.915     16.261
REMARK INTER + INTRA:         -11.097
REMARK INTER:                  -8.382
REMARK INTRA:                  -2.715
REMARK UNBOUND:                -4.011
REMARK SMILES CCCCCCCCCCCCCCCCCCCCCC(=O)[O-]
REMARK SMILES IDX 12 1 11 2 10 3 9 4 8 5 7 6 6 7 5 8 4 9 3 10 2 11 1 12 13 13
REMARK SMILES IDX 14 14 15 15 16 16 17 17 18 18 19 19 20 20 21 21 22 22 23 23
REMARK SMILES IDX 24 24
REMARK H PARENT
REMARK Flexibility Score: inf
ROOT
ATOM      1  C   UNL     1     178.760 170.133 187.264  1.00  0.00     0.000 C 
ENDROOT
BRANCH   1   2
ATOM      2  C   UNL     1     179.539 170.503 188.537  1.00  0.00     0.000 C 
BRANCH   2   3
ATOM      3  C   UNL     1     180.056 171.953 188.507  1.00  0.00     0.000 C 
BRANCH   3   4
ATOM      4  C   UNL     1     179.472 172.766 187.341  1.00  0.00    -0.000 C 
BRANCH   4   5
ATOM      5  C   UNL     1     179.054 174.187 187.752  1.00  0.00    -0.000 C 
BRANCH   5   6
ATOM      6  C   UNL     1     178.790 174.267 189.264  1.00  0.00    -0.000 C 
BRANCH   6   7
ATOM      7  C   UNL     1     177.430 174.923 189.588  1.00  0.00    -0.000 C 
BRANCH   7   8
ATOM      8  C   UNL     1     176.424 173.967 190.250  1.00  0.00    -0.000 C 
BRANCH   8   9
ATOM      9  C   UNL     1     176.441 172.558 189.635  1.00  0.00    -0.000 C 
BRANCH   9  10
ATOM     10  C   UNL     1     175.268 172.318 188.671  1.00  0.00    -0.000 C 
BRANCH  10  11
ATOM     11  C   UNL     1     175.735 171.971 187.250  1.00  0.00    -0.003 C 
ATOM     12  C   UNL     1     175.784 173.216 186.369  1.00  0.00     0.004 C 
ENDBRANCH  10  11
ENDBRANCH   9  10
ENDBRANCH   8   9
ENDBRANCH   7   8
ENDBRANCH   6   7
ENDBRANCH   5   6
ENDBRANCH   4   5
ENDBRANCH   3   4
ENDBRANCH   2   3
ENDBRANCH   1   2
BRANCH   1  13
ATOM     13  C   UNL     1     178.780 168.625 186.978  1.00  0.00     0.000 C 
BRANCH  13  14
ATOM     14  C   UNL     1     179.914 167.935 187.750  1.00  0.00     0.000 C 
BRANCH  14  15
ATOM     15  C   UNL     1     179.915 166.404 187.579  1.00  0.00     0.000 C 
BRANCH  15  16
ATOM     16  C   UNL     1     178.554 165.793 187.198  1.00  0.00     0.000 C 
BRANCH  16  17
ATOM     17  C   UNL     1     177.860 165.096 188.378  1.00  0.00     0.000 C 
BRANCH  17  18
ATOM     18  C   UNL     1     176.334 165.147 188.229  1.00  0.00     0.000 C 
BRANCH  18  19
ATOM     19  C   UNL     1     175.788 163.802 187.730  1.00  0.00     0.000 C 
BRANCH  19  20
ATOM     20  C   UNL     1     175.152 163.898 186.329  1.00  0.00     0.006 C 
BRANCH  20  21
ATOM     21  C   UNL     1     176.152 163.761 185.170  1.00  0.00     0.053 C 
BRANCH  21  22
ATOM     22  C   UNL     1     176.958 162.502 185.269  1.00  0.00     0.041 C 
ATOM     23  O   UNL     1     176.435 161.391 184.989  1.00  0.00    -0.550 OA
ATOM     24  O   UNL     1     178.273 162.553 185.715  1.00  0.00    -0.550 OA
ENDBRANCH  21  22
ENDBRANCH  20  21
ENDBRANCH  19  20
ENDBRANCH  18  19
ENDBRANCH  17  18
ENDBRANCH  16  17
ENDBRANCH  15  16
ENDBRANCH  14  15
ENDBRANCH  13  14
ENDBRANCH   1  13
TORSDOF 20
ENDMDL
MODEL 9
REMARK VINA RESULT:    -3.254      2.452      5.318
REMARK INTER + INTRA:         -11.070
REMARK INTER:                  -7.147
REMARK INTRA:                  -3.924
REMARK UNBOUND:                -4.011
REMARK SMILES CCCCCCCCCCCCCCCCCCCCCC(=O)[O-]
REMARK SMILES IDX 12 1 11 2 10 3 9 4 8 5 7 6 6 7 5 8 4 9 3 10 2 11 1 12 13 13
REMARK SMILES IDX 14 14 15 15 16 16 17 17 18 18 19 19 20 20 21 21 22 22 23 23
REMARK SMILES IDX 24 24
REMARK H PARENT
REMARK Flexibility Score: inf
ROOT
ATOM      1  C   UNL     1     163.743 164.606 186.513  1.00  0.00     0.000 C 
ENDROOT
BRANCH   1   2
ATOM      2  C   UNL     1     162.749 164.388 185.361  1.00  0.00     0.000 C 
BRANCH   2   3
ATOM      3  C   UNL     1     161.396 165.076 185.617  1.00  0.00     0.000 C 
BRANCH   3   4
ATOM      4  C   UNL     1     160.209 164.104 185.521  1.00  0.00    -0.000 C 
BRANCH   4   5
ATOM      5  C   UNL     1     160.595 162.746 184.914  1.00  0.00    -0.000 C 
BRANCH   5   6
ATOM      6  C   UNL     1     160.190 162.668 183.435  1.00  0.00    -0.000 C 
BRANCH   6   7
ATOM      7  C   UNL     1     161.410 162.537 182.498  1.00  0.00    -0.000 C 
BRANCH   7   8
ATOM      8  C   UNL     1     162.471 161.543 182.998  1.00  0.00    -0.000 C 
BRANCH   8   9
ATOM      9  C   UNL     1     163.910 162.014 182.727  1.00  0.00    -0.000 C 
BRANCH   9  10
ATOM     10  C   UNL     1     164.949 161.264 183.574  1.00  0.00    -0.000 C 
BRANCH  10  11
ATOM     11  C   UNL     1     165.809 162.209 184.425  1.00  0.00    -0.003 C 
ATOM     12  C   UNL     1     167.131 161.551 184.809  1.00  0.00     0.004 C 
ENDBRANCH  10  11
ENDBRANCH   9  10
ENDBRANCH   8   9
ENDBRANCH   7   8
ENDBRANCH   6   7
ENDBRANCH   5   6
ENDBRANCH   4   5
ENDBRANCH   3   4
ENDBRANCH   2   3
ENDBRANCH   1   2
BRANCH   1  13
ATOM     13  C   UNL     1     163.045 164.928 187.842  1.00  0.00     0.000 C 
BRANCH  13  14
ATOM     14  C   UNL     1     163.111 163.730 188.801  1.00  0.00     0.000 C 
BRANCH  14  15
ATOM     15  C   UNL     1     161.960 162.728 188.593  1.00  0.00     0.000 C 
BRANCH  15  16
ATOM     16  C   UNL     1     162.399 161.265 188.399  1.00  0.00     0.000 C 
BRANCH  16  17
ATOM     17  C   UNL     1     163.201 161.047 187.108  1.00  0.00     0.000 C 
BRANCH  17  18
ATOM     18  C   UNL     1     164.587 160.463 187.412  1.00  0.00     0.000 C 
BRANCH  18  19
ATOM     19  C   UNL     1     164.793 160.301 188.924  1.00  0.00     0.000 C 
BRANCH  19  20
ATOM     20  C   UNL     1     166.201 160.726 189.385  1.00  0.00     0.006 C 
BRANCH  20  21
ATOM     21  C   UNL     1     166.276 162.150 189.958  1.00  0.00     0.053 C 
BRANCH  21  22
ATOM     22  C   UNL     1     167.058 163.072 189.073  1.00  0.00     0.041 C 
ATOM     23  O   UNL     1     168.100 163.632 189.506  1.00  0.00    -0.550 OA
ATOM     24  O   UNL     1     166.609 163.348 187.788  1.00  0.00    -0.550 OA
ENDBRANCH  21  22
ENDBRANCH  20  21
ENDBRANCH  19  20
ENDBRANCH  18  19
ENDBRANCH  17  18
ENDBRANCH  16  17
ENDBRANCH  15  16
ENDBRANCH  14  15
ENDBRANCH  13  14
ENDBRANCH   1  13
TORSDOF 20
ENDMDL
