MODEL 1
REMARK VINA RESULT:    -4.181      0.000      0.000
REMARK INTER + INTRA:          -7.504
REMARK INTER:                  -6.625
REMARK INTRA:                  -0.879
REMARK UNBOUND:                -0.879
REMARK SMILES CCCCCCCCCCCC(=O)[O-]
REMARK SMILES IDX 7 1 8 2 9 3 10 4 11 5 12 6 13 7 14 8 6 9 5 10 4 11 3 12 2 13
REMARK SMILES IDX 1 14
REMARK H PARENT
REMARK Flexibility Score: inf
ROOT
ATOM      1  C   UNL     1     -35.299  80.876 -19.797  1.00  0.00     0.000 C 
ENDROOT
BRANCH   1   2
ATOM      2  C   UNL     1     -36.619  81.372 -19.195  1.00  0.00     0.000 C 
BRANCH   2   3
ATOM      3  C   UNL     1     -36.370  82.179 -17.912  1.00  0.00     0.000 C 
BRANCH   3   4
ATOM      4  C   UNL     1     -36.993  83.586 -17.961  1.00  0.00     0.006 C 
BRANCH   4   5
ATOM      5  C   UNL     1     -36.091  84.697 -17.400  1.00  0.00     0.053 C 
BRANCH   5   6
ATOM      6  C   UNL     1     -34.936  84.992 -18.306  1.00  0.00     0.041 C 
ATOM      7  O   UNL     1     -35.058  84.861 -19.553  1.00  0.00    -0.550 OA
ATOM      8  O   UNL     1     -33.733  85.440 -17.776  1.00  0.00    -0.550 OA
ENDBRANCH   5   6
ENDBRANCH   4   5
ENDBRANCH   3   4
ENDBRANCH   2   3
ENDBRANCH   1   2
BRANCH   1   9
ATOM      9  C   UNL     1     -34.116  81.201 -18.874  1.00  0.00     0.000 C 
BRANCH   9  10
ATOM     10  C   UNL     1     -32.993  81.962 -19.596  1.00  0.00    -0.000 C 
BRANCH  10  11
ATOM     11  C   UNL     1     -31.637  81.829 -18.886  1.00  0.00    -0.000 C 
BRANCH  11  12
ATOM     12  C   UNL     1     -30.515  81.555 -19.895  1.00  0.00    -0.000 C 
BRANCH  12  13
ATOM     13  C   UNL     1     -30.523  80.088 -20.342  1.00  0.00    -0.003 C 
ATOM     14  C   UNL     1     -30.873  79.161 -19.182  1.00  0.00     0.004 C 
ENDBRANCH  12  13
ENDBRANCH  11  12
ENDBRANCH  10  11
ENDBRANCH   9  10
ENDBRANCH   1   9
TORSDOF 10
ENDMDL
MODEL 2
REMARK VINA RESULT:    -4.159     16.946     18.550
REMARK INTER + INTRA:          -7.469
REMARK INTER:                  -6.575
REMARK INTRA:                  -0.895
REMARK UNBOUND:                -0.879
REMARK SMILES CCCCCCCCCCCC(=O)[O-]
REMARK SMILES IDX 7 1 8 2 9 3 10 4 11 5 12 6 13 7 14 8 6 9 5 10 4 11 3 12 2 13
REMARK SMILES IDX 1 14
REMARK H PARENT
REMARK Flexibility Score: inf
ROOT
ATOM      1  C   UNL     1     -23.339  95.968 -30.974  1.00  0.00     0.000 C 
ENDROOT
BRANCH   1   2
ATOM      2  C   UNL     1     -24.543  96.631 -30.293  1.00  0.00     0.000 C 
BRANCH   2   3
ATOM      3  C   UNL     1     -24.738  96.088 -28.869  1.00  0.00     0.000 C 
BRANCH   3   4
ATOM      4  C   UNL     1     -25.575  94.797 -28.832  1.00  0.00     0.006 C 
BRANCH   4   5
ATOM      5  C   UNL     1     -25.613  94.107 -27.459  1.00  0.00     0.053 C 
BRANCH   5   6
ATOM      6  C   UNL     1     -26.712  94.644 -26.593  1.00  0.00     0.041 C 
ATOM      7  O   UNL     1     -26.448  95.449 -25.661  1.00  0.00    -0.550 OA
ATOM      8  O   UNL     1     -28.030  94.279 -26.835  1.00  0.00    -0.550 OA
ENDBRANCH   5   6
ENDBRANCH   4   5
ENDBRANCH   3   4
ENDBRANCH   2   3
ENDBRANCH   1   2
BRANCH   1   9
ATOM      9  C   UNL     1     -23.789  95.057 -32.125  1.00  0.00     0.000 C 
BRANCH   9  10
ATOM     10  C   UNL     1     -23.063  93.703 -32.127  1.00  0.00    -0.000 C 
BRANCH  10  11
ATOM     11  C   UNL     1     -23.871  92.596 -31.432  1.00  0.00    -0.000 C 
BRANCH  11  12
ATOM     12  C   UNL     1     -23.144  91.249 -31.520  1.00  0.00    -0.000 C 
BRANCH  12  13
ATOM     13  C   UNL     1     -22.854  90.688 -30.123  1.00  0.00    -0.003 C 
ATOM     14  C   UNL     1     -23.653  91.429 -29.055  1.00  0.00     0.004 C 
ENDBRANCH  12  13
ENDBRANCH  11  12
ENDBRANCH  10  11
ENDBRANCH   9  10
ENDBRANCH   1   9
TORSDOF 10
ENDMDL
MODEL 3
REMARK VINA RESULT:    -4.031      2.803      5.759
REMARK INTER + INTRA:          -7.267
REMARK INTER:                  -6.137
REMARK INTRA:                  -1.130
REMARK UNBOUND:                -0.879
REMARK SMILES CCCCCCCCCCCC(=O)[O-]
REMARK SMILES IDX 7 1 8 2 9 3 10 4 11 5 12 6 13 7 14 8 6 9 5 10 4 11 3 12 2 13
REMARK SMILES IDX 1 14
REMARK H PARENT
REMARK Flexibility Score: inf
ROOT
ATOM      1  C   UNL     1     -34.444  80.792 -19.903  1.00  0.00     0.000 C 
ENDROOT
BRANCH   1   2
ATOM      2  C   UNL     1     -33.503  81.241 -18.778  1.00  0.00     0.000 C 
BRANCH   2   3
ATOM      3  C   UNL     1     -32.787  82.549 -19.148  1.00  0.00     0.000 C 
BRANCH   3   4
ATOM      4  C   UNL     1     -31.256  82.450 -19.013  1.00  0.00     0.006 C 
BRANCH   4   5
ATOM      5  C   UNL     1     -30.511  82.307 -20.351  1.00  0.00     0.053 C 
BRANCH   5   6
ATOM      6  C   UNL     1     -30.011  80.911 -20.567  1.00  0.00     0.041 C 
ATOM      7  O   UNL     1     -30.340  79.990 -19.775  1.00  0.00    -0.550 OA
ATOM      8  O   UNL     1     -29.208  80.623 -21.663  1.00  0.00    -0.550 OA
ENDBRANCH   5   6
ENDBRANCH   4   5
ENDBRANCH   3   4
ENDBRANCH   2   3
ENDBRANCH   1   2
BRANCH   1   9
ATOM      9  C   UNL     1     -35.319  81.958 -20.386  1.00  0.00     0.000 C 
BRANCH   9  10
ATOM     10  C   UNL     1     -36.736  81.920 -19.794  1.00  0.00    -0.000 C 
BRANCH  10  11
ATOM     11  C   UNL     1     -37.102  83.213 -19.049  1.00  0.00    -0.000 C 
BRANCH  11  12
ATOM     12  C   UNL     1     -36.495  83.225 -17.641  1.00  0.00    -0.000 C 
BRANCH  12  13
ATOM     13  C   UNL     1     -35.974  84.621 -17.279  1.00  0.00    -0.003 C 
ATOM     14  C   UNL     1     -35.034  85.155 -18.355  1.00  0.00     0.004 C 
ENDBRANCH  12  13
ENDBRANCH  11  12
ENDBRANCH  10  11
ENDBRANCH   9  10
ENDBRANCH   1   9
TORSDOF 10
ENDMDL
MODEL 4
REMARK VINA RESULT:    -3.981      2.585      5.346
REMARK INTER + INTRA:          -7.187
REMARK INTER:                  -5.848
REMARK INTRA:                  -1.340
REMARK UNBOUND:                -0.879
REMARK SMILES CCCCCCCCCCCC(=O)[O-]
REMARK SMILES IDX 7 1 8 2 9 3 10 4 11 5 12 6 13 7 14 8 6 9 5 10 4 11 3 12 2 13
REMARK SMILES IDX 1 14
REMARK H PARENT
REMARK Flexibility Score: inf
ROOT
ATOM      1  C   UNL     1     -33.765  83.406 -20.229  1.00  0.00     0.000 C 
ENDROOT
BRANCH   1   2
ATOM      2  C   UNL     1     -34.295  82.194 -21.006  1.00  0.00     0.000 C 
BRANCH   2   3
ATOM      3  C   UNL     1     -33.979  80.885 -20.267  1.00  0.00     0.000 C 
BRANCH   3   4
ATOM      4  C   UNL     1     -33.296  81.118 -18.907  1.00  0.00     0.006 C 
BRANCH   4   5
ATOM      5  C   UNL     1     -32.028  80.278 -18.684  1.00  0.00     0.053 C 
BRANCH   5   6
ATOM      6  C   UNL     1     -30.915  80.691 -19.597  1.00  0.00     0.041 C 
ATOM      7  O   UNL     1     -30.386  79.852 -20.373  1.00  0.00    -0.550 OA
ATOM      8  O   UNL     1     -30.482  82.011 -19.613  1.00  0.00    -0.550 OA
ENDBRANCH   5   6
ENDBRANCH   4   5
ENDBRANCH   3   4
ENDBRANCH   2   3
ENDBRANCH   1   2
BRANCH   1   9
ATOM      9  C   UNL     1     -34.903  84.377 -19.881  1.00  0.00     0.000 C 
BRANCH   9  10
ATOM     10  C   UNL     1     -35.040  84.612 -18.369  1.00  0.00    -0.000 C 
BRANCH  10  11
ATOM     11  C   UNL     1     -36.407  84.171 -17.823  1.00  0.00    -0.000 C 
BRANCH  11  12
ATOM     12  C   UNL     1     -36.627  82.670 -18.042  1.00  0.00    -0.000 C 
BRANCH  12  13
ATOM     13  C   UNL     1     -37.587  82.419 -19.211  1.00  0.00    -0.003 C 
ATOM     14  C   UNL     1     -37.592  80.947 -19.614  1.00  0.00     0.004 C 
ENDBRANCH  12  13
ENDBRANCH  11  12
ENDBRANCH  10  11
ENDBRANCH   9  10
ENDBRANCH   1   9
TORSDOF 10
ENDMDL
MODEL 5
REMARK VINA RESULT:    -3.942     11.094     12.538
REMARK INTER + INTRA:          -7.125
REMARK INTER:                  -5.727
REMARK INTRA:                  -1.399
REMARK UNBOUND:                -0.879
REMARK SMILES CCCCCCCCCCCC(=O)[O-]
REMARK SMILES IDX 7 1 8 2 9 3 10 4 11 5 12 6 13 7 14 8 6 9 5 10 4 11 3 12 2 13
REMARK SMILES IDX 1 14
REMARK H PARENT
REMARK Flexibility Score: inf
ROOT
ATOM      1  C   UNL     1     -22.234  84.980 -21.224  1.00  0.00     0.000 C 
ENDROOT
BRANCH   1   2
ATOM      2  C   UNL     1     -21.303  84.485 -22.337  1.00  0.00     0.000 C 
BRANCH   2   3
ATOM      3  C   UNL     1     -22.102  84.091 -23.589  1.00  0.00     0.000 C 
BRANCH   3   4
ATOM      4  C   UNL     1     -23.504  84.727 -23.626  1.00  0.00     0.006 C 
BRANCH   4   5
ATOM      5  C   UNL     1     -23.782  85.574 -24.878  1.00  0.00     0.053 C 
BRANCH   5   6
ATOM      6  C   UNL     1     -23.431  87.015 -24.668  1.00  0.00     0.041 C 
ATOM      7  O   UNL     1     -24.315  87.837 -24.308  1.00  0.00    -0.550 OA
ATOM      8  O   UNL     1     -22.122  87.444 -24.841  1.00  0.00    -0.550 OA
ENDBRANCH   5   6
ENDBRANCH   4   5
ENDBRANCH   3   4
ENDBRANCH   2   3
ENDBRANCH   1   2
BRANCH   1   9
ATOM      9  C   UNL     1     -21.825  84.396 -19.863  1.00  0.00     0.000 C 
BRANCH   9  10
ATOM     10  C   UNL     1     -22.112  82.891 -19.753  1.00  0.00    -0.000 C 
BRANCH  10  11
ATOM     11  C   UNL     1     -23.489  82.509 -20.317  1.00  0.00    -0.000 C 
BRANCH  11  12
ATOM     12  C   UNL     1     -23.361  81.408 -21.377  1.00  0.00    -0.000 C 
BRANCH  12  13
ATOM     13  C   UNL     1     -21.900  80.975 -21.546  1.00  0.00    -0.003 C 
ATOM     14  C   UNL     1     -21.645  80.431 -22.948  1.00  0.00     0.004 C 
ENDBRANCH  12  13
ENDBRANCH  11  12
ENDBRANCH  10  11
ENDBRANCH   9  10
ENDBRANCH   1   9
TORSDOF 10
ENDMDL
MODEL 6
REMARK VINA RESULT:    -3.929     16.220     18.273
REMARK INTER + INTRA:          -7.106
REMARK INTER:                  -5.979
REMARK INTRA:                  -1.126
REMARK UNBOUND:                -0.879
REMARK SMILES CCCCCCCCCCCC(=O)[O-]
REMARK SMILES IDX 7 1 8 2 9 3 10 4 11 5 12 6 13 7 14 8 6 9 5 10 4 11 3 12 2 13
REMARK SMILES IDX 1 14
REMARK H PARENT
REMARK Flexibility Score: inf
ROOT
ATOM      1  C   UNL     1     -23.955  92.685 -28.414  1.00  0.00     0.000 C 
ENDROOT
BRANCH   1   2
ATOM      2  C   UNL     1     -24.413  92.015 -29.715  1.00  0.00     0.000 C 
BRANCH   2   3
ATOM      3  C   UNL     1     -23.296  91.142 -30.308  1.00  0.00     0.000 C 
BRANCH   3   4
ATOM      4  C   UNL     1     -22.650  90.211 -29.265  1.00  0.00     0.006 C 
BRANCH   4   5
ATOM      5  C   UNL     1     -23.515  89.001 -28.877  1.00  0.00     0.053 C 
BRANCH   5   6
ATOM      6  C   UNL     1     -24.040  89.113 -27.478  1.00  0.00     0.041 C 
ATOM      7  O   UNL     1     -23.350  89.670 -26.585  1.00  0.00    -0.550 OA
ATOM      8  O   UNL     1     -25.305  88.629 -27.170  1.00  0.00    -0.550 OA
ENDBRANCH   5   6
ENDBRANCH   4   5
ENDBRANCH   3   4
ENDBRANCH   2   3
ENDBRANCH   1   2
BRANCH   1   9
ATOM      9  C   UNL     1     -24.736  93.981 -28.156  1.00  0.00     0.000 C 
BRANCH   9  10
ATOM     10  C   UNL     1     -25.119  94.710 -29.454  1.00  0.00    -0.000 C 
BRANCH  10  11
ATOM     11  C   UNL     1     -24.360  96.034 -29.636  1.00  0.00    -0.000 C 
BRANCH  11  12
ATOM     12  C   UNL     1     -23.539  96.021 -30.931  1.00  0.00    -0.000 C 
BRANCH  12  13
ATOM     13  C   UNL     1     -24.104  95.004 -31.930  1.00  0.00    -0.003 C 
ATOM     14  C   UNL     1     -23.001  94.113 -32.492  1.00  0.00     0.004 C 
ENDBRANCH  12  13
ENDBRANCH  11  12
ENDBRANCH  10  11
ENDBRANCH   9  10
ENDBRANCH   1   9
TORSDOF 10
ENDMDL
MODEL 7
REMARK VINA RESULT:    -3.924     11.026     12.823
REMARK INTER + INTRA:          -7.097
REMARK INTER:                  -6.065
REMARK INTRA:                  -1.033
REMARK UNBOUND:                -0.879
REMARK SMILES CCCCCCCCCCCC(=O)[O-]
REMARK SMILES IDX 7 1 8 2 9 3 10 4 11 5 12 6 13 7 14 8 6 9 5 10 4 11 3 12 2 13
REMARK SMILES IDX 1 14
REMARK H PARENT
REMARK Flexibility Score: inf
ROOT
ATOM      1  C   UNL     1     -22.690  83.578 -23.748  1.00  0.00     0.000 C 
ENDROOT
BRANCH   1   2
ATOM      2  C   UNL     1     -21.353  84.059 -23.170  1.00  0.00     0.000 C 
BRANCH   2   3
ATOM      3  C   UNL     1     -21.373  85.576 -22.926  1.00  0.00     0.000 C 
BRANCH   3   4
ATOM      4  C   UNL     1     -22.526  86.283 -23.661  1.00  0.00     0.006 C 
BRANCH   4   5
ATOM      5  C   UNL     1     -22.074  87.384 -24.635  1.00  0.00     0.053 C 
BRANCH   5   6
ATOM      6  C   UNL     1     -23.161  87.764 -25.593  1.00  0.00     0.041 C 
ATOM      7  O   UNL     1     -23.662  86.900 -26.360  1.00  0.00    -0.550 OA
ATOM      8  O   UNL     1     -23.642  89.067 -25.618  1.00  0.00    -0.550 OA
ENDBRANCH   5   6
ENDBRANCH   4   5
ENDBRANCH   3   4
ENDBRANCH   2   3
ENDBRANCH   1   2
BRANCH   1   9
ATOM      9  C   UNL     1     -22.698  82.052 -23.921  1.00  0.00     0.000 C 
BRANCH   9  10
ATOM     10  C   UNL     1     -23.457  81.333 -22.795  1.00  0.00    -0.000 C 
BRANCH  10  11
ATOM     11  C   UNL     1     -24.210  82.304 -21.873  1.00  0.00    -0.000 C 
BRANCH  11  12
ATOM     12  C   UNL     1     -23.720  82.177 -20.426  1.00  0.00    -0.000 C 
BRANCH  12  13
ATOM     13  C   UNL     1     -22.942  83.427 -19.996  1.00  0.00    -0.003 C 
ATOM     14  C   UNL     1     -21.514  83.076 -19.593  1.00  0.00     0.004 C 
ENDBRANCH  12  13
ENDBRANCH  11  12
ENDBRANCH  10  11
ENDBRANCH   9  10
ENDBRANCH   1   9
TORSDOF 10
ENDMDL
MODEL 8
REMARK VINA RESULT:    -3.873     11.058     12.763
REMARK INTER + INTRA:          -7.017
REMARK INTER:                  -5.514
REMARK INTRA:                  -1.503
REMARK UNBOUND:                -0.879
REMARK SMILES CCCCCCCCCCCC(=O)[O-]
REMARK SMILES IDX 7 1 8 2 9 3 10 4 11 5 12 6 13 7 14 8 6 9 5 10 4 11 3 12 2 13
REMARK SMILES IDX 1 14
REMARK H PARENT
REMARK Flexibility Score: inf
ROOT
ATOM      1  C   UNL     1     -24.901  83.059 -23.621  1.00  0.00     0.000 C 
ENDROOT
BRANCH   1   2
ATOM      2  C   UNL     1     -24.889  82.019 -22.493  1.00  0.00     0.000 C 
BRANCH   2   3
ATOM      3  C   UNL     1     -24.107  80.764 -22.910  1.00  0.00     0.000 C 
BRANCH   3   4
ATOM      4  C   UNL     1     -23.231  80.203 -21.776  1.00  0.00     0.006 C 
BRANCH   4   5
ATOM      5  C   UNL     1     -21.752  80.612 -21.858  1.00  0.00     0.053 C 
BRANCH   5   6
ATOM      6  C   UNL     1     -21.102  80.118 -23.114  1.00  0.00     0.041 C 
ATOM      7  O   UNL     1     -20.634  80.935 -23.950  1.00  0.00    -0.550 OA
ATOM      8  O   UNL     1     -20.987  78.754 -23.347  1.00  0.00    -0.550 OA
ENDBRANCH   5   6
ENDBRANCH   4   5
ENDBRANCH   3   4
ENDBRANCH   2   3
ENDBRANCH   1   2
BRANCH   1   9
ATOM      9  C   UNL     1     -23.503  83.219 -24.237  1.00  0.00     0.000 C 
BRANCH   9  10
ATOM     10  C   UNL     1     -22.764  84.460 -23.713  1.00  0.00    -0.000 C 
BRANCH  10  11
ATOM     11  C   UNL     1     -21.769  84.127 -22.590  1.00  0.00    -0.000 C 
BRANCH  11  12
ATOM     12  C   UNL     1     -22.160  84.830 -21.285  1.00  0.00    -0.000 C 
BRANCH  12  13
ATOM     13  C   UNL     1     -22.707  83.827 -20.262  1.00  0.00    -0.003 C 
ATOM     14  C   UNL     1     -21.579  83.187 -19.460  1.00  0.00     0.004 C 
ENDBRANCH  12  13
ENDBRANCH  11  12
ENDBRANCH  10  11
ENDBRANCH   9  10
ENDBRANCH   1   9
TORSDOF 10
ENDMDL
MODEL 9
REMARK VINA RESULT:    -3.869     17.162     19.089
REMARK INTER + INTRA:          -7.010
REMARK INTER:                  -5.604
REMARK INTRA:                  -1.406
REMARK UNBOUND:                -0.879
REMARK SMILES CCCCCCCCCCCC(=O)[O-]
REMARK SMILES IDX 7 1 8 2 9 3 10 4 11 5 12 6 13 7 14 8 6 9 5 10 4 11 3 12 2 13
REMARK SMILES IDX 1 14
REMARK H PARENT
REMARK Flexibility Score: inf
ROOT
ATOM      1  C   UNL     1     -22.625  90.828 -30.496  1.00  0.00     0.000 C 
ENDROOT
BRANCH   1   2
ATOM      2  C   UNL     1     -23.769  90.636 -31.500  1.00  0.00     0.000 C 
BRANCH   2   3
ATOM      3  C   UNL     1     -24.161  91.972 -32.149  1.00  0.00     0.000 C 
BRANCH   3   4
ATOM      4  C   UNL     1     -23.236  93.131 -31.736  1.00  0.00     0.006 C 
BRANCH   4   5
ATOM      5  C   UNL     1     -23.058  94.213 -32.813  1.00  0.00     0.053 C 
BRANCH   5   6
ATOM      6  C   UNL     1     -23.804  95.468 -32.476  1.00  0.00     0.041 C 
ATOM      7  O   UNL     1     -25.058  95.507 -32.582  1.00  0.00    -0.550 OA
ATOM      8  O   UNL     1     -23.116  96.583 -32.016  1.00  0.00    -0.550 OA
ENDBRANCH   5   6
ENDBRANCH   4   5
ENDBRANCH   3   4
ENDBRANCH   2   3
ENDBRANCH   1   2
BRANCH   1   9
ATOM      9  C   UNL     1     -22.918  90.095 -29.179  1.00  0.00     0.000 C 
BRANCH   9  10
ATOM     10  C   UNL     1     -23.413  91.040 -28.073  1.00  0.00    -0.000 C 
BRANCH  10  11
ATOM     11  C   UNL     1     -24.946  91.119 -28.004  1.00  0.00    -0.000 C 
BRANCH  11  12
ATOM     12  C   UNL     1     -25.441  92.517 -28.394  1.00  0.00    -0.000 C 
BRANCH  12  13
ATOM     13  C   UNL     1     -24.310  93.548 -28.297  1.00  0.00    -0.003 C 
ATOM     14  C   UNL     1     -24.714  94.873 -28.936  1.00  0.00     0.004 C 
ENDBRANCH  12  13
ENDBRANCH  11  12
ENDBRANCH  10  11
ENDBRANCH   9  10
ENDBRANCH   1   9
TORSDOF 10
ENDMDL
