MODEL 1
REMARK VINA RESULT:    -4.470      0.000      0.000
REMARK INTER + INTRA:         -13.117
REMARK INTER:                 -10.218
REMARK INTRA:                  -2.899
REMARK UNBOUND:                -2.899
REMARK SMILES CCCCCCCCCCCCCCCCCCCCCCCC(=O)[O-]
REMARK SMILES IDX 13 1 14 2 15 3 16 4 17 5 18 6 19 7 20 8 21 9 22 10 23 11
REMARK SMILES IDX 24 12 25 13 26 14 12 15 11 16 10 17 9 18 8 19 7 20 6 21 5 22
REMARK SMILES IDX 4 23 3 24 2 25 1 26
REMARK H PARENT
REMARK Flexibility Score: inf
ROOT
ATOM      1  C   UNL     1      34.200   7.865  44.213  1.00  0.00     0.000 C 
ENDROOT
BRANCH   1   2
ATOM      2  C   UNL     1      34.795   9.254  44.532  1.00  0.00     0.000 C 
BRANCH   2   3
ATOM      3  C   UNL     1      34.147  10.405  43.745  1.00  0.00     0.000 C 
BRANCH   3   4
ATOM      4  C   UNL     1      34.525  11.792  44.291  1.00  0.00     0.000 C 
BRANCH   4   5
ATOM      5  C   UNL     1      35.284  11.711  45.626  1.00  0.00     0.000 C 
BRANCH   5   6
ATOM      6  C   UNL     1      35.945  13.045  46.003  1.00  0.00     0.000 C 
BRANCH   6   7
ATOM      7  C   UNL     1      37.016  12.843  47.082  1.00  0.00     0.000 C 
BRANCH   7   8
ATOM      8  C   UNL     1      36.770  13.766  48.282  1.00  0.00     0.000 C 
BRANCH   8   9
ATOM      9  C   UNL     1      35.550  13.309  49.089  1.00  0.00     0.000 C 
BRANCH   9  10
ATOM     10  C   UNL     1      34.651  14.499  49.452  1.00  0.00     0.006 C 
BRANCH  10  11
ATOM     11  C   UNL     1      35.286  15.844  49.075  1.00  0.00     0.053 C 
BRANCH  11  12
ATOM     12  C   UNL     1      34.431  16.612  48.113  1.00  0.00     0.041 C 
ATOM     13  O   UNL     1      33.344  17.117  48.498  1.00  0.00    -0.550 OA
ATOM     14  O   UNL     1      34.856  16.806  46.806  1.00  0.00    -0.550 OA
ENDBRANCH  11  12
ENDBRANCH  10  11
ENDBRANCH   9  10
ENDBRANCH   8   9
ENDBRANCH   7   8
ENDBRANCH   6   7
ENDBRANCH   5   6
ENDBRANCH   4   5
ENDBRANCH   3   4
ENDBRANCH   2   3
ENDBRANCH   1   2
BRANCH   1  15
ATOM     15  C   UNL     1      33.845   7.079  45.484  1.00  0.00     0.000 C 
BRANCH  15  16
ATOM     16  C   UNL     1      34.607   5.750  45.544  1.00  0.00     0.000 C 
BRANCH  16  17
ATOM     17  C   UNL     1      34.590   5.175  46.968  1.00  0.00     0.000 C 
BRANCH  17  18
ATOM     18  C   UNL     1      33.604   5.907  47.897  1.00  0.00    -0.000 C 
BRANCH  18  19
ATOM     19  C   UNL     1      32.211   5.257  48.015  1.00  0.00    -0.000 C 
BRANCH  19  20
ATOM     20  C   UNL     1      31.025   6.195  47.722  1.00  0.00    -0.000 C 
BRANCH  20  21
ATOM     21  C   UNL     1      30.253   6.598  48.988  1.00  0.00    -0.000 C 
BRANCH  21  22
ATOM     22  C   UNL     1      30.081   8.119  49.066  1.00  0.00    -0.000 C 
BRANCH  22  23
ATOM     23  C   UNL     1      31.363   8.792  49.578  1.00  0.00    -0.000 C 
BRANCH  23  24
ATOM     24  C   UNL     1      31.762  10.029  48.753  1.00  0.00    -0.000 C 
BRANCH  24  25
ATOM     25  C   UNL     1      32.935   9.806  47.781  1.00  0.00    -0.003 C 
ATOM     26  C   UNL     1      34.270   9.597  48.495  1.00  0.00     0.004 C 
ENDBRANCH  24  25
ENDBRANCH  23  24
ENDBRANCH  22  23
ENDBRANCH  21  22
ENDBRANCH  20  21
ENDBRANCH  19  20
ENDBRANCH  18  19
ENDBRANCH  17  18
ENDBRANCH  16  17
ENDBRANCH  15  16
ENDBRANCH   1  15
TORSDOF 22
ENDMDL
MODEL 2
REMARK VINA RESULT:    -4.384      3.702      8.210
REMARK INTER + INTRA:         -12.922
REMARK INTER:                 -10.250
REMARK INTRA:                  -2.672
REMARK UNBOUND:                -2.899
REMARK SMILES CCCCCCCCCCCCCCCCCCCCCCCC(=O)[O-]
REMARK SMILES IDX 13 1 14 2 15 3 16 4 17 5 18 6 19 7 20 8 21 9 22 10 23 11
REMARK SMILES IDX 24 12 25 13 26 14 12 15 11 16 10 17 9 18 8 19 7 20 6 21 5 22
REMARK SMILES IDX 4 23 3 24 2 25 1 26
REMARK H PARENT
REMARK Flexibility Score: inf
ROOT
ATOM      1  C   UNL     1      34.129  10.220  43.704  1.00  0.00     0.000 C 
ENDROOT
BRANCH   1   2
ATOM      2  C   UNL     1      34.748   8.888  44.182  1.00  0.00     0.000 C 
BRANCH   2   3
ATOM      3  C   UNL     1      33.730   7.744  44.325  1.00  0.00     0.000 C 
BRANCH   3   4
ATOM      4  C   UNL     1      34.087   6.763  45.454  1.00  0.00     0.000 C 
BRANCH   4   5
ATOM      5  C   UNL     1      33.043   6.761  46.583  1.00  0.00     0.000 C 
BRANCH   5   6
ATOM      6  C   UNL     1      33.667   7.052  47.956  1.00  0.00     0.000 C 
BRANCH   6   7
ATOM      7  C   UNL     1      33.725   8.560  48.227  1.00  0.00     0.000 C 
BRANCH   7   8
ATOM      8  C   UNL     1      32.351   9.209  48.019  1.00  0.00     0.000 C 
BRANCH   8   9
ATOM      9  C   UNL     1      31.504   9.128  49.294  1.00  0.00     0.000 C 
BRANCH   9  10
ATOM     10  C   UNL     1      30.259   8.257  49.076  1.00  0.00     0.006 C 
BRANCH  10  11
ATOM     11  C   UNL     1      30.427   6.847  49.657  1.00  0.00     0.053 C 
BRANCH  11  12
ATOM     12  C   UNL     1      29.990   5.791  48.688  1.00  0.00     0.041 C 
ATOM     13  O   UNL     1      30.786   4.876  48.348  1.00  0.00    -0.550 OA
ATOM     14  O   UNL     1      28.692   5.793  48.196  1.00  0.00    -0.550 OA
ENDBRANCH  11  12
ENDBRANCH  10  11
ENDBRANCH   9  10
ENDBRANCH   8   9
ENDBRANCH   7   8
ENDBRANCH   6   7
ENDBRANCH   5   6
ENDBRANCH   4   5
ENDBRANCH   3   4
ENDBRANCH   2   3
ENDBRANCH   1   2
BRANCH   1  15
ATOM     15  C   UNL     1      34.624  11.419  44.527  1.00  0.00     0.000 C 
BRANCH  15  16
ATOM     16  C   UNL     1      34.917  11.013  45.976  1.00  0.00     0.000 C 
BRANCH  16  17
ATOM     17  C   UNL     1      36.255  11.601  46.448  1.00  0.00     0.000 C 
BRANCH  17  18
ATOM     18  C   UNL     1      36.103  12.534  47.662  1.00  0.00    -0.000 C 
BRANCH  18  19
ATOM     19  C   UNL     1      36.519  13.999  47.419  1.00  0.00    -0.000 C 
BRANCH  19  20
ATOM     20  C   UNL     1      37.055  14.302  46.008  1.00  0.00    -0.000 C 
BRANCH  20  21
ATOM     21  C   UNL     1      36.239  15.377  45.275  1.00  0.00    -0.000 C 
BRANCH  21  22
ATOM     22  C   UNL     1      36.940  16.739  45.339  1.00  0.00    -0.000 C 
BRANCH  22  23
ATOM     23  C   UNL     1      36.095  17.757  46.120  1.00  0.00    -0.000 C 
BRANCH  23  24
ATOM     24  C   UNL     1      36.186  17.568  47.645  1.00  0.00    -0.000 C 
BRANCH  24  25
ATOM     25  C   UNL     1      34.870  17.810  48.406  1.00  0.00    -0.003 C 
ATOM     26  C   UNL     1      34.144  16.515  48.769  1.00  0.00     0.004 C 
ENDBRANCH  24  25
ENDBRANCH  23  24
ENDBRANCH  22  23
ENDBRANCH  21  22
ENDBRANCH  20  21
ENDBRANCH  19  20
ENDBRANCH  18  19
ENDBRANCH  17  18
ENDBRANCH  16  17
ENDBRANCH  15  16
ENDBRANCH   1  15
TORSDOF 22
ENDMDL
MODEL 3
REMARK VINA RESULT:    -4.302      1.349      2.311
REMARK INTER + INTRA:         -12.733
REMARK INTER:                 -10.291
REMARK INTRA:                  -2.441
REMARK UNBOUND:                -2.899
REMARK SMILES CCCCCCCCCCCCCCCCCCCCCCCC(=O)[O-]
REMARK SMILES IDX 13 1 14 2 15 3 16 4 17 5 18 6 19 7 20 8 21 9 22 10 23 11
REMARK SMILES IDX 24 12 25 13 26 14 12 15 11 16 10 17 9 18 8 19 7 20 6 21 5 22
REMARK SMILES IDX 4 23 3 24 2 25 1 26
REMARK H PARENT
REMARK Flexibility Score: inf
ROOT
ATOM      1  C   UNL     1      35.019   9.276  44.097  1.00  0.00     0.000 C 
ENDROOT
BRANCH   1   2
ATOM      2  C   UNL     1      34.337  10.581  44.562  1.00  0.00     0.000 C 
BRANCH   2   3
ATOM      3  C   UNL     1      34.769  11.045  45.964  1.00  0.00     0.000 C 
BRANCH   3   4
ATOM      4  C   UNL     1      35.686  12.278  45.931  1.00  0.00     0.000 C 
BRANCH   4   5
ATOM      5  C   UNL     1      35.993  12.820  47.336  1.00  0.00     0.000 C 
BRANCH   5   6
ATOM      6  C   UNL     1      37.326  13.583  47.390  1.00  0.00     0.000 C 
BRANCH   6   7
ATOM      7  C   UNL     1      37.868  13.843  45.979  1.00  0.00     0.000 C 
BRANCH   7   8
ATOM      8  C   UNL     1      37.888  15.343  45.665  1.00  0.00     0.000 C 
BRANCH   8   9
ATOM      9  C   UNL     1      36.507  15.831  45.213  1.00  0.00     0.000 C 
BRANCH   9  10
ATOM     10  C   UNL     1      36.013  16.986  46.095  1.00  0.00     0.006 C 
BRANCH  10  11
ATOM     11  C   UNL     1      34.913  16.545  47.069  1.00  0.00     0.053 C 
BRANCH  11  12
ATOM     12  C   UNL     1      35.387  16.567  48.490  1.00  0.00     0.041 C 
ATOM     13  O   UNL     1      34.584  16.325  49.429  1.00  0.00    -0.550 OA
ATOM     14  O   UNL     1      36.725  16.812  48.773  1.00  0.00    -0.550 OA
ENDBRANCH  11  12
ENDBRANCH  10  11
ENDBRANCH   9  10
ENDBRANCH   8   9
ENDBRANCH   7   8
ENDBRANCH   6   7
ENDBRANCH   5   6
ENDBRANCH   4   5
ENDBRANCH   3   4
ENDBRANCH   2   3
ENDBRANCH   1   2
BRANCH   1  15
ATOM     15  C   UNL     1      34.054   8.080  44.111  1.00  0.00     0.000 C 
BRANCH  15  16
ATOM     16  C   UNL     1      33.892   7.515  45.526  1.00  0.00     0.000 C 
BRANCH  16  17
ATOM     17  C   UNL     1      34.262   6.025  45.565  1.00  0.00     0.000 C 
BRANCH  17  18
ATOM     18  C   UNL     1      34.424   5.487  46.998  1.00  0.00    -0.000 C 
BRANCH  18  19
ATOM     19  C   UNL     1      33.398   6.019  48.018  1.00  0.00    -0.000 C 
BRANCH  19  20
ATOM     20  C   UNL     1      32.042   5.291  48.024  1.00  0.00    -0.000 C 
BRANCH  20  21
ATOM     21  C   UNL     1      30.881   6.184  47.560  1.00  0.00    -0.000 C 
BRANCH  21  22
ATOM     22  C   UNL     1      29.680   6.059  48.505  1.00  0.00    -0.000 C 
BRANCH  22  23
ATOM     23  C   UNL     1      29.854   6.957  49.739  1.00  0.00    -0.000 C 
BRANCH  23  24
ATOM     24  C   UNL     1      30.107   8.432  49.376  1.00  0.00    -0.000 C 
BRANCH  24  25
ATOM     25  C   UNL     1      31.564   8.899  49.550  1.00  0.00    -0.003 C 
ATOM     26  C   UNL     1      32.091   9.671  48.340  1.00  0.00     0.004 C 
ENDBRANCH  24  25
ENDBRANCH  23  24
ENDBRANCH  22  23
ENDBRANCH  21  22
ENDBRANCH  20  21
ENDBRANCH  19  20
ENDBRANCH  18  19
ENDBRANCH  17  18
ENDBRANCH  16  17
ENDBRANCH  15  16
ENDBRANCH   1  15
TORSDOF 22
ENDMDL
MODEL 4
REMARK VINA RESULT:    -4.279      1.416      4.164
REMARK INTER + INTRA:         -12.681
REMARK INTER:                  -9.873
REMARK INTRA:                  -2.809
REMARK UNBOUND:                -2.899
REMARK SMILES CCCCCCCCCCCCCCCCCCCCCCCC(=O)[O-]
REMARK SMILES IDX 13 1 14 2 15 3 16 4 17 5 18 6 19 7 20 8 21 9 22 10 23 11
REMARK SMILES IDX 24 12 25 13 26 14 12 15 11 16 10 17 9 18 8 19 7 20 6 21 5 22
REMARK SMILES IDX 4 23 3 24 2 25 1 26
REMARK H PARENT
REMARK Flexibility Score: inf
ROOT
ATOM      1  C   UNL     1      30.946   8.846  48.611  1.00  0.00     0.000 C 
ENDROOT
BRANCH   1   2
ATOM      2  C   UNL     1      32.246   9.554  49.052  1.00  0.00     0.000 C 
BRANCH   2   3
ATOM      3  C   UNL     1      33.151   9.979  47.883  1.00  0.00     0.000 C 
BRANCH   3   4
ATOM      4  C   UNL     1      34.184  11.045  48.282  1.00  0.00     0.000 C 
BRANCH   4   5
ATOM      5  C   UNL     1      35.591  10.456  48.476  1.00  0.00     0.000 C 
BRANCH   5   6
ATOM      6  C   UNL     1      36.671  11.545  48.573  1.00  0.00     0.000 C 
BRANCH   6   7
ATOM      7  C   UNL     1      37.333  11.786  47.211  1.00  0.00     0.000 C 
BRANCH   7   8
ATOM      8  C   UNL     1      37.605  13.279  46.988  1.00  0.00     0.000 C 
BRANCH   8   9
ATOM      9  C   UNL     1      36.383  14.125  47.361  1.00  0.00     0.000 C 
BRANCH   9  10
ATOM     10  C   UNL     1      35.711  14.707  46.109  1.00  0.00     0.006 C 
BRANCH  10  11
ATOM     11  C   UNL     1      36.701  15.472  45.222  1.00  0.00     0.053 C 
BRANCH  11  12
ATOM     12  C   UNL     1      36.585  16.954  45.411  1.00  0.00     0.041 C 
ATOM     13  O   UNL     1      35.685  17.429  46.153  1.00  0.00    -0.550 OA
ATOM     14  O   UNL     1      37.497  17.807  44.802  1.00  0.00    -0.550 OA
ENDBRANCH  11  12
ENDBRANCH  10  11
ENDBRANCH   9  10
ENDBRANCH   8   9
ENDBRANCH   7   8
ENDBRANCH   6   7
ENDBRANCH   5   6
ENDBRANCH   4   5
ENDBRANCH   3   4
ENDBRANCH   2   3
ENDBRANCH   1   2
BRANCH   1  15
ATOM     15  C   UNL     1      30.293   8.063  49.761  1.00  0.00     0.000 C 
BRANCH  15  16
ATOM     16  C   UNL     1      30.192   6.570  49.428  1.00  0.00     0.000 C 
BRANCH  16  17
ATOM     17  C   UNL     1      30.731   6.288  48.018  1.00  0.00     0.000 C 
BRANCH  17  18
ATOM     18  C   UNL     1      31.968   5.372  48.022  1.00  0.00    -0.000 C 
BRANCH  18  19
ATOM     19  C   UNL     1      33.323   6.100  47.930  1.00  0.00    -0.000 C 
BRANCH  19  20
ATOM     20  C   UNL     1      34.387   5.398  47.066  1.00  0.00    -0.000 C 
BRANCH  20  21
ATOM     21  C   UNL     1      34.399   5.894  45.612  1.00  0.00    -0.000 C 
BRANCH  21  22
ATOM     22  C   UNL     1      33.936   7.353  45.524  1.00  0.00    -0.000 C 
BRANCH  22  23
ATOM     23  C   UNL     1      34.183   7.925  44.120  1.00  0.00    -0.000 C 
BRANCH  23  24
ATOM     24  C   UNL     1      34.925   9.274  44.144  1.00  0.00    -0.000 C 
BRANCH  24  25
ATOM     25  C   UNL     1      34.031  10.507  43.920  1.00  0.00    -0.003 C 
ATOM     26  C   UNL     1      34.606  11.781  44.539  1.00  0.00     0.004 C 
ENDBRANCH  24  25
ENDBRANCH  23  24
ENDBRANCH  22  23
ENDBRANCH  21  22
ENDBRANCH  20  21
ENDBRANCH  19  20
ENDBRANCH  18  19
ENDBRANCH  17  18
ENDBRANCH  16  17
ENDBRANCH  15  16
ENDBRANCH   1  15
TORSDOF 22
ENDMDL
MODEL 5
REMARK VINA RESULT:    -4.237      3.451      8.795
REMARK INTER + INTRA:         -12.585
REMARK INTER:                  -9.874
REMARK INTRA:                  -2.711
REMARK UNBOUND:                -2.899
REMARK SMILES CCCCCCCCCCCCCCCCCCCCCCCC(=O)[O-]
REMARK SMILES IDX 13 1 14 2 15 3 16 4 17 5 18 6 19 7 20 8 21 9 22 10 23 11
REMARK SMILES IDX 24 12 25 13 26 14 12 15 11 16 10 17 9 18 8 19 7 20 6 21 5 22
REMARK SMILES IDX 4 23 3 24 2 25 1 26
REMARK H PARENT
REMARK Flexibility Score: inf
ROOT
ATOM      1  C   UNL     1      34.660  10.625  45.555  1.00  0.00     0.000 C 
ENDROOT
BRANCH   1   2
ATOM      2  C   UNL     1      33.885   9.830  46.628  1.00  0.00     0.000 C 
BRANCH   2   3
ATOM      3  C   UNL     1      34.312  10.150  48.070  1.00  0.00     0.000 C 
BRANCH   3   4
ATOM      4  C   UNL     1      33.241   9.778  49.109  1.00  0.00     0.000 C 
BRANCH   4   5
ATOM      5  C   UNL     1      31.829   9.720  48.502  1.00  0.00     0.000 C 
BRANCH   5   6
ATOM      6  C   UNL     1      30.860   8.892  49.359  1.00  0.00     0.000 C 
BRANCH   6   7
ATOM      7  C   UNL     1      30.277   7.722  48.557  1.00  0.00     0.000 C 
BRANCH   7   8
ATOM      8  C   UNL     1      30.682   6.377  49.172  1.00  0.00     0.000 C 
BRANCH   8   9
ATOM      9  C   UNL     1      31.382   5.486  48.140  1.00  0.00     0.000 C 
BRANCH   9  10
ATOM     10  C   UNL     1      32.007   6.327  47.017  1.00  0.00     0.006 C 
BRANCH  10  11
ATOM     11  C   UNL     1      33.539   6.357  47.098  1.00  0.00     0.053 C 
BRANCH  11  12
ATOM     12  C   UNL     1      34.170   6.084  45.766  1.00  0.00     0.041 C 
ATOM     13  O   UNL     1      33.944   6.847  44.790  1.00  0.00    -0.550 OA
ATOM     14  O   UNL     1      35.041   5.013  45.616  1.00  0.00    -0.550 OA
ENDBRANCH  11  12
ENDBRANCH  10  11
ENDBRANCH   9  10
ENDBRANCH   8   9
ENDBRANCH   7   8
ENDBRANCH   6   7
ENDBRANCH   5   6
ENDBRANCH   4   5
ENDBRANCH   3   4
ENDBRANCH   2   3
ENDBRANCH   1   2
BRANCH   1  15
ATOM     15  C   UNL     1      35.915  11.301  46.127  1.00  0.00     0.000 C 
BRANCH  15  16
ATOM     16  C   UNL     1      35.769  12.827  46.133  1.00  0.00     0.000 C 
BRANCH  16  17
ATOM     17  C   UNL     1      36.311  13.423  47.441  1.00  0.00     0.000 C 
BRANCH  17  18
ATOM     18  C   UNL     1      37.669  14.124  47.261  1.00  0.00    -0.000 C 
BRANCH  18  19
ATOM     19  C   UNL     1      38.178  14.202  45.807  1.00  0.00    -0.000 C 
BRANCH  19  20
ATOM     20  C   UNL     1      38.201  15.615  45.197  1.00  0.00    -0.000 C 
BRANCH  20  21
ATOM     21  C   UNL     1      36.832  16.311  45.247  1.00  0.00    -0.000 C 
BRANCH  21  22
ATOM     22  C   UNL     1      36.944  17.700  45.888  1.00  0.00    -0.000 C 
BRANCH  22  23
ATOM     23  C   UNL     1      35.972  17.841  47.068  1.00  0.00    -0.000 C 
BRANCH  23  24
ATOM     24  C   UNL     1      34.906  16.730  47.104  1.00  0.00    -0.000 C 
BRANCH  24  25
ATOM     25  C   UNL     1      34.325  16.437  48.499  1.00  0.00    -0.003 C 
ATOM     26  C   UNL     1      33.051  17.228  48.792  1.00  0.00     0.004 C 
ENDBRANCH  24  25
ENDBRANCH  23  24
ENDBRANCH  22  23
ENDBRANCH  21  22
ENDBRANCH  20  21
ENDBRANCH  19  20
ENDBRANCH  18  19
ENDBRANCH  17  18
ENDBRANCH  16  17
ENDBRANCH  15  16
ENDBRANCH   1  15
TORSDOF 22
ENDMDL
MODEL 6
REMARK VINA RESULT:    -4.130      3.703      8.693
REMARK INTER + INTRA:         -12.341
REMARK INTER:                  -9.344
REMARK INTRA:                  -2.997
REMARK UNBOUND:                -2.899
REMARK SMILES CCCCCCCCCCCCCCCCCCCCCCCC(=O)[O-]
REMARK SMILES IDX 13 1 14 2 15 3 16 4 17 5 18 6 19 7 20 8 21 9 22 10 23 11
REMARK SMILES IDX 24 12 25 13 26 14 12 15 11 16 10 17 9 18 8 19 7 20 6 21 5 22
REMARK SMILES IDX 4 23 3 24 2 25 1 26
REMARK H PARENT
REMARK Flexibility Score: inf
ROOT
ATOM      1  C   UNL     1      34.262   9.977  45.977  1.00  0.00     0.000 C 
ENDROOT
BRANCH   1   2
ATOM      2  C   UNL     1      34.098  10.157  47.502  1.00  0.00     0.000 C 
BRANCH   2   3
ATOM      3  C   UNL     1      32.771   9.610  48.054  1.00  0.00     0.000 C 
BRANCH   3   4
ATOM      4  C   UNL     1      32.870   9.171  49.524  1.00  0.00     0.000 C 
BRANCH   4   5
ATOM      5  C   UNL     1      31.511   8.746  50.104  1.00  0.00     0.000 C 
BRANCH   5   6
ATOM      6  C   UNL     1      30.504   8.363  49.009  1.00  0.00     0.000 C 
BRANCH   6   7
ATOM      7  C   UNL     1      29.721   7.102  49.397  1.00  0.00     0.000 C 
BRANCH   7   8
ATOM      8  C   UNL     1      30.086   5.926  48.484  1.00  0.00     0.000 C 
BRANCH   8   9
ATOM      9  C   UNL     1      31.212   6.306  47.515  1.00  0.00     0.000 C 
BRANCH   9  10
ATOM     10  C   UNL     1      32.509   5.560  47.855  1.00  0.00     0.006 C 
BRANCH  10  11
ATOM     11  C   UNL     1      33.723   6.135  47.114  1.00  0.00     0.053 C 
BRANCH  11  12
ATOM     12  C   UNL     1      34.829   5.131  46.996  1.00  0.00     0.041 C 
ATOM     13  O   UNL     1      35.166   4.690  45.866  1.00  0.00    -0.550 OA
ATOM     14  O   UNL     1      35.515   4.715  48.130  1.00  0.00    -0.550 OA
ENDBRANCH  11  12
ENDBRANCH  10  11
ENDBRANCH   9  10
ENDBRANCH   8   9
ENDBRANCH   7   8
ENDBRANCH   6   7
ENDBRANCH   5   6
ENDBRANCH   4   5
ENDBRANCH   3   4
ENDBRANCH   2   3
ENDBRANCH   1   2
BRANCH   1  15
ATOM     15  C   UNL     1      35.044  11.134  45.336  1.00  0.00     0.000 C 
BRANCH  15  16
ATOM     16  C   UNL     1      35.461  12.169  46.386  1.00  0.00     0.000 C 
BRANCH  16  17
ATOM     17  C   UNL     1      36.988  12.198  46.548  1.00  0.00     0.000 C 
BRANCH  17  18
ATOM     18  C   UNL     1      37.430  12.469  47.997  1.00  0.00    -0.000 C 
BRANCH  18  19
ATOM     19  C   UNL     1      36.407  13.231  48.863  1.00  0.00    -0.000 C 
BRANCH  19  20
ATOM     20  C   UNL     1      36.578  14.761  48.885  1.00  0.00    -0.000 C 
BRANCH  20  21
ATOM     21  C   UNL     1      35.500  15.496  48.075  1.00  0.00    -0.000 C 
BRANCH  21  22
ATOM     22  C   UNL     1      36.052  16.798  47.479  1.00  0.00    -0.000 C 
BRANCH  22  23
ATOM     23  C   UNL     1      35.816  16.851  45.962  1.00  0.00    -0.000 C 
BRANCH  23  24
ATOM     24  C   UNL     1      36.601  15.773  45.195  1.00  0.00    -0.000 C 
BRANCH  24  25
ATOM     25  C   UNL     1      38.094  16.086  44.987  1.00  0.00    -0.003 C 
ATOM     26  C   UNL     1      39.015  15.116  45.726  1.00  0.00     0.004 C 
ENDBRANCH  24  25
ENDBRANCH  23  24
ENDBRANCH  22  23
ENDBRANCH  21  22
ENDBRANCH  20  21
ENDBRANCH  19  20
ENDBRANCH  18  19
ENDBRANCH  17  18
ENDBRANCH  16  17
ENDBRANCH  15  16
ENDBRANCH   1  15
TORSDOF 22
ENDMDL
MODEL 7
REMARK VINA RESULT:    -4.096      1.319      3.944
REMARK INTER + INTRA:         -12.262
REMARK INTER:                  -9.186
REMARK INTRA:                  -3.076
REMARK UNBOUND:                -2.899
REMARK SMILES CCCCCCCCCCCCCCCCCCCCCCCC(=O)[O-]
REMARK SMILES IDX 13 1 14 2 15 3 16 4 17 5 18 6 19 7 20 8 21 9 22 10 23 11
REMARK SMILES IDX 24 12 25 13 26 14 12 15 11 16 10 17 9 18 8 19 7 20 6 21 5 22
REMARK SMILES IDX 4 23 3 24 2 25 1 26
REMARK H PARENT
REMARK Flexibility Score: inf
ROOT
ATOM      1  C   UNL     1      32.315   9.237  48.465  1.00  0.00     0.000 C 
ENDROOT
BRANCH   1   2
ATOM      2  C   UNL     1      33.788   9.621  48.729  1.00  0.00     0.000 C 
BRANCH   2   3
ATOM      3  C   UNL     1      34.241  10.894  47.995  1.00  0.00     0.000 C 
BRANCH   3   4
ATOM      4  C   UNL     1      34.950  11.898  48.919  1.00  0.00     0.000 C 
BRANCH   4   5
ATOM      5  C   UNL     1      35.713  12.979  48.136  1.00  0.00     0.000 C 
BRANCH   5   6
ATOM      6  C   UNL     1      36.572  12.387  47.009  1.00  0.00     0.000 C 
BRANCH   6   7
ATOM      7  C   UNL     1      37.008  13.475  46.020  1.00  0.00     0.000 C 
BRANCH   7   8
ATOM      8  C   UNL     1      35.882  14.490  45.786  1.00  0.00     0.000 C 
BRANCH   8   9
ATOM      9  C   UNL     1      36.443  15.840  45.324  1.00  0.00     0.000 C 
BRANCH   9  10
ATOM     10  C   UNL     1      35.814  16.997  46.112  1.00  0.00     0.006 C 
BRANCH  10  11
ATOM     11  C   UNL     1      34.947  16.504  47.277  1.00  0.00     0.053 C 
BRANCH  11  12
ATOM     12  C   UNL     1      35.579  16.802  48.603  1.00  0.00     0.041 C 
ATOM     13  O   UNL     1      34.950  17.466  49.469  1.00  0.00    -0.550 OA
ATOM     14  O   UNL     1      36.843  16.308  48.898  1.00  0.00    -0.550 OA
ENDBRANCH  11  12
ENDBRANCH  10  11
ENDBRANCH   9  10
ENDBRANCH   8   9
ENDBRANCH   7   8
ENDBRANCH   6   7
ENDBRANCH   5   6
ENDBRANCH   4   5
ENDBRANCH   3   4
ENDBRANCH   2   3
ENDBRANCH   1   2
BRANCH   1  15
ATOM     15  C   UNL     1      31.618   8.708  49.727  1.00  0.00     0.000 C 
BRANCH  15  16
ATOM     16  C   UNL     1      30.172   8.294  49.429  1.00  0.00     0.000 C 
BRANCH  16  17
ATOM     17  C   UNL     1      30.119   7.297  48.262  1.00  0.00     0.000 C 
BRANCH  17  18
ATOM     18  C   UNL     1      30.619   5.894  48.651  1.00  0.00    -0.000 C 
BRANCH  18  19
ATOM     19  C   UNL     1      31.721   5.316  47.741  1.00  0.00    -0.000 C 
BRANCH  19  20
ATOM     20  C   UNL     1      33.160   5.503  48.255  1.00  0.00    -0.000 C 
BRANCH  20  21
ATOM     21  C   UNL     1      34.067   6.225  47.247  1.00  0.00    -0.000 C 
BRANCH  21  22
ATOM     22  C   UNL     1      33.289   6.604  45.981  1.00  0.00    -0.000 C 
BRANCH  22  23
ATOM     23  C   UNL     1      34.245   7.014  44.850  1.00  0.00    -0.000 C 
BRANCH  23  24
ATOM     24  C   UNL     1      33.870   8.361  44.206  1.00  0.00    -0.000 C 
BRANCH  24  25
ATOM     25  C   UNL     1      34.854   9.510  44.492  1.00  0.00    -0.003 C 
ATOM     26  C   UNL     1      34.321  10.874  44.057  1.00  0.00     0.004 C 
ENDBRANCH  24  25
ENDBRANCH  23  24
ENDBRANCH  22  23
ENDBRANCH  21  22
ENDBRANCH  20  21
ENDBRANCH  19  20
ENDBRANCH  18  19
ENDBRANCH  17  18
ENDBRANCH  16  17
ENDBRANCH  15  16
ENDBRANCH   1  15
TORSDOF 22
ENDMDL
MODEL 8
REMARK VINA RESULT:    -4.075      3.827      8.884
REMARK INTER + INTRA:         -12.216
REMARK INTER:                  -9.432
REMARK INTRA:                  -2.784
REMARK UNBOUND:                -2.899
REMARK SMILES CCCCCCCCCCCCCCCCCCCCCCCC(=O)[O-]
REMARK SMILES IDX 13 1 14 2 15 3 16 4 17 5 18 6 19 7 20 8 21 9 22 10 23 11
REMARK SMILES IDX 24 12 25 13 26 14 12 15 11 16 10 17 9 18 8 19 7 20 6 21 5 22
REMARK SMILES IDX 4 23 3 24 2 25 1 26
REMARK H PARENT
REMARK Flexibility Score: inf
ROOT
ATOM      1  C   UNL     1      34.169   9.658  49.084  1.00  0.00     0.000 C 
ENDROOT
BRANCH   1   2
ATOM      2  C   UNL     1      33.035  10.255  48.222  1.00  0.00     0.000 C 
BRANCH   2   3
ATOM      3  C   UNL     1      31.639   9.706  48.563  1.00  0.00     0.000 C 
BRANCH   3   4
ATOM      4  C   UNL     1      31.631   8.831  49.827  1.00  0.00     0.000 C 
BRANCH   4   5
ATOM      5  C   UNL     1      30.341   8.007  49.963  1.00  0.00     0.000 C 
BRANCH   5   6
ATOM      6  C   UNL     1      29.915   7.364  48.634  1.00  0.00     0.000 C 
BRANCH   6   7
ATOM      7  C   UNL     1      30.160   5.851  48.651  1.00  0.00     0.000 C 
BRANCH   7   8
ATOM      8  C   UNL     1      31.585   5.518  48.191  1.00  0.00     0.000 C 
BRANCH   8   9
ATOM      9  C   UNL     1      31.975   6.346  46.962  1.00  0.00     0.000 C 
BRANCH   9  10
ATOM     10  C   UNL     1      33.467   6.706  46.989  1.00  0.00     0.006 C 
BRANCH  10  11
ATOM     11  C   UNL     1      34.230   6.111  45.798  1.00  0.00     0.053 C 
BRANCH  11  12
ATOM     12  C   UNL     1      34.959   4.857  46.176  1.00  0.00     0.041 C 
ATOM     13  O   UNL     1      34.954   4.458  47.370  1.00  0.00    -0.550 OA
ATOM     14  O   UNL     1      35.604   4.107  45.201  1.00  0.00    -0.550 OA
ENDBRANCH  11  12
ENDBRANCH  10  11
ENDBRANCH   9  10
ENDBRANCH   8   9
ENDBRANCH   7   8
ENDBRANCH   6   7
ENDBRANCH   5   6
ENDBRANCH   4   5
ENDBRANCH   3   4
ENDBRANCH   2   3
ENDBRANCH   1   2
BRANCH   1  15
ATOM     15  C   UNL     1      35.289  10.674  49.354  1.00  0.00     0.000 C 
BRANCH  15  16
ATOM     16  C   UNL     1      34.726  12.093  49.503  1.00  0.00     0.000 C 
BRANCH  16  17
ATOM     17  C   UNL     1      35.567  13.100  48.705  1.00  0.00     0.000 C 
BRANCH  17  18
ATOM     18  C   UNL     1      36.328  12.450  47.535  1.00  0.00    -0.000 C 
BRANCH  18  19
ATOM     19  C   UNL     1      36.186  13.172  46.180  1.00  0.00    -0.000 C 
BRANCH  19  20
ATOM     20  C   UNL     1      36.968  14.492  46.056  1.00  0.00    -0.000 C 
BRANCH  20  21
ATOM     21  C   UNL     1      36.209  15.566  45.262  1.00  0.00    -0.000 C 
BRANCH  21  22
ATOM     22  C   UNL     1      36.077  16.860  46.073  1.00  0.00    -0.000 C 
BRANCH  22  23
ATOM     23  C   UNL     1      34.982  16.730  47.142  1.00  0.00    -0.000 C 
BRANCH  23  24
ATOM     24  C   UNL     1      35.330  17.465  48.449  1.00  0.00    -0.000 C 
BRANCH  24  25
ATOM     25  C   UNL     1      34.783  16.803  49.727  1.00  0.00    -0.003 C 
ATOM     26  C   UNL     1      33.479  16.041  49.493  1.00  0.00     0.004 C 
ENDBRANCH  24  25
ENDBRANCH  23  24
ENDBRANCH  22  23
ENDBRANCH  21  22
ENDBRANCH  20  21
ENDBRANCH  19  20
ENDBRANCH  18  19
ENDBRANCH  17  18
ENDBRANCH  16  17
ENDBRANCH  15  16
ENDBRANCH   1  15
TORSDOF 22
ENDMDL
MODEL 9
REMARK VINA RESULT:    -4.037      3.636      8.589
REMARK INTER + INTRA:         -12.127
REMARK INTER:                  -9.379
REMARK INTRA:                  -2.747
REMARK UNBOUND:                -2.899
REMARK SMILES CCCCCCCCCCCCCCCCCCCCCCCC(=O)[O-]
REMARK SMILES IDX 13 1 14 2 15 3 16 4 17 5 18 6 19 7 20 8 21 9 22 10 23 11
REMARK SMILES IDX 24 12 25 13 26 14 12 15 11 16 10 17 9 18 8 19 7 20 6 21 5 22
REMARK SMILES IDX 4 23 3 24 2 25 1 26
REMARK H PARENT
REMARK Flexibility Score: inf
ROOT
ATOM      1  C   UNL     1      36.438  10.599  49.179  1.00  0.00     0.000 C 
ENDROOT
BRANCH   1   2
ATOM      2  C   UNL     1      34.962  10.729  49.614  1.00  0.00     0.000 C 
BRANCH   2   3
ATOM      3  C   UNL     1      34.083   9.537  49.200  1.00  0.00     0.000 C 
BRANCH   3   4
ATOM      4  C   UNL     1      33.099   9.881  48.070  1.00  0.00     0.000 C 
BRANCH   4   5
ATOM      5  C   UNL     1      31.635   9.858  48.538  1.00  0.00     0.000 C 
BRANCH   5   6
ATOM      6  C   UNL     1      31.347   8.694  49.499  1.00  0.00     0.000 C 
BRANCH   6   7
ATOM      7  C   UNL     1      30.039   7.985  49.128  1.00  0.00     0.000 C 
BRANCH   7   8
ATOM      8  C   UNL     1      30.300   6.532  48.712  1.00  0.00     0.000 C 
BRANCH   8   9
ATOM      9  C   UNL     1      31.306   6.460  47.558  1.00  0.00     0.000 C 
BRANCH   9  10
ATOM     10  C   UNL     1      32.462   5.507  47.892  1.00  0.00     0.006 C 
BRANCH  10  11
ATOM     11  C   UNL     1      33.803   6.003  47.335  1.00  0.00     0.053 C 
BRANCH  11  12
ATOM     12  C   UNL     1      34.845   4.926  47.355  1.00  0.00     0.041 C 
ATOM     13  O   UNL     1      35.434   4.635  48.429  1.00  0.00    -0.550 OA
ATOM     14  O   UNL     1      35.132   4.214  46.198  1.00  0.00    -0.550 OA
ENDBRANCH  11  12
ENDBRANCH  10  11
ENDBRANCH   9  10
ENDBRANCH   8   9
ENDBRANCH   7   8
ENDBRANCH   6   7
ENDBRANCH   5   6
ENDBRANCH   4   5
ENDBRANCH   3   4
ENDBRANCH   2   3
ENDBRANCH   1   2
BRANCH   1  15
ATOM     15  C   UNL     1      37.253  11.860  49.505  1.00  0.00     0.000 C 
BRANCH  15  16
ATOM     16  C   UNL     1      36.344  13.001  49.975  1.00  0.00     0.000 C 
BRANCH  16  17
ATOM     17  C   UNL     1      37.048  14.357  49.825  1.00  0.00     0.000 C 
BRANCH  17  18
ATOM     18  C   UNL     1      36.113  15.462  49.302  1.00  0.00    -0.000 C 
BRANCH  18  19
ATOM     19  C   UNL     1      35.343  15.113  48.013  1.00  0.00    -0.000 C 
BRANCH  19  20
ATOM     20  C   UNL     1      35.978  15.633  46.710  1.00  0.00    -0.000 C 
BRANCH  20  21
ATOM     21  C   UNL     1      36.810  14.565  45.983  1.00  0.00    -0.000 C 
BRANCH  21  22
ATOM     22  C   UNL     1      36.321  13.154  46.333  1.00  0.00    -0.000 C 
BRANCH  22  23
ATOM     23  C   UNL     1      35.376  12.616  45.248  1.00  0.00    -0.000 C 
BRANCH  23  24
ATOM     24  C   UNL     1      35.013  11.133  45.450  1.00  0.00    -0.000 C 
BRANCH  24  25
ATOM     25  C   UNL     1      34.268  10.484  44.270  1.00  0.00    -0.003 C 
ATOM     26  C   UNL     1      34.706   9.043  44.008  1.00  0.00     0.004 C 
ENDBRANCH  24  25
ENDBRANCH  23  24
ENDBRANCH  22  23
ENDBRANCH  21  22
ENDBRANCH  20  21
ENDBRANCH  19  20
ENDBRANCH  18  19
ENDBRANCH  17  18
ENDBRANCH  16  17
ENDBRANCH  15  16
ENDBRANCH   1  15
TORSDOF 22
ENDMDL
