MODEL 1
REMARK VINA RESULT:    -9.096      0.000      0.000
REMARK INTER + INTRA:         -10.163
REMARK INTER:                  -9.894
REMARK INTRA:                  -0.270
REMARK UNBOUND:                -0.270
REMARK SMILES C[C@H]1[C@H](C)CC[C@@]2(C(=O)[O-])CC[C@]3(C)C(=CC[C@@H]4[C@@]5(C)CC[C@@H](O)C(C)(C)[C@H]5CC[C@@]43C)[C@@H]12
REMARK SMILES IDX 7 1 6 2 11 3 33 4 5 5 12 6 15 7 2 8 3 9 13 10 16 11 1 12
REMARK SMILES IDX 4 13 14 14 31 15 17 16 18 17 30 18 32 19 19 20 29 21 28 22
REMARK SMILES IDX 21 23 20 24 25 25 22 26 23 27 26 28 27 29 8 30 9 31 10 32
REMARK SMILES IDX 24 33
REMARK H PARENT 24 34
REMARK Flexibility Score: inf
ROOT
ATOM      1  C   UNL     1      10.268   8.348  22.557  1.00  0.00     0.017 C 
ATOM      2  C   UNL     1      11.548   9.238  22.504  1.00  0.00     0.014 C 
ATOM      3  C   UNL     1       9.942   8.069  24.039  1.00  0.00     0.014 C 
ATOM      4  C   UNL     1       9.021   9.057  21.894  1.00  0.00     0.030 C 
ATOM      5  C   UNL     1      11.608  10.056  21.218  1.00  0.00     0.004 C 
ATOM      6  C   UNL     1       8.793   7.078  24.220  1.00  0.00     0.013 C 
ATOM      7  C   UNL     1       7.652   8.577  22.442  1.00  0.00    -0.063 C 
ATOM      8  C   UNL     1       9.156  10.628  21.861  1.00  0.00    -0.003 C 
ATOM      9  C   UNL     1      10.482  11.109  21.178  1.00  0.00    -0.011 C 
ATOM     10  C   UNL     1       7.490   7.351  23.362  1.00  0.00    -0.006 C 
ATOM     11  C   UNL     1       6.546   9.071  21.854  1.00  0.00    -0.027 C 
ATOM     12  C   UNL     1       8.960  11.307  23.231  1.00  0.00     0.008 C 
ATOM     13  C   UNL     1      10.239  11.548  19.725  1.00  0.00     0.008 C 
ATOM     14  C   UNL     1       7.331   6.141  22.386  1.00  0.00     0.017 C 
ATOM     15  C   UNL     1       6.178   7.486  24.299  1.00  0.00    -0.020 C 
ATOM     16  C   UNL     1       5.165   8.943  22.410  1.00  0.00     0.032 C 
ATOM     17  C   UNL     1       4.884   7.796  23.435  1.00  0.00     0.006 C 
ATOM     18  C   UNL     1       6.338   8.668  25.294  1.00  0.00     0.008 C 
ATOM     19  C   UNL     1       6.005   6.144  25.091  1.00  0.00     0.012 C 
ATOM     20  C   UNL     1       3.531   8.098  24.258  1.00  0.00    -0.025 C 
ATOM     21  C   UNL     1       5.114   8.905  26.181  1.00  0.00     0.005 C 
ATOM     22  C   UNL     1       3.785   9.171  25.412  1.00  0.00     0.003 C 
ATOM     23  C   UNL     1       2.882   6.767  24.806  1.00  0.00     0.010 C 
ATOM     24  C   UNL     1       2.473   8.674  23.254  1.00  0.00     0.012 C 
ATOM     25  C   UNL     1       2.534   9.417  26.395  1.00  0.00    -0.006 C 
ATOM     26  C   UNL     1       2.373   6.844  26.251  1.00  0.00     0.033 C 
ATOM     27  C   UNL     1       1.603   8.150  26.487  1.00  0.00     0.120 C 
ATOM     28  C   UNL     1       2.982   9.847  27.827  1.00  0.00     0.014 C 
ATOM     29  C   UNL     1       1.688  10.613  25.877  1.00  0.00     0.014 C 
ENDROOT
BRANCH   1  30
ATOM     30  C   UNL     1      10.628   7.044  21.844  1.00  0.00     0.048 C 
ATOM     31  O   UNL     1      10.217   6.805  20.676  1.00  0.00    -0.550 OA
ATOM     32  O   UNL     1      11.529   6.156  22.422  1.00  0.00    -0.550 OA
ENDBRANCH   1  30
BRANCH  27  33
ATOM     33  O   UNL     1       0.875   8.098  27.693  1.00  0.00    -0.393 OA
ATOM     34  H   UNL     1      -0.082   8.269  27.491  1.00  0.00     0.210 HD
ENDBRANCH  27  33
TORSDOF 2
ENDMDL
MODEL 2
REMARK VINA RESULT:    -8.828      1.853      7.715
REMARK INTER + INTRA:          -9.871
REMARK INTER:                  -9.616
REMARK INTRA:                  -0.255
REMARK UNBOUND:                -0.270
REMARK SMILES C[C@H]1[C@H](C)CC[C@@]2(C(=O)[O-])CC[C@]3(C)C(=CC[C@@H]4[C@@]5(C)CC[C@@H](O)C(C)(C)[C@H]5CC[C@@]43C)[C@@H]12
REMARK SMILES IDX 7 1 6 2 11 3 33 4 5 5 12 6 15 7 2 8 3 9 13 10 16 11 1 12
REMARK SMILES IDX 4 13 14 14 31 15 17 16 18 17 30 18 32 19 19 20 29 21 28 22
REMARK SMILES IDX 21 23 20 24 25 25 22 26 23 27 26 28 27 29 8 30 9 31 10 32
REMARK SMILES IDX 24 33
REMARK H PARENT 24 34
REMARK Flexibility Score: inf
ROOT
ATOM      1  C   UNL     1       2.728   8.931  24.666  1.00  0.00     0.017 C 
ATOM      2  C   UNL     1       1.805  10.177  24.504  1.00  0.00     0.014 C 
ATOM      3  C   UNL     1       3.134   8.451  23.257  1.00  0.00     0.014 C 
ATOM      4  C   UNL     1       4.041   9.263  25.481  1.00  0.00     0.030 C 
ATOM      5  C   UNL     1       1.846  11.069  25.741  1.00  0.00     0.004 C 
ATOM      6  C   UNL     1       3.919   7.140  23.278  1.00  0.00     0.013 C 
ATOM      7  C   UNL     1       5.243   8.339  25.154  1.00  0.00    -0.063 C 
ATOM      8  C   UNL     1       4.413  10.796  25.444  1.00  0.00    -0.003 C 
ATOM      9  C   UNL     1       3.234  11.718  25.911  1.00  0.00    -0.011 C 
ATOM     10  C   UNL     1       5.121   7.057  24.306  1.00  0.00    -0.006 C 
ATOM     11  C   UNL     1       6.364   8.506  25.880  1.00  0.00    -0.027 C 
ATOM     12  C   UNL     1       4.989  11.273  24.097  1.00  0.00     0.008 C 
ATOM     13  C   UNL     1       3.418  12.167  27.370  1.00  0.00     0.008 C 
ATOM     14  C   UNL     1       4.758   5.937  25.333  1.00  0.00     0.017 C 
ATOM     15  C   UNL     1       6.514   6.704  23.567  1.00  0.00    -0.020 C 
ATOM     16  C   UNL     1       7.691   7.911  25.536  1.00  0.00     0.032 C 
ATOM     17  C   UNL     1       7.718   6.659  24.600  1.00  0.00     0.006 C 
ATOM     18  C   UNL     1       6.870   7.797  22.522  1.00  0.00     0.008 C 
ATOM     19  C   UNL     1       6.349   5.319  22.852  1.00  0.00     0.012 C 
ATOM     20  C   UNL     1       9.190   6.459  23.973  1.00  0.00    -0.025 C 
ATOM     21  C   UNL     1       8.208   7.571  21.815  1.00  0.00     0.005 C 
ATOM     22  C   UNL     1       9.443   7.467  22.761  1.00  0.00     0.003 C 
ATOM     23  C   UNL     1       9.444   4.955  23.568  1.00  0.00     0.010 C 
ATOM     24  C   UNL     1      10.239   6.751  25.101  1.00  0.00     0.012 C 
ATOM     25  C   UNL     1      10.822   7.234  21.964  1.00  0.00    -0.006 C 
ATOM     26  C   UNL     1      10.131   4.758  22.211  1.00  0.00     0.033 C 
ATOM     27  C   UNL     1      11.302   5.736  22.048  1.00  0.00     0.120 C 
ATOM     28  C   UNL     1      10.722   7.671  20.469  1.00  0.00     0.014 C 
ATOM     29  C   UNL     1      11.932   8.141  22.561  1.00  0.00     0.014 C 
ENDROOT
BRANCH   1  30
ATOM     30  C   UNL     1       1.881   7.863  25.361  1.00  0.00     0.048 C 
ATOM     31  O   UNL     1       1.994   7.645  26.597  1.00  0.00    -0.550 OA
ATOM     32  O   UNL     1       0.875   7.205  24.662  1.00  0.00    -0.550 OA
ENDBRANCH   1  30
BRANCH  27  33
ATOM     33  O   UNL     1      12.123   5.367  20.963  1.00  0.00    -0.393 OA
ATOM     34  H   UNL     1      13.030   5.744  21.113  1.00  0.00     0.210 HD
ENDBRANCH  27  33
TORSDOF 2
ENDMDL
MODEL 3
REMARK VINA RESULT:    -8.720      1.267      1.495
REMARK INTER + INTRA:          -9.754
REMARK INTER:                  -9.494
REMARK INTRA:                  -0.261
REMARK UNBOUND:                -0.270
REMARK SMILES C[C@H]1[C@H](C)CC[C@@]2(C(=O)[O-])CC[C@]3(C)C(=CC[C@@H]4[C@@]5(C)CC[C@@H](O)C(C)(C)[C@H]5CC[C@@]43C)[C@@H]12
REMARK SMILES IDX 7 1 6 2 11 3 33 4 5 5 12 6 15 7 2 8 3 9 13 10 16 11 1 12
REMARK SMILES IDX 4 13 14 14 31 15 17 16 18 17 30 18 32 19 19 20 29 21 28 22
REMARK SMILES IDX 21 23 20 24 25 25 22 26 23 27 26 28 27 29 8 30 9 31 10 32
REMARK SMILES IDX 24 33
REMARK H PARENT 24 34
REMARK Flexibility Score: inf
ROOT
ATOM      1  C   UNL     1      10.472   8.017  23.023  1.00  0.00     0.017 C 
ATOM      2  C   UNL     1      11.763   8.742  22.535  1.00  0.00     0.014 C 
ATOM      3  C   UNL     1      10.082   8.606  24.394  1.00  0.00     0.014 C 
ATOM      4  C   UNL     1       9.261   8.220  22.027  1.00  0.00     0.030 C 
ATOM      5  C   UNL     1      11.885   8.706  21.015  1.00  0.00     0.004 C 
ATOM      6  C   UNL     1       8.915   7.869  25.049  1.00  0.00     0.013 C 
ATOM      7  C   UNL     1       7.865   8.110  22.693  1.00  0.00    -0.063 C 
ATOM      8  C   UNL     1       9.417   9.509  21.131  1.00  0.00    -0.003 C 
ATOM      9  C   UNL     1      10.776   9.544  20.349  1.00  0.00    -0.011 C 
ATOM     10  C   UNL     1       7.651   7.602  24.133  1.00  0.00    -0.006 C 
ATOM     11  C   UNL     1       6.790   8.179  21.886  1.00  0.00    -0.027 C 
ATOM     12  C   UNL     1       9.173  10.833  21.880  1.00  0.00     0.008 C 
ATOM     13  C   UNL     1      10.597   9.096  18.890  1.00  0.00     0.008 C 
ATOM     14  C   UNL     1       7.517   6.052  23.991  1.00  0.00     0.017 C 
ATOM     15  C   UNL     1       6.304   8.219  24.781  1.00  0.00    -0.020 C 
ATOM     16  C   UNL     1       5.386   8.365  22.362  1.00  0.00     0.032 C 
ATOM     17  C   UNL     1       5.050   7.979  23.840  1.00  0.00     0.006 C 
ATOM     18  C   UNL     1       6.438   9.757  24.955  1.00  0.00     0.008 C 
ATOM     19  C   UNL     1       6.083   7.544  26.179  1.00  0.00     0.012 C 
ATOM     20  C   UNL     1       3.669   8.671  24.300  1.00  0.00    -0.025 C 
ATOM     21  C   UNL     1       5.182  10.433  25.510  1.00  0.00     0.005 C 
ATOM     22  C   UNL     1       3.889  10.208  24.669  1.00  0.00     0.003 C 
ATOM     23  C   UNL     1       2.982   7.863  25.469  1.00  0.00     0.010 C 
ATOM     24  C   UNL     1       2.659   8.578  23.103  1.00  0.00     0.012 C 
ATOM     25  C   UNL     1       2.601  10.944  25.297  1.00  0.00    -0.006 C 
ATOM     26  C   UNL     1       2.415   8.725  26.604  1.00  0.00     0.033 C 
ATOM     27  C   UNL     1       1.652   9.932  26.042  1.00  0.00     0.120 C 
ATOM     28  C   UNL     1       2.996  12.104  26.264  1.00  0.00     0.014 C 
ATOM     29  C   UNL     1       1.792  11.638  24.167  1.00  0.00     0.014 C 
ENDROOT
BRANCH   1  30
ATOM     30  C   UNL     1      10.845   6.541  23.172  1.00  0.00     0.048 C 
ATOM     31  O   UNL     1      10.527   5.697  22.291  1.00  0.00    -0.550 OA
ATOM     32  O   UNL     1      11.660   6.128  24.221  1.00  0.00    -0.550 OA
ENDBRANCH   1  30
BRANCH  27  33
ATOM     33  O   UNL     1       0.875  10.551  27.041  1.00  0.00    -0.393 OA
ATOM     34  H   UNL     1       0.350   9.851  27.511  1.00  0.00     0.210 HD
ENDBRANCH  27  33
TORSDOF 2
ENDMDL
MODEL 4
REMARK VINA RESULT:    -8.437      2.068      4.446
REMARK INTER + INTRA:          -9.447
REMARK INTER:                  -9.193
REMARK INTRA:                  -0.254
REMARK UNBOUND:                -0.270
REMARK SMILES C[C@H]1[C@H](C)CC[C@@]2(C(=O)[O-])CC[C@]3(C)C(=CC[C@@H]4[C@@]5(C)CC[C@@H](O)C(C)(C)[C@H]5CC[C@@]43C)[C@@H]12
REMARK SMILES IDX 7 1 6 2 11 3 33 4 5 5 12 6 15 7 2 8 3 9 13 10 16 11 1 12
REMARK SMILES IDX 4 13 14 14 31 15 17 16 18 17 30 18 32 19 19 20 29 21 28 22
REMARK SMILES IDX 21 23 20 24 25 25 22 26 23 27 26 28 27 29 8 30 9 31 10 32
REMARK SMILES IDX 24 33
REMARK H PARENT 24 34
REMARK Flexibility Score: inf
ROOT
ATOM      1  C   UNL     1      11.672   7.620  20.154  1.00  0.00     0.017 C 
ATOM      2  C   UNL     1      12.171   6.867  18.883  1.00  0.00     0.014 C 
ATOM      3  C   UNL     1      10.517   8.552  19.734  1.00  0.00     0.014 C 
ATOM      4  C   UNL     1      11.140   6.630  21.265  1.00  0.00     0.030 C 
ATOM      5  C   UNL     1      12.836   5.542  19.243  1.00  0.00     0.004 C 
ATOM      6  C   UNL     1      10.042   9.460  20.867  1.00  0.00     0.013 C 
ATOM      7  C   UNL     1      10.090   7.253  22.221  1.00  0.00    -0.063 C 
ATOM      8  C   UNL     1      10.691   5.237  20.678  1.00  0.00    -0.003 C 
ATOM      9  C   UNL     1      11.812   4.547  19.826  1.00  0.00    -0.011 C 
ATOM     10  C   UNL     1       9.768   8.760  22.260  1.00  0.00    -0.006 C 
ATOM     11  C   UNL     1       9.666   6.494  23.248  1.00  0.00    -0.027 C 
ATOM     12  C   UNL     1       9.356   5.276  19.910  1.00  0.00     0.008 C 
ATOM     13  C   UNL     1      12.547   3.465  20.634  1.00  0.00     0.008 C 
ATOM     14  C   UNL     1      10.795   9.358  23.275  1.00  0.00     0.017 C 
ATOM     15  C   UNL     1       8.259   9.027  22.775  1.00  0.00    -0.020 C 
ATOM     16  C   UNL     1       8.478   6.809  24.099  1.00  0.00     0.032 C 
ATOM     17  C   UNL     1       7.982   8.291  24.154  1.00  0.00     0.006 C 
ATOM     18  C   UNL     1       7.228   8.462  21.759  1.00  0.00     0.008 C 
ATOM     19  C   UNL     1       8.062  10.575  22.927  1.00  0.00     0.012 C 
ATOM     20  C   UNL     1       6.469   8.356  24.707  1.00  0.00    -0.025 C 
ATOM     21  C   UNL     1       5.770   8.620  22.197  1.00  0.00     0.005 C 
ATOM     22  C   UNL     1       5.421   7.966  23.568  1.00  0.00     0.003 C 
ATOM     23  C   UNL     1       6.155   9.758  25.360  1.00  0.00     0.010 C 
ATOM     24  C   UNL     1       6.342   7.330  25.886  1.00  0.00     0.012 C 
ATOM     25  C   UNL     1       3.876   8.160  23.976  1.00  0.00    -0.006 C 
ATOM     26  C   UNL     1       4.789  10.351  24.991  1.00  0.00     0.033 C 
ATOM     27  C   UNL     1       3.693   9.280  25.069  1.00  0.00     0.120 C 
ATOM     28  C   UNL     1       2.973   8.476  22.742  1.00  0.00     0.014 C 
ATOM     29  C   UNL     1       3.311   6.826  24.539  1.00  0.00     0.014 C 
ENDROOT
BRANCH   1  30
ATOM     30  C   UNL     1      12.860   8.448  20.649  1.00  0.00     0.048 C 
ATOM     31  O   UNL     1      13.470   8.141  21.709  1.00  0.00    -0.550 OA
ATOM     32  O   UNL     1      13.371   9.476  19.865  1.00  0.00    -0.550 OA
ENDBRANCH   1  30
BRANCH  27  33
ATOM     33  O   UNL     1       2.411   9.863  25.039  1.00  0.00    -0.393 OA
ATOM     34  H   UNL     1       2.437  10.708  25.561  1.00  0.00     0.210 HD
ENDBRANCH  27  33
TORSDOF 2
ENDMDL
MODEL 5
REMARK VINA RESULT:    -8.430      1.699      2.245
REMARK INTER + INTRA:          -9.438
REMARK INTER:                  -9.172
REMARK INTRA:                  -0.266
REMARK UNBOUND:                -0.270
REMARK SMILES C[C@H]1[C@H](C)CC[C@@]2(C(=O)[O-])CC[C@]3(C)C(=CC[C@@H]4[C@@]5(C)CC[C@@H](O)C(C)(C)[C@H]5CC[C@@]43C)[C@@H]12
REMARK SMILES IDX 7 1 6 2 11 3 33 4 5 5 12 6 15 7 2 8 3 9 13 10 16 11 1 12
REMARK SMILES IDX 4 13 14 14 31 15 17 16 18 17 30 18 32 19 19 20 29 21 28 22
REMARK SMILES IDX 21 23 20 24 25 25 22 26 23 27 26 28 27 29 8 30 9 31 10 32
REMARK SMILES IDX 24 33
REMARK H PARENT 24 34
REMARK Flexibility Score: inf
ROOT
ATOM      1  C   UNL     1      11.405   8.073  22.181  1.00  0.00     0.017 C 
ATOM      2  C   UNL     1      12.502   8.806  21.351  1.00  0.00     0.014 C 
ATOM      3  C   UNL     1      10.987   8.999  23.342  1.00  0.00     0.014 C 
ATOM      4  C   UNL     1      10.123   7.742  21.316  1.00  0.00     0.030 C 
ATOM      5  C   UNL     1      12.543   8.304  19.911  1.00  0.00     0.004 C 
ATOM      6  C   UNL     1      10.022   8.329  24.320  1.00  0.00     0.013 C 
ATOM      7  C   UNL     1       8.815   7.623  22.140  1.00  0.00    -0.063 C 
ATOM      8  C   UNL     1       9.977   8.681  20.057  1.00  0.00    -0.003 C 
ATOM      9  C   UNL     1      11.257   8.688  19.152  1.00  0.00    -0.011 C 
ATOM     10  C   UNL     1       8.784   7.577  23.680  1.00  0.00    -0.006 C 
ATOM     11  C   UNL     1       7.703   7.250  21.479  1.00  0.00    -0.027 C 
ATOM     12  C   UNL     1       9.525  10.117  20.389  1.00  0.00     0.008 C 
ATOM     13  C   UNL     1      11.086   7.771  17.930  1.00  0.00     0.008 C 
ATOM     14  C   UNL     1       8.944   6.064  24.035  1.00  0.00     0.017 C 
ATOM     15  C   UNL     1       7.382   8.138  24.258  1.00  0.00    -0.020 C 
ATOM     16  C   UNL     1       6.318   7.344  22.033  1.00  0.00     0.032 C 
ATOM     17  C   UNL     1       6.146   7.404  23.585  1.00  0.00     0.006 C 
ATOM     18  C   UNL     1       7.226   9.650  23.938  1.00  0.00     0.008 C 
ATOM     19  C   UNL     1       7.374   7.921  25.811  1.00  0.00     0.012 C 
ATOM     20  C   UNL     1       4.686   7.969  23.967  1.00  0.00    -0.025 C 
ATOM     21  C   UNL     1       5.896  10.251  24.399  1.00  0.00     0.005 C 
ATOM     22  C   UNL     1       4.625   9.557  23.821  1.00  0.00     0.003 C 
ATOM     23  C   UNL     1       4.235   7.478  25.397  1.00  0.00     0.010 C 
ATOM     24  C   UNL     1       3.648   7.330  22.980  1.00  0.00     0.012 C 
ATOM     25  C   UNL     1       3.257  10.233  24.337  1.00  0.00    -0.006 C 
ATOM     26  C   UNL     1       3.577   8.553  26.272  1.00  0.00     0.033 C 
ATOM     27  C   UNL     1       2.565   9.371  25.459  1.00  0.00     0.120 C 
ATOM     28  C   UNL     1       3.474  11.690  24.851  1.00  0.00     0.014 C 
ATOM     29  C   UNL     1       2.267  10.382  23.149  1.00  0.00     0.014 C 
ENDROOT
BRANCH   1  30
ATOM     30  C   UNL     1      12.063   6.806  22.730  1.00  0.00     0.048 C 
ATOM     31  O   UNL     1      11.789   5.671  22.255  1.00  0.00    -0.550 OA
ATOM     32  O   UNL     1      13.079   6.900  23.676  1.00  0.00    -0.550 OA
ENDBRANCH   1  30
BRANCH  27  33
ATOM     33  O   UNL     1       1.740  10.142  26.304  1.00  0.00    -0.393 OA
ATOM     34  H   UNL     1       1.221  10.776  25.743  1.00  0.00     0.210 HD
ENDBRANCH  27  33
TORSDOF 2
ENDMDL
MODEL 6
REMARK VINA RESULT:    -8.429      1.609      7.801
REMARK INTER + INTRA:          -9.437
REMARK INTER:                  -9.168
REMARK INTRA:                  -0.269
REMARK UNBOUND:                -0.270
REMARK SMILES C[C@H]1[C@H](C)CC[C@@]2(C(=O)[O-])CC[C@]3(C)C(=CC[C@@H]4[C@@]5(C)CC[C@@H](O)C(C)(C)[C@H]5CC[C@@]43C)[C@@H]12
REMARK SMILES IDX 7 1 6 2 11 3 33 4 5 5 12 6 15 7 2 8 3 9 13 10 16 11 1 12
REMARK SMILES IDX 4 13 14 14 31 15 17 16 18 17 30 18 32 19 19 20 29 21 28 22
REMARK SMILES IDX 21 23 20 24 25 25 22 26 23 27 26 28 27 29 8 30 9 31 10 32
REMARK SMILES IDX 24 33
REMARK H PARENT 24 34
REMARK Flexibility Score: inf
ROOT
ATOM      1  C   UNL     1       2.714   7.712  24.429  1.00  0.00     0.017 C 
ATOM      2  C   UNL     1       1.252   8.255  24.382  1.00  0.00     0.014 C 
ATOM      3  C   UNL     1       3.230   7.606  22.979  1.00  0.00     0.014 C 
ATOM      4  C   UNL     1       3.680   8.668  25.236  1.00  0.00     0.030 C 
ATOM      5  C   UNL     1       0.875   8.959  25.682  1.00  0.00     0.004 C 
ATOM      6  C   UNL     1       4.602   6.941  22.882  1.00  0.00     0.013 C 
ATOM      7  C   UNL     1       5.168   8.572  24.813  1.00  0.00    -0.063 C 
ATOM      8  C   UNL     1       3.152  10.153  25.307  1.00  0.00    -0.003 C 
ATOM      9  C   UNL     1       1.692  10.253  25.869  1.00  0.00    -0.011 C 
ATOM     10  C   UNL     1       5.714   7.478  23.874  1.00  0.00    -0.006 C 
ATOM     11  C   UNL     1       6.058   9.288  25.525  1.00  0.00    -0.027 C 
ATOM     12  C   UNL     1       3.293  10.936  23.987  1.00  0.00     0.008 C 
ATOM     13  C   UNL     1       1.688  10.654  27.353  1.00  0.00     0.008 C 
ATOM     14  C   UNL     1       6.083   6.291  24.821  1.00  0.00     0.017 C 
ATOM     15  C   UNL     1       7.027   7.984  23.079  1.00  0.00    -0.020 C 
ATOM     16  C   UNL     1       7.471   9.537  25.106  1.00  0.00     0.032 C 
ATOM     17  C   UNL     1       8.121   8.554  24.078  1.00  0.00     0.006 C 
ATOM     18  C   UNL     1       6.666   9.145  22.112  1.00  0.00     0.008 C 
ATOM     19  C   UNL     1       7.601   6.774  22.265  1.00  0.00     0.012 C 
ATOM     20  C   UNL     1       9.422   9.226  23.405  1.00  0.00    -0.025 C 
ATOM     21  C   UNL     1       7.865   9.726  21.360  1.00  0.00     0.005 C 
ATOM     22  C   UNL     1       9.011  10.267  22.268  1.00  0.00     0.003 C 
ATOM     23  C   UNL     1      10.430   8.130  22.882  1.00  0.00     0.010 C 
ATOM     24  C   UNL     1      10.208   9.987  24.528  1.00  0.00     0.012 C 
ATOM     25  C   UNL     1      10.243  10.869  21.424  1.00  0.00    -0.006 C 
ATOM     26  C   UNL     1      11.030   8.411  21.499  1.00  0.00     0.033 C 
ATOM     27  C   UNL     1      11.467   9.878  21.384  1.00  0.00     0.120 C 
ATOM     28  C   UNL     1       9.831  11.256  19.969  1.00  0.00     0.014 C 
ATOM     29  C   UNL     1      10.713  12.205  22.063  1.00  0.00     0.014 C 
ENDROOT
BRANCH   1  30
ATOM     30  C   UNL     1       2.630   6.321  25.059  1.00  0.00     0.048 C 
ATOM     31  O   UNL     1       2.978   6.127  26.255  1.00  0.00    -0.550 OA
ATOM     32  O   UNL     1       2.041   5.272  24.362  1.00  0.00    -0.550 OA
ENDBRANCH   1  30
BRANCH  27  33
ATOM     33  O   UNL     1      12.288  10.075  20.256  1.00  0.00    -0.393 OA
ATOM     34  H   UNL     1      11.906  10.815  19.714  1.00  0.00     0.210 HD
ENDBRANCH  27  33
TORSDOF 2
ENDMDL
MODEL 7
REMARK VINA RESULT:    -8.251      2.728      5.554
REMARK INTER + INTRA:          -9.244
REMARK INTER:                  -9.379
REMARK INTRA:                   0.134
REMARK UNBOUND:                -0.270
REMARK SMILES C[C@H]1[C@H](C)CC[C@@]2(C(=O)[O-])CC[C@]3(C)C(=CC[C@@H]4[C@@]5(C)CC[C@@H](O)C(C)(C)[C@H]5CC[C@@]43C)[C@@H]12
REMARK SMILES IDX 7 1 6 2 11 3 33 4 5 5 12 6 15 7 2 8 3 9 13 10 16 11 1 12
REMARK SMILES IDX 4 13 14 14 31 15 17 16 18 17 30 18 32 19 19 20 29 21 28 22
REMARK SMILES IDX 21 23 20 24 25 25 22 26 23 27 26 28 27 29 8 30 9 31 10 32
REMARK SMILES IDX 24 33
REMARK H PARENT 24 34
REMARK Flexibility Score: inf
ROOT
ATOM      1  C   UNL     1      12.107   7.054  18.988  1.00  0.00     0.017 C 
ATOM      2  C   UNL     1      12.326   5.766  18.136  1.00  0.00     0.014 C 
ATOM      3  C   UNL     1      10.729   7.641  18.620  1.00  0.00     0.014 C 
ATOM      4  C   UNL     1      12.128   6.754  20.539  1.00  0.00     0.030 C 
ATOM      5  C   UNL     1      13.299   4.806  18.812  1.00  0.00     0.004 C 
ATOM      6  C   UNL     1      10.462   8.993  19.279  1.00  0.00     0.013 C 
ATOM      7  C   UNL     1      11.322   7.767  21.393  1.00  0.00    -0.063 C 
ATOM      8  C   UNL     1      11.784   5.251  20.876  1.00  0.00    -0.003 C 
ATOM      9  C   UNL     1      12.700   4.233  20.112  1.00  0.00    -0.011 C 
ATOM     10  C   UNL     1      10.757   9.087  20.833  1.00  0.00    -0.006 C 
ATOM     11  C   UNL     1      11.375   7.625  22.731  1.00  0.00    -0.027 C 
ATOM     12  C   UNL     1      10.295   4.891  20.708  1.00  0.00     0.008 C 
ATOM     13  C   UNL     1      13.830   3.709  21.013  1.00  0.00     0.008 C 
ATOM     14  C   UNL     1      11.916  10.120  21.010  1.00  0.00     0.017 C 
ATOM     15  C   UNL     1       9.453   9.568  21.659  1.00  0.00    -0.020 C 
ATOM     16  C   UNL     1      10.465   8.318  23.691  1.00  0.00     0.032 C 
ATOM     17  C   UNL     1       9.747   9.624  23.217  1.00  0.00     0.006 C 
ATOM     18  C   UNL     1       8.284   8.563  21.465  1.00  0.00     0.008 C 
ATOM     19  C   UNL     1       9.032  10.981  21.126  1.00  0.00     0.012 C 
ATOM     20  C   UNL     1       8.487   9.949  24.170  1.00  0.00    -0.025 C 
ATOM     21  C   UNL     1       7.025   8.911  22.262  1.00  0.00     0.005 C 
ATOM     22  C   UNL     1       7.234   9.033  23.802  1.00  0.00     0.003 C 
ATOM     23  C   UNL     1       8.135  11.488  24.152  1.00  0.00     0.010 C 
ATOM     24  C   UNL     1       8.913   9.654  25.650  1.00  0.00     0.012 C 
ATOM     25  C   UNL     1       5.876   9.397  24.589  1.00  0.00    -0.006 C 
ATOM     26  C   UNL     1       6.638  11.807  24.060  1.00  0.00     0.033 C 
ATOM     27  C   UNL     1       5.832  10.913  25.013  1.00  0.00     0.120 C 
ATOM     28  C   UNL     1       4.600   9.044  23.761  1.00  0.00     0.014 C 
ATOM     29  C   UNL     1       5.763   8.524  25.869  1.00  0.00     0.014 C 
ENDROOT
BRANCH   1  30
ATOM     30  C   UNL     1      13.217   8.025  18.580  1.00  0.00     0.048 C 
ATOM     31  O   UNL     1      13.913   8.619  19.448  1.00  0.00    -0.550 OA
ATOM     32  O   UNL     1      13.565   8.167  17.242  1.00  0.00    -0.550 OA
ENDBRANCH   1  30
BRANCH  27  33
ATOM     33  O   UNL     1       4.517  11.395  25.169  1.00  0.00    -0.393 OA
ATOM     34  H   UNL     1       4.060  10.845  25.859  1.00  0.00     0.210 HD
ENDBRANCH  27  33
TORSDOF 2
ENDMDL
MODEL 8
REMARK VINA RESULT:    -8.125      1.697      8.024
REMARK INTER + INTRA:          -9.108
REMARK INTER:                  -8.848
REMARK INTRA:                  -0.259
REMARK UNBOUND:                -0.270
REMARK SMILES C[C@H]1[C@H](C)CC[C@@]2(C(=O)[O-])CC[C@]3(C)C(=CC[C@@H]4[C@@]5(C)CC[C@@H](O)C(C)(C)[C@H]5CC[C@@]43C)[C@@H]12
REMARK SMILES IDX 7 1 6 2 11 3 33 4 5 5 12 6 15 7 2 8 3 9 13 10 16 11 1 12
REMARK SMILES IDX 4 13 14 14 31 15 17 16 18 17 30 18 32 19 19 20 29 21 28 22
REMARK SMILES IDX 21 23 20 24 25 25 22 26 23 27 26 28 27 29 8 30 9 31 10 32
REMARK SMILES IDX 24 33
REMARK H PARENT 24 34
REMARK Flexibility Score: inf
ROOT
ATOM      1  C   UNL     1       3.014   8.527  25.440  1.00  0.00     0.017 C 
ATOM      2  C   UNL     1       1.986   7.718  26.289  1.00  0.00     0.014 C 
ATOM      3  C   UNL     1       4.282   8.734  26.295  1.00  0.00     0.014 C 
ATOM      4  C   UNL     1       3.421   7.769  24.115  1.00  0.00     0.030 C 
ATOM      5  C   UNL     1       1.010   6.951  25.404  1.00  0.00     0.004 C 
ATOM      6  C   UNL     1       5.309   9.647  25.627  1.00  0.00     0.013 C 
ATOM      7  C   UNL     1       4.824   8.146  23.572  1.00  0.00    -0.063 C 
ATOM      8  C   UNL     1       3.194   6.211  24.207  1.00  0.00    -0.003 C 
ATOM      9  C   UNL     1       1.730   5.834  24.621  1.00  0.00    -0.011 C 
ATOM     10  C   UNL     1       5.653   9.327  24.115  1.00  0.00    -0.006 C 
ATOM     11  C   UNL     1       5.195   7.608  22.395  1.00  0.00    -0.027 C 
ATOM     12  C   UNL     1       4.225   5.473  25.083  1.00  0.00     0.008 C 
ATOM     13  C   UNL     1       0.885   5.434  23.401  1.00  0.00     0.008 C 
ATOM     14  C   UNL     1       5.185  10.559  23.275  1.00  0.00     0.017 C 
ATOM     15  C   UNL     1       7.237   9.081  23.904  1.00  0.00    -0.020 C 
ATOM     16  C   UNL     1       6.588   7.633  21.855  1.00  0.00     0.032 C 
ATOM     17  C   UNL     1       7.569   8.725  22.393  1.00  0.00     0.006 C 
ATOM     18  C   UNL     1       7.720   7.876  24.758  1.00  0.00     0.008 C 
ATOM     19  C   UNL     1       7.995  10.381  24.344  1.00  0.00     0.012 C 
ATOM     20  C   UNL     1       9.095   8.313  22.075  1.00  0.00    -0.025 C 
ATOM     21  C   UNL     1       9.201   7.535  24.573  1.00  0.00     0.005 C 
ATOM     22  C   UNL     1       9.624   7.217  23.107  1.00  0.00     0.003 C 
ATOM     23  C   UNL     1      10.031   9.583  22.011  1.00  0.00     0.010 C 
ATOM     24  C   UNL     1       9.141   7.711  20.628  1.00  0.00     0.012 C 
ATOM     25  C   UNL     1      11.189   6.862  22.973  1.00  0.00    -0.006 C 
ATOM     26  C   UNL     1      11.383   9.425  22.720  1.00  0.00     0.033 C 
ATOM     27  C   UNL     1      12.016   8.067  22.386  1.00  0.00     0.120 C 
ATOM     28  C   UNL     1      11.812   6.409  24.331  1.00  0.00     0.014 C 
ATOM     29  C   UNL     1      11.370   5.637  22.035  1.00  0.00     0.014 C 
ENDROOT
BRANCH   1  30
ATOM     30  C   UNL     1       2.354   9.875  25.146  1.00  0.00     0.048 C 
ATOM     31  O   UNL     1       1.818  10.107  24.029  1.00  0.00    -0.550 OA
ATOM     32  O   UNL     1       2.216  10.821  26.156  1.00  0.00    -0.550 OA
ENDBRANCH   1  30
BRANCH  27  33
ATOM     33  O   UNL     1      13.372   8.033  22.768  1.00  0.00    -0.393 OA
ATOM     34  H   UNL     1      13.920   7.824  21.966  1.00  0.00     0.210 HD
ENDBRANCH  27  33
TORSDOF 2
ENDMDL
MODEL 9
REMARK VINA RESULT:    -8.054      2.101      7.721
REMARK INTER + INTRA:          -9.030
REMARK INTER:                  -8.761
REMARK INTRA:                  -0.269
REMARK UNBOUND:                -0.270
REMARK SMILES C[C@H]1[C@H](C)CC[C@@]2(C(=O)[O-])CC[C@]3(C)C(=CC[C@@H]4[C@@]5(C)CC[C@@H](O)C(C)(C)[C@H]5CC[C@@]43C)[C@@H]12
REMARK SMILES IDX 7 1 6 2 11 3 33 4 5 5 12 6 15 7 2 8 3 9 13 10 16 11 1 12
REMARK SMILES IDX 4 13 14 14 31 15 17 16 18 17 30 18 32 19 19 20 29 21 28 22
REMARK SMILES IDX 21 23 20 24 25 25 22 26 23 27 26 28 27 29 8 30 9 31 10 32
REMARK SMILES IDX 24 33
REMARK H PARENT 24 34
REMARK Flexibility Score: inf
ROOT
ATOM      1  C   UNL     1       2.985   6.019  23.583  1.00  0.00     0.017 C 
ATOM      2  C   UNL     1       1.458   6.320  23.489  1.00  0.00     0.014 C 
ATOM      3  C   UNL     1       3.605   6.260  22.192  1.00  0.00     0.014 C 
ATOM      4  C   UNL     1       3.715   6.955  24.627  1.00  0.00     0.030 C 
ATOM      5  C   UNL     1       0.879   6.709  24.846  1.00  0.00     0.004 C 
ATOM      6  C   UNL     1       5.076   5.851  22.116  1.00  0.00     0.013 C 
ATOM      7  C   UNL     1       5.222   7.176  24.337  1.00  0.00    -0.063 C 
ATOM      8  C   UNL     1       2.933   8.299  24.893  1.00  0.00    -0.003 C 
ATOM      9  C   UNL     1       1.445   8.062  25.323  1.00  0.00    -0.011 C 
ATOM     10  C   UNL     1       6.010   6.371  23.285  1.00  0.00    -0.006 C 
ATOM     11  C   UNL     1       5.925   7.886  25.239  1.00  0.00    -0.027 C 
ATOM     12  C   UNL     1       3.022   9.320  23.742  1.00  0.00     0.008 C 
ATOM     13  C   UNL     1       1.273   8.183  26.846  1.00  0.00     0.008 C 
ATOM     14  C   UNL     1       6.517   5.107  24.052  1.00  0.00     0.017 C 
ATOM     15  C   UNL     1       7.264   7.216  22.714  1.00  0.00    -0.020 C 
ATOM     16  C   UNL     1       7.298   8.428  25.005  1.00  0.00     0.032 C 
ATOM     17  C   UNL     1       8.174   7.763  23.894  1.00  0.00     0.006 C 
ATOM     18  C   UNL     1       6.771   8.458  21.924  1.00  0.00     0.008 C 
ATOM     19  C   UNL     1       8.092   6.279  21.768  1.00  0.00     0.012 C 
ATOM     20  C   UNL     1       9.380   8.745  23.468  1.00  0.00    -0.025 C 
ATOM     21  C   UNL     1       7.897   9.350  21.397  1.00  0.00     0.005 C 
ATOM     22  C   UNL     1       8.870   9.895  22.487  1.00  0.00     0.003 C 
ATOM     23  C   UNL     1      10.596   7.936  22.868  1.00  0.00     0.010 C 
ATOM     24  C   UNL     1       9.947   9.407  24.772  1.00  0.00     0.012 C 
ATOM     25  C   UNL     1      10.031  10.828  21.876  1.00  0.00    -0.006 C 
ATOM     26  C   UNL     1      11.227   8.554  21.614  1.00  0.00     0.033 C 
ATOM     27  C   UNL     1      11.408  10.068  21.787  1.00  0.00     0.120 C 
ATOM     28  C   UNL     1       9.654  11.400  20.473  1.00  0.00     0.014 C 
ATOM     29  C   UNL     1      10.218  12.084  22.771  1.00  0.00     0.014 C 
ENDROOT
BRANCH   1  30
ATOM     30  C   UNL     1       3.103   4.542  23.962  1.00  0.00     0.048 C 
ATOM     31  O   UNL     1       3.416   4.193  25.133  1.00  0.00    -0.550 OA
ATOM     32  O   UNL     1       2.735   3.555  23.053  1.00  0.00    -0.550 OA
ENDBRANCH   1  30
BRANCH  27  33
ATOM     33  O   UNL     1      12.255  10.595  20.792  1.00  0.00    -0.393 OA
ATOM     34  H   UNL     1      12.807  11.316  21.196  1.00  0.00     0.210 HD
ENDBRANCH  27  33
TORSDOF 2
ENDMDL
