MODEL 1
REMARK VINA RESULT:    -4.064      0.000      0.000
REMARK INTER + INTRA:         -10.425
REMARK INTER:                  -7.866
REMARK INTRA:                  -2.559
REMARK UNBOUND:                -2.559
REMARK SMILES CCCCCCCCCCCCCCCCCC(=O)[O-]
REMARK SMILES IDX 10 1 11 2 12 3 13 4 14 5 15 6 16 7 17 8 18 9 19 10 20 11
REMARK SMILES IDX 9 12 8 13 7 14 6 15 5 16 4 17 3 18 2 19 1 20
REMARK H PARENT
REMARK Flexibility Score: inf
ROOT
ATOM      1  C   UNL     1      43.978  57.673  45.005  1.00  0.00     0.000 C 
ENDROOT
BRANCH   1   2
ATOM      2  C   UNL     1      44.127  58.120  46.469  1.00  0.00     0.000 C 
BRANCH   2   3
ATOM      3  C   UNL     1      44.150  56.940  47.459  1.00  0.00     0.000 C 
BRANCH   3   4
ATOM      4  C   UNL     1      45.539  56.568  48.012  1.00  0.00     0.000 C 
BRANCH   4   5
ATOM      5  C   UNL     1      46.189  57.705  48.819  1.00  0.00     0.000 C 
BRANCH   5   6
ATOM      6  C   UNL     1      45.283  58.238  49.944  1.00  0.00     0.000 C 
BRANCH   6   7
ATOM      7  C   UNL     1      45.276  59.771  50.116  1.00  0.00     0.006 C 
BRANCH   7   8
ATOM      8  C   UNL     1      45.606  60.561  48.840  1.00  0.00     0.053 C 
BRANCH   8   9
ATOM      9  C   UNL     1      45.275  62.015  48.979  1.00  0.00     0.041 C 
ATOM     10  O   UNL     1      44.255  62.373  49.625  1.00  0.00    -0.550 OA
ATOM     11  O   UNL     1      46.111  62.976  48.426  1.00  0.00    -0.550 OA
ENDBRANCH   8   9
ENDBRANCH   7   8
ENDBRANCH   6   7
ENDBRANCH   5   6
ENDBRANCH   4   5
ENDBRANCH   3   4
ENDBRANCH   2   3
ENDBRANCH   1   2
BRANCH   1  12
ATOM     12  C   UNL     1      42.562  57.169  44.683  1.00  0.00     0.000 C 
BRANCH  12  13
ATOM     13  C   UNL     1      41.466  57.986  45.392  1.00  0.00    -0.000 C 
BRANCH  13  14
ATOM     14  C   UNL     1      40.288  57.117  45.863  1.00  0.00    -0.000 C 
BRANCH  14  15
ATOM     15  C   UNL     1      40.428  56.677  47.330  1.00  0.00    -0.000 C 
BRANCH  15  16
ATOM     16  C   UNL     1      39.435  57.389  48.267  1.00  0.00    -0.000 C 
BRANCH  16  17
ATOM     17  C   UNL     1      40.064  58.082  49.489  1.00  0.00    -0.000 C 
BRANCH  17  18
ATOM     18  C   UNL     1      41.578  58.306  49.339  1.00  0.00    -0.000 C 
BRANCH  18  19
ATOM     19  C   UNL     1      41.948  59.797  49.273  1.00  0.00    -0.003 C 
ATOM     20  C   UNL     1      41.898  60.359  47.853  1.00  0.00     0.004 C 
ENDBRANCH  18  19
ENDBRANCH  17  18
ENDBRANCH  16  17
ENDBRANCH  15  16
ENDBRANCH  14  15
ENDBRANCH  13  14
ENDBRANCH  12  13
ENDBRANCH   1  12
TORSDOF 16
ENDMDL
MODEL 2
REMARK VINA RESULT:    -4.028      0.841      3.816
REMARK INTER + INTRA:         -10.354
REMARK INTER:                  -8.197
REMARK INTRA:                  -2.156
REMARK UNBOUND:                -2.559
REMARK SMILES CCCCCCCCCCCCCCCCCC(=O)[O-]
REMARK SMILES IDX 10 1 11 2 12 3 13 4 14 5 15 6 16 7 17 8 18 9 19 10 20 11
REMARK SMILES IDX 9 12 8 13 7 14 6 15 5 16 4 17 3 18 2 19 1 20
REMARK H PARENT
REMARK Flexibility Score: inf
ROOT
ATOM      1  C   UNL     1      40.511  56.805  47.353  1.00  0.00     0.000 C 
ENDROOT
BRANCH   1   2
ATOM      2  C   UNL     1      39.604  57.547  48.349  1.00  0.00     0.000 C 
BRANCH   2   3
ATOM      3  C   UNL     1      40.362  58.060  49.588  1.00  0.00     0.000 C 
BRANCH   3   4
ATOM      4  C   UNL     1      41.761  58.643  49.313  1.00  0.00     0.000 C 
BRANCH   4   5
ATOM      5  C   UNL     1      41.726  59.883  48.401  1.00  0.00     0.000 C 
BRANCH   5   6
ATOM      6  C   UNL     1      41.865  61.204  49.179  1.00  0.00     0.000 C 
BRANCH   6   7
ATOM      7  C   UNL     1      43.302  61.570  49.607  1.00  0.00     0.006 C 
BRANCH   7   8
ATOM      8  C   UNL     1      44.378  61.289  48.547  1.00  0.00     0.053 C 
BRANCH   8   9
ATOM      9  C   UNL     1      45.693  61.910  48.905  1.00  0.00     0.041 C 
ATOM     10  O   UNL     1      46.121  62.902  48.258  1.00  0.00    -0.550 OA
ATOM     11  O   UNL     1      46.430  61.417  49.973  1.00  0.00    -0.550 OA
ENDBRANCH   8   9
ENDBRANCH   7   8
ENDBRANCH   6   7
ENDBRANCH   5   6
ENDBRANCH   4   5
ENDBRANCH   3   4
ENDBRANCH   2   3
ENDBRANCH   1   2
BRANCH   1  12
ATOM     12  C   UNL     1      40.255  57.225  45.896  1.00  0.00     0.000 C 
BRANCH  12  13
ATOM     13  C   UNL     1      41.424  58.029  45.296  1.00  0.00    -0.000 C 
BRANCH  13  14
ATOM     14  C   UNL     1      42.561  57.129  44.784  1.00  0.00    -0.000 C 
BRANCH  14  15
ATOM     15  C   UNL     1      43.953  57.723  45.058  1.00  0.00    -0.000 C 
BRANCH  15  16
ATOM     16  C   UNL     1      44.152  58.133  46.528  1.00  0.00    -0.000 C 
BRANCH  16  17
ATOM     17  C   UNL     1      44.157  56.973  47.541  1.00  0.00    -0.000 C 
BRANCH  17  18
ATOM     18  C   UNL     1      45.560  56.664  48.091  1.00  0.00    -0.000 C 
BRANCH  18  19
ATOM     19  C   UNL     1      46.162  57.847  48.865  1.00  0.00    -0.003 C 
ATOM     20  C   UNL     1      45.305  58.275  50.057  1.00  0.00     0.004 C 
ENDBRANCH  18  19
ENDBRANCH  17  18
ENDBRANCH  16  17
ENDBRANCH  15  16
ENDBRANCH  14  15
ENDBRANCH  13  14
ENDBRANCH  12  13
ENDBRANCH   1  12
TORSDOF 16
ENDMDL
MODEL 3
REMARK VINA RESULT:    -4.005      0.946      4.143
REMARK INTER + INTRA:         -10.310
REMARK INTER:                  -8.269
REMARK INTRA:                  -2.041
REMARK UNBOUND:                -2.559
REMARK SMILES CCCCCCCCCCCCCCCCCC(=O)[O-]
REMARK SMILES IDX 10 1 11 2 12 3 13 4 14 5 15 6 16 7 17 8 18 9 19 10 20 11
REMARK SMILES IDX 9 12 8 13 7 14 6 15 5 16 4 17 3 18 2 19 1 20
REMARK H PARENT
REMARK Flexibility Score: inf
ROOT
ATOM      1  C   UNL     1      41.522  58.106  45.362  1.00  0.00     0.000 C 
ENDROOT
BRANCH   1   2
ATOM      2  C   UNL     1      40.266  57.373  45.862  1.00  0.00     0.000 C 
BRANCH   2   3
ATOM      3  C   UNL     1      40.440  56.771  47.270  1.00  0.00     0.000 C 
BRANCH   3   4
ATOM      4  C   UNL     1      39.468  57.301  48.340  1.00  0.00     0.000 C 
BRANCH   4   5
ATOM      5  C   UNL     1      40.181  58.044  49.484  1.00  0.00     0.000 C 
BRANCH   5   6
ATOM      6  C   UNL     1      41.588  58.534  49.097  1.00  0.00     0.000 C 
BRANCH   6   7
ATOM      7  C   UNL     1      41.651  59.952  48.492  1.00  0.00     0.006 C 
BRANCH   7   8
ATOM      8  C   UNL     1      43.066  60.437  48.142  1.00  0.00     0.053 C 
BRANCH   8   9
ATOM      9  C   UNL     1      43.649  61.294  49.223  1.00  0.00     0.041 C 
ATOM     10  O   UNL     1      42.942  61.641  50.206  1.00  0.00    -0.550 OA
ATOM     11  O   UNL     1      44.981  61.683  49.163  1.00  0.00    -0.550 OA
ENDBRANCH   8   9
ENDBRANCH   7   8
ENDBRANCH   6   7
ENDBRANCH   5   6
ENDBRANCH   4   5
ENDBRANCH   3   4
ENDBRANCH   2   3
ENDBRANCH   1   2
BRANCH   1  12
ATOM     12  C   UNL     1      42.440  57.200  44.525  1.00  0.00     0.000 C 
BRANCH  12  13
ATOM     13  C   UNL     1      43.921  57.321  44.928  1.00  0.00    -0.000 C 
BRANCH  13  14
ATOM     14  C   UNL     1      44.106  57.896  46.342  1.00  0.00    -0.000 C 
BRANCH  14  15
ATOM     15  C   UNL     1      44.126  56.805  47.426  1.00  0.00    -0.000 C 
BRANCH  15  16
ATOM     16  C   UNL     1      45.536  56.539  47.983  1.00  0.00    -0.000 C 
BRANCH  16  17
ATOM     17  C   UNL     1      46.163  57.702  48.774  1.00  0.00    -0.000 C 
BRANCH  17  18
ATOM     18  C   UNL     1      45.235  58.249  49.872  1.00  0.00    -0.000 C 
BRANCH  18  19
ATOM     19  C   UNL     1      46.012  58.766  51.093  1.00  0.00    -0.003 C 
ATOM     20  C   UNL     1      45.685  57.997  52.373  1.00  0.00     0.004 C 
ENDBRANCH  18  19
ENDBRANCH  17  18
ENDBRANCH  16  17
ENDBRANCH  15  16
ENDBRANCH  14  15
ENDBRANCH  13  14
ENDBRANCH  12  13
ENDBRANCH   1  12
TORSDOF 16
ENDMDL
MODEL 4
REMARK VINA RESULT:    -3.951      0.655      2.345
REMARK INTER + INTRA:         -10.204
REMARK INTER:                  -7.736
REMARK INTRA:                  -2.469
REMARK UNBOUND:                -2.559
REMARK SMILES CCCCCCCCCCCCCCCCCC(=O)[O-]
REMARK SMILES IDX 10 1 11 2 12 3 13 4 14 5 15 6 16 7 17 8 18 9 19 10 20 11
REMARK SMILES IDX 9 12 8 13 7 14 6 15 5 16 4 17 3 18 2 19 1 20
REMARK H PARENT
REMARK Flexibility Score: inf
ROOT
ATOM      1  C   UNL     1      42.803  57.736  45.438  1.00  0.00     0.000 C 
ENDROOT
BRANCH   1   2
ATOM      2  C   UNL     1      44.146  57.751  46.186  1.00  0.00     0.000 C 
BRANCH   2   3
ATOM      3  C   UNL     1      44.150  56.851  47.436  1.00  0.00     0.000 C 
BRANCH   3   4
ATOM      4  C   UNL     1      45.542  56.452  47.960  1.00  0.00     0.000 C 
BRANCH   4   5
ATOM      5  C   UNL     1      46.231  57.576  48.753  1.00  0.00     0.000 C 
BRANCH   5   6
ATOM      6  C   UNL     1      45.336  58.166  49.859  1.00  0.00     0.000 C 
BRANCH   6   7
ATOM      7  C   UNL     1      45.429  59.696  50.037  1.00  0.00     0.006 C 
BRANCH   7   8
ATOM      8  C   UNL     1      45.327  60.500  48.732  1.00  0.00     0.053 C 
BRANCH   8   9
ATOM      9  C   UNL     1      45.151  61.965  48.989  1.00  0.00     0.041 C 
ATOM     10  O   UNL     1      44.159  62.379  49.645  1.00  0.00    -0.550 OA
ATOM     11  O   UNL     1      46.099  62.872  48.533  1.00  0.00    -0.550 OA
ENDBRANCH   8   9
ENDBRANCH   7   8
ENDBRANCH   6   7
ENDBRANCH   5   6
ENDBRANCH   4   5
ENDBRANCH   3   4
ENDBRANCH   2   3
ENDBRANCH   1   2
BRANCH   1  12
ATOM     12  C   UNL     1      41.906  58.926  45.815  1.00  0.00     0.000 C 
BRANCH  12  13
ATOM     13  C   UNL     1      42.577  59.882  46.820  1.00  0.00    -0.000 C 
BRANCH  13  14
ATOM     14  C   UNL     1      41.672  60.215  48.017  1.00  0.00    -0.000 C 
BRANCH  14  15
ATOM     15  C   UNL     1      42.055  59.432  49.283  1.00  0.00    -0.000 C 
BRANCH  15  16
ATOM     16  C   UNL     1      41.444  58.020  49.324  1.00  0.00    -0.000 C 
BRANCH  16  17
ATOM     17  C   UNL     1      39.905  57.967  49.307  1.00  0.00    -0.000 C 
BRANCH  17  18
ATOM     18  C   UNL     1      39.342  57.300  48.040  1.00  0.00    -0.000 C 
BRANCH  18  19
ATOM     19  C   UNL     1      40.330  56.304  47.412  1.00  0.00    -0.003 C 
ATOM     20  C   UNL     1      39.663  54.998  46.982  1.00  0.00     0.004 C 
ENDBRANCH  18  19
ENDBRANCH  17  18
ENDBRANCH  16  17
ENDBRANCH  15  16
ENDBRANCH  14  15
ENDBRANCH  13  14
ENDBRANCH  12  13
ENDBRANCH   1  12
TORSDOF 16
ENDMDL
MODEL 5
REMARK VINA RESULT:    -3.943      1.680      3.147
REMARK INTER + INTRA:         -10.189
REMARK INTER:                  -8.015
REMARK INTRA:                  -2.174
REMARK UNBOUND:                -2.559
REMARK SMILES CCCCCCCCCCCCCCCCCC(=O)[O-]
REMARK SMILES IDX 10 1 11 2 12 3 13 4 14 5 15 6 16 7 17 8 18 9 19 10 20 11
REMARK SMILES IDX 9 12 8 13 7 14 6 15 5 16 4 17 3 18 2 19 1 20
REMARK H PARENT
REMARK Flexibility Score: inf
ROOT
ATOM      1  C   UNL     1      41.302  57.860  45.390  1.00  0.00     0.000 C 
ENDROOT
BRANCH   1   2
ATOM      2  C   UNL     1      42.376  57.138  44.558  1.00  0.00     0.000 C 
BRANCH   2   3
ATOM      3  C   UNL     1      43.803  57.637  44.854  1.00  0.00     0.000 C 
BRANCH   3   4
ATOM      4  C   UNL     1      44.073  58.041  46.315  1.00  0.00     0.000 C 
BRANCH   4   5
ATOM      5  C   UNL     1      44.125  56.837  47.272  1.00  0.00     0.000 C 
BRANCH   5   6
ATOM      6  C   UNL     1      45.480  56.700  47.991  1.00  0.00     0.000 C 
BRANCH   6   7
ATOM      7  C   UNL     1      45.871  57.887  48.896  1.00  0.00     0.006 C 
BRANCH   7   8
ATOM      8  C   UNL     1      45.004  58.045  50.155  1.00  0.00     0.053 C 
BRANCH   8   9
ATOM      9  C   UNL     1      45.778  58.625  51.299  1.00  0.00     0.041 C 
ATOM     10  O   UNL     1      46.339  59.746  51.180  1.00  0.00    -0.550 OA
ATOM     11  O   UNL     1      45.852  57.944  52.507  1.00  0.00    -0.550 OA
ENDBRANCH   8   9
ENDBRANCH   7   8
ENDBRANCH   6   7
ENDBRANCH   5   6
ENDBRANCH   4   5
ENDBRANCH   3   4
ENDBRANCH   2   3
ENDBRANCH   1   2
BRANCH   1  12
ATOM     12  C   UNL     1      40.284  56.888  46.008  1.00  0.00     0.000 C 
BRANCH  12  13
ATOM     13  C   UNL     1      40.495  56.690  47.521  1.00  0.00    -0.000 C 
BRANCH  13  14
ATOM     14  C   UNL     1      39.625  57.632  48.369  1.00  0.00    -0.000 C 
BRANCH  14  15
ATOM     15  C   UNL     1      40.415  58.300  49.508  1.00  0.00    -0.000 C 
BRANCH  15  16
ATOM     16  C   UNL     1      41.807  58.787  49.068  1.00  0.00    -0.000 C 
BRANCH  16  17
ATOM     17  C   UNL     1      41.821  60.091  48.251  1.00  0.00    -0.000 C 
BRANCH  17  18
ATOM     18  C   UNL     1      41.890  61.350  49.133  1.00  0.00    -0.000 C 
BRANCH  18  19
ATOM     19  C   UNL     1      43.245  61.498  49.842  1.00  0.00    -0.003 C 
ATOM     20  C   UNL     1      44.433  61.300  48.901  1.00  0.00     0.004 C 
ENDBRANCH  18  19
ENDBRANCH  17  18
ENDBRANCH  16  17
ENDBRANCH  15  16
ENDBRANCH  14  15
ENDBRANCH  13  14
ENDBRANCH  12  13
ENDBRANCH   1  12
TORSDOF 16
ENDMDL
MODEL 6
REMARK VINA RESULT:    -3.923      3.041      5.853
REMARK INTER + INTRA:         -10.152
REMARK INTER:                  -7.630
REMARK INTRA:                  -2.522
REMARK UNBOUND:                -2.559
REMARK SMILES CCCCCCCCCCCCCCCCCC(=O)[O-]
REMARK SMILES IDX 10 1 11 2 12 3 13 4 14 5 15 6 16 7 17 8 18 9 19 10 20 11
REMARK SMILES IDX 9 12 8 13 7 14 6 15 5 16 4 17 3 18 2 19 1 20
REMARK H PARENT
REMARK Flexibility Score: inf
ROOT
ATOM      1  C   UNL     1      45.489  56.831  47.759  1.00  0.00     0.000 C 
ENDROOT
BRANCH   1   2
ATOM      2  C   UNL     1      44.052  57.250  47.407  1.00  0.00     0.000 C 
BRANCH   2   3
ATOM      3  C   UNL     1      43.985  58.254  46.241  1.00  0.00     0.000 C 
BRANCH   3   4
ATOM      4  C   UNL     1      43.910  57.630  44.835  1.00  0.00     0.000 C 
BRANCH   4   5
ATOM      5  C   UNL     1      42.506  57.107  44.483  1.00  0.00     0.000 C 
BRANCH   5   6
ATOM      6  C   UNL     1      41.380  58.030  44.982  1.00  0.00     0.000 C 
BRANCH   6   7
ATOM      7  C   UNL     1      40.345  57.365  45.914  1.00  0.00     0.006 C 
BRANCH   7   8
ATOM      8  C   UNL     1      40.805  56.037  46.537  1.00  0.00     0.053 C 
BRANCH   8   9
ATOM      9  C   UNL     1      39.711  55.377  47.319  1.00  0.00     0.041 C 
ATOM     10  O   UNL     1      38.916  56.071  48.006  1.00  0.00    -0.550 OA
ATOM     11  O   UNL     1      39.548  53.999  47.262  1.00  0.00    -0.550 OA
ENDBRANCH   8   9
ENDBRANCH   7   8
ENDBRANCH   6   7
ENDBRANCH   5   6
ENDBRANCH   4   5
ENDBRANCH   3   4
ENDBRANCH   2   3
ENDBRANCH   1   2
BRANCH   1  12
ATOM     12  C   UNL     1      46.126  57.742  48.819  1.00  0.00     0.000 C 
BRANCH  12  13
ATOM     13  C   UNL     1      45.101  58.275  49.838  1.00  0.00    -0.000 C 
BRANCH  13  14
ATOM     14  C   UNL     1      45.243  59.785  50.088  1.00  0.00    -0.000 C 
BRANCH  14  15
ATOM     15  C   UNL     1      44.492  60.630  49.046  1.00  0.00    -0.000 C 
BRANCH  15  16
ATOM     16  C   UNL     1      43.439  61.561  49.674  1.00  0.00    -0.000 C 
BRANCH  16  17
ATOM     17  C   UNL     1      41.993  61.340  49.194  1.00  0.00    -0.000 C 
BRANCH  17  18
ATOM     18  C   UNL     1      41.857  60.149  48.230  1.00  0.00    -0.000 C 
BRANCH  18  19
ATOM     19  C   UNL     1      40.877  59.084  48.746  1.00  0.00    -0.003 C 
ATOM     20  C   UNL     1      41.567  57.978  49.545  1.00  0.00     0.004 C 
ENDBRANCH  18  19
ENDBRANCH  17  18
ENDBRANCH  16  17
ENDBRANCH  15  16
ENDBRANCH  14  15
ENDBRANCH  13  14
ENDBRANCH  12  13
ENDBRANCH   1  12
TORSDOF 16
ENDMDL
MODEL 7
REMARK VINA RESULT:    -3.909      1.871      4.263
REMARK INTER + INTRA:         -10.123
REMARK INTER:                  -7.781
REMARK INTRA:                  -2.343
REMARK UNBOUND:                -2.559
REMARK SMILES CCCCCCCCCCCCCCCCCC(=O)[O-]
REMARK SMILES IDX 10 1 11 2 12 3 13 4 14 5 15 6 16 7 17 8 18 9 19 10 20 11
REMARK SMILES IDX 9 12 8 13 7 14 6 15 5 16 4 17 3 18 2 19 1 20
REMARK H PARENT
REMARK Flexibility Score: inf
ROOT
ATOM      1  C   UNL     1      40.327  58.198  49.402  1.00  0.00     0.000 C 
ENDROOT
BRANCH   1   2
ATOM      2  C   UNL     1      41.742  58.722  49.102  1.00  0.00     0.000 C 
BRANCH   2   3
ATOM      3  C   UNL     1      41.742  60.002  48.245  1.00  0.00     0.000 C 
BRANCH   3   4
ATOM      4  C   UNL     1      41.795  61.324  49.033  1.00  0.00     0.000 C 
BRANCH   4   5
ATOM      5  C   UNL     1      43.039  61.439  49.931  1.00  0.00     0.000 C 
BRANCH   5   6
ATOM      6  C   UNL     1      44.354  61.492  49.132  1.00  0.00     0.000 C 
BRANCH   6   7
ATOM      7  C   UNL     1      45.291  60.281  49.322  1.00  0.00     0.006 C 
BRANCH   7   8
ATOM      8  C   UNL     1      44.753  59.197  50.270  1.00  0.00     0.053 C 
BRANCH   8   9
ATOM      9  C   UNL     1      45.857  58.412  50.908  1.00  0.00     0.041 C 
ATOM     10  O   UNL     1      45.988  58.405  52.160  1.00  0.00    -0.550 OA
ATOM     11  O   UNL     1      46.722  57.661  50.123  1.00  0.00    -0.550 OA
ENDBRANCH   8   9
ENDBRANCH   7   8
ENDBRANCH   6   7
ENDBRANCH   5   6
ENDBRANCH   4   5
ENDBRANCH   3   4
ENDBRANCH   2   3
ENDBRANCH   1   2
BRANCH   1  12
ATOM     12  C   UNL     1      39.621  57.657  48.149  1.00  0.00     0.000 C 
BRANCH  12  13
ATOM     13  C   UNL     1      40.412  56.526  47.463  1.00  0.00    -0.000 C 
BRANCH  13  14
ATOM     14  C   UNL     1      40.383  56.628  45.929  1.00  0.00    -0.000 C 
BRANCH  14  15
ATOM     15  C   UNL     1      41.341  57.704  45.391  1.00  0.00    -0.000 C 
BRANCH  15  16
ATOM     16  C   UNL     1      42.474  57.122  44.527  1.00  0.00    -0.000 C 
BRANCH  16  17
ATOM     17  C   UNL     1      43.866  57.734  44.767  1.00  0.00    -0.000 C 
BRANCH  17  18
ATOM     18  C   UNL     1      43.987  58.434  46.131  1.00  0.00    -0.000 C 
BRANCH  18  19
ATOM     19  C   UNL     1      44.849  57.638  47.125  1.00  0.00    -0.003 C 
ATOM     20  C   UNL     1      44.067  56.535  47.839  1.00  0.00     0.004 C 
ENDBRANCH  18  19
ENDBRANCH  17  18
ENDBRANCH  16  17
ENDBRANCH  15  16
ENDBRANCH  14  15
ENDBRANCH  13  14
ENDBRANCH  12  13
ENDBRANCH   1  12
TORSDOF 16
ENDMDL
MODEL 8
REMARK VINA RESULT:    -3.882      2.024      4.346
REMARK INTER + INTRA:         -10.072
REMARK INTER:                  -8.114
REMARK INTRA:                  -1.958
REMARK UNBOUND:                -2.559
REMARK SMILES CCCCCCCCCCCCCCCCCC(=O)[O-]
REMARK SMILES IDX 10 1 11 2 12 3 13 4 14 5 15 6 16 7 17 8 18 9 19 10 20 11
REMARK SMILES IDX 9 12 8 13 7 14 6 15 5 16 4 17 3 18 2 19 1 20
REMARK H PARENT
REMARK Flexibility Score: inf
ROOT
ATOM      1  C   UNL     1      45.553  56.693  47.826  1.00  0.00     0.000 C 
ENDROOT
BRANCH   1   2
ATOM      2  C   UNL     1      46.205  57.722  48.764  1.00  0.00     0.000 C 
BRANCH   2   3
ATOM      3  C   UNL     1      45.220  58.309  49.792  1.00  0.00     0.000 C 
BRANCH   3   4
ATOM      4  C   UNL     1      45.315  59.832  50.005  1.00  0.00     0.000 C 
BRANCH   4   5
ATOM      5  C   UNL     1      44.402  60.629  49.056  1.00  0.00     0.000 C 
BRANCH   5   6
ATOM      6  C   UNL     1      43.209  61.282  49.778  1.00  0.00     0.000 C 
BRANCH   6   7
ATOM      7  C   UNL     1      41.846  61.129  49.072  1.00  0.00     0.006 C 
BRANCH   7   8
ATOM      8  C   UNL     1      41.681  59.829  48.271  1.00  0.00     0.053 C 
BRANCH   8   9
ATOM      9  C   UNL     1      41.179  58.705  49.123  1.00  0.00     0.041 C 
ATOM     10  O   UNL     1      41.973  58.066  49.862  1.00  0.00    -0.550 OA
ATOM     11  O   UNL     1      39.828  58.384  49.129  1.00  0.00    -0.550 OA
ENDBRANCH   8   9
ENDBRANCH   7   8
ENDBRANCH   6   7
ENDBRANCH   5   6
ENDBRANCH   4   5
ENDBRANCH   3   4
ENDBRANCH   2   3
ENDBRANCH   1   2
BRANCH   1  12
ATOM     12  C   UNL     1      44.135  57.101  47.397  1.00  0.00     0.000 C 
BRANCH  12  13
ATOM     13  C   UNL     1      44.130  58.289  46.417  1.00  0.00    -0.000 C 
BRANCH  13  14
ATOM     14  C   UNL     1      44.018  57.845  44.949  1.00  0.00    -0.000 C 
BRANCH  14  15
ATOM     15  C   UNL     1      42.814  56.920  44.702  1.00  0.00    -0.000 C 
BRANCH  15  16
ATOM     16  C   UNL     1      41.483  57.684  44.592  1.00  0.00    -0.000 C 
BRANCH  16  17
ATOM     17  C   UNL     1      40.511  57.488  45.770  1.00  0.00    -0.000 C 
BRANCH  17  18
ATOM     18  C   UNL     1      40.830  56.239  46.609  1.00  0.00    -0.000 C 
BRANCH  18  19
ATOM     19  C   UNL     1      39.563  55.535  47.120  1.00  0.00    -0.003 C 
ATOM     20  C   UNL     1      39.716  54.016  47.194  1.00  0.00     0.004 C 
ENDBRANCH  18  19
ENDBRANCH  17  18
ENDBRANCH  16  17
ENDBRANCH  15  16
ENDBRANCH  14  15
ENDBRANCH  13  14
ENDBRANCH  12  13
ENDBRANCH   1  12
TORSDOF 16
ENDMDL
MODEL 9
REMARK VINA RESULT:    -3.822      2.512      4.723
REMARK INTER + INTRA:          -9.956
REMARK INTER:                  -7.926
REMARK INTRA:                  -2.030
REMARK UNBOUND:                -2.559
REMARK SMILES CCCCCCCCCCCCCCCCCC(=O)[O-]
REMARK SMILES IDX 10 1 11 2 12 3 13 4 14 5 15 6 16 7 17 8 18 9 19 10 20 11
REMARK SMILES IDX 9 12 8 13 7 14 6 15 5 16 4 17 3 18 2 19 1 20
REMARK H PARENT
REMARK Flexibility Score: inf
ROOT
ATOM      1  C   UNL     1      44.324  60.822  48.810  1.00  0.00     0.000 C 
ENDROOT
BRANCH   1   2
ATOM      2  C   UNL     1      45.610  60.633  49.631  1.00  0.00     0.000 C 
BRANCH   2   3
ATOM      3  C   UNL     1      45.602  59.345  50.476  1.00  0.00     0.000 C 
BRANCH   3   4
ATOM      4  C   UNL     1      45.038  58.097  49.773  1.00  0.00     0.000 C 
BRANCH   4   5
ATOM      5  C   UNL     1      46.031  57.464  48.782  1.00  0.00     0.000 C 
BRANCH   5   6
ATOM      6  C   UNL     1      45.345  56.583  47.723  1.00  0.00     0.000 C 
BRANCH   6   7
ATOM      7  C   UNL     1      43.907  56.999  47.349  1.00  0.00     0.006 C 
BRANCH   7   8
ATOM      8  C   UNL     1      43.813  58.022  46.206  1.00  0.00     0.053 C 
BRANCH   8   9
ATOM      9  C   UNL     1      42.761  57.651  45.207  1.00  0.00     0.041 C 
ATOM     10  O   UNL     1      43.020  56.828  44.290  1.00  0.00    -0.550 OA
ATOM     11  O   UNL     1      41.484  58.187  45.307  1.00  0.00    -0.550 OA
ENDBRANCH   8   9
ENDBRANCH   7   8
ENDBRANCH   6   7
ENDBRANCH   5   6
ENDBRANCH   4   5
ENDBRANCH   3   4
ENDBRANCH   2   3
ENDBRANCH   1   2
BRANCH   1  12
ATOM     12  C   UNL     1      43.262  61.643  49.559  1.00  0.00     0.000 C 
BRANCH  12  13
ATOM     13  C   UNL     1      41.827  61.161  49.272  1.00  0.00    -0.000 C 
BRANCH  13  14
ATOM     14  C   UNL     1      41.792  59.832  48.499  1.00  0.00    -0.000 C 
BRANCH  14  15
ATOM     15  C   UNL     1      41.552  58.622  49.417  1.00  0.00    -0.000 C 
BRANCH  15  16
ATOM     16  C   UNL     1      40.073  58.201  49.483  1.00  0.00    -0.000 C 
BRANCH  16  17
ATOM     17  C   UNL     1      39.523  57.526  48.213  1.00  0.00    -0.000 C 
BRANCH  17  18
ATOM     18  C   UNL     1      40.423  56.389  47.701  1.00  0.00    -0.000 C 
BRANCH  18  19
ATOM     19  C   UNL     1      39.667  55.404  46.794  1.00  0.00    -0.003 C 
ATOM     20  C   UNL     1      39.745  53.960  47.289  1.00  0.00     0.004 C 
ENDBRANCH  18  19
ENDBRANCH  17  18
ENDBRANCH  16  17
ENDBRANCH  15  16
ENDBRANCH  14  15
ENDBRANCH  13  14
ENDBRANCH  12  13
ENDBRANCH   1  12
TORSDOF 16
ENDMDL
