MODEL 1
REMARK VINA RESULT:    -3.985      0.000      0.000
REMARK INTER + INTRA:          -8.787
REMARK INTER:                  -6.780
REMARK INTRA:                  -2.007
REMARK UNBOUND:                -2.007
REMARK SMILES CCCCCCCCCCCCCC(=O)[O-]
REMARK SMILES IDX 8 1 9 2 10 3 11 4 12 5 13 6 14 7 15 8 16 9 7 10 6 11 5 12
REMARK SMILES IDX 4 13 3 14 2 15 1 16
REMARK H PARENT
REMARK Flexibility Score: inf
ROOT
ATOM      1  C   UNL     1      16.128   3.418  -0.296  1.00  0.00     0.000 C 
ENDROOT
BRANCH   1   2
ATOM      2  C   UNL     1      15.823   2.440   0.848  1.00  0.00     0.000 C 
BRANCH   2   3
ATOM      3  C   UNL     1      14.847   3.064   1.857  1.00  0.00     0.000 C 
BRANCH   3   4
ATOM      4  C   UNL     1      14.400   4.478   1.452  1.00  0.00     0.000 C 
BRANCH   4   5
ATOM      5  C   UNL     1      12.875   4.653   1.496  1.00  0.00     0.006 C 
BRANCH   5   6
ATOM      6  C   UNL     1      12.271   3.898   2.684  1.00  0.00     0.053 C 
BRANCH   6   7
ATOM      7  C   UNL     1      10.950   3.304   2.311  1.00  0.00     0.041 C 
ATOM      8  O   UNL     1      10.149   3.947   1.583  1.00  0.00    -0.550 OA
ATOM      9  O   UNL     1      10.581   2.061   2.809  1.00  0.00    -0.550 OA
ENDBRANCH   6   7
ENDBRANCH   5   6
ENDBRANCH   4   5
ENDBRANCH   3   4
ENDBRANCH   2   3
ENDBRANCH   1   2
BRANCH   1  10
ATOM     10  C   UNL     1      16.177   2.734  -1.675  1.00  0.00     0.000 C 
BRANCH  10  11
ATOM     11  C   UNL     1      16.689   1.282  -1.667  1.00  0.00    -0.000 C 
BRANCH  11  12
ATOM     12  C   UNL     1      15.795   0.326  -2.476  1.00  0.00    -0.000 C 
BRANCH  12  13
ATOM     13  C   UNL     1      14.302   0.673  -2.356  1.00  0.00    -0.000 C 
BRANCH  13  14
ATOM     14  C   UNL     1      13.656   0.086  -1.093  1.00  0.00    -0.000 C 
BRANCH  14  15
ATOM     15  C   UNL     1      12.562   1.016  -0.555  1.00  0.00    -0.003 C 
ATOM     16  C   UNL     1      12.548   2.344  -1.306  1.00  0.00     0.004 C 
ENDBRANCH  14  15
ENDBRANCH  13  14
ENDBRANCH  12  13
ENDBRANCH  11  12
ENDBRANCH  10  11
ENDBRANCH   1  10
TORSDOF 12
ENDMDL
MODEL 2
REMARK VINA RESULT:    -3.900      1.892      2.792
REMARK INTER + INTRA:          -8.643
REMARK INTER:                  -7.222
REMARK INTRA:                  -1.421
REMARK UNBOUND:                -2.007
REMARK SMILES CCCCCCCCCCCCCC(=O)[O-]
REMARK SMILES IDX 8 1 9 2 10 3 11 4 12 5 13 6 14 7 15 8 16 9 7 10 6 11 5 12
REMARK SMILES IDX 4 13 3 14 2 15 1 16
REMARK H PARENT
REMARK Flexibility Score: inf
ROOT
ATOM      1  C   UNL     1      15.308   4.201   0.585  1.00  0.00     0.000 C 
ENDROOT
BRANCH   1   2
ATOM      2  C   UNL     1      14.957   3.143   1.641  1.00  0.00     0.000 C 
BRANCH   2   3
ATOM      3  C   UNL     1      13.503   3.300   2.111  1.00  0.00     0.000 C 
BRANCH   3   4
ATOM      4  C   UNL     1      12.920   4.684   1.783  1.00  0.00     0.000 C 
BRANCH   4   5
ATOM      5  C   UNL     1      11.387   4.676   1.694  1.00  0.00     0.006 C 
BRANCH   5   6
ATOM      6  C   UNL     1      10.919   4.063   0.371  1.00  0.00     0.053 C 
BRANCH   6   7
ATOM      7  C   UNL     1      10.126   5.057  -0.417  1.00  0.00     0.041 C 
ATOM      8  O   UNL     1      10.110   6.268  -0.076  1.00  0.00    -0.550 OA
ATOM      9  O   UNL     1       9.363   4.637  -1.499  1.00  0.00    -0.550 OA
ENDBRANCH   6   7
ENDBRANCH   5   6
ENDBRANCH   4   5
ENDBRANCH   3   4
ENDBRANCH   2   3
ENDBRANCH   1   2
BRANCH   1  10
ATOM     10  C   UNL     1      16.119   3.629  -0.593  1.00  0.00     0.000 C 
BRANCH  10  11
ATOM     11  C   UNL     1      15.367   3.563  -1.935  1.00  0.00    -0.000 C 
BRANCH  11  12
ATOM     12  C   UNL     1      13.843   3.450  -1.763  1.00  0.00    -0.000 C 
BRANCH  12  13
ATOM     13  C   UNL     1      13.373   1.994  -1.608  1.00  0.00    -0.000 C 
BRANCH  13  14
ATOM     14  C   UNL     1      13.866   1.087  -2.744  1.00  0.00    -0.000 C 
BRANCH  14  15
ATOM     15  C   UNL     1      14.799  -0.006  -2.207  1.00  0.00    -0.003 C 
ATOM     16  C   UNL     1      15.753  -0.500  -3.291  1.00  0.00     0.004 C 
ENDBRANCH  14  15
ENDBRANCH  13  14
ENDBRANCH  12  13
ENDBRANCH  11  12
ENDBRANCH  10  11
ENDBRANCH   1  10
TORSDOF 12
ENDMDL
MODEL 3
REMARK VINA RESULT:    -3.887      1.319      3.002
REMARK INTER + INTRA:          -8.621
REMARK INTER:                  -6.812
REMARK INTRA:                  -1.809
REMARK UNBOUND:                -2.007
REMARK SMILES CCCCCCCCCCCCCC(=O)[O-]
REMARK SMILES IDX 8 1 9 2 10 3 11 4 12 5 13 6 14 7 15 8 16 9 7 10 6 11 5 12
REMARK SMILES IDX 4 13 3 14 2 15 1 16
REMARK H PARENT
REMARK Flexibility Score: inf
ROOT
ATOM      1  C   UNL     1      12.330   1.180  -1.928  1.00  0.00     0.000 C 
ENDROOT
BRANCH   1   2
ATOM      2  C   UNL     1      12.347   2.258  -0.834  1.00  0.00     0.000 C 
BRANCH   2   3
ATOM      3  C   UNL     1      12.607   1.635   0.546  1.00  0.00     0.000 C 
BRANCH   3   4
ATOM      4  C   UNL     1      13.022   2.676   1.597  1.00  0.00     0.000 C 
BRANCH   4   5
ATOM      5  C   UNL     1      12.783   4.119   1.129  1.00  0.00     0.006 C 
BRANCH   5   6
ATOM      6  C   UNL     1      11.646   4.771   1.922  1.00  0.00     0.053 C 
BRANCH   6   7
ATOM      7  C   UNL     1      10.437   4.945   1.060  1.00  0.00     0.041 C 
ATOM      8  O   UNL     1       9.541   4.061   1.038  1.00  0.00    -0.550 OA
ATOM      9  O   UNL     1      10.322   6.060   0.240  1.00  0.00    -0.550 OA
ENDBRANCH   6   7
ENDBRANCH   5   6
ENDBRANCH   4   5
ENDBRANCH   3   4
ENDBRANCH   2   3
ENDBRANCH   1   2
BRANCH   1  10
ATOM     10  C   UNL     1      13.663   1.079  -2.693  1.00  0.00     0.000 C 
BRANCH  10  11
ATOM     11  C   UNL     1      14.648   0.024  -2.156  1.00  0.00    -0.000 C 
BRANCH  11  12
ATOM     12  C   UNL     1      16.071   0.193  -2.715  1.00  0.00    -0.000 C 
BRANCH  12  13
ATOM     13  C   UNL     1      16.869   1.281  -1.979  1.00  0.00    -0.000 C 
BRANCH  13  14
ATOM     14  C   UNL     1      16.511   1.373  -0.488  1.00  0.00    -0.000 C 
BRANCH  14  15
ATOM     15  C   UNL     1      16.245   2.826  -0.078  1.00  0.00    -0.003 C 
ATOM     16  C   UNL     1      15.833   3.673  -1.279  1.00  0.00     0.004 C 
ENDBRANCH  14  15
ENDBRANCH  13  14
ENDBRANCH  12  13
ENDBRANCH  11  12
ENDBRANCH  10  11
ENDBRANCH   1  10
TORSDOF 12
ENDMDL
MODEL 4
REMARK VINA RESULT:    -3.883      1.231      3.360
REMARK INTER + INTRA:          -8.613
REMARK INTER:                  -6.695
REMARK INTRA:                  -1.918
REMARK UNBOUND:                -2.007
REMARK SMILES CCCCCCCCCCCCCC(=O)[O-]
REMARK SMILES IDX 8 1 9 2 10 3 11 4 12 5 13 6 14 7 15 8 16 9 7 10 6 11 5 12
REMARK SMILES IDX 4 13 3 14 2 15 1 16
REMARK H PARENT
REMARK Flexibility Score: inf
ROOT
ATOM      1  C   UNL     1      13.701   1.385  -2.671  1.00  0.00     0.000 C 
ENDROOT
BRANCH   1   2
ATOM      2  C   UNL     1      12.431   1.205  -1.826  1.00  0.00     0.000 C 
BRANCH   2   3
ATOM      3  C   UNL     1      12.786   0.862  -0.371  1.00  0.00     0.000 C 
BRANCH   3   4
ATOM      4  C   UNL     1      12.265   1.907   0.628  1.00  0.00     0.000 C 
BRANCH   4   5
ATOM      5  C   UNL     1      12.240   3.327   0.042  1.00  0.00     0.006 C 
BRANCH   5   6
ATOM      6  C   UNL     1      12.667   4.359   1.089  1.00  0.00     0.053 C 
BRANCH   6   7
ATOM      7  C   UNL     1      11.491   4.799   1.903  1.00  0.00     0.041 C 
ATOM      8  O   UNL     1      11.503   4.669   3.155  1.00  0.00    -0.550 OA
ATOM      9  O   UNL     1      10.361   5.305   1.274  1.00  0.00    -0.550 OA
ENDBRANCH   6   7
ENDBRANCH   5   6
ENDBRANCH   4   5
ENDBRANCH   3   4
ENDBRANCH   2   3
ENDBRANCH   1   2
BRANCH   1  10
ATOM     10  C   UNL     1      14.833   0.423  -2.268  1.00  0.00     0.000 C 
BRANCH  10  11
ATOM     11  C   UNL     1      16.111   1.100  -1.740  1.00  0.00    -0.000 C 
BRANCH  11  12
ATOM     12  C   UNL     1      16.026   2.636  -1.756  1.00  0.00    -0.000 C 
BRANCH  12  13
ATOM     13  C   UNL     1      16.105   3.245  -0.347  1.00  0.00    -0.000 C 
BRANCH  13  14
ATOM     14  C   UNL     1      15.980   2.191   0.763  1.00  0.00    -0.000 C 
BRANCH  14  15
ATOM     15  C   UNL     1      15.726   2.855   2.122  1.00  0.00    -0.003 C 
ATOM     16  C   UNL     1      15.541   1.811   3.220  1.00  0.00     0.004 C 
ENDBRANCH  14  15
ENDBRANCH  13  14
ENDBRANCH  12  13
ENDBRANCH  11  12
ENDBRANCH  10  11
ENDBRANCH   1  10
TORSDOF 12
ENDMDL
MODEL 5
REMARK VINA RESULT:    -3.845      1.360      1.648
REMARK INTER + INTRA:          -8.549
REMARK INTER:                  -6.629
REMARK INTRA:                  -1.920
REMARK UNBOUND:                -2.007
REMARK SMILES CCCCCCCCCCCCCC(=O)[O-]
REMARK SMILES IDX 8 1 9 2 10 3 11 4 12 5 13 6 14 7 15 8 16 9 7 10 6 11 5 12
REMARK SMILES IDX 4 13 3 14 2 15 1 16
REMARK H PARENT
REMARK Flexibility Score: inf
ROOT
ATOM      1  C   UNL     1      15.834   3.616   0.123  1.00  0.00     0.000 C 
ENDROOT
BRANCH   1   2
ATOM      2  C   UNL     1      15.749   2.654   1.317  1.00  0.00     0.000 C 
BRANCH   2   3
ATOM      3  C   UNL     1      14.450   2.876   2.108  1.00  0.00     0.000 C 
BRANCH   3   4
ATOM      4  C   UNL     1      13.649   4.087   1.604  1.00  0.00     0.000 C 
BRANCH   4   5
ATOM      5  C   UNL     1      12.131   3.863   1.670  1.00  0.00     0.006 C 
BRANCH   5   6
ATOM      6  C   UNL     1      11.382   5.198   1.723  1.00  0.00     0.053 C 
BRANCH   6   7
ATOM      7  C   UNL     1      10.381   5.281   0.615  1.00  0.00     0.041 C 
ATOM      8  O   UNL     1      10.517   4.574  -0.417  1.00  0.00    -0.550 OA
ATOM      9  O   UNL     1       9.325   6.179   0.699  1.00  0.00    -0.550 OA
ENDBRANCH   6   7
ENDBRANCH   5   6
ENDBRANCH   4   5
ENDBRANCH   3   4
ENDBRANCH   2   3
ENDBRANCH   1   2
BRANCH   1  10
ATOM     10  C   UNL     1      16.513   2.988  -1.108  1.00  0.00     0.000 C 
BRANCH  10  11
ATOM     11  C   UNL     1      16.732   1.466  -1.029  1.00  0.00    -0.000 C 
BRANCH  11  12
ATOM     12  C   UNL     1      16.333   0.735  -2.323  1.00  0.00    -0.000 C 
BRANCH  12  13
ATOM     13  C   UNL     1      14.835   0.393  -2.369  1.00  0.00    -0.000 C 
BRANCH  13  14
ATOM     14  C   UNL     1      14.257   0.073  -0.983  1.00  0.00    -0.000 C 
BRANCH  14  15
ATOM     15  C   UNL     1      12.984   0.887  -0.720  1.00  0.00    -0.003 C 
ATOM     16  C   UNL     1      12.907   2.104  -1.638  1.00  0.00     0.004 C 
ENDBRANCH  14  15
ENDBRANCH  13  14
ENDBRANCH  12  13
ENDBRANCH  11  12
ENDBRANCH  10  11
ENDBRANCH   1  10
TORSDOF 12
ENDMDL
MODEL 6
REMARK VINA RESULT:    -3.840     13.343     15.264
REMARK INTER + INTRA:          -8.542
REMARK INTER:                  -7.350
REMARK INTRA:                  -1.192
REMARK UNBOUND:                -2.007
REMARK SMILES CCCCCCCCCCCCCC(=O)[O-]
REMARK SMILES IDX 8 1 9 2 10 3 11 4 12 5 13 6 14 7 15 8 16 9 7 10 6 11 5 12
REMARK SMILES IDX 4 13 3 14 2 15 1 16
REMARK H PARENT
REMARK Flexibility Score: inf
ROOT
ATOM      1  C   UNL     1      15.010  16.537  -1.322  1.00  0.00     0.000 C 
ENDROOT
BRANCH   1   2
ATOM      2  C   UNL     1      15.571  17.519  -2.361  1.00  0.00     0.000 C 
BRANCH   2   3
ATOM      3  C   UNL     1      14.702  17.532  -3.628  1.00  0.00     0.000 C 
BRANCH   3   4
ATOM      4  C   UNL     1      13.533  16.537  -3.555  1.00  0.00     0.000 C 
BRANCH   4   5
ATOM      5  C   UNL     1      13.007  16.137  -4.941  1.00  0.00     0.006 C 
BRANCH   5   6
ATOM      6  C   UNL     1      12.593  14.663  -4.966  1.00  0.00     0.053 C 
BRANCH   6   7
ATOM      7  C   UNL     1      11.125  14.526  -4.717  1.00  0.00     0.041 C 
ATOM      8  O   UNL     1      10.305  15.240  -5.351  1.00  0.00    -0.550 OA
ATOM      9  O   UNL     1      10.663  13.647  -3.746  1.00  0.00    -0.550 OA
ENDBRANCH   6   7
ENDBRANCH   5   6
ENDBRANCH   4   5
ENDBRANCH   3   4
ENDBRANCH   2   3
ENDBRANCH   1   2
BRANCH   1  10
ATOM     10  C   UNL     1      15.005  17.112   0.107  1.00  0.00     0.000 C 
BRANCH  10  11
ATOM     11  C   UNL     1      15.335  18.612   0.210  1.00  0.00    -0.000 C 
BRANCH  11  12
ATOM     12  C   UNL     1      16.481  18.907   1.193  1.00  0.00    -0.000 C 
BRANCH  12  13
ATOM     13  C   UNL     1      17.404  17.696   1.405  1.00  0.00    -0.000 C 
BRANCH  13  14
ATOM     14  C   UNL     1      18.711  17.799   0.606  1.00  0.00    -0.000 C 
BRANCH  14  15
ATOM     15  C   UNL     1      19.268  16.406   0.285  1.00  0.00    -0.003 C 
ATOM     16  C   UNL     1      18.464  15.732  -0.823  1.00  0.00     0.004 C 
ENDBRANCH  14  15
ENDBRANCH  13  14
ENDBRANCH  12  13
ENDBRANCH  11  12
ENDBRANCH  10  11
ENDBRANCH   1  10
TORSDOF 12
ENDMDL
MODEL 7
REMARK VINA RESULT:    -3.837      2.106      3.012
REMARK INTER + INTRA:          -8.535
REMARK INTER:                  -6.717
REMARK INTRA:                  -1.819
REMARK UNBOUND:                -2.007
REMARK SMILES CCCCCCCCCCCCCC(=O)[O-]
REMARK SMILES IDX 8 1 9 2 10 3 11 4 12 5 13 6 14 7 15 8 16 9 7 10 6 11 5 12
REMARK SMILES IDX 4 13 3 14 2 15 1 16
REMARK H PARENT
REMARK Flexibility Score: inf
ROOT
ATOM      1  C   UNL     1      15.409   3.021   1.756  1.00  0.00     0.000 C 
ENDROOT
BRANCH   1   2
ATOM      2  C   UNL     1      13.987   3.007   2.336  1.00  0.00     0.000 C 
BRANCH   2   3
ATOM      3  C   UNL     1      13.225   4.283   1.948  1.00  0.00     0.000 C 
BRANCH   3   4
ATOM      4  C   UNL     1      11.713   4.168   2.194  1.00  0.00     0.000 C 
BRANCH   4   5
ATOM      5  C   UNL     1      10.905   5.229   1.432  1.00  0.00     0.006 C 
BRANCH   5   6
ATOM      6  C   UNL     1       9.939   4.574   0.440  1.00  0.00     0.053 C 
BRANCH   6   7
ATOM      7  C   UNL     1       9.732   5.455  -0.751  1.00  0.00     0.041 C 
ATOM      8  O   UNL     1       9.731   6.707  -0.620  1.00  0.00    -0.550 OA
ATOM      9  O   UNL     1       9.488   4.894  -1.998  1.00  0.00    -0.550 OA
ENDBRANCH   6   7
ENDBRANCH   5   6
ENDBRANCH   4   5
ENDBRANCH   3   4
ENDBRANCH   2   3
ENDBRANCH   1   2
BRANCH   1  10
ATOM     10  C   UNL     1      15.761   1.727   0.998  1.00  0.00     0.000 C 
BRANCH  10  11
ATOM     11  C   UNL     1      16.248   1.928  -0.449  1.00  0.00    -0.000 C 
BRANCH  11  12
ATOM     12  C   UNL     1      16.299   3.408  -0.865  1.00  0.00    -0.000 C 
BRANCH  12  13
ATOM     13  C   UNL     1      15.206   3.774  -1.882  1.00  0.00    -0.000 C 
BRANCH  13  14
ATOM     14  C   UNL     1      14.172   2.654  -2.070  1.00  0.00    -0.000 C 
BRANCH  14  15
ATOM     15  C   UNL     1      12.841   3.021  -1.401  1.00  0.00    -0.003 C 
ATOM     16  C   UNL     1      12.184   1.795  -0.771  1.00  0.00     0.004 C 
ENDBRANCH  14  15
ENDBRANCH  13  14
ENDBRANCH  12  13
ENDBRANCH  11  12
ENDBRANCH  10  11
ENDBRANCH   1  10
TORSDOF 12
ENDMDL
MODEL 8
REMARK VINA RESULT:    -3.785     13.937     15.665
REMARK INTER + INTRA:          -8.447
REMARK INTER:                  -7.271
REMARK INTRA:                  -1.177
REMARK UNBOUND:                -2.007
REMARK SMILES CCCCCCCCCCCCCC(=O)[O-]
REMARK SMILES IDX 8 1 9 2 10 3 11 4 12 5 13 6 14 7 15 8 16 9 7 10 6 11 5 12
REMARK SMILES IDX 4 13 3 14 2 15 1 16
REMARK H PARENT
REMARK Flexibility Score: inf
ROOT
ATOM      1  C   UNL     1      14.984  16.930  -1.525  1.00  0.00     0.000 C 
ENDROOT
BRANCH   1   2
ATOM      2  C   UNL     1      15.108  17.170  -0.013  1.00  0.00     0.000 C 
BRANCH   2   3
ATOM      3  C   UNL     1      15.360  18.655   0.288  1.00  0.00     0.000 C 
BRANCH   3   4
ATOM      4  C   UNL     1      16.442  18.867   1.358  1.00  0.00     0.000 C 
BRANCH   4   5
ATOM      5  C   UNL     1      17.339  17.634   1.548  1.00  0.00     0.006 C 
BRANCH   5   6
ATOM      6  C   UNL     1      18.713  17.853   0.908  1.00  0.00     0.053 C 
BRANCH   6   7
ATOM      7  C   UNL     1      19.174  16.609   0.218  1.00  0.00     0.041 C 
ATOM      8  O   UNL     1      20.303  16.118   0.482  1.00  0.00    -0.550 OA
ATOM      9  O   UNL     1      18.379  16.018  -0.756  1.00  0.00    -0.550 OA
ENDBRANCH   6   7
ENDBRANCH   5   6
ENDBRANCH   4   5
ENDBRANCH   3   4
ENDBRANCH   2   3
ENDBRANCH   1   2
BRANCH   1  10
ATOM     10  C   UNL     1      15.809  17.925  -2.361  1.00  0.00     0.000 C 
BRANCH  10  11
ATOM     11  C   UNL     1      14.995  19.037  -3.048  1.00  0.00    -0.000 C 
BRANCH  11  12
ATOM     12  C   UNL     1      13.705  18.516  -3.705  1.00  0.00    -0.000 C 
BRANCH  12  13
ATOM     13  C   UNL     1      13.964  17.841  -5.061  1.00  0.00    -0.000 C 
BRANCH  13  14
ATOM     14  C   UNL     1      13.673  16.334  -5.039  1.00  0.00    -0.000 C 
BRANCH  14  15
ATOM     15  C   UNL     1      12.376  16.038  -4.277  1.00  0.00    -0.003 C 
ATOM     16  C   UNL     1      12.025  14.553  -4.339  1.00  0.00     0.004 C 
ENDBRANCH  14  15
ENDBRANCH  13  14
ENDBRANCH  12  13
ENDBRANCH  11  12
ENDBRANCH  10  11
ENDBRANCH   1  10
TORSDOF 12
ENDMDL
MODEL 9
REMARK VINA RESULT:    -3.759      1.733      3.948
REMARK INTER + INTRA:          -8.403
REMARK INTER:                  -6.790
REMARK INTRA:                  -1.613
REMARK UNBOUND:                -2.007
REMARK SMILES CCCCCCCCCCCCCC(=O)[O-]
REMARK SMILES IDX 8 1 9 2 10 3 11 4 12 5 13 6 14 7 15 8 16 9 7 10 6 11 5 12
REMARK SMILES IDX 4 13 3 14 2 15 1 16
REMARK H PARENT
REMARK Flexibility Score: inf
ROOT
ATOM      1  C   UNL     1      14.995   0.329  -2.291  1.00  0.00     0.000 C 
ENDROOT
BRANCH   1   2
ATOM      2  C   UNL     1      13.804   1.206  -2.706  1.00  0.00     0.000 C 
BRANCH   2   3
ATOM      3  C   UNL     1      12.572   0.902  -1.841  1.00  0.00     0.000 C 
BRANCH   3   4
ATOM      4  C   UNL     1      12.400   1.898  -0.684  1.00  0.00     0.000 C 
BRANCH   4   5
ATOM      5  C   UNL     1      11.887   3.268  -1.151  1.00  0.00     0.006 C 
BRANCH   5   6
ATOM      6  C   UNL     1      10.356   3.316  -1.130  1.00  0.00     0.053 C 
BRANCH   6   7
ATOM      7  C   UNL     1       9.874   4.730  -1.198  1.00  0.00     0.041 C 
ATOM      8  O   UNL     1       9.182   5.209  -0.262  1.00  0.00    -0.550 OA
ATOM      9  O   UNL     1      10.146   5.505  -2.318  1.00  0.00    -0.550 OA
ENDBRANCH   6   7
ENDBRANCH   5   6
ENDBRANCH   4   5
ENDBRANCH   3   4
ENDBRANCH   2   3
ENDBRANCH   1   2
BRANCH   1  10
ATOM     10  C   UNL     1      16.184   1.146  -1.753  1.00  0.00     0.000 C 
BRANCH  10  11
ATOM     11  C   UNL     1      16.060   2.671  -1.919  1.00  0.00    -0.000 C 
BRANCH  11  12
ATOM     12  C   UNL     1      16.062   3.423  -0.577  1.00  0.00    -0.000 C 
BRANCH  12  13
ATOM     13  C   UNL     1      15.824   2.490   0.621  1.00  0.00    -0.000 C 
BRANCH  13  14
ATOM     14  C   UNL     1      15.297   3.235   1.857  1.00  0.00    -0.000 C 
BRANCH  14  15
ATOM     15  C   UNL     1      14.554   4.514   1.450  1.00  0.00    -0.003 C 
ATOM     16  C   UNL     1      13.098   4.475   1.907  1.00  0.00     0.004 C 
ENDBRANCH  14  15
ENDBRANCH  13  14
ENDBRANCH  12  13
ENDBRANCH  11  12
ENDBRANCH  10  11
ENDBRANCH   1  10
TORSDOF 12
ENDMDL
