MODEL 1
REMARK VINA RESULT:    -4.074      0.000      0.000
REMARK INTER + INTRA:         -16.599
REMARK INTER:                 -10.742
REMARK INTRA:                  -5.856
REMARK UNBOUND:                -5.856
REMARK SMILES CCCCCCCCCCCCCCCCCCCCCCCCCCCCCC(=O)[O-]
REMARK SMILES IDX 16 1 17 2 18 3 19 4 20 5 21 6 22 7 23 8 24 9 25 10 26 11
REMARK SMILES IDX 27 12 28 13 29 14 30 15 31 16 32 17 15 18 14 19 13 20 12 21
REMARK SMILES IDX 11 22 10 23 9 24 8 25 7 26 6 27 5 28 4 29 3 30 2 31 1 32
REMARK H PARENT
REMARK Flexibility Score: inf
ROOT
ATOM      1  C   UNL     1     -23.074  11.448  17.182  1.00  0.00     0.000 C 
ENDROOT
BRANCH   1   2
ATOM      2  C   UNL     1     -22.919  12.980  17.037  1.00  0.00     0.000 C 
BRANCH   2   3
ATOM      3  C   UNL     1     -23.772  13.638  15.932  1.00  0.00     0.000 C 
BRANCH   3   4
ATOM      4  C   UNL     1     -22.972  14.155  14.720  1.00  0.00     0.000 C 
BRANCH   4   5
ATOM      5  C   UNL     1     -22.129  13.052  14.056  1.00  0.00     0.000 C 
BRANCH   5   6
ATOM      6  C   UNL     1     -21.301  13.560  12.863  1.00  0.00     0.000 C 
BRANCH   6   7
ATOM      7  C   UNL     1     -21.145  15.089  12.785  1.00  0.00     0.000 C 
BRANCH   7   8
ATOM      8  C   UNL     1     -19.726  15.569  13.142  1.00  0.00     0.000 C 
BRANCH   8   9
ATOM      9  C   UNL     1     -19.609  17.107  13.175  1.00  0.00     0.000 C 
BRANCH   9  10
ATOM     10  C   UNL     1     -20.109  17.753  14.477  1.00  0.00     0.000 C 
BRANCH  10  11
ATOM     11  C   UNL     1     -19.226  17.429  15.693  1.00  0.00     0.000 C 
BRANCH  11  12
ATOM     12  C   UNL     1     -20.037  17.305  16.995  1.00  0.00     0.000 C 
BRANCH  12  13
ATOM     13  C   UNL     1     -21.388  16.600  16.773  1.00  0.00     0.006 C 
BRANCH  13  14
ATOM     14  C   UNL     1     -22.406  16.926  17.876  1.00  0.00     0.053 C 
BRANCH  14  15
ATOM     15  C   UNL     1     -22.218  18.310  18.418  1.00  0.00     0.041 C 
ATOM     16  O   UNL     1     -22.649  19.307  17.778  1.00  0.00    -0.550 OA
ATOM     17  O   UNL     1     -21.535  18.504  19.613  1.00  0.00    -0.550 OA
ENDBRANCH  14  15
ENDBRANCH  13  14
ENDBRANCH  12  13
ENDBRANCH  11  12
ENDBRANCH  10  11
ENDBRANCH   9  10
ENDBRANCH   8   9
ENDBRANCH   7   8
ENDBRANCH   6   7
ENDBRANCH   5   6
ENDBRANCH   4   5
ENDBRANCH   3   4
ENDBRANCH   2   3
ENDBRANCH   1   2
BRANCH   1  18
ATOM     18  C   UNL     1     -22.411  10.847  18.436  1.00  0.00     0.000 C 
BRANCH  18  19
ATOM     19  C   UNL     1     -21.367   9.772  18.089  1.00  0.00     0.000 C 
BRANCH  19  20
ATOM     20  C   UNL     1     -19.926  10.244  18.372  1.00  0.00     0.000 C 
BRANCH  20  21
ATOM     21  C   UNL     1     -19.839  11.666  18.970  1.00  0.00     0.000 C 
BRANCH  21  22
ATOM     22  C   UNL     1     -18.698  12.539  18.406  1.00  0.00     0.000 C 
BRANCH  22  23
ATOM     23  C   UNL     1     -19.204  13.773  17.646  1.00  0.00     0.000 C 
BRANCH  23  24
ATOM     24  C   UNL     1     -19.392  13.459  16.153  1.00  0.00    -0.000 C 
BRANCH  24  25
ATOM     25  C   UNL     1     -18.062  13.201  15.430  1.00  0.00    -0.000 C 
BRANCH  25  26
ATOM     26  C   UNL     1     -18.092  11.926  14.570  1.00  0.00    -0.000 C 
BRANCH  26  27
ATOM     27  C   UNL     1     -19.159  10.922  15.035  1.00  0.00    -0.000 C 
BRANCH  27  28
ATOM     28  C   UNL     1     -19.572   9.938  13.927  1.00  0.00    -0.000 C 
BRANCH  28  29
ATOM     29  C   UNL     1     -19.241  10.462  12.516  1.00  0.00    -0.000 C 
BRANCH  29  30
ATOM     30  C   UNL     1     -20.248  10.038  11.430  1.00  0.00    -0.000 C 
BRANCH  30  31
ATOM     31  C   UNL     1     -21.683   9.918  11.968  1.00  0.00    -0.003 C 
ATOM     32  C   UNL     1     -22.676  10.656  11.071  1.00  0.00     0.004 C 
ENDBRANCH  30  31
ENDBRANCH  29  30
ENDBRANCH  28  29
ENDBRANCH  27  28
ENDBRANCH  26  27
ENDBRANCH  25  26
ENDBRANCH  24  25
ENDBRANCH  23  24
ENDBRANCH  22  23
ENDBRANCH  21  22
ENDBRANCH  20  21
ENDBRANCH  19  20
ENDBRANCH  18  19
ENDBRANCH   1  18
TORSDOF 28
ENDMDL
MODEL 2
REMARK VINA RESULT:    -3.958      3.369      6.862
REMARK INTER + INTRA:         -16.294
REMARK INTER:                 -10.515
REMARK INTRA:                  -5.780
REMARK UNBOUND:                -5.856
REMARK SMILES CCCCCCCCCCCCCCCCCCCCCCCCCCCCCC(=O)[O-]
REMARK SMILES IDX 16 1 17 2 18 3 19 4 20 5 21 6 22 7 23 8 24 9 25 10 26 11
REMARK SMILES IDX 27 12 28 13 29 14 30 15 31 16 32 17 15 18 14 19 13 20 12 21
REMARK SMILES IDX 11 22 10 23 9 24 8 25 7 26 6 27 5 28 4 29 3 30 2 31 1 32
REMARK H PARENT
REMARK Flexibility Score: inf
ROOT
ATOM      1  C   UNL     1     -22.369  10.323  13.415  1.00  0.00     0.000 C 
ENDROOT
BRANCH   1   2
ATOM      2  C   UNL     1     -21.283  10.191  14.509  1.00  0.00     0.000 C 
BRANCH   2   3
ATOM      3  C   UNL     1     -19.964   9.522  14.065  1.00  0.00     0.000 C 
BRANCH   3   4
ATOM      4  C   UNL     1     -19.443   9.975  12.687  1.00  0.00     0.000 C 
BRANCH   4   5
ATOM      5  C   UNL     1     -18.140  10.787  12.787  1.00  0.00     0.000 C 
BRANCH   5   6
ATOM      6  C   UNL     1     -17.702  11.051  14.238  1.00  0.00     0.000 C 
BRANCH   6   7
ATOM      7  C   UNL     1     -17.814  12.517  14.694  1.00  0.00     0.000 C 
BRANCH   7   8
ATOM      8  C   UNL     1     -18.998  12.763  15.646  1.00  0.00     0.000 C 
BRANCH   8   9
ATOM      9  C   UNL     1     -18.556  13.341  17.007  1.00  0.00     0.000 C 
BRANCH   9  10
ATOM     10  C   UNL     1     -19.102  12.581  18.227  1.00  0.00     0.000 C 
BRANCH  10  11
ATOM     11  C   UNL     1     -20.251  11.619  17.878  1.00  0.00     0.000 C 
BRANCH  11  12
ATOM     12  C   UNL     1     -20.061  10.224  18.499  1.00  0.00     0.000 C 
BRANCH  12  13
ATOM     13  C   UNL     1     -19.100   9.347  17.675  1.00  0.00     0.006 C 
BRANCH  13  14
ATOM     14  C   UNL     1     -19.200   7.860  18.048  1.00  0.00     0.053 C 
BRANCH  14  15
ATOM     15  C   UNL     1     -18.015   7.404  18.843  1.00  0.00     0.041 C 
ATOM     16  O   UNL     1     -18.167   6.956  20.011  1.00  0.00    -0.550 OA
ATOM     17  O   UNL     1     -16.736   7.505  18.308  1.00  0.00    -0.550 OA
ENDBRANCH  14  15
ENDBRANCH  13  14
ENDBRANCH  12  13
ENDBRANCH  11  12
ENDBRANCH  10  11
ENDBRANCH   9  10
ENDBRANCH   8   9
ENDBRANCH   7   8
ENDBRANCH   6   7
ENDBRANCH   5   6
ENDBRANCH   4   5
ENDBRANCH   3   4
ENDBRANCH   2   3
ENDBRANCH   1   2
BRANCH   1  18
ATOM     18  C   UNL     1     -22.865  11.760  13.166  1.00  0.00     0.000 C 
BRANCH  18  19
ATOM     19  C   UNL     1     -21.762  12.672  12.603  1.00  0.00     0.000 C 
BRANCH  19  20
ATOM     20  C   UNL     1     -21.432  13.843  13.549  1.00  0.00     0.000 C 
BRANCH  20  21
ATOM     21  C   UNL     1     -20.849  15.083  12.833  1.00  0.00     0.000 C 
BRANCH  21  22
ATOM     22  C   UNL     1     -19.360  15.362  13.125  1.00  0.00     0.000 C 
BRANCH  22  23
ATOM     23  C   UNL     1     -19.126  16.710  13.822  1.00  0.00     0.000 C 
BRANCH  23  24
ATOM     24  C   UNL     1     -19.407  16.604  15.329  1.00  0.00    -0.000 C 
BRANCH  24  25
ATOM     25  C   UNL     1     -20.311  17.734  15.844  1.00  0.00    -0.000 C 
BRANCH  25  26
ATOM     26  C   UNL     1     -21.350  17.243  16.867  1.00  0.00    -0.000 C 
BRANCH  26  27
ATOM     27  C   UNL     1     -21.323  15.718  17.054  1.00  0.00    -0.000 C 
BRANCH  27  28
ATOM     28  C   UNL     1     -22.714  15.078  16.910  1.00  0.00    -0.000 C 
BRANCH  28  29
ATOM     29  C   UNL     1     -22.645  13.553  16.702  1.00  0.00    -0.000 C 
BRANCH  29  30
ATOM     30  C   UNL     1     -24.018  12.869  16.562  1.00  0.00    -0.000 C 
BRANCH  30  31
ATOM     31  C   UNL     1     -23.990  11.392  16.984  1.00  0.00    -0.003 C 
ATOM     32  C   UNL     1     -23.818  11.250  18.496  1.00  0.00     0.004 C 
ENDBRANCH  30  31
ENDBRANCH  29  30
ENDBRANCH  28  29
ENDBRANCH  27  28
ENDBRANCH  26  27
ENDBRANCH  25  26
ENDBRANCH  24  25
ENDBRANCH  23  24
ENDBRANCH  22  23
ENDBRANCH  21  22
ENDBRANCH  20  21
ENDBRANCH  19  20
ENDBRANCH  18  19
ENDBRANCH   1  18
TORSDOF 28
ENDMDL
MODEL 3
REMARK VINA RESULT:    -3.943      4.690      8.781
REMARK INTER + INTRA:         -16.254
REMARK INTER:                 -11.226
REMARK INTRA:                  -5.027
REMARK UNBOUND:                -5.856
REMARK SMILES CCCCCCCCCCCCCCCCCCCCCCCCCCCCCC(=O)[O-]
REMARK SMILES IDX 16 1 17 2 18 3 19 4 20 5 21 6 22 7 23 8 24 9 25 10 26 11
REMARK SMILES IDX 27 12 28 13 29 14 30 15 31 16 32 17 15 18 14 19 13 20 12 21
REMARK SMILES IDX 11 22 10 23 9 24 8 25 7 26 6 27 5 28 4 29 3 30 2 31 1 32
REMARK H PARENT
REMARK Flexibility Score: inf
ROOT
ATOM      1  C   UNL     1     -19.215   9.821  15.678  1.00  0.00     0.000 C 
ENDROOT
BRANCH   1   2
ATOM      2  C   UNL     1     -19.853   9.253  14.390  1.00  0.00     0.000 C 
BRANCH   2   3
ATOM      3  C   UNL     1     -21.157   8.450  14.586  1.00  0.00     0.000 C 
BRANCH   3   4
ATOM      4  C   UNL     1     -20.974   6.920  14.613  1.00  0.00     0.000 C 
BRANCH   4   5
ATOM      5  C   UNL     1     -21.063   6.340  16.036  1.00  0.00     0.000 C 
BRANCH   5   6
ATOM      6  C   UNL     1     -22.267   6.874  16.832  1.00  0.00     0.000 C 
BRANCH   6   7
ATOM      7  C   UNL     1     -22.271   6.507  18.326  1.00  0.00     0.000 C 
BRANCH   7   8
ATOM      8  C   UNL     1     -23.680   6.193  18.865  1.00  0.00     0.000 C 
BRANCH   8   9
ATOM      9  C   UNL     1     -23.675   5.067  19.920  1.00  0.00     0.000 C 
BRANCH   9  10
ATOM     10  C   UNL     1     -22.291   4.765  20.519  1.00  0.00     0.000 C 
BRANCH  10  11
ATOM     11  C   UNL     1     -21.636   3.505  19.929  1.00  0.00     0.000 C 
BRANCH  11  12
ATOM     12  C   UNL     1     -20.200   3.762  19.439  1.00  0.00     0.000 C 
BRANCH  12  13
ATOM     13  C   UNL     1     -19.388   4.609  20.436  1.00  0.00     0.006 C 
BRANCH  13  14
ATOM     14  C   UNL     1     -18.810   5.877  19.792  1.00  0.00     0.053 C 
BRANCH  14  15
ATOM     15  C   UNL     1     -17.357   5.724  19.463  1.00  0.00     0.041 C 
ATOM     16  O   UNL     1     -16.966   5.785  18.267  1.00  0.00    -0.550 OA
ATOM     17  O   UNL     1     -16.436   5.479  20.475  1.00  0.00    -0.550 OA
ENDBRANCH  14  15
ENDBRANCH  13  14
ENDBRANCH  12  13
ENDBRANCH  11  12
ENDBRANCH  10  11
ENDBRANCH   9  10
ENDBRANCH   8   9
ENDBRANCH   7   8
ENDBRANCH   6   7
ENDBRANCH   5   6
ENDBRANCH   4   5
ENDBRANCH   3   4
ENDBRANCH   2   3
ENDBRANCH   1   2
BRANCH   1  18
ATOM     18  C   UNL     1     -20.080   9.678  16.945  1.00  0.00     0.000 C 
BRANCH  18  19
ATOM     19  C   UNL     1     -19.348  10.154  18.212  1.00  0.00     0.000 C 
BRANCH  19  20
ATOM     20  C   UNL     1     -19.835  11.539  18.683  1.00  0.00     0.000 C 
BRANCH  20  21
ATOM     21  C   UNL     1     -18.815  12.676  18.445  1.00  0.00     0.000 C 
BRANCH  21  22
ATOM     22  C   UNL     1     -19.115  13.573  17.226  1.00  0.00     0.000 C 
BRANCH  22  23
ATOM     23  C   UNL     1     -18.243  13.243  16.006  1.00  0.00     0.000 C 
BRANCH  23  24
ATOM     24  C   UNL     1     -18.726  14.008  14.764  1.00  0.00    -0.000 C 
BRANCH  24  25
ATOM     25  C   UNL     1     -19.596  13.144  13.838  1.00  0.00    -0.000 C 
BRANCH  25  26
ATOM     26  C   UNL     1     -20.834  13.896  13.317  1.00  0.00    -0.000 C 
BRANCH  26  27
ATOM     27  C   UNL     1     -22.136  13.429  13.986  1.00  0.00    -0.000 C 
BRANCH  27  28
ATOM     28  C   UNL     1     -21.921  12.237  14.935  1.00  0.00    -0.000 C 
BRANCH  28  29
ATOM     29  C   UNL     1     -22.510  12.482  16.337  1.00  0.00    -0.000 C 
BRANCH  29  30
ATOM     30  C   UNL     1     -23.416  11.347  16.852  1.00  0.00    -0.000 C 
BRANCH  30  31
ATOM     31  C   UNL     1     -23.584  11.371  18.379  1.00  0.00    -0.003 C 
ATOM     32  C   UNL     1     -23.112  10.062  19.011  1.00  0.00     0.004 C 
ENDBRANCH  30  31
ENDBRANCH  29  30
ENDBRANCH  28  29
ENDBRANCH  27  28
ENDBRANCH  26  27
ENDBRANCH  25  26
ENDBRANCH  24  25
ENDBRANCH  23  24
ENDBRANCH  22  23
ENDBRANCH  21  22
ENDBRANCH  20  21
ENDBRANCH  19  20
ENDBRANCH  18  19
ENDBRANCH   1  18
TORSDOF 28
ENDMDL
MODEL 4
REMARK VINA RESULT:    -3.930      3.938      7.970
REMARK INTER + INTRA:         -16.220
REMARK INTER:                 -11.072
REMARK INTRA:                  -5.149
REMARK UNBOUND:                -5.856
REMARK SMILES CCCCCCCCCCCCCCCCCCCCCCCCCCCCCC(=O)[O-]
REMARK SMILES IDX 16 1 17 2 18 3 19 4 20 5 21 6 22 7 23 8 24 9 25 10 26 11
REMARK SMILES IDX 27 12 28 13 29 14 30 15 31 16 32 17 15 18 14 19 13 20 12 21
REMARK SMILES IDX 11 22 10 23 9 24 8 25 7 26 6 27 5 28 4 29 3 30 2 31 1 32
REMARK H PARENT
REMARK Flexibility Score: inf
ROOT
ATOM      1  C   UNL     1     -20.875  15.216  13.388  1.00  0.00     0.000 C 
ENDROOT
BRANCH   1   2
ATOM      2  C   UNL     1     -21.329  13.751  13.586  1.00  0.00     0.000 C 
BRANCH   2   3
ATOM      3  C   UNL     1     -20.214  12.687  13.494  1.00  0.00     0.000 C 
BRANCH   3   4
ATOM      4  C   UNL     1     -19.816  12.051  14.840  1.00  0.00     0.000 C 
BRANCH   4   5
ATOM      5  C   UNL     1     -18.423  12.499  15.315  1.00  0.00     0.000 C 
BRANCH   5   6
ATOM      6  C   UNL     1     -18.466  13.726  16.243  1.00  0.00     0.000 C 
BRANCH   6   7
ATOM      7  C   UNL     1     -19.372  13.574  17.478  1.00  0.00     0.000 C 
BRANCH   7   8
ATOM      8  C   UNL     1     -18.821  12.572  18.510  1.00  0.00     0.000 C 
BRANCH   8   9
ATOM      9  C   UNL     1     -19.790  11.401  18.777  1.00  0.00     0.000 C 
BRANCH   9  10
ATOM     10  C   UNL     1     -19.486  10.128  17.971  1.00  0.00     0.000 C 
BRANCH  10  11
ATOM     11  C   UNL     1     -20.654   9.128  17.951  1.00  0.00     0.000 C 
BRANCH  11  12
ATOM     12  C   UNL     1     -20.182   7.668  18.063  1.00  0.00     0.000 C 
BRANCH  12  13
ATOM     13  C   UNL     1     -18.690   7.566  18.431  1.00  0.00     0.006 C 
BRANCH  13  14
ATOM     14  C   UNL     1     -18.442   6.613  19.609  1.00  0.00     0.053 C 
BRANCH  14  15
ATOM     15  C   UNL     1     -17.186   5.818  19.429  1.00  0.00     0.041 C 
ATOM     16  O   UNL     1     -16.506   5.467  20.430  1.00  0.00    -0.550 OA
ATOM     17  O   UNL     1     -16.744   5.492  18.152  1.00  0.00    -0.550 OA
ENDBRANCH  14  15
ENDBRANCH  13  14
ENDBRANCH  12  13
ENDBRANCH  11  12
ENDBRANCH  10  11
ENDBRANCH   9  10
ENDBRANCH   8   9
ENDBRANCH   7   8
ENDBRANCH   6   7
ENDBRANCH   5   6
ENDBRANCH   4   5
ENDBRANCH   3   4
ENDBRANCH   2   3
ENDBRANCH   1   2
BRANCH   1  18
ATOM     18  C   UNL     1     -19.360  15.401  13.178  1.00  0.00     0.000 C 
BRANCH  18  19
ATOM     19  C   UNL     1     -18.806  16.615  13.943  1.00  0.00     0.000 C 
BRANCH  19  20
ATOM     20  C   UNL     1     -19.904  17.644  14.280  1.00  0.00     0.000 C 
BRANCH  20  21
ATOM     21  C   UNL     1     -19.440  18.763  15.240  1.00  0.00     0.000 C 
BRANCH  21  22
ATOM     22  C   UNL     1     -20.097  18.735  16.636  1.00  0.00     0.000 C 
BRANCH  22  23
ATOM     23  C   UNL     1     -19.827  17.433  17.402  1.00  0.00     0.000 C 
BRANCH  23  24
ATOM     24  C   UNL     1     -21.128  16.644  17.620  1.00  0.00    -0.000 C 
BRANCH  24  25
ATOM     25  C   UNL     1     -22.374  17.542  17.612  1.00  0.00    -0.000 C 
BRANCH  25  26
ATOM     26  C   UNL     1     -23.151  17.467  16.286  1.00  0.00    -0.000 C 
BRANCH  26  27
ATOM     27  C   UNL     1     -23.583  16.036  15.933  1.00  0.00    -0.000 C 
BRANCH  27  28
ATOM     28  C   UNL     1     -24.592  15.454  16.939  1.00  0.00    -0.000 C 
BRANCH  28  29
ATOM     29  C   UNL     1     -24.113  14.128  17.558  1.00  0.00    -0.000 C 
BRANCH  29  30
ATOM     30  C   UNL     1     -22.925  13.477  16.823  1.00  0.00    -0.000 C 
BRANCH  30  31
ATOM     31  C   UNL     1     -22.847  11.960  17.052  1.00  0.00    -0.003 C 
ATOM     32  C   UNL     1     -23.269  11.187  15.802  1.00  0.00     0.004 C 
ENDBRANCH  30  31
ENDBRANCH  29  30
ENDBRANCH  28  29
ENDBRANCH  27  28
ENDBRANCH  26  27
ENDBRANCH  25  26
ENDBRANCH  24  25
ENDBRANCH  23  24
ENDBRANCH  22  23
ENDBRANCH  21  22
ENDBRANCH  20  21
ENDBRANCH  19  20
ENDBRANCH  18  19
ENDBRANCH   1  18
TORSDOF 28
ENDMDL
MODEL 5
REMARK VINA RESULT:    -3.902      2.243      4.031
REMARK INTER + INTRA:         -16.145
REMARK INTER:                  -9.405
REMARK INTRA:                  -6.740
REMARK UNBOUND:                -5.856
REMARK SMILES CCCCCCCCCCCCCCCCCCCCCCCCCCCCCC(=O)[O-]
REMARK SMILES IDX 16 1 17 2 18 3 19 4 20 5 21 6 22 7 23 8 24 9 25 10 26 11
REMARK SMILES IDX 27 12 28 13 29 14 30 15 31 16 32 17 15 18 14 19 13 20 12 21
REMARK SMILES IDX 11 22 10 23 9 24 8 25 7 26 6 27 5 28 4 29 3 30 2 31 1 32
REMARK H PARENT
REMARK Flexibility Score: inf
ROOT
ATOM      1  C   UNL     1     -21.849  12.994  14.784  1.00  0.00     0.000 C 
ENDROOT
BRANCH   1   2
ATOM      2  C   UNL     1     -21.234  13.541  13.476  1.00  0.00     0.000 C 
BRANCH   2   3
ATOM      3  C   UNL     1     -22.140  13.468  12.228  1.00  0.00     0.000 C 
BRANCH   3   4
ATOM      4  C   UNL     1     -22.842  14.790  11.862  1.00  0.00     0.000 C 
BRANCH   4   5
ATOM      5  C   UNL     1     -22.225  16.004  12.579  1.00  0.00     0.000 C 
BRANCH   5   6
ATOM      6  C   UNL     1     -23.197  16.686  13.557  1.00  0.00     0.000 C 
BRANCH   6   7
ATOM      7  C   UNL     1     -24.377  15.811  14.017  1.00  0.00     0.000 C 
BRANCH   7   8
ATOM      8  C   UNL     1     -24.505  15.729  15.550  1.00  0.00     0.000 C 
BRANCH   8   9
ATOM      9  C   UNL     1     -23.470  16.611  16.280  1.00  0.00     0.000 C 
BRANCH   9  10
ATOM     10  C   UNL     1     -22.451  15.827  17.123  1.00  0.00     0.000 C 
BRANCH  10  11
ATOM     11  C   UNL     1     -21.093  16.538  17.249  1.00  0.00     0.000 C 
BRANCH  11  12
ATOM     12  C   UNL     1     -20.177  16.280  16.039  1.00  0.00     0.000 C 
BRANCH  12  13
ATOM     13  C   UNL     1     -19.844  17.576  15.276  1.00  0.00     0.006 C 
BRANCH  13  14
ATOM     14  C   UNL     1     -18.415  17.572  14.713  1.00  0.00     0.053 C 
BRANCH  14  15
ATOM     15  C   UNL     1     -18.399  17.335  13.234  1.00  0.00     0.041 C 
ATOM     16  O   UNL     1     -18.687  16.200  12.769  1.00  0.00    -0.550 OA
ATOM     17  O   UNL     1     -18.030  18.358  12.368  1.00  0.00    -0.550 OA
ENDBRANCH  14  15
ENDBRANCH  13  14
ENDBRANCH  12  13
ENDBRANCH  11  12
ENDBRANCH  10  11
ENDBRANCH   9  10
ENDBRANCH   8   9
ENDBRANCH   7   8
ENDBRANCH   6   7
ENDBRANCH   5   6
ENDBRANCH   4   5
ENDBRANCH   3   4
ENDBRANCH   2   3
ENDBRANCH   1   2
BRANCH   1  18
ATOM     18  C   UNL     1     -23.050  12.048  14.588  1.00  0.00     0.000 C 
BRANCH  18  19
ATOM     19  C   UNL     1     -23.997  12.043  15.800  1.00  0.00     0.000 C 
BRANCH  19  20
ATOM     20  C   UNL     1     -23.272  12.417  17.109  1.00  0.00     0.000 C 
BRANCH  20  21
ATOM     21  C   UNL     1     -23.443  11.377  18.239  1.00  0.00     0.000 C 
BRANCH  21  22
ATOM     22  C   UNL     1     -22.128  10.751  18.750  1.00  0.00     0.000 C 
BRANCH  22  23
ATOM     23  C   UNL     1     -20.987  10.827  17.725  1.00  0.00     0.000 C 
BRANCH  23  24
ATOM     24  C   UNL     1     -19.792  11.610  18.291  1.00  0.00    -0.000 C 
BRANCH  24  25
ATOM     25  C   UNL     1     -19.612  12.981  17.623  1.00  0.00    -0.000 C 
BRANCH  25  26
ATOM     26  C   UNL     1     -18.231  13.142  16.963  1.00  0.00    -0.000 C 
BRANCH  26  27
ATOM     27  C   UNL     1     -18.321  13.339  15.442  1.00  0.00    -0.000 C 
BRANCH  27  28
ATOM     28  C   UNL     1     -17.373  12.409  14.665  1.00  0.00    -0.000 C 
BRANCH  28  29
ATOM     29  C   UNL     1     -18.128  11.351  13.837  1.00  0.00    -0.000 C 
BRANCH  29  30
ATOM     30  C   UNL     1     -18.908  10.324  14.680  1.00  0.00    -0.000 C 
BRANCH  30  31
ATOM     31  C   UNL     1     -20.003   9.608  13.875  1.00  0.00    -0.003 C 
ATOM     32  C   UNL     1     -20.099  10.161  12.453  1.00  0.00     0.004 C 
ENDBRANCH  30  31
ENDBRANCH  29  30
ENDBRANCH  28  29
ENDBRANCH  27  28
ENDBRANCH  26  27
ENDBRANCH  25  26
ENDBRANCH  24  25
ENDBRANCH  23  24
ENDBRANCH  22  23
ENDBRANCH  21  22
ENDBRANCH  20  21
ENDBRANCH  19  20
ENDBRANCH  18  19
ENDBRANCH   1  18
TORSDOF 28
ENDMDL
MODEL 6
REMARK VINA RESULT:    -3.893      4.142      7.602
REMARK INTER + INTRA:         -16.123
REMARK INTER:                 -10.682
REMARK INTRA:                  -5.441
REMARK UNBOUND:                -5.856
REMARK SMILES CCCCCCCCCCCCCCCCCCCCCCCCCCCCCC(=O)[O-]
REMARK SMILES IDX 16 1 17 2 18 3 19 4 20 5 21 6 22 7 23 8 24 9 25 10 26 11
REMARK SMILES IDX 27 12 28 13 29 14 30 15 31 16 32 17 15 18 14 19 13 20 12 21
REMARK SMILES IDX 11 22 10 23 9 24 8 25 7 26 6 27 5 28 4 29 3 30 2 31 1 32
REMARK H PARENT
REMARK Flexibility Score: inf
ROOT
ATOM      1  C   UNL     1     -19.953  11.087  17.958  1.00  0.00     0.000 C 
ENDROOT
BRANCH   1   2
ATOM      2  C   UNL     1     -21.247  10.807  18.758  1.00  0.00     0.000 C 
BRANCH   2   3
ATOM      3  C   UNL     1     -22.550  10.765  17.930  1.00  0.00     0.000 C 
BRANCH   3   4
ATOM      4  C   UNL     1     -22.407  11.260  16.478  1.00  0.00     0.000 C 
BRANCH   4   5
ATOM      5  C   UNL     1     -22.761  10.173  15.447  1.00  0.00     0.000 C 
BRANCH   5   6
ATOM      6  C   UNL     1     -22.017   8.848  15.687  1.00  0.00     0.000 C 
BRANCH   6   7
ATOM      7  C   UNL     1     -22.886   7.584  15.566  1.00  0.00     0.000 C 
BRANCH   7   8
ATOM      8  C   UNL     1     -23.382   7.061  16.926  1.00  0.00     0.000 C 
BRANCH   8   9
ATOM      9  C   UNL     1     -22.388   7.348  18.071  1.00  0.00     0.000 C 
BRANCH   9  10
ATOM     10  C   UNL     1     -21.731   6.094  18.670  1.00  0.00     0.000 C 
BRANCH  10  11
ATOM     11  C   UNL     1     -20.249   5.944  18.288  1.00  0.00     0.000 C 
BRANCH  11  12
ATOM     12  C   UNL     1     -19.602   7.284  17.898  1.00  0.00     0.000 C 
BRANCH  12  13
ATOM     13  C   UNL     1     -18.635   7.800  18.980  1.00  0.00     0.006 C 
BRANCH  13  14
ATOM     14  C   UNL     1     -17.167   7.501  18.643  1.00  0.00     0.053 C 
BRANCH  14  15
ATOM     15  C   UNL     1     -16.806   6.076  18.935  1.00  0.00     0.041 C 
ATOM     16  O   UNL     1     -16.517   5.289  17.994  1.00  0.00    -0.550 OA
ATOM     17  O   UNL     1     -16.822   5.607  20.243  1.00  0.00    -0.550 OA
ENDBRANCH  14  15
ENDBRANCH  13  14
ENDBRANCH  12  13
ENDBRANCH  11  12
ENDBRANCH  10  11
ENDBRANCH   9  10
ENDBRANCH   8   9
ENDBRANCH   7   8
ENDBRANCH   6   7
ENDBRANCH   5   6
ENDBRANCH   4   5
ENDBRANCH   3   4
ENDBRANCH   2   3
ENDBRANCH   1   2
BRANCH   1  18
ATOM     18  C   UNL     1     -19.116  12.272  18.477  1.00  0.00     0.000 C 
BRANCH  18  19
ATOM     19  C   UNL     1     -18.726  13.250  17.356  1.00  0.00     0.000 C 
BRANCH  19  20
ATOM     20  C   UNL     1     -19.920  14.101  16.881  1.00  0.00     0.000 C 
BRANCH  20  21
ATOM     21  C   UNL     1     -19.560  15.131  15.785  1.00  0.00     0.000 C 
BRANCH  21  22
ATOM     22  C   UNL     1     -20.302  14.941  14.446  1.00  0.00     0.000 C 
BRANCH  22  23
ATOM     23  C   UNL     1     -20.843  13.516  14.254  1.00  0.00     0.000 C 
BRANCH  23  24
ATOM     24  C   UNL     1     -21.129  13.233  12.771  1.00  0.00    -0.000 C 
BRANCH  24  25
ATOM     25  C   UNL     1     -22.385  12.374  12.564  1.00  0.00    -0.000 C 
BRANCH  25  26
ATOM     26  C   UNL     1     -22.291  11.475  11.319  1.00  0.00    -0.000 C 
BRANCH  26  27
ATOM     27  C   UNL     1     -22.458   9.984  11.651  1.00  0.00    -0.000 C 
BRANCH  27  28
ATOM     28  C   UNL     1     -21.154   9.187  11.478  1.00  0.00    -0.000 C 
BRANCH  28  29
ATOM     29  C   UNL     1     -20.128   9.482  12.589  1.00  0.00    -0.000 C 
BRANCH  29  30
ATOM     30  C   UNL     1     -18.933  10.344  12.136  1.00  0.00    -0.000 C 
BRANCH  30  31
ATOM     31  C   UNL     1     -18.131  10.911  13.317  1.00  0.00    -0.003 C 
ATOM     32  C   UNL     1     -18.670  10.396  14.652  1.00  0.00     0.004 C 
ENDBRANCH  30  31
ENDBRANCH  29  30
ENDBRANCH  28  29
ENDBRANCH  27  28
ENDBRANCH  26  27
ENDBRANCH  25  26
ENDBRANCH  24  25
ENDBRANCH  23  24
ENDBRANCH  22  23
ENDBRANCH  21  22
ENDBRANCH  20  21
ENDBRANCH  19  20
ENDBRANCH  18  19
ENDBRANCH   1  18
TORSDOF 28
ENDMDL
MODEL 7
REMARK VINA RESULT:    -3.872      4.861      7.772
REMARK INTER + INTRA:         -16.066
REMARK INTER:                 -11.344
REMARK INTRA:                  -4.722
REMARK UNBOUND:                -5.856
REMARK SMILES CCCCCCCCCCCCCCCCCCCCCCCCCCCCCC(=O)[O-]
REMARK SMILES IDX 16 1 17 2 18 3 19 4 20 5 21 6 22 7 23 8 24 9 25 10 26 11
REMARK SMILES IDX 27 12 28 13 29 14 30 15 31 16 32 17 15 18 14 19 13 20 12 21
REMARK SMILES IDX 11 22 10 23 9 24 8 25 7 26 6 27 5 28 4 29 3 30 2 31 1 32
REMARK H PARENT
REMARK Flexibility Score: inf
ROOT
ATOM      1  C   UNL     1     -21.850   6.861  17.053  1.00  0.00     0.000 C 
ENDROOT
BRANCH   1   2
ATOM      2  C   UNL     1     -22.561   7.230  18.375  1.00  0.00     0.000 C 
BRANCH   2   3
ATOM      3  C   UNL     1     -23.631   8.339  18.273  1.00  0.00     0.000 C 
BRANCH   3   4
ATOM      4  C   UNL     1     -23.125   9.756  18.604  1.00  0.00     0.000 C 
BRANCH   4   5
ATOM      5  C   UNL     1     -22.710  10.543  17.349  1.00  0.00     0.000 C 
BRANCH   5   6
ATOM      6  C   UNL     1     -21.191  10.769  17.252  1.00  0.00     0.000 C 
BRANCH   6   7
ATOM      7  C   UNL     1     -20.505  11.146  18.577  1.00  0.00     0.000 C 
BRANCH   7   8
ATOM      8  C   UNL     1     -19.137  11.825  18.375  1.00  0.00     0.000 C 
BRANCH   8   9
ATOM      9  C   UNL     1     -19.252  13.201  17.687  1.00  0.00     0.000 C 
BRANCH   9  10
ATOM     10  C   UNL     1     -18.532  13.294  16.332  1.00  0.00     0.000 C 
BRANCH  10  11
ATOM     11  C   UNL     1     -19.305  14.119  15.289  1.00  0.00     0.000 C 
BRANCH  11  12
ATOM     12  C   UNL     1     -19.372  13.423  13.918  1.00  0.00     0.000 C 
BRANCH  12  13
ATOM     13  C   UNL     1     -20.393  12.271  13.901  1.00  0.00     0.006 C 
BRANCH  13  14
ATOM     14  C   UNL     1     -19.942  11.103  13.011  1.00  0.00     0.053 C 
BRANCH  14  15
ATOM     15  C   UNL     1     -18.543  10.671  13.324  1.00  0.00     0.041 C 
ATOM     16  O   UNL     1     -18.260  10.206  14.460  1.00  0.00    -0.550 OA
ATOM     17  O   UNL     1     -17.540  10.814  12.372  1.00  0.00    -0.550 OA
ENDBRANCH  14  15
ENDBRANCH  13  14
ENDBRANCH  12  13
ENDBRANCH  11  12
ENDBRANCH  10  11
ENDBRANCH   9  10
ENDBRANCH   8   9
ENDBRANCH   7   8
ENDBRANCH   6   7
ENDBRANCH   5   6
ENDBRANCH   4   5
ENDBRANCH   3   4
ENDBRANCH   2   3
ENDBRANCH   1   2
BRANCH   1  18
ATOM     18  C   UNL     1     -20.316   7.002  17.082  1.00  0.00     0.000 C 
BRANCH  18  19
ATOM     19  C   UNL     1     -19.800   7.516  18.437  1.00  0.00     0.000 C 
BRANCH  19  20
ATOM     20  C   UNL     1     -18.358   8.054  18.348  1.00  0.00     0.000 C 
BRANCH  20  21
ATOM     21  C   UNL     1     -17.290   7.077  18.890  1.00  0.00     0.000 C 
BRANCH  21  22
ATOM     22  C   UNL     1     -17.816   6.030  19.894  1.00  0.00     0.000 C 
BRANCH  22  23
ATOM     23  C   UNL     1     -18.022   4.644  19.265  1.00  0.00     0.000 C 
BRANCH  23  24
ATOM     24  C   UNL     1     -19.099   3.852  20.024  1.00  0.00    -0.000 C 
BRANCH  24  25
ATOM     25  C   UNL     1     -20.474   3.919  19.341  1.00  0.00    -0.000 C 
BRANCH  25  26
ATOM     26  C   UNL     1     -21.567   4.484  20.265  1.00  0.00    -0.000 C 
BRANCH  26  27
ATOM     27  C   UNL     1     -22.633   3.439  20.629  1.00  0.00    -0.000 C 
BRANCH  27  28
ATOM     28  C   UNL     1     -23.813   4.041  21.412  1.00  0.00    -0.000 C 
BRANCH  28  29
ATOM     29  C   UNL     1     -24.442   5.251  20.697  1.00  0.00    -0.000 C 
BRANCH  29  30
ATOM     30  C   UNL     1     -25.825   4.972  20.077  1.00  0.00    -0.000 C 
BRANCH  30  31
ATOM     31  C   UNL     1     -25.869   5.269  18.570  1.00  0.00    -0.003 C 
ATOM     32  C   UNL     1     -24.898   4.374  17.800  1.00  0.00     0.004 C 
ENDBRANCH  30  31
ENDBRANCH  29  30
ENDBRANCH  28  29
ENDBRANCH  27  28
ENDBRANCH  26  27
ENDBRANCH  25  26
ENDBRANCH  24  25
ENDBRANCH  23  24
ENDBRANCH  22  23
ENDBRANCH  21  22
ENDBRANCH  20  21
ENDBRANCH  19  20
ENDBRANCH  18  19
ENDBRANCH   1  18
TORSDOF 28
ENDMDL
MODEL 8
REMARK VINA RESULT:    -3.871      3.983      7.149
REMARK INTER + INTRA:         -16.064
REMARK INTER:                 -11.173
REMARK INTRA:                  -4.891
REMARK UNBOUND:                -5.856
REMARK SMILES CCCCCCCCCCCCCCCCCCCCCCCCCCCCCC(=O)[O-]
REMARK SMILES IDX 16 1 17 2 18 3 19 4 20 5 21 6 22 7 23 8 24 9 25 10 26 11
REMARK SMILES IDX 27 12 28 13 29 14 30 15 31 16 32 17 15 18 14 19 13 20 12 21
REMARK SMILES IDX 11 22 10 23 9 24 8 25 7 26 6 27 5 28 4 29 3 30 2 31 1 32
REMARK H PARENT
REMARK Flexibility Score: inf
ROOT
ATOM      1  C   UNL     1     -20.348   9.344  14.754  1.00  0.00     0.000 C 
ENDROOT
BRANCH   1   2
ATOM      2  C   UNL     1     -19.589  10.164  15.822  1.00  0.00     0.000 C 
BRANCH   2   3
ATOM      3  C   UNL     1     -19.044   9.358  17.022  1.00  0.00     0.000 C 
BRANCH   3   4
ATOM      4  C   UNL     1     -19.852   9.517  18.325  1.00  0.00     0.000 C 
BRANCH   4   5
ATOM      5  C   UNL     1     -20.548  10.886  18.425  1.00  0.00     0.000 C 
BRANCH   5   6
ATOM      6  C   UNL     1     -22.053  10.778  18.723  1.00  0.00     0.000 C 
BRANCH   6   7
ATOM      7  C   UNL     1     -22.941  11.772  17.953  1.00  0.00     0.000 C 
BRANCH   7   8
ATOM      8  C   UNL     1     -22.853  11.599  16.425  1.00  0.00     0.000 C 
BRANCH   8   9
ATOM      9  C   UNL     1     -22.309  12.857  15.716  1.00  0.00     0.000 C 
BRANCH   9  10
ATOM     10  C   UNL     1     -22.279  14.118  16.595  1.00  0.00     0.000 C 
BRANCH  10  11
ATOM     11  C   UNL     1     -20.993  14.945  16.427  1.00  0.00     0.000 C 
BRANCH  11  12
ATOM     12  C   UNL     1     -19.737  14.181  16.882  1.00  0.00     0.000 C 
BRANCH  12  13
ATOM     13  C   UNL     1     -18.886  13.701  15.692  1.00  0.00     0.006 C 
BRANCH  13  14
ATOM     14  C   UNL     1     -18.294  14.868  14.887  1.00  0.00     0.053 C 
BRANCH  14  15
ATOM     15  C   UNL     1     -18.903  14.971  13.523  1.00  0.00     0.041 C 
ATOM     16  O   UNL     1     -18.629  15.948  12.776  1.00  0.00    -0.550 OA
ATOM     17  O   UNL     1     -19.802  14.005  13.086  1.00  0.00    -0.550 OA
ENDBRANCH  14  15
ENDBRANCH  13  14
ENDBRANCH  12  13
ENDBRANCH  11  12
ENDBRANCH  10  11
ENDBRANCH   9  10
ENDBRANCH   8   9
ENDBRANCH   7   8
ENDBRANCH   6   7
ENDBRANCH   5   6
ENDBRANCH   4   5
ENDBRANCH   3   4
ENDBRANCH   2   3
ENDBRANCH   1   2
BRANCH   1  18
ATOM     18  C   UNL     1     -21.013   8.056  15.278  1.00  0.00     0.000 C 
BRANCH  18  19
ATOM     19  C   UNL     1     -22.510   7.986  14.931  1.00  0.00     0.000 C 
BRANCH  19  20
ATOM     20  C   UNL     1     -23.373   7.585  16.144  1.00  0.00     0.000 C 
BRANCH  20  21
ATOM     21  C   UNL     1     -22.557   7.285  17.422  1.00  0.00     0.000 C 
BRANCH  21  22
ATOM     22  C   UNL     1     -23.348   7.402  18.741  1.00  0.00     0.000 C 
BRANCH  22  23
ATOM     23  C   UNL     1     -23.717   6.039  19.344  1.00  0.00     0.000 C 
BRANCH  23  24
ATOM     24  C   UNL     1     -22.661   4.979  18.992  1.00  0.00    -0.000 C 
BRANCH  24  25
ATOM     25  C   UNL     1     -21.845   4.528  20.213  1.00  0.00    -0.000 C 
BRANCH  25  26
ATOM     26  C   UNL     1     -20.328   4.559  19.957  1.00  0.00    -0.000 C 
BRANCH  26  27
ATOM     27  C   UNL     1     -19.862   5.877  19.319  1.00  0.00    -0.000 C 
BRANCH  27  28
ATOM     28  C   UNL     1     -18.539   6.390  19.913  1.00  0.00    -0.000 C 
BRANCH  28  29
ATOM     29  C   UNL     1     -17.402   6.437  18.875  1.00  0.00    -0.000 C 
BRANCH  29  30
ATOM     30  C   UNL     1     -16.372   5.300  19.011  1.00  0.00    -0.000 C 
BRANCH  30  31
ATOM     31  C   UNL     1     -16.426   4.614  20.385  1.00  0.00    -0.003 C 
ATOM     32  C   UNL     1     -15.083   3.976  20.741  1.00  0.00     0.004 C 
ENDBRANCH  30  31
ENDBRANCH  29  30
ENDBRANCH  28  29
ENDBRANCH  27  28
ENDBRANCH  26  27
ENDBRANCH  25  26
ENDBRANCH  24  25
ENDBRANCH  23  24
ENDBRANCH  22  23
ENDBRANCH  21  22
ENDBRANCH  20  21
ENDBRANCH  19  20
ENDBRANCH  18  19
ENDBRANCH   1  18
TORSDOF 28
ENDMDL
MODEL 9
REMARK VINA RESULT:    -3.869      1.742      4.425
REMARK INTER + INTRA:         -16.057
REMARK INTER:                  -9.700
REMARK INTRA:                  -6.357
REMARK UNBOUND:                -5.856
REMARK SMILES CCCCCCCCCCCCCCCCCCCCCCCCCCCCCC(=O)[O-]
REMARK SMILES IDX 16 1 17 2 18 3 19 4 20 5 21 6 22 7 23 8 24 9 25 10 26 11
REMARK SMILES IDX 27 12 28 13 29 14 30 15 31 16 32 17 15 18 14 19 13 20 12 21
REMARK SMILES IDX 11 22 10 23 9 24 8 25 7 26 6 27 5 28 4 29 3 30 2 31 1 32
REMARK H PARENT
REMARK Flexibility Score: inf
ROOT
ATOM      1  C   UNL     1     -23.303  11.386  18.004  1.00  0.00     0.000 C 
ENDROOT
BRANCH   1   2
ATOM      2  C   UNL     1     -22.129  10.793  18.817  1.00  0.00     0.000 C 
BRANCH   2   3
ATOM      3  C   UNL     1     -20.722  11.013  18.219  1.00  0.00     0.000 C 
BRANCH   3   4
ATOM      4  C   UNL     1     -19.740  11.765  19.140  1.00  0.00     0.000 C 
BRANCH   4   5
ATOM      5  C   UNL     1     -18.802  12.703  18.361  1.00  0.00     0.000 C 
BRANCH   5   6
ATOM      6  C   UNL     1     -19.274  12.970  16.921  1.00  0.00     0.000 C 
BRANCH   6   7
ATOM      7  C   UNL     1     -18.146  13.121  15.885  1.00  0.00     0.000 C 
BRANCH   7   8
ATOM      8  C   UNL     1     -18.563  13.952  14.657  1.00  0.00     0.000 C 
BRANCH   8   9
ATOM      9  C   UNL     1     -20.011  13.663  14.208  1.00  0.00     0.000 C 
BRANCH   9  10
ATOM     10  C   UNL     1     -20.713  14.850  13.528  1.00  0.00     0.000 C 
BRANCH  10  11
ATOM     11  C   UNL     1     -20.960  16.034  14.479  1.00  0.00     0.000 C 
BRANCH  11  12
ATOM     12  C   UNL     1     -22.169  15.807  15.401  1.00  0.00     0.000 C 
BRANCH  12  13
ATOM     13  C   UNL     1     -21.870  16.199  16.860  1.00  0.00     0.006 C 
BRANCH  13  14
ATOM     14  C   UNL     1     -20.363  16.257  17.153  1.00  0.00     0.053 C 
BRANCH  14  15
ATOM     15  C   UNL     1     -19.951  17.590  17.697  1.00  0.00     0.041 C 
ATOM     16  O   UNL     1     -20.056  17.833  18.929  1.00  0.00    -0.550 OA
ATOM     17  O   UNL     1     -19.484  18.580  16.840  1.00  0.00    -0.550 OA
ENDBRANCH  14  15
ENDBRANCH  13  14
ENDBRANCH  12  13
ENDBRANCH  11  12
ENDBRANCH  10  11
ENDBRANCH   9  10
ENDBRANCH   8   9
ENDBRANCH   7   8
ENDBRANCH   6   7
ENDBRANCH   5   6
ENDBRANCH   4   5
ENDBRANCH   3   4
ENDBRANCH   2   3
ENDBRANCH   1   2
BRANCH   1  18
ATOM     18  C   UNL     1     -22.960  12.659  17.207  1.00  0.00     0.000 C 
BRANCH  18  19
ATOM     19  C   UNL     1     -23.374  12.555  15.729  1.00  0.00     0.000 C 
BRANCH  19  20
ATOM     20  C   UNL     1     -22.604  11.447  14.983  1.00  0.00     0.000 C 
BRANCH  20  21
ATOM     21  C   UNL     1     -23.481  10.615  14.020  1.00  0.00     0.000 C 
BRANCH  21  22
ATOM     22  C   UNL     1     -22.741  10.054  12.788  1.00  0.00     0.000 C 
BRANCH  22  23
ATOM     23  C   UNL     1     -22.048  11.142  11.955  1.00  0.00     0.000 C 
BRANCH  23  24
ATOM     24  C   UNL     1     -20.549  10.842  11.799  1.00  0.00    -0.000 C 
BRANCH  24  25
ATOM     25  C   UNL     1     -20.080   9.685  12.694  1.00  0.00    -0.000 C 
BRANCH  25  26
ATOM     26  C   UNL     1     -19.096  10.141  13.786  1.00  0.00    -0.000 C 
BRANCH  26  27
ATOM     27  C   UNL     1     -19.447   9.576  15.171  1.00  0.00    -0.000 C 
BRANCH  27  28
ATOM     28  C   UNL     1     -20.368   8.346  15.096  1.00  0.00    -0.000 C 
BRANCH  28  29
ATOM     29  C   UNL     1     -21.266   8.201  16.339  1.00  0.00    -0.000 C 
BRANCH  29  30
ATOM     30  C   UNL     1     -22.676   7.654  16.043  1.00  0.00    -0.000 C 
BRANCH  30  31
ATOM     31  C   UNL     1     -23.140   6.621  17.081  1.00  0.00    -0.003 C 
ATOM     32  C   UNL     1     -23.064   7.186  18.500  1.00  0.00     0.004 C 
ENDBRANCH  30  31
ENDBRANCH  29  30
ENDBRANCH  28  29
ENDBRANCH  27  28
ENDBRANCH  26  27
ENDBRANCH  25  26
ENDBRANCH  24  25
ENDBRANCH  23  24
ENDBRANCH  22  23
ENDBRANCH  21  22
ENDBRANCH  20  21
ENDBRANCH  19  20
ENDBRANCH  18  19
ENDBRANCH   1  18
TORSDOF 28
ENDMDL
