MODEL 1
REMARK VINA RESULT:    -5.017      0.000      0.000
REMARK INTER + INTRA:         -13.692
REMARK INTER:                 -10.882
REMARK INTRA:                  -2.810
REMARK UNBOUND:                -2.810
REMARK SMILES CCCCCCCCCCCCCCCCCCCCCC(=O)[O-]
REMARK SMILES IDX 12 1 11 2 10 3 9 4 8 5 7 6 6 7 5 8 4 9 3 10 2 11 1 12 13 13
REMARK SMILES IDX 14 14 15 15 16 16 17 17 18 18 19 19 20 20 21 21 22 22 23 23
REMARK SMILES IDX 24 24
REMARK H PARENT
REMARK Flexibility Score: inf
ROOT
ATOM      1  C   UNL     1      24.422  12.104  32.213  1.00  0.00     0.000 C 
ENDROOT
BRANCH   1   2
ATOM      2  C   UNL     1      22.934  12.021  31.829  1.00  0.00     0.000 C 
BRANCH   2   3
ATOM      3  C   UNL     1      21.994  12.280  33.025  1.00  0.00     0.000 C 
BRANCH   3   4
ATOM      4  C   UNL     1      22.697  12.883  34.259  1.00  0.00    -0.000 C 
BRANCH   4   5
ATOM      5  C   UNL     1      21.981  12.652  35.601  1.00  0.00    -0.000 C 
BRANCH   5   6
ATOM      6  C   UNL     1      20.655  11.867  35.511  1.00  0.00    -0.000 C 
BRANCH   6   7
ATOM      7  C   UNL     1      19.593  12.317  36.535  1.00  0.00    -0.000 C 
BRANCH   7   8
ATOM      8  C   UNL     1      18.811  13.556  36.071  1.00  0.00    -0.000 C 
BRANCH   8   9
ATOM      9  C   UNL     1      18.372  13.415  34.609  1.00  0.00    -0.000 C 
BRANCH   9  10
ATOM     10  C   UNL     1      18.346  14.783  33.909  1.00  0.00    -0.000 C 
BRANCH  10  11
ATOM     11  C   UNL     1      19.403  14.895  32.798  1.00  0.00    -0.003 C 
ATOM     12  C   UNL     1      20.619  15.720  33.225  1.00  0.00     0.004 C 
ENDBRANCH  10  11
ENDBRANCH   9  10
ENDBRANCH   8   9
ENDBRANCH   7   8
ENDBRANCH   6   7
ENDBRANCH   5   6
ENDBRANCH   4   5
ENDBRANCH   3   4
ENDBRANCH   2   3
ENDBRANCH   1   2
BRANCH   1  13
ATOM     13  C   UNL     1      25.134  10.746  32.114  1.00  0.00     0.000 C 
BRANCH  13  14
ATOM     14  C   UNL     1      26.312  10.762  31.123  1.00  0.00     0.000 C 
BRANCH  14  15
ATOM     15  C   UNL     1      26.766  12.184  30.761  1.00  0.00     0.000 C 
BRANCH  15  16
ATOM     16  C   UNL     1      28.254  12.255  30.383  1.00  0.00     0.000 C 
BRANCH  16  17
ATOM     17  C   UNL     1      29.061  13.002  31.455  1.00  0.00     0.000 C 
BRANCH  17  18
ATOM     18  C   UNL     1      28.230  13.334  32.710  1.00  0.00     0.000 C 
BRANCH  18  19
ATOM     19  C   UNL     1      28.806  12.794  34.033  1.00  0.00     0.000 C 
BRANCH  19  20
ATOM     20  C   UNL     1      27.768  12.021  34.865  1.00  0.00     0.006 C 
BRANCH  20  21
ATOM     21  C   UNL     1      26.394  12.706  34.858  1.00  0.00     0.053 C 
BRANCH  21  22
ATOM     22  C   UNL     1      26.206  13.593  36.052  1.00  0.00     0.041 C 
ATOM     23  O   UNL     1      25.239  13.401  36.836  1.00  0.00    -0.550 OA
ATOM     24  O   UNL     1      27.076  14.652  36.277  1.00  0.00    -0.550 OA
ENDBRANCH  21  22
ENDBRANCH  20  21
ENDBRANCH  19  20
ENDBRANCH  18  19
ENDBRANCH  17  18
ENDBRANCH  16  17
ENDBRANCH  15  16
ENDBRANCH  14  15
ENDBRANCH  13  14
ENDBRANCH   1  13
TORSDOF 20
ENDMDL
MODEL 2
REMARK VINA RESULT:    -4.929      2.515      7.891
REMARK INTER + INTRA:         -13.502
REMARK INTER:                 -11.101
REMARK INTRA:                  -2.400
REMARK UNBOUND:                -2.810
REMARK SMILES CCCCCCCCCCCCCCCCCCCCCC(=O)[O-]
REMARK SMILES IDX 12 1 11 2 10 3 9 4 8 5 7 6 6 7 5 8 4 9 3 10 2 11 1 12 13 13
REMARK SMILES IDX 14 14 15 15 16 16 17 17 18 18 19 19 20 20 21 21 22 22 23 23
REMARK SMILES IDX 24 24
REMARK H PARENT
REMARK Flexibility Score: inf
ROOT
ATOM      1  C   UNL     1      24.226  12.688  35.515  1.00  0.00     0.000 C 
ENDROOT
BRANCH   1   2
ATOM      2  C   UNL     1      25.028  11.870  34.488  1.00  0.00     0.000 C 
BRANCH   2   3
ATOM      3  C   UNL     1      26.529  11.783  34.836  1.00  0.00     0.000 C 
BRANCH   3   4
ATOM      4  C   UNL     1      27.168  13.137  35.205  1.00  0.00    -0.000 C 
BRANCH   4   5
ATOM      5  C   UNL     1      27.960  13.820  34.076  1.00  0.00    -0.000 C 
BRANCH   5   6
ATOM      6  C   UNL     1      28.722  12.862  33.136  1.00  0.00    -0.000 C 
BRANCH   6   7
ATOM      7  C   UNL     1      28.683  13.283  31.653  1.00  0.00    -0.000 C 
BRANCH   7   8
ATOM      8  C   UNL     1      28.473  12.092  30.705  1.00  0.00    -0.000 C 
BRANCH   8   9
ATOM      9  C   UNL     1      26.982  11.782  30.530  1.00  0.00    -0.000 C 
BRANCH   9  10
ATOM     10  C   UNL     1      26.595  10.500  31.284  1.00  0.00    -0.000 C 
BRANCH  10  11
ATOM     11  C   UNL     1      25.094  10.186  31.178  1.00  0.00    -0.003 C 
ATOM     12  C   UNL     1      24.824   8.791  30.612  1.00  0.00     0.004 C 
ENDBRANCH  10  11
ENDBRANCH   9  10
ENDBRANCH   8   9
ENDBRANCH   7   8
ENDBRANCH   6   7
ENDBRANCH   5   6
ENDBRANCH   4   5
ENDBRANCH   3   4
ENDBRANCH   2   3
ENDBRANCH   1   2
BRANCH   1  13
ATOM     13  C   UNL     1      22.715  12.668  35.235  1.00  0.00     0.000 C 
BRANCH  13  14
ATOM     14  C   UNL     1      22.383  12.257  33.789  1.00  0.00     0.000 C 
BRANCH  14  15
ATOM     15  C   UNL     1      21.511  13.292  33.062  1.00  0.00     0.000 C 
BRANCH  15  16
ATOM     16  C   UNL     1      21.155  14.496  33.949  1.00  0.00     0.000 C 
BRANCH  16  17
ATOM     17  C   UNL     1      19.662  14.843  33.836  1.00  0.00     0.000 C 
BRANCH  17  18
ATOM     18  C   UNL     1      18.745  13.737  34.392  1.00  0.00     0.000 C 
BRANCH  18  19
ATOM     19  C   UNL     1      18.525  13.779  35.916  1.00  0.00     0.000 C 
BRANCH  19  20
ATOM     20  C   UNL     1      19.379  12.747  36.673  1.00  0.00     0.006 C 
BRANCH  20  21
ATOM     21  C   UNL     1      18.657  11.401  36.830  1.00  0.00     0.053 C 
BRANCH  21  22
ATOM     22  C   UNL     1      19.375  10.296  36.115  1.00  0.00     0.041 C 
ATOM     23  O   UNL     1      19.877   9.342  36.767  1.00  0.00    -0.550 OA
ATOM     24  O   UNL     1      19.519  10.338  34.734  1.00  0.00    -0.550 OA
ENDBRANCH  21  22
ENDBRANCH  20  21
ENDBRANCH  19  20
ENDBRANCH  18  19
ENDBRANCH  17  18
ENDBRANCH  16  17
ENDBRANCH  15  16
ENDBRANCH  14  15
ENDBRANCH  13  14
ENDBRANCH   1  13
TORSDOF 20
ENDMDL
MODEL 3
REMARK VINA RESULT:    -4.923      2.615      7.080
REMARK INTER + INTRA:         -13.489
REMARK INTER:                 -10.628
REMARK INTRA:                  -2.861
REMARK UNBOUND:                -2.810
REMARK SMILES CCCCCCCCCCCCCCCCCCCCCC(=O)[O-]
REMARK SMILES IDX 12 1 11 2 10 3 9 4 8 5 7 6 6 7 5 8 4 9 3 10 2 11 1 12 13 13
REMARK SMILES IDX 14 14 15 15 16 16 17 17 18 18 19 19 20 20 21 21 22 22 23 23
REMARK SMILES IDX 24 24
REMARK H PARENT
REMARK Flexibility Score: inf
ROOT
ATOM      1  C   UNL     1      25.713  10.557  31.597  1.00  0.00     0.000 C 
ENDROOT
BRANCH   1   2
ATOM      2  C   UNL     1      26.441  10.745  30.254  1.00  0.00     0.000 C 
BRANCH   2   3
ATOM      3  C   UNL     1      26.996  12.173  30.072  1.00  0.00     0.000 C 
BRANCH   3   4
ATOM      4  C   UNL     1      28.528  12.276  30.221  1.00  0.00    -0.000 C 
BRANCH   4   5
ATOM      5  C   UNL     1      29.018  13.227  31.326  1.00  0.00    -0.000 C 
BRANCH   5   6
ATOM      6  C   UNL     1      28.588  12.847  32.759  1.00  0.00    -0.000 C 
BRANCH   6   7
ATOM      7  C   UNL     1      27.945  14.007  33.545  1.00  0.00    -0.000 C 
BRANCH   7   8
ATOM      8  C   UNL     1      27.498  13.591  34.955  1.00  0.00    -0.000 C 
BRANCH   8   9
ATOM      9  C   UNL     1      27.563  12.069  35.128  1.00  0.00    -0.000 C 
BRANCH   9  10
ATOM     10  C   UNL     1      26.155  11.455  35.119  1.00  0.00    -0.000 C 
BRANCH  10  11
ATOM     11  C   UNL     1      25.048  12.521  35.061  1.00  0.00    -0.003 C 
ATOM     12  C   UNL     1      24.174  12.529  36.316  1.00  0.00     0.004 C 
ENDBRANCH  10  11
ENDBRANCH   9  10
ENDBRANCH   8   9
ENDBRANCH   7   8
ENDBRANCH   6   7
ENDBRANCH   5   6
ENDBRANCH   4   5
ENDBRANCH   3   4
ENDBRANCH   2   3
ENDBRANCH   1   2
BRANCH   1  13
ATOM     13  C   UNL     1      24.577  11.572  31.801  1.00  0.00     0.000 C 
BRANCH  13  14
ATOM     14  C   UNL     1      23.182  10.923  31.747  1.00  0.00     0.000 C 
BRANCH  14  15
ATOM     15  C   UNL     1      22.247  11.431  32.854  1.00  0.00     0.000 C 
BRANCH  15  16
ATOM     16  C   UNL     1      21.343  12.583  32.387  1.00  0.00     0.000 C 
BRANCH  16  17
ATOM     17  C   UNL     1      21.755  13.909  33.044  1.00  0.00     0.000 C 
BRANCH  17  18
ATOM     18  C   UNL     1      20.642  14.517  33.919  1.00  0.00     0.000 C 
BRANCH  18  19
ATOM     19  C   UNL     1      20.700  14.127  35.409  1.00  0.00     0.000 C 
BRANCH  19  20
ATOM     20  C   UNL     1      19.719  12.998  35.771  1.00  0.00     0.006 C 
BRANCH  20  21
ATOM     21  C   UNL     1      20.445  11.723  36.222  1.00  0.00     0.053 C 
BRANCH  21  22
ATOM     22  C   UNL     1      19.721  10.484  35.785  1.00  0.00     0.041 C 
ATOM     23  O   UNL     1      19.096  10.470  34.692  1.00  0.00    -0.550 OA
ATOM     24  O   UNL     1      19.707   9.360  36.601  1.00  0.00    -0.550 OA
ENDBRANCH  21  22
ENDBRANCH  20  21
ENDBRANCH  19  20
ENDBRANCH  18  19
ENDBRANCH  17  18
ENDBRANCH  16  17
ENDBRANCH  15  16
ENDBRANCH  14  15
ENDBRANCH  13  14
ENDBRANCH   1  13
TORSDOF 20
ENDMDL
MODEL 4
REMARK VINA RESULT:    -4.869      2.525      7.153
REMARK INTER + INTRA:         -13.372
REMARK INTER:                 -10.702
REMARK INTRA:                  -2.670
REMARK UNBOUND:                -2.810
REMARK SMILES CCCCCCCCCCCCCCCCCCCCCC(=O)[O-]
REMARK SMILES IDX 12 1 11 2 10 3 9 4 8 5 7 6 6 7 5 8 4 9 3 10 2 11 1 12 13 13
REMARK SMILES IDX 14 14 15 15 16 16 17 17 18 18 19 19 20 20 21 21 22 22 23 23
REMARK SMILES IDX 24 24
REMARK H PARENT
REMARK Flexibility Score: inf
ROOT
ATOM      1  C   UNL     1      28.077  14.390  34.743  1.00  0.00     0.000 C 
ENDROOT
BRANCH   1   2
ATOM      2  C   UNL     1      27.567  13.739  33.445  1.00  0.00     0.000 C 
BRANCH   2   3
ATOM      3  C   UNL     1      28.623  12.834  32.776  1.00  0.00     0.000 C 
BRANCH   3   4
ATOM      4  C   UNL     1      29.061  13.309  31.376  1.00  0.00    -0.000 C 
BRANCH   4   5
ATOM      5  C   UNL     1      28.112  12.929  30.226  1.00  0.00    -0.000 C 
BRANCH   5   6
ATOM      6  C   UNL     1      27.972  11.414  29.963  1.00  0.00    -0.000 C 
BRANCH   6   7
ATOM      7  C   UNL     1      26.525  10.893  30.078  1.00  0.00    -0.000 C 
BRANCH   7   8
ATOM      8  C   UNL     1      26.227  10.269  31.450  1.00  0.00    -0.000 C 
BRANCH   8   9
ATOM      9  C   UNL     1      25.281  11.157  32.266  1.00  0.00    -0.000 C 
BRANCH   9  10
ATOM     10  C   UNL     1      24.742  12.315  31.413  1.00  0.00    -0.000 C 
BRANCH  10  11
ATOM     11  C   UNL     1      23.247  12.159  31.088  1.00  0.00    -0.003 C 
ATOM     12  C   UNL     1      22.678  13.367  30.342  1.00  0.00     0.004 C 
ENDBRANCH  10  11
ENDBRANCH   9  10
ENDBRANCH   8   9
ENDBRANCH   7   8
ENDBRANCH   6   7
ENDBRANCH   5   6
ENDBRANCH   4   5
ENDBRANCH   3   4
ENDBRANCH   2   3
ENDBRANCH   1   2
BRANCH   1  13
ATOM     13  C   UNL     1      27.146  14.133  35.938  1.00  0.00     0.000 C 
BRANCH  13  14
ATOM     14  C   UNL     1      26.141  12.996  35.677  1.00  0.00     0.000 C 
BRANCH  14  15
ATOM     15  C   UNL     1      24.928  13.047  36.617  1.00  0.00     0.000 C 
BRANCH  15  16
ATOM     16  C   UNL     1      23.701  12.320  36.044  1.00  0.00     0.000 C 
BRANCH  16  17
ATOM     17  C   UNL     1      23.229  12.980  34.739  1.00  0.00     0.000 C 
BRANCH  17  18
ATOM     18  C   UNL     1      21.707  12.866  34.525  1.00  0.00     0.000 C 
BRANCH  18  19
ATOM     19  C   UNL     1      20.878  14.019  35.124  1.00  0.00     0.000 C 
BRANCH  19  20
ATOM     20  C   UNL     1      20.125  14.832  34.056  1.00  0.00     0.006 C 
BRANCH  20  21
ATOM     21  C   UNL     1      20.997  15.118  32.824  1.00  0.00     0.053 C 
BRANCH  21  22
ATOM     22  C   UNL     1      20.660  16.437  32.196  1.00  0.00     0.041 C 
ATOM     23  O   UNL     1      21.239  17.487  32.582  1.00  0.00    -0.550 OA
ATOM     24  O   UNL     1      19.683  16.511  31.211  1.00  0.00    -0.550 OA
ENDBRANCH  21  22
ENDBRANCH  20  21
ENDBRANCH  19  20
ENDBRANCH  18  19
ENDBRANCH  17  18
ENDBRANCH  16  17
ENDBRANCH  15  16
ENDBRANCH  14  15
ENDBRANCH  13  14
ENDBRANCH   1  13
TORSDOF 20
ENDMDL
MODEL 5
REMARK VINA RESULT:    -4.858      2.929      8.174
REMARK INTER + INTRA:         -13.347
REMARK INTER:                 -10.622
REMARK INTRA:                  -2.725
REMARK UNBOUND:                -2.810
REMARK SMILES CCCCCCCCCCCCCCCCCCCCCC(=O)[O-]
REMARK SMILES IDX 12 1 11 2 10 3 9 4 8 5 7 6 6 7 5 8 4 9 3 10 2 11 1 12 13 13
REMARK SMILES IDX 14 14 15 15 16 16 17 17 18 18 19 19 20 20 21 21 22 22 23 23
REMARK SMILES IDX 24 24
REMARK H PARENT
REMARK Flexibility Score: inf
ROOT
ATOM      1  C   UNL     1      24.116  12.334  35.033  1.00  0.00     0.000 C 
ENDROOT
BRANCH   1   2
ATOM      2  C   UNL     1      24.369  12.552  33.531  1.00  0.00     0.000 C 
BRANCH   2   3
ATOM      3  C   UNL     1      24.762  11.253  32.797  1.00  0.00     0.000 C 
BRANCH   3   4
ATOM      4  C   UNL     1      25.092  11.450  31.304  1.00  0.00    -0.000 C 
BRANCH   4   5
ATOM      5  C   UNL     1      25.018  12.902  30.801  1.00  0.00    -0.000 C 
BRANCH   5   6
ATOM      6  C   UNL     1      26.352  13.490  30.294  1.00  0.00    -0.000 C 
BRANCH   6   7
ATOM      7  C   UNL     1      27.546  12.521  30.413  1.00  0.00    -0.000 C 
BRANCH   7   8
ATOM      8  C   UNL     1      28.617  13.018  31.396  1.00  0.00    -0.000 C 
BRANCH   8   9
ATOM      9  C   UNL     1      28.314  12.550  32.824  1.00  0.00    -0.000 C 
BRANCH   9  10
ATOM     10  C   UNL     1      27.997  13.744  33.738  1.00  0.00    -0.000 C 
BRANCH  10  11
ATOM     11  C   UNL     1      27.830  13.330  35.210  1.00  0.00    -0.003 C 
ATOM     12  C   UNL     1      27.268  14.457  36.077  1.00  0.00     0.004 C 
ENDBRANCH  10  11
ENDBRANCH   9  10
ENDBRANCH   8   9
ENDBRANCH   7   8
ENDBRANCH   6   7
ENDBRANCH   5   6
ENDBRANCH   4   5
ENDBRANCH   3   4
ENDBRANCH   2   3
ENDBRANCH   1   2
BRANCH   1  13
ATOM     13  C   UNL     1      22.664  12.634  35.437  1.00  0.00     0.000 C 
BRANCH  13  14
ATOM     14  C   UNL     1      21.813  13.147  34.261  1.00  0.00     0.000 C 
BRANCH  14  15
ATOM     15  C   UNL     1      21.014  14.411  34.612  1.00  0.00     0.000 C 
BRANCH  15  16
ATOM     16  C   UNL     1      19.628  14.441  33.949  1.00  0.00     0.000 C 
BRANCH  16  17
ATOM     17  C   UNL     1      18.661  13.471  34.644  1.00  0.00     0.000 C 
BRANCH  17  18
ATOM     18  C   UNL     1      18.660  13.620  36.178  1.00  0.00     0.000 C 
BRANCH  18  19
ATOM     19  C   UNL     1      18.716  12.294  36.961  1.00  0.00     0.000 C 
BRANCH  19  20
ATOM     20  C   UNL     1      18.784  11.061  36.043  1.00  0.00     0.006 C 
BRANCH  20  21
ATOM     21  C   UNL     1      19.807  10.027  36.537  1.00  0.00     0.053 C 
BRANCH  21  22
ATOM     22  C   UNL     1      19.141   8.838  37.162  1.00  0.00     0.041 C 
ATOM     23  O   UNL     1      18.140   8.994  37.911  1.00  0.00    -0.550 OA
ATOM     24  O   UNL     1      19.649   7.563  36.948  1.00  0.00    -0.550 OA
ENDBRANCH  21  22
ENDBRANCH  20  21
ENDBRANCH  19  20
ENDBRANCH  18  19
ENDBRANCH  17  18
ENDBRANCH  16  17
ENDBRANCH  15  16
ENDBRANCH  14  15
ENDBRANCH  13  14
ENDBRANCH   1  13
TORSDOF 20
ENDMDL
MODEL 6
REMARK VINA RESULT:    -4.855      3.291      8.181
REMARK INTER + INTRA:         -13.341
REMARK INTER:                 -10.891
REMARK INTRA:                  -2.450
REMARK UNBOUND:                -2.810
REMARK SMILES CCCCCCCCCCCCCCCCCCCCCC(=O)[O-]
REMARK SMILES IDX 12 1 11 2 10 3 9 4 8 5 7 6 6 7 5 8 4 9 3 10 2 11 1 12 13 13
REMARK SMILES IDX 14 14 15 15 16 16 17 17 18 18 19 19 20 20 21 21 22 22 23 23
REMARK SMILES IDX 24 24
REMARK H PARENT
REMARK Flexibility Score: inf
ROOT
ATOM      1  C   UNL     1      22.745  12.598  32.728  1.00  0.00     0.000 C 
ENDROOT
BRANCH   1   2
ATOM      2  C   UNL     1      23.876  12.014  33.592  1.00  0.00     0.000 C 
BRANCH   2   3
ATOM      3  C   UNL     1      23.934  12.639  35.001  1.00  0.00     0.000 C 
BRANCH   3   4
ATOM      4  C   UNL     1      25.140  12.177  35.845  1.00  0.00    -0.000 C 
BRANCH   4   5
ATOM      5  C   UNL     1      26.198  11.358  35.085  1.00  0.00    -0.000 C 
BRANCH   5   6
ATOM      6  C   UNL     1      27.628  11.936  35.122  1.00  0.00    -0.000 C 
BRANCH   6   7
ATOM      7  C   UNL     1      27.686  13.469  34.957  1.00  0.00    -0.000 C 
BRANCH   7   8
ATOM      8  C   UNL     1      27.604  13.909  33.487  1.00  0.00    -0.000 C 
BRANCH   8   9
ATOM      9  C   UNL     1      28.661  13.196  32.637  1.00  0.00    -0.000 C 
BRANCH   9  10
ATOM     10  C   UNL     1      28.146  12.952  31.211  1.00  0.00    -0.000 C 
BRANCH  10  11
ATOM     11  C   UNL     1      27.938  11.459  30.907  1.00  0.00    -0.003 C 
ATOM     12  C   UNL     1      26.616  10.925  31.460  1.00  0.00     0.004 C 
ENDBRANCH  10  11
ENDBRANCH   9  10
ENDBRANCH   8   9
ENDBRANCH   7   8
ENDBRANCH   6   7
ENDBRANCH   5   6
ENDBRANCH   4   5
ENDBRANCH   3   4
ENDBRANCH   2   3
ENDBRANCH   1   2
BRANCH   1  13
ATOM     13  C   UNL     1      21.467  11.746  32.773  1.00  0.00     0.000 C 
BRANCH  13  14
ATOM     14  C   UNL     1      20.212  12.571  33.109  1.00  0.00     0.000 C 
BRANCH  14  15
ATOM     15  C   UNL     1      20.532  13.841  33.911  1.00  0.00     0.000 C 
BRANCH  15  16
ATOM     16  C   UNL     1      19.707  13.952  35.203  1.00  0.00     0.000 C 
BRANCH  16  17
ATOM     17  C   UNL     1      20.137  12.890  36.226  1.00  0.00     0.000 C 
BRANCH  17  18
ATOM     18  C   UNL     1      18.943  12.165  36.877  1.00  0.00     0.000 C 
BRANCH  18  19
ATOM     19  C   UNL     1      18.562  10.823  36.224  1.00  0.00     0.000 C 
BRANCH  19  20
ATOM     20  C   UNL     1      19.602   9.717  36.478  1.00  0.00     0.006 C 
BRANCH  20  21
ATOM     21  C   UNL     1      19.150   8.738  37.572  1.00  0.00     0.053 C 
BRANCH  21  22
ATOM     22  C   UNL     1      18.894   7.367  37.024  1.00  0.00     0.041 C 
ATOM     23  O   UNL     1      19.287   6.350  37.654  1.00  0.00    -0.550 OA
ATOM     24  O   UNL     1      18.254   7.214  35.800  1.00  0.00    -0.550 OA
ENDBRANCH  21  22
ENDBRANCH  20  21
ENDBRANCH  19  20
ENDBRANCH  18  19
ENDBRANCH  17  18
ENDBRANCH  16  17
ENDBRANCH  15  16
ENDBRANCH  14  15
ENDBRANCH  13  14
ENDBRANCH   1  13
TORSDOF 20
ENDMDL
MODEL 7
REMARK VINA RESULT:    -4.827      1.945      7.132
REMARK INTER + INTRA:         -13.280
REMARK INTER:                 -10.168
REMARK INTRA:                  -3.112
REMARK UNBOUND:                -2.810
REMARK SMILES CCCCCCCCCCCCCCCCCCCCCC(=O)[O-]
REMARK SMILES IDX 12 1 11 2 10 3 9 4 8 5 7 6 6 7 5 8 4 9 3 10 2 11 1 12 13 13
REMARK SMILES IDX 14 14 15 15 16 16 17 17 18 18 19 19 20 20 21 21 22 22 23 23
REMARK SMILES IDX 24 24
REMARK H PARENT
REMARK Flexibility Score: inf
ROOT
ATOM      1  C   UNL     1      25.325  12.345  35.438  1.00  0.00     0.000 C 
ENDROOT
BRANCH   1   2
ATOM      2  C   UNL     1      26.707  13.021  35.463  1.00  0.00     0.000 C 
BRANCH   2   3
ATOM      3  C   UNL     1      27.840  12.078  35.007  1.00  0.00     0.000 C 
BRANCH   3   4
ATOM      4  C   UNL     1      28.783  12.692  33.952  1.00  0.00    -0.000 C 
BRANCH   4   5
ATOM      5  C   UNL     1      28.091  13.232  32.688  1.00  0.00    -0.000 C 
BRANCH   5   6
ATOM      6  C   UNL     1      28.881  13.042  31.375  1.00  0.00    -0.000 C 
BRANCH   6   7
ATOM      7  C   UNL     1      28.048  12.434  30.229  1.00  0.00    -0.000 C 
BRANCH   7   8
ATOM      8  C   UNL     1      26.649  11.992  30.684  1.00  0.00    -0.000 C 
BRANCH   8   9
ATOM      9  C   UNL     1      26.240  10.675  30.012  1.00  0.00    -0.000 C 
BRANCH   9  10
ATOM     10  C   UNL     1      25.677   9.685  31.043  1.00  0.00    -0.000 C 
BRANCH  10  11
ATOM     11  C   UNL     1      25.077   8.430  30.387  1.00  0.00    -0.003 C 
ATOM     12  C   UNL     1      23.548   8.441  30.386  1.00  0.00     0.004 C 
ENDBRANCH  10  11
ENDBRANCH   9  10
ENDBRANCH   8   9
ENDBRANCH   7   8
ENDBRANCH   6   7
ENDBRANCH   5   6
ENDBRANCH   4   5
ENDBRANCH   3   4
ENDBRANCH   2   3
ENDBRANCH   1   2
BRANCH   1  13
ATOM     13  C   UNL     1      25.028  11.659  34.095  1.00  0.00     0.000 C 
BRANCH  13  14
ATOM     14  C   UNL     1      23.986  12.420  33.255  1.00  0.00     0.000 C 
BRANCH  14  15
ATOM     15  C   UNL     1      22.951  11.489  32.606  1.00  0.00     0.000 C 
BRANCH  15  16
ATOM     16  C   UNL     1      22.499  11.977  31.220  1.00  0.00     0.000 C 
BRANCH  16  17
ATOM     17  C   UNL     1      22.206  13.486  31.234  1.00  0.00     0.000 C 
BRANCH  17  18
ATOM     18  C   UNL     1      20.868  13.831  31.915  1.00  0.00     0.000 C 
BRANCH  18  19
ATOM     19  C   UNL     1      20.976  14.796  33.112  1.00  0.00     0.000 C 
BRANCH  19  20
ATOM     20  C   UNL     1      20.245  14.279  34.364  1.00  0.00     0.006 C 
BRANCH  20  21
ATOM     21  C   UNL     1      19.985  12.767  34.300  1.00  0.00     0.053 C 
BRANCH  21  22
ATOM     22  C   UNL     1      20.622  12.042  35.447  1.00  0.00     0.041 C 
ATOM     23  O   UNL     1      20.071  11.018  35.931  1.00  0.00    -0.550 OA
ATOM     24  O   UNL     1      21.802  12.517  36.003  1.00  0.00    -0.550 OA
ENDBRANCH  21  22
ENDBRANCH  20  21
ENDBRANCH  19  20
ENDBRANCH  18  19
ENDBRANCH  17  18
ENDBRANCH  16  17
ENDBRANCH  15  16
ENDBRANCH  14  15
ENDBRANCH  13  14
ENDBRANCH   1  13
TORSDOF 20
ENDMDL
MODEL 8
REMARK VINA RESULT:    -4.809      2.091      3.914
REMARK INTER + INTRA:         -13.242
REMARK INTER:                 -11.530
REMARK INTRA:                  -1.712
REMARK UNBOUND:                -2.810
REMARK SMILES CCCCCCCCCCCCCCCCCCCCCC(=O)[O-]
REMARK SMILES IDX 12 1 11 2 10 3 9 4 8 5 7 6 6 7 5 8 4 9 3 10 2 11 1 12 13 13
REMARK SMILES IDX 14 14 15 15 16 16 17 17 18 18 19 19 20 20 21 21 22 22 23 23
REMARK SMILES IDX 24 24
REMARK H PARENT
REMARK Flexibility Score: inf
ROOT
ATOM      1  C   UNL     1      23.188  12.540  34.568  1.00  0.00     0.000 C 
ENDROOT
BRANCH   1   2
ATOM      2  C   UNL     1      21.891  12.802  33.782  1.00  0.00     0.000 C 
BRANCH   2   3
ATOM      3  C   UNL     1      21.173  14.092  34.230  1.00  0.00     0.000 C 
BRANCH   3   4
ATOM      4  C   UNL     1      19.679  14.143  33.849  1.00  0.00    -0.000 C 
BRANCH   4   5
ATOM      5  C   UNL     1      18.706  13.667  34.942  1.00  0.00    -0.000 C 
BRANCH   5   6
ATOM      6  C   UNL     1      19.360  13.313  36.295  1.00  0.00    -0.000 C 
BRANCH   6   7
ATOM      7  C   UNL     1      18.509  12.370  37.170  1.00  0.00    -0.000 C 
BRANCH   7   8
ATOM      8  C   UNL     1      18.444  10.941  36.610  1.00  0.00    -0.000 C 
BRANCH   8   9
ATOM      9  C   UNL     1      18.078   9.934  37.707  1.00  0.00    -0.000 C 
BRANCH   9  10
ATOM     10  C   UNL     1      19.162   8.854  37.847  1.00  0.00    -0.000 C 
BRANCH  10  11
ATOM     11  C   UNL     1      18.925   7.659  36.909  1.00  0.00    -0.003 C 
ATOM     12  C   UNL     1      19.215   6.317  37.583  1.00  0.00     0.004 C 
ENDBRANCH  10  11
ENDBRANCH   9  10
ENDBRANCH   8   9
ENDBRANCH   7   8
ENDBRANCH   6   7
ENDBRANCH   5   6
ENDBRANCH   4   5
ENDBRANCH   3   4
ENDBRANCH   2   3
ENDBRANCH   1   2
BRANCH   1  13
ATOM     13  C   UNL     1      24.363  12.151  33.656  1.00  0.00     0.000 C 
BRANCH  13  14
ATOM     14  C   UNL     1      23.902  11.602  32.294  1.00  0.00     0.000 C 
BRANCH  14  15
ATOM     15  C   UNL     1      24.832  10.506  31.750  1.00  0.00     0.000 C 
BRANCH  15  16
ATOM     16  C   UNL     1      26.311  10.922  31.763  1.00  0.00     0.000 C 
BRANCH  16  17
ATOM     17  C   UNL     1      26.605  11.950  30.659  1.00  0.00     0.000 C 
BRANCH  17  18
ATOM     18  C   UNL     1      27.589  13.048  31.107  1.00  0.00     0.000 C 
BRANCH  18  19
ATOM     19  C   UNL     1      28.353  12.744  32.411  1.00  0.00     0.000 C 
BRANCH  19  20
ATOM     20  C   UNL     1      28.027  13.737  33.540  1.00  0.00     0.006 C 
BRANCH  20  21
ATOM     21  C   UNL     1      27.793  13.031  34.883  1.00  0.00     0.053 C 
BRANCH  21  22
ATOM     22  C   UNL     1      27.196  13.952  35.903  1.00  0.00     0.041 C 
ATOM     23  O   UNL     1      27.839  14.961  36.298  1.00  0.00    -0.550 OA
ATOM     24  O   UNL     1      25.946  13.677  36.444  1.00  0.00    -0.550 OA
ENDBRANCH  21  22
ENDBRANCH  20  21
ENDBRANCH  19  20
ENDBRANCH  18  19
ENDBRANCH  17  18
ENDBRANCH  16  17
ENDBRANCH  15  16
ENDBRANCH  14  15
ENDBRANCH  13  14
ENDBRANCH   1  13
TORSDOF 20
ENDMDL
MODEL 9
REMARK VINA RESULT:    -4.760      2.310      6.525
REMARK INTER + INTRA:         -13.136
REMARK INTER:                  -9.535
REMARK INTRA:                  -3.601
REMARK UNBOUND:                -2.810
REMARK SMILES CCCCCCCCCCCCCCCCCCCCCC(=O)[O-]
REMARK SMILES IDX 12 1 11 2 10 3 9 4 8 5 7 6 6 7 5 8 4 9 3 10 2 11 1 12 13 13
REMARK SMILES IDX 14 14 15 15 16 16 17 17 18 18 19 19 20 20 21 21 22 22 23 23
REMARK SMILES IDX 24 24
REMARK H PARENT
REMARK Flexibility Score: inf
ROOT
ATOM      1  C   UNL     1      24.031   9.306  29.924  1.00  0.00     0.000 C 
ENDROOT
BRANCH   1   2
ATOM      2  C   UNL     1      25.359   9.002  30.640  1.00  0.00     0.000 C 
BRANCH   2   3
ATOM      3  C   UNL     1      25.900  10.212  31.431  1.00  0.00     0.000 C 
BRANCH   3   4
ATOM      4  C   UNL     1      25.287  11.563  31.011  1.00  0.00    -0.000 C 
BRANCH   4   5
ATOM      5  C   UNL     1      24.896  12.495  32.171  1.00  0.00    -0.000 C 
BRANCH   5   6
ATOM      6  C   UNL     1      24.143  11.817  33.334  1.00  0.00    -0.000 C 
BRANCH   6   7
ATOM      7  C   UNL     1      24.682  12.192  34.730  1.00  0.00    -0.000 C 
BRANCH   7   8
ATOM      8  C   UNL     1      26.199  11.983  34.853  1.00  0.00    -0.000 C 
BRANCH   8   9
ATOM      9  C   UNL     1      26.894  13.259  35.343  1.00  0.00    -0.000 C 
BRANCH   9  10
ATOM     10  C   UNL     1      27.998  13.693  34.366  1.00  0.00    -0.000 C 
BRANCH  10  11
ATOM     11  C   UNL     1      28.405  12.567  33.401  1.00  0.00    -0.003 C 
ATOM     12  C   UNL     1      28.608  13.064  31.969  1.00  0.00     0.004 C 
ENDBRANCH  10  11
ENDBRANCH   9  10
ENDBRANCH   8   9
ENDBRANCH   7   8
ENDBRANCH   6   7
ENDBRANCH   5   6
ENDBRANCH   4   5
ENDBRANCH   3   4
ENDBRANCH   2   3
ENDBRANCH   1   2
BRANCH   1  13
ATOM     13  C   UNL     1      22.842   8.553  30.542  1.00  0.00     0.000 C 
BRANCH  13  14
ATOM     14  C   UNL     1      21.744   9.499  31.062  1.00  0.00     0.000 C 
BRANCH  14  15
ATOM     15  C   UNL     1      21.698  10.832  30.300  1.00  0.00     0.000 C 
BRANCH  15  16
ATOM     16  C   UNL     1      21.137  11.983  31.151  1.00  0.00     0.000 C 
BRANCH  16  17
ATOM     17  C   UNL     1      21.584  13.346  30.600  1.00  0.00     0.000 C 
BRANCH  17  18
ATOM     18  C   UNL     1      21.623  14.446  31.678  1.00  0.00     0.000 C 
BRANCH  18  19
ATOM     19  C   UNL     1      20.326  14.602  32.495  1.00  0.00     0.000 C 
BRANCH  19  20
ATOM     20  C   UNL     1      20.588  14.915  33.979  1.00  0.00     0.006 C 
BRANCH  20  21
ATOM     21  C   UNL     1      21.349  13.782  34.684  1.00  0.00     0.053 C 
BRANCH  21  22
ATOM     22  C   UNL     1      20.452  12.979  35.578  1.00  0.00     0.041 C 
ATOM     23  O   UNL     1      19.553  13.551  36.250  1.00  0.00    -0.550 OA
ATOM     24  O   UNL     1      20.633  11.607  35.696  1.00  0.00    -0.550 OA
ENDBRANCH  21  22
ENDBRANCH  20  21
ENDBRANCH  19  20
ENDBRANCH  18  19
ENDBRANCH  17  18
ENDBRANCH  16  17
ENDBRANCH  15  16
ENDBRANCH  14  15
ENDBRANCH  13  14
ENDBRANCH   1  13
TORSDOF 20
ENDMDL
