MODEL 1
REMARK VINA RESULT:    -7.631      0.000      0.000
REMARK INTER + INTRA:         -14.764
REMARK INTER:                 -12.538
REMARK INTRA:                  -2.226
REMARK UNBOUND:                -2.226
REMARK SMILES C[C@@H]1O[C@H](OC[C@@H]2O[C@H](Oc3c(-c4ccc(O)c(O)c4)oc4cc(O)cc(O)c4c3=O)[C@@H](O)[C@@H](O)[C@H]2O)[C@@H](O)[C@@H](O)[C@H]1O
REMARK SMILES IDX 7 1 36 2 34 3 32 4 9 5 8 6 6 7 5 8 4 9 1 10 2 11 42 12 3 13
REMARK SMILES IDX 40 14 38 15 43 16 41 18 39 20 37 22 35 24 10 26 11 27 12 28
REMARK SMILES IDX 30 29 21 30 29 31 31 32 22 33 27 34 23 35 26 36 24 37 13 38
REMARK SMILES IDX 20 39 14 40 18 41 15 42 16 43 19 44 17 46 28 48 25 50 33 52
REMARK H PARENT 43 17 41 19 39 21 37 23 35 25 19 45 17 47 28 49 25 51 33 53
REMARK Flexibility Score: inf
ROOT
ATOM      1  C   UNL     1      13.900  48.341  45.878  1.00  0.00     0.180 C 
ATOM      2  C   UNL     1      13.518  47.896  47.310  1.00  0.00     0.177 C 
ATOM      3  C   UNL     1      14.780  47.542  48.124  1.00  0.00     0.180 C 
ATOM      4  C   UNL     1      15.792  48.691  48.069  1.00  0.00     0.214 C 
ATOM      5  C   UNL     1      16.060  49.115  46.604  1.00  0.00     0.339 C 
ATOM      6  O   UNL     1      14.884  49.365  45.839  1.00  0.00    -0.332 OA
ENDROOT
BRANCH   1   7
ATOM      7  C   UNL     1      14.176  47.205  44.854  1.00  0.00     0.198 C 
BRANCH   7   8
ATOM      8  O   UNL     1      13.011  46.452  44.543  1.00  0.00    -0.347 OA
BRANCH   8   9
ATOM      9  C   UNL     1      12.939  45.247  45.301  1.00  0.00     0.281 C 
ATOM     10  C   UNL     1      11.169  45.079  42.766  1.00  0.00     0.041 C 
ATOM     11  C   UNL     1      11.456  44.038  43.859  1.00  0.00     0.150 C 
ATOM     12  C   UNL     1      12.553  43.023  43.461  1.00  0.00     0.174 C 
ATOM     13  O   UNL     1      11.677  44.623  45.135  1.00  0.00    -0.344 OA
ATOM     14  C   UNL     1      13.943  43.657  43.593  1.00  0.00     0.179 C 
ATOM     15  C   UNL     1      14.116  44.300  44.978  1.00  0.00     0.202 C 
BRANCH  12  16
ATOM     16  O   UNL     1      12.481  41.876  44.269  1.00  0.00    -0.388 OA
ATOM     17  H   UNL     1      12.692  41.097  43.692  1.00  0.00     0.211 HD
ENDBRANCH  12  16
BRANCH  14  18
ATOM     18  O   UNL     1      14.930  42.682  43.380  1.00  0.00    -0.387 OA
ATOM     19  H   UNL     1      14.522  41.801  43.604  1.00  0.00     0.211 HD
ENDBRANCH  14  18
BRANCH  15  20
ATOM     20  O   UNL     1      14.204  43.299  45.957  1.00  0.00    -0.385 OA
ATOM     21  H   UNL     1      13.474  42.649  45.776  1.00  0.00     0.211 HD
ENDBRANCH  15  20
ENDBRANCH   8   9
ENDBRANCH   7   8
ENDBRANCH   1   7
BRANCH   2  22
ATOM     22  O   UNL     1      12.799  48.927  47.940  1.00  0.00    -0.387 OA
ATOM     23  H   UNL     1      11.832  48.714  47.848  1.00  0.00     0.211 HD
ENDBRANCH   2  22
BRANCH   3  24
ATOM     24  O   UNL     1      14.463  47.242  49.462  1.00  0.00    -0.387 OA
ATOM     25  H   UNL     1      14.786  48.000  50.012  1.00  0.00     0.211 HD
ENDBRANCH   3  24
BRANCH   5  26
ATOM     26  O   UNL     1      16.917  48.167  45.947  1.00  0.00    -0.454 OA
BRANCH  26  27
ATOM     27  C   UNL     1      18.198  48.471  45.441  1.00  0.00     0.214 A 
ATOM     28  C   UNL     1      18.393  48.529  44.052  1.00  0.00     0.180 A 
ATOM     29  C   UNL     1      19.311  48.713  46.277  1.00  0.00     0.239 A 
ATOM     30  O   UNL     1      19.542  48.965  43.555  1.00  0.00    -0.452 OA
ATOM     31  C   UNL     1      20.505  49.230  45.724  1.00  0.00     0.111 A 
ATOM     32  O   UNL     1      19.246  48.406  47.499  1.00  0.00    -0.285 OA
ATOM     33  C   UNL     1      20.572  49.322  44.310  1.00  0.00     0.146 A 
ATOM     34  C   UNL     1      21.642  49.632  46.489  1.00  0.00     0.134 A 
ATOM     35  C   UNL     1      21.741  49.761  43.682  1.00  0.00     0.094 A 
ATOM     36  C   UNL     1      22.813  50.029  45.831  1.00  0.00     0.093 A 
ATOM     37  C   UNL     1      22.865  50.103  44.440  1.00  0.00     0.123 A 
BRANCH  28  38
ATOM     38  C   UNL     1      17.362  48.068  43.111  1.00  0.00     0.025 A 
ATOM     39  C   UNL     1      16.435  48.970  42.578  1.00  0.00     0.062 A 
ATOM     40  C   UNL     1      17.396  46.745  42.640  1.00  0.00     0.016 A 
ATOM     41  C   UNL     1      15.533  48.562  41.587  1.00  0.00     0.158 A 
ATOM     42  C   UNL     1      16.528  46.341  41.621  1.00  0.00     0.051 A 
ATOM     43  C   UNL     1      15.592  47.233  41.088  1.00  0.00     0.157 A 
BRANCH  41  44
ATOM     44  O   UNL     1      14.603  49.497  41.122  1.00  0.00    -0.504 OA
ATOM     45  H   UNL     1      14.576  49.844  40.174  1.00  0.00     0.293 HD
ENDBRANCH  41  44
BRANCH  43  46
ATOM     46  O   UNL     1      14.758  46.767  40.068  1.00  0.00    -0.504 OA
ATOM     47  H   UNL     1      14.948  46.886  39.082  1.00  0.00     0.293 HD
ENDBRANCH  43  46
ENDBRANCH  28  38
BRANCH  34  48
ATOM     48  O   UNL     1      21.659  49.695  47.887  1.00  0.00    -0.507 OA
ATOM     49  H   UNL     1      22.471  49.902  48.452  1.00  0.00     0.293 HD
ENDBRANCH  34  48
BRANCH  37  50
ATOM     50  O   UNL     1      24.041  50.526  43.816  1.00  0.00    -0.508 OA
ATOM     51  H   UNL     1      24.383  51.474  43.944  1.00  0.00     0.293 HD
ENDBRANCH  37  50
ENDBRANCH  26  27
ENDBRANCH   5  26
BRANCH   4  52
ATOM     52  O   UNL     1      15.381  49.776  48.868  1.00  0.00    -0.384 OA
ATOM     53  H   UNL     1      14.424  49.957  48.686  1.00  0.00     0.211 HD
ENDBRANCH   4  52
TORSDOF 16
ENDMDL
MODEL 2
REMARK VINA RESULT:    -7.446      0.910      1.405
REMARK INTER + INTRA:         -14.459
REMARK INTER:                 -11.826
REMARK INTRA:                  -2.634
REMARK UNBOUND:                -2.226
REMARK SMILES C[C@@H]1O[C@H](OC[C@@H]2O[C@H](Oc3c(-c4ccc(O)c(O)c4)oc4cc(O)cc(O)c4c3=O)[C@@H](O)[C@@H](O)[C@H]2O)[C@@H](O)[C@@H](O)[C@H]1O
REMARK SMILES IDX 7 1 36 2 34 3 32 4 9 5 8 6 6 7 5 8 4 9 1 10 2 11 42 12 3 13
REMARK SMILES IDX 40 14 38 15 43 16 41 18 39 20 37 22 35 24 10 26 11 27 12 28
REMARK SMILES IDX 30 29 21 30 29 31 31 32 22 33 27 34 23 35 26 36 24 37 13 38
REMARK SMILES IDX 20 39 14 40 18 41 15 42 16 43 19 44 17 46 28 48 25 50 33 52
REMARK H PARENT 43 17 41 19 39 21 37 23 35 25 19 45 17 47 28 49 25 51 33 53
REMARK Flexibility Score: inf
ROOT
ATOM      1  C   UNL     1      13.913  48.269  45.752  1.00  0.00     0.180 C 
ATOM      2  C   UNL     1      13.496  47.842  47.179  1.00  0.00     0.177 C 
ATOM      3  C   UNL     1      14.739  47.512  48.032  1.00  0.00     0.180 C 
ATOM      4  C   UNL     1      15.741  48.670  47.987  1.00  0.00     0.214 C 
ATOM      5  C   UNL     1      16.045  49.075  46.524  1.00  0.00     0.339 C 
ATOM      6  O   UNL     1      14.889  49.302  45.723  1.00  0.00    -0.332 OA
ENDROOT
BRANCH   1   7
ATOM      7  C   UNL     1      14.228  47.120  44.753  1.00  0.00     0.198 C 
BRANCH   7   8
ATOM      8  O   UNL     1      13.863  45.842  45.255  1.00  0.00    -0.347 OA
BRANCH   8   9
ATOM      9  C   UNL     1      13.988  44.825  44.263  1.00  0.00     0.281 C 
ATOM     10  C   UNL     1      11.716  44.163  46.260  1.00  0.00     0.041 C 
ATOM     11  C   UNL     1      12.202  43.414  45.010  1.00  0.00     0.150 C 
ATOM     12  C   UNL     1      11.348  43.707  43.755  1.00  0.00     0.174 C 
ATOM     13  O   UNL     1      13.596  43.566  44.782  1.00  0.00    -0.344 OA
ATOM     14  C   UNL     1      11.709  45.076  43.168  1.00  0.00     0.179 C 
ATOM     15  C   UNL     1      13.229  45.197  42.970  1.00  0.00     0.202 C 
BRANCH  12  16
ATOM     16  O   UNL     1      11.543  42.712  42.782  1.00  0.00    -0.388 OA
ATOM     17  H   UNL     1      12.412  42.276  42.978  1.00  0.00     0.211 HD
ENDBRANCH  12  16
BRANCH  14  18
ATOM     18  O   UNL     1      11.042  45.260  41.946  1.00  0.00    -0.387 OA
ATOM     19  H   UNL     1      11.481  46.029  41.488  1.00  0.00     0.211 HD
ENDBRANCH  14  18
BRANCH  15  20
ATOM     20  O   UNL     1      13.638  44.360  41.921  1.00  0.00    -0.385 OA
ATOM     21  H   UNL     1      13.360  44.797  41.072  1.00  0.00     0.211 HD
ENDBRANCH  15  20
ENDBRANCH   8   9
ENDBRANCH   7   8
ENDBRANCH   1   7
BRANCH   2  22
ATOM     22  O   UNL     1      12.750  48.875  47.773  1.00  0.00    -0.387 OA
ATOM     23  H   UNL     1      11.830  48.530  47.922  1.00  0.00     0.211 HD
ENDBRANCH   2  22
BRANCH   3  24
ATOM     24  O   UNL     1      14.388  47.230  49.365  1.00  0.00    -0.387 OA
ATOM     25  H   UNL     1      13.405  47.115  49.388  1.00  0.00     0.211 HD
ENDBRANCH   3  24
BRANCH   5  26
ATOM     26  O   UNL     1      16.929  48.126  45.905  1.00  0.00    -0.454 OA
BRANCH  26  27
ATOM     27  C   UNL     1      18.212  48.439  45.410  1.00  0.00     0.214 A 
ATOM     28  C   UNL     1      18.418  48.498  44.022  1.00  0.00     0.180 A 
ATOM     29  C   UNL     1      19.316  48.691  46.255  1.00  0.00     0.239 A 
ATOM     30  O   UNL     1      19.568  48.942  43.535  1.00  0.00    -0.452 OA
ATOM     31  C   UNL     1      20.510  49.217  45.712  1.00  0.00     0.111 A 
ATOM     32  O   UNL     1      19.242  48.386  47.477  1.00  0.00    -0.285 OA
ATOM     33  C   UNL     1      20.588  49.308  44.299  1.00  0.00     0.146 A 
ATOM     34  C   UNL     1      21.637  49.630  46.487  1.00  0.00     0.134 A 
ATOM     35  C   UNL     1      21.759  49.756  43.680  1.00  0.00     0.094 A 
ATOM     36  C   UNL     1      22.810  50.035  45.838  1.00  0.00     0.093 A 
ATOM     37  C   UNL     1      22.874  50.108  44.448  1.00  0.00     0.123 A 
BRANCH  28  38
ATOM     38  C   UNL     1      17.400  48.027  43.074  1.00  0.00     0.025 A 
ATOM     39  C   UNL     1      16.459  48.917  42.544  1.00  0.00     0.062 A 
ATOM     40  C   UNL     1      17.457  46.709  42.591  1.00  0.00     0.016 A 
ATOM     41  C   UNL     1      15.568  48.503  41.546  1.00  0.00     0.158 A 
ATOM     42  C   UNL     1      16.601  46.299  41.566  1.00  0.00     0.051 A 
ATOM     43  C   UNL     1      15.652  47.179  41.036  1.00  0.00     0.157 A 
BRANCH  41  44
ATOM     44  O   UNL     1      14.625  49.426  41.085  1.00  0.00    -0.504 OA
ATOM     45  H   UNL     1      13.708  49.548  41.492  1.00  0.00     0.293 HD
ENDBRANCH  41  44
BRANCH  43  46
ATOM     46  O   UNL     1      14.831  46.708  40.008  1.00  0.00    -0.504 OA
ATOM     47  H   UNL     1      13.864  46.975  39.887  1.00  0.00     0.293 HD
ENDBRANCH  43  46
ENDBRANCH  28  38
BRANCH  34  48
ATOM     48  O   UNL     1      21.641  49.694  47.885  1.00  0.00    -0.507 OA
ATOM     49  H   UNL     1      22.227  50.304  48.439  1.00  0.00     0.293 HD
ENDBRANCH  34  48
BRANCH  37  50
ATOM     50  O   UNL     1      24.051  50.540  43.833  1.00  0.00    -0.508 OA
ATOM     51  H   UNL     1      24.791  49.880  43.609  1.00  0.00     0.293 HD
ENDBRANCH  37  50
ENDBRANCH  26  27
ENDBRANCH   5  26
BRANCH   4  52
ATOM     52  O   UNL     1      15.299  49.763  48.758  1.00  0.00    -0.384 OA
ATOM     53  H   UNL     1      15.201  49.467  49.699  1.00  0.00     0.211 HD
ENDBRANCH   4  52
TORSDOF 16
ENDMDL
MODEL 3
REMARK VINA RESULT:    -7.386      2.464      7.260
REMARK INTER + INTRA:         -14.362
REMARK INTER:                 -11.974
REMARK INTRA:                  -2.387
REMARK UNBOUND:                -2.226
REMARK SMILES C[C@@H]1O[C@H](OC[C@@H]2O[C@H](Oc3c(-c4ccc(O)c(O)c4)oc4cc(O)cc(O)c4c3=O)[C@@H](O)[C@@H](O)[C@H]2O)[C@@H](O)[C@@H](O)[C@H]1O
REMARK SMILES IDX 7 1 36 2 34 3 32 4 9 5 8 6 6 7 5 8 4 9 1 10 2 11 42 12 3 13
REMARK SMILES IDX 40 14 38 15 43 16 41 18 39 20 37 22 35 24 10 26 11 27 12 28
REMARK SMILES IDX 30 29 21 30 29 31 31 32 22 33 27 34 23 35 26 36 24 37 13 38
REMARK SMILES IDX 20 39 14 40 18 41 15 42 16 43 19 44 17 46 28 48 25 50 33 52
REMARK H PARENT 43 17 41 19 39 21 37 23 35 25 19 45 17 47 28 49 25 51 33 53
REMARK Flexibility Score: inf
ROOT
ATOM      1  C   UNL     1      14.806  46.936  46.032  1.00  0.00     0.180 C 
ATOM      2  C   UNL     1      14.053  48.238  45.671  1.00  0.00     0.177 C 
ATOM      3  C   UNL     1      14.166  48.530  44.160  1.00  0.00     0.180 C 
ATOM      4  C   UNL     1      13.737  47.306  43.345  1.00  0.00     0.214 C 
ATOM      5  C   UNL     1      14.490  46.040  43.821  1.00  0.00     0.339 C 
ATOM      6  O   UNL     1      14.444  45.821  45.228  1.00  0.00    -0.332 OA
ENDROOT
BRANCH   1   7
ATOM      7  C   UNL     1      16.343  47.060  46.226  1.00  0.00     0.198 C 
BRANCH   7   8
ATOM      8  O   UNL     1      16.695  47.577  47.502  1.00  0.00    -0.347 OA
BRANCH   8   9
ATOM      9  C   UNL     1      17.062  48.953  47.436  1.00  0.00     0.281 C 
ATOM     10  C   UNL     1      15.671  48.297  50.124  1.00  0.00     0.041 C 
ATOM     11  C   UNL     1      16.281  49.608  49.603  1.00  0.00     0.150 C 
ATOM     12  C   UNL     1      17.714  49.862  50.125  1.00  0.00     0.174 C 
ATOM     13  O   UNL     1      16.168  49.749  48.195  1.00  0.00    -0.344 OA
ATOM     14  C   UNL     1      18.724  49.000  49.358  1.00  0.00     0.179 C 
ATOM     15  C   UNL     1      18.538  49.167  47.841  1.00  0.00     0.202 C 
BRANCH  12  16
ATOM     16  O   UNL     1      18.055  51.218  49.990  1.00  0.00    -0.388 OA
ATOM     17  H   UNL     1      18.516  51.319  49.117  1.00  0.00     0.211 HD
ENDBRANCH  12  16
BRANCH  14  18
ATOM     18  O   UNL     1      20.030  49.354  49.732  1.00  0.00    -0.387 OA
ATOM     19  H   UNL     1      19.958  49.876  50.578  1.00  0.00     0.211 HD
ENDBRANCH  14  18
BRANCH  15  20
ATOM     20  O   UNL     1      18.956  50.449  47.452  1.00  0.00    -0.385 OA
ATOM     21  H   UNL     1      19.400  50.863  48.239  1.00  0.00     0.211 HD
ENDBRANCH  15  20
ENDBRANCH   8   9
ENDBRANCH   7   8
ENDBRANCH   1   7
BRANCH   2  22
ATOM     22  O   UNL     1      12.704  48.114  46.050  1.00  0.00    -0.387 OA
ATOM     23  H   UNL     1      12.376  47.243  45.701  1.00  0.00     0.211 HD
ENDBRANCH   2  22
BRANCH   3  24
ATOM     24  O   UNL     1      13.395  49.648  43.792  1.00  0.00    -0.387 OA
ATOM     25  H   UNL     1      13.008  49.453  42.902  1.00  0.00     0.211 HD
ENDBRANCH   3  24
BRANCH   5  26
ATOM     26  O   UNL     1      15.843  46.039  43.338  1.00  0.00    -0.454 OA
BRANCH  26  27
ATOM     27  C   UNL     1      16.201  46.131  41.977  1.00  0.00     0.214 A 
ATOM     28  C   UNL     1      17.077  47.149  41.564  1.00  0.00     0.180 A 
ATOM     29  C   UNL     1      15.707  45.244  40.995  1.00  0.00     0.239 A 
ATOM     30  O   UNL     1      17.551  47.162  40.327  1.00  0.00    -0.452 OA
ATOM     31  C   UNL     1      16.272  45.245  39.700  1.00  0.00     0.111 A 
ATOM     32  O   UNL     1      14.725  44.502  41.270  1.00  0.00    -0.285 OA
ATOM     33  C   UNL     1      17.208  46.270  39.407  1.00  0.00     0.146 A 
ATOM     34  C   UNL     1      15.942  44.308  38.673  1.00  0.00     0.134 A 
ATOM     35  C   UNL     1      17.763  46.380  38.128  1.00  0.00     0.094 A 
ATOM     36  C   UNL     1      16.483  44.468  37.391  1.00  0.00     0.093 A 
ATOM     37  C   UNL     1      17.393  45.488  37.117  1.00  0.00     0.123 A 
BRANCH  28  38
ATOM     38  C   UNL     1      17.454  48.249  42.462  1.00  0.00     0.025 A 
ATOM     39  C   UNL     1      18.549  48.118  43.322  1.00  0.00     0.062 A 
ATOM     40  C   UNL     1      16.797  49.486  42.357  1.00  0.00     0.016 A 
ATOM     41  C   UNL     1      18.990  49.206  44.087  1.00  0.00     0.158 A 
ATOM     42  C   UNL     1      17.256  50.588  43.084  1.00  0.00     0.051 A 
ATOM     43  C   UNL     1      18.345  50.465  43.952  1.00  0.00     0.157 A 
BRANCH  41  44
ATOM     44  O   UNL     1      20.064  49.003  44.958  1.00  0.00    -0.504 OA
ATOM     45  H   UNL     1      20.577  48.135  45.030  1.00  0.00     0.293 HD
ENDBRANCH  41  44
BRANCH  43  46
ATOM     46  O   UNL     1      18.757  51.607  44.644  1.00  0.00    -0.504 OA
ATOM     47  H   UNL     1      18.256  52.009  45.424  1.00  0.00     0.293 HD
ENDBRANCH  43  46
ENDBRANCH  28  38
BRANCH  34  48
ATOM     48  O   UNL     1      15.124  43.190  38.871  1.00  0.00    -0.507 OA
ATOM     49  H   UNL     1      14.138  43.221  39.093  1.00  0.00     0.293 HD
ENDBRANCH  34  48
BRANCH  37  50
ATOM     50  O   UNL     1      17.932  45.605  35.835  1.00  0.00    -0.508 OA
ATOM     51  H   UNL     1      18.934  45.710  35.701  1.00  0.00     0.293 HD
ENDBRANCH  37  50
ENDBRANCH  26  27
ENDBRANCH   5  26
BRANCH   4  52
ATOM     52  O   UNL     1      12.339  47.134  43.374  1.00  0.00    -0.384 OA
ATOM     53  H   UNL     1      11.912  48.026  43.429  1.00  0.00     0.211 HD
ENDBRANCH   4  52
TORSDOF 16
ENDMDL
MODEL 4
REMARK VINA RESULT:    -7.245      2.507      7.674
REMARK INTER + INTRA:         -14.130
REMARK INTER:                 -11.850
REMARK INTRA:                  -2.279
REMARK UNBOUND:                -2.226
REMARK SMILES C[C@@H]1O[C@H](OC[C@@H]2O[C@H](Oc3c(-c4ccc(O)c(O)c4)oc4cc(O)cc(O)c4c3=O)[C@@H](O)[C@@H](O)[C@H]2O)[C@@H](O)[C@@H](O)[C@H]1O
REMARK SMILES IDX 7 1 36 2 34 3 32 4 9 5 8 6 6 7 5 8 4 9 1 10 2 11 42 12 3 13
REMARK SMILES IDX 40 14 38 15 43 16 41 18 39 20 37 22 35 24 10 26 11 27 12 28
REMARK SMILES IDX 30 29 21 30 29 31 31 32 22 33 27 34 23 35 26 36 24 37 13 38
REMARK SMILES IDX 20 39 14 40 18 41 15 42 16 43 19 44 17 46 28 48 25 50 33 52
REMARK H PARENT 43 17 41 19 39 21 37 23 35 25 19 45 17 47 28 49 25 51 33 53
REMARK Flexibility Score: inf
ROOT
ATOM      1  C   UNL     1      16.327  50.513  44.989  1.00  0.00     0.180 C 
ATOM      2  C   UNL     1      17.795  50.990  44.879  1.00  0.00     0.177 C 
ATOM      3  C   UNL     1      18.647  49.955  44.114  1.00  0.00     0.180 C 
ATOM      4  C   UNL     1      17.992  49.611  42.772  1.00  0.00     0.214 C 
ATOM      5  C   UNL     1      16.509  49.213  42.972  1.00  0.00     0.339 C 
ATOM      6  O   UNL     1      15.751  50.138  43.746  1.00  0.00    -0.332 OA
ENDROOT
BRANCH   1   7
ATOM      7  C   UNL     1      16.016  49.498  46.124  1.00  0.00     0.198 C 
BRANCH   7   8
ATOM      8  O   UNL     1      17.115  48.645  46.414  1.00  0.00    -0.347 OA
BRANCH   8   9
ATOM      9  C   UNL     1      17.241  48.396  47.812  1.00  0.00     0.281 C 
ATOM     10  C   UNL     1      19.802  47.549  46.292  1.00  0.00     0.041 C 
ATOM     11  C   UNL     1      19.472  47.524  47.792  1.00  0.00     0.150 C 
ATOM     12  C   UNL     1      20.034  48.743  48.560  1.00  0.00     0.174 C 
ATOM     13  O   UNL     1      18.095  47.291  48.051  1.00  0.00    -0.344 OA
ATOM     14  C   UNL     1      19.164  49.980  48.312  1.00  0.00     0.179 C 
ATOM     15  C   UNL     1      17.683  49.664  48.577  1.00  0.00     0.202 C 
BRANCH  12  16
ATOM     16  O   UNL     1      20.089  48.475  49.939  1.00  0.00    -0.388 OA
ATOM     17  H   UNL     1      21.001  48.714  50.247  1.00  0.00     0.211 HD
ENDBRANCH  12  16
BRANCH  14  18
ATOM     18  O   UNL     1      19.593  51.034  49.134  1.00  0.00    -0.387 OA
ATOM     19  H   UNL     1      20.552  50.865  49.347  1.00  0.00     0.211 HD
ENDBRANCH  14  18
BRANCH  15  20
ATOM     20  O   UNL     1      17.477  49.485  49.953  1.00  0.00    -0.385 OA
ATOM     21  H   UNL     1      17.183  48.544  50.085  1.00  0.00     0.211 HD
ENDBRANCH  15  20
ENDBRANCH   8   9
ENDBRANCH   7   8
ENDBRANCH   1   7
BRANCH   2  22
ATOM     22  O   UNL     1      17.831  52.235  44.228  1.00  0.00    -0.387 OA
ATOM     23  H   UNL     1      18.094  52.916  44.903  1.00  0.00     0.211 HD
ENDBRANCH   2  22
BRANCH   3  24
ATOM     24  O   UNL     1      19.958  50.419  43.906  1.00  0.00    -0.387 OA
ATOM     25  H   UNL     1      19.951  51.394  44.081  1.00  0.00     0.211 HD
ENDBRANCH   3  24
BRANCH   5  26
ATOM     26  O   UNL     1      16.405  47.882  43.503  1.00  0.00    -0.454 OA
BRANCH  26  27
ATOM     27  C   UNL     1      15.918  46.774  42.779  1.00  0.00     0.214 A 
ATOM     28  C   UNL     1      14.586  46.366  42.958  1.00  0.00     0.180 A 
ATOM     29  C   UNL     1      16.720  46.039  41.877  1.00  0.00     0.239 A 
ATOM     30  O   UNL     1      14.062  45.432  42.178  1.00  0.00    -0.452 OA
ATOM     31  C   UNL     1      16.122  45.088  41.020  1.00  0.00     0.111 A 
ATOM     32  O   UNL     1      17.971  46.197  41.892  1.00  0.00    -0.285 OA
ATOM     33  C   UNL     1      14.749  44.804  41.233  1.00  0.00     0.146 A 
ATOM     34  C   UNL     1      16.812  44.385  39.985  1.00  0.00     0.134 A 
ATOM     35  C   UNL     1      14.098  43.828  40.471  1.00  0.00     0.094 A 
ATOM     36  C   UNL     1      16.146  43.385  39.266  1.00  0.00     0.093 A 
ATOM     37  C   UNL     1      14.798  43.111  39.496  1.00  0.00     0.123 A 
BRANCH  28  38
ATOM     38  C   UNL     1      13.752  46.917  44.035  1.00  0.00     0.025 A 
ATOM     39  C   UNL     1      13.910  46.472  45.352  1.00  0.00     0.062 A 
ATOM     40  C   UNL     1      12.891  47.993  43.764  1.00  0.00     0.016 A 
ATOM     41  C   UNL     1      13.208  47.082  46.400  1.00  0.00     0.158 A 
ATOM     42  C   UNL     1      12.220  48.635  44.808  1.00  0.00     0.051 A 
ATOM     43  C   UNL     1      12.364  48.191  46.126  1.00  0.00     0.157 A 
BRANCH  41  44
ATOM     44  O   UNL     1      13.376  46.566  47.688  1.00  0.00    -0.504 OA
ATOM     45  H   UNL     1      12.634  46.496  48.371  1.00  0.00     0.293 HD
ENDBRANCH  41  44
BRANCH  43  46
ATOM     46  O   UNL     1      11.671  48.881  47.124  1.00  0.00    -0.504 OA
ATOM     47  H   UNL     1      10.730  48.659  47.419  1.00  0.00     0.293 HD
ENDBRANCH  43  46
ENDBRANCH  28  38
BRANCH  34  48
ATOM     48  O   UNL     1      18.131  44.656  39.604  1.00  0.00    -0.507 OA
ATOM     49  H   UNL     1      18.442  45.498  39.140  1.00  0.00     0.293 HD
ENDBRANCH  34  48
BRANCH  37  50
ATOM     50  O   UNL     1      14.158  42.124  38.744  1.00  0.00    -0.508 OA
ATOM     51  H   UNL     1      14.439  41.151  38.819  1.00  0.00     0.293 HD
ENDBRANCH  37  50
ENDBRANCH  26  27
ENDBRANCH   5  26
BRANCH   4  52
ATOM     52  O   UNL     1      18.139  50.661  41.845  1.00  0.00    -0.384 OA
ATOM     53  H   UNL     1      19.101  50.755  41.624  1.00  0.00     0.211 HD
ENDBRANCH   4  52
TORSDOF 16
ENDMDL
MODEL 5
REMARK VINA RESULT:    -7.199      2.495      7.783
REMARK INTER + INTRA:         -14.054
REMARK INTER:                 -12.104
REMARK INTRA:                  -1.950
REMARK UNBOUND:                -2.226
REMARK SMILES C[C@@H]1O[C@H](OC[C@@H]2O[C@H](Oc3c(-c4ccc(O)c(O)c4)oc4cc(O)cc(O)c4c3=O)[C@@H](O)[C@@H](O)[C@H]2O)[C@@H](O)[C@@H](O)[C@H]1O
REMARK SMILES IDX 7 1 36 2 34 3 32 4 9 5 8 6 6 7 5 8 4 9 1 10 2 11 42 12 3 13
REMARK SMILES IDX 40 14 38 15 43 16 41 18 39 20 37 22 35 24 10 26 11 27 12 28
REMARK SMILES IDX 30 29 21 30 29 31 31 32 22 33 27 34 23 35 26 36 24 37 13 38
REMARK SMILES IDX 20 39 14 40 18 41 15 42 16 43 19 44 17 46 28 48 25 50 33 52
REMARK H PARENT 43 17 41 19 39 21 37 23 35 25 19 45 17 47 28 49 25 51 33 53
REMARK Flexibility Score: inf
ROOT
ATOM      1  C   UNL     1      16.084  48.034  45.111  1.00  0.00     0.180 C 
ATOM      2  C   UNL     1      16.450  49.376  44.433  1.00  0.00     0.177 C 
ATOM      3  C   UNL     1      16.612  49.190  42.911  1.00  0.00     0.180 C 
ATOM      4  C   UNL     1      15.376  48.501  42.322  1.00  0.00     0.214 C 
ATOM      5  C   UNL     1      15.045  47.207  43.105  1.00  0.00     0.339 C 
ATOM      6  O   UNL     1      14.974  47.375  44.518  1.00  0.00    -0.332 OA
ENDROOT
BRANCH   1   7
ATOM      7  C   UNL     1      17.265  47.069  45.410  1.00  0.00     0.198 C 
BRANCH   7   8
ATOM      8  O   UNL     1      18.528  47.626  45.070  1.00  0.00    -0.347 OA
BRANCH   8   9
ATOM      9  C   UNL     1      19.457  47.534  46.148  1.00  0.00     0.281 C 
ATOM     10  C   UNL     1      20.185  49.862  44.240  1.00  0.00     0.041 C 
ATOM     11  C   UNL     1      20.842  49.394  45.547  1.00  0.00     0.150 C 
ATOM     12  C   UNL     1      20.400  50.216  46.780  1.00  0.00     0.174 C 
ATOM     13  O   UNL     1      20.737  47.992  45.747  1.00  0.00    -0.344 OA
ATOM     14  C   UNL     1      19.002  49.783  47.239  1.00  0.00     0.179 C 
ATOM     15  C   UNL     1      18.936  48.257  47.410  1.00  0.00     0.202 C 
BRANCH  12  16
ATOM     16  O   UNL     1      21.312  50.053  47.836  1.00  0.00    -0.388 OA
ATOM     17  H   UNL     1      22.075  50.662  47.660  1.00  0.00     0.211 HD
ENDBRANCH  12  16
BRANCH  14  18
ATOM     18  O   UNL     1      18.679  50.425  48.445  1.00  0.00    -0.387 OA
ATOM     19  H   UNL     1      19.540  50.697  48.868  1.00  0.00     0.211 HD
ENDBRANCH  14  18
BRANCH  15  20
ATOM     20  O   UNL     1      19.695  47.873  48.525  1.00  0.00    -0.385 OA
ATOM     21  H   UNL     1      20.560  47.521  48.183  1.00  0.00     0.211 HD
ENDBRANCH  15  20
ENDBRANCH   8   9
ENDBRANCH   7   8
ENDBRANCH   1   7
BRANCH   2  22
ATOM     22  O   UNL     1      15.449  50.324  44.710  1.00  0.00    -0.387 OA
ATOM     23  H   UNL     1      15.517  51.038  44.022  1.00  0.00     0.211 HD
ENDBRANCH   2  22
BRANCH   3  24
ATOM     24  O   UNL     1      16.834  50.418  42.261  1.00  0.00    -0.387 OA
ATOM     25  H   UNL     1      17.808  50.482  42.090  1.00  0.00     0.211 HD
ENDBRANCH   3  24
BRANCH   5  26
ATOM     26  O   UNL     1      15.952  46.150  42.752  1.00  0.00    -0.454 OA
BRANCH  26  27
ATOM     27  C   UNL     1      16.084  45.616  41.453  1.00  0.00     0.214 A 
ATOM     28  C   UNL     1      15.105  44.732  40.971  1.00  0.00     0.180 A 
ATOM     29  C   UNL     1      17.172  45.924  40.606  1.00  0.00     0.239 A 
ATOM     30  O   UNL     1      15.121  44.341  39.705  1.00  0.00    -0.452 OA
ATOM     31  C   UNL     1      17.134  45.542  39.247  1.00  0.00     0.111 A 
ATOM     32  O   UNL     1      18.193  46.485  41.091  1.00  0.00    -0.285 OA
ATOM     33  C   UNL     1      16.059  44.710  38.842  1.00  0.00     0.146 A 
ATOM     34  C   UNL     1      18.114  45.912  38.275  1.00  0.00     0.134 A 
ATOM     35  C   UNL     1      15.984  44.234  37.529  1.00  0.00     0.094 A 
ATOM     36  C   UNL     1      18.035  45.386  36.979  1.00  0.00     0.093 A 
ATOM     37  C   UNL     1      16.977  44.561  36.601  1.00  0.00     0.123 A 
BRANCH  28  38
ATOM     38  C   UNL     1      14.070  44.175  41.854  1.00  0.00     0.025 A 
ATOM     39  C   UNL     1      14.419  43.310  42.897  1.00  0.00     0.062 A 
ATOM     40  C   UNL     1      12.744  44.623  41.736  1.00  0.00     0.016 A 
ATOM     41  C   UNL     1      13.455  42.878  43.817  1.00  0.00     0.158 A 
ATOM     42  C   UNL     1      11.785  44.231  42.674  1.00  0.00     0.051 A 
ATOM     43  C   UNL     1      12.122  43.359  43.715  1.00  0.00     0.157 A 
BRANCH  41  44
ATOM     44  O   UNL     1      13.855  41.982  44.812  1.00  0.00    -0.504 OA
ATOM     45  H   UNL     1      13.918  40.982  44.681  1.00  0.00     0.293 HD
ENDBRANCH  41  44
BRANCH  43  46
ATOM     46  O   UNL     1      11.118  43.012  44.623  1.00  0.00    -0.504 OA
ATOM     47  H   UNL     1      10.230  43.488  44.696  1.00  0.00     0.293 HD
ENDBRANCH  43  46
ENDBRANCH  28  38
BRANCH  34  48
ATOM     48  O   UNL     1      19.154  46.815  38.521  1.00  0.00    -0.507 OA
ATOM     49  H   UNL     1      20.133  46.640  38.340  1.00  0.00     0.293 HD
ENDBRANCH  34  48
BRANCH  37  50
ATOM     50  O   UNL     1      16.915  44.074  35.294  1.00  0.00    -0.508 OA
ATOM     51  H   UNL     1      17.642  44.302  34.622  1.00  0.00     0.293 HD
ENDBRANCH  37  50
ENDBRANCH  26  27
ENDBRANCH   5  26
BRANCH   4  52
ATOM     52  O   UNL     1      14.277  49.380  42.263  1.00  0.00    -0.384 OA
ATOM     53  H   UNL     1      13.579  49.055  42.887  1.00  0.00     0.211 HD
ENDBRANCH   4  52
TORSDOF 16
ENDMDL
MODEL 6
REMARK VINA RESULT:    -7.174      2.006      8.715
REMARK INTER + INTRA:         -14.012
REMARK INTER:                 -11.214
REMARK INTRA:                  -2.798
REMARK UNBOUND:                -2.226
REMARK SMILES C[C@@H]1O[C@H](OC[C@@H]2O[C@H](Oc3c(-c4ccc(O)c(O)c4)oc4cc(O)cc(O)c4c3=O)[C@@H](O)[C@@H](O)[C@H]2O)[C@@H](O)[C@@H](O)[C@H]1O
REMARK SMILES IDX 7 1 36 2 34 3 32 4 9 5 8 6 6 7 5 8 4 9 1 10 2 11 42 12 3 13
REMARK SMILES IDX 40 14 38 15 43 16 41 18 39 20 37 22 35 24 10 26 11 27 12 28
REMARK SMILES IDX 30 29 21 30 29 31 31 32 22 33 27 34 23 35 26 36 24 37 13 38
REMARK SMILES IDX 20 39 14 40 18 41 15 42 16 43 19 44 17 46 28 48 25 50 33 52
REMARK H PARENT 43 17 41 19 39 21 37 23 35 25 19 45 17 47 28 49 25 51 33 53
REMARK Flexibility Score: inf
ROOT
ATOM      1  C   UNL     1      17.517  46.657  41.379  1.00  0.00     0.180 C 
ATOM      2  C   UNL     1      17.291  45.455  40.431  1.00  0.00     0.177 C 
ATOM      3  C   UNL     1      16.201  44.519  40.991  1.00  0.00     0.180 C 
ATOM      4  C   UNL     1      14.931  45.312  41.316  1.00  0.00     0.214 C 
ATOM      5  C   UNL     1      15.262  46.533  42.209  1.00  0.00     0.339 C 
ATOM      6  O   UNL     1      16.323  47.348  41.723  1.00  0.00    -0.332 OA
ENDROOT
BRANCH   1   7
ATOM      7  C   UNL     1      18.437  46.405  42.605  1.00  0.00     0.198 C 
BRANCH   7   8
ATOM      8  O   UNL     1      19.523  47.321  42.673  1.00  0.00    -0.347 OA
BRANCH   8   9
ATOM      9  C   UNL     1      19.357  48.264  43.729  1.00  0.00     0.281 C 
ATOM     10  C   UNL     1      21.391  46.063  44.508  1.00  0.00     0.041 C 
ATOM     11  C   UNL     1      20.915  47.306  45.275  1.00  0.00     0.150 C 
ATOM     12  C   UNL     1      21.885  48.504  45.154  1.00  0.00     0.174 C 
ATOM     13  O   UNL     1      19.568  47.650  44.989  1.00  0.00    -0.344 OA
ATOM     14  C   UNL     1      21.722  49.190  43.792  1.00  0.00     0.179 C 
ATOM     15  C   UNL     1      20.243  49.512  43.521  1.00  0.00     0.202 C 
BRANCH  12  16
ATOM     16  O   UNL     1      21.650  49.436  46.180  1.00  0.00    -0.388 OA
ATOM     17  H   UNL     1      20.927  50.039  45.869  1.00  0.00     0.211 HD
ENDBRANCH  12  16
BRANCH  14  18
ATOM     18  O   UNL     1      22.492  50.364  43.757  1.00  0.00    -0.387 OA
ATOM     19  H   UNL     1      23.263  50.187  43.150  1.00  0.00     0.211 HD
ENDBRANCH  14  18
BRANCH  15  20
ATOM     20  O   UNL     1      19.820  50.544  44.372  1.00  0.00    -0.385 OA
ATOM     21  H   UNL     1      19.723  51.361  43.815  1.00  0.00     0.211 HD
ENDBRANCH  15  20
ENDBRANCH   8   9
ENDBRANCH   7   8
ENDBRANCH   1   7
BRANCH   2  22
ATOM     22  O   UNL     1      16.929  45.929  39.158  1.00  0.00    -0.387 OA
ATOM     23  H   UNL     1      17.744  46.319  38.743  1.00  0.00     0.211 HD
ENDBRANCH   2  22
BRANCH   3  24
ATOM     24  O   UNL     1      15.902  43.480  40.091  1.00  0.00    -0.387 OA
ATOM     25  H   UNL     1      15.693  43.902  39.220  1.00  0.00     0.211 HD
ENDBRANCH   3  24
BRANCH   5  26
ATOM     26  O   UNL     1      15.500  46.123  43.566  1.00  0.00    -0.454 OA
BRANCH  26  27
ATOM     27  C   UNL     1      14.490  45.975  44.540  1.00  0.00     0.214 A 
ATOM     28  C   UNL     1      14.133  47.077  45.333  1.00  0.00     0.180 A 
ATOM     29  C   UNL     1      13.821  44.751  44.766  1.00  0.00     0.239 A 
ATOM     30  O   UNL     1      13.086  47.007  46.142  1.00  0.00    -0.452 OA
ATOM     31  C   UNL     1      12.674  44.720  45.591  1.00  0.00     0.111 A 
ATOM     32  O   UNL     1      14.293  43.689  44.276  1.00  0.00    -0.285 OA
ATOM     33  C   UNL     1      12.352  45.912  46.290  1.00  0.00     0.146 A 
ATOM     34  C   UNL     1      11.847  43.571  45.784  1.00  0.00     0.134 A 
ATOM     35  C   UNL     1      11.271  45.945  47.177  1.00  0.00     0.094 A 
ATOM     36  C   UNL     1      10.797  43.622  46.709  1.00  0.00     0.093 A 
ATOM     37  C   UNL     1      10.501  44.799  47.395  1.00  0.00     0.123 A 
BRANCH  28  38
ATOM     38  C   UNL     1      14.925  48.314  45.332  1.00  0.00     0.025 A 
ATOM     39  C   UNL     1      16.085  48.414  46.107  1.00  0.00     0.062 A 
ATOM     40  C   UNL     1      14.593  49.350  44.443  1.00  0.00     0.016 A 
ATOM     41  C   UNL     1      16.912  49.541  46.013  1.00  0.00     0.158 A 
ATOM     42  C   UNL     1      15.433  50.459  44.312  1.00  0.00     0.051 A 
ATOM     43  C   UNL     1      16.590  50.571  45.089  1.00  0.00     0.157 A 
BRANCH  41  44
ATOM     44  O   UNL     1      18.035  49.601  46.843  1.00  0.00    -0.504 OA
ATOM     45  H   UNL     1      18.083  50.147  47.692  1.00  0.00     0.293 HD
ENDBRANCH  41  44
BRANCH  43  46
ATOM     46  O   UNL     1      17.391  51.701  44.904  1.00  0.00    -0.504 OA
ATOM     47  H   UNL     1      17.690  52.043  44.001  1.00  0.00     0.293 HD
ENDBRANCH  43  46
ENDBRANCH  28  38
BRANCH  34  48
ATOM     48  O   UNL     1      11.993  42.377  45.069  1.00  0.00    -0.507 OA
ATOM     49  H   UNL     1      11.293  41.652  44.995  1.00  0.00     0.293 HD
ENDBRANCH  34  48
BRANCH  37  50
ATOM     50  O   UNL     1       9.432  44.823  48.293  1.00  0.00    -0.508 OA
ATOM     51  H   UNL     1       9.450  45.434  49.104  1.00  0.00     0.293 HD
ENDBRANCH  37  50
ENDBRANCH  26  27
ENDBRANCH   5  26
BRANCH   4  52
ATOM     52  O   UNL     1      14.242  45.684  40.145  1.00  0.00    -0.384 OA
ATOM     53  H   UNL     1      13.506  45.037  39.993  1.00  0.00     0.211 HD
ENDBRANCH   4  52
TORSDOF 16
ENDMDL
MODEL 7
REMARK VINA RESULT:    -7.136      2.403      7.917
REMARK INTER + INTRA:         -13.951
REMARK INTER:                 -11.882
REMARK INTRA:                  -2.069
REMARK UNBOUND:                -2.226
REMARK SMILES C[C@@H]1O[C@H](OC[C@@H]2O[C@H](Oc3c(-c4ccc(O)c(O)c4)oc4cc(O)cc(O)c4c3=O)[C@@H](O)[C@@H](O)[C@H]2O)[C@@H](O)[C@@H](O)[C@H]1O
REMARK SMILES IDX 7 1 36 2 34 3 32 4 9 5 8 6 6 7 5 8 4 9 1 10 2 11 42 12 3 13
REMARK SMILES IDX 40 14 38 15 43 16 41 18 39 20 37 22 35 24 10 26 11 27 12 28
REMARK SMILES IDX 30 29 21 30 29 31 31 32 22 33 27 34 23 35 26 36 24 37 13 38
REMARK SMILES IDX 20 39 14 40 18 41 15 42 16 43 19 44 17 46 28 48 25 50 33 52
REMARK H PARENT 43 17 41 19 39 21 37 23 35 25 19 45 17 47 28 49 25 51 33 53
REMARK Flexibility Score: inf
ROOT
ATOM      1  C   UNL     1      18.979  45.822  41.446  1.00  0.00     0.180 C 
ATOM      2  C   UNL     1      18.381  44.618  40.679  1.00  0.00     0.177 C 
ATOM      3  C   UNL     1      16.904  44.404  41.071  1.00  0.00     0.180 C 
ATOM      4  C   UNL     1      16.115  45.708  40.914  1.00  0.00     0.214 C 
ATOM      5  C   UNL     1      16.822  46.869  41.654  1.00  0.00     0.339 C 
ATOM      6  O   UNL     1      18.206  47.010  41.343  1.00  0.00    -0.332 OA
ENDROOT
BRANCH   1   7
ATOM      7  C   UNL     1      19.460  45.545  42.897  1.00  0.00     0.198 C 
BRANCH   7   8
ATOM      8  O   UNL     1      20.277  46.587  43.413  1.00  0.00    -0.347 OA
BRANCH   8   9
ATOM      9  C   UNL     1      20.449  46.479  44.824  1.00  0.00     0.281 C 
ATOM     10  C   UNL     1      21.183  49.316  43.824  1.00  0.00     0.041 C 
ATOM     11  C   UNL     1      21.161  48.727  45.243  1.00  0.00     0.150 C 
ATOM     12  C   UNL     1      19.870  49.069  46.023  1.00  0.00     0.174 C 
ATOM     13  O   UNL     1      21.479  47.344  45.273  1.00  0.00    -0.344 OA
ATOM     14  C   UNL     1      18.710  48.181  45.555  1.00  0.00     0.179 C 
ATOM     15  C   UNL     1      19.119  46.699  45.578  1.00  0.00     0.202 C 
BRANCH  12  16
ATOM     16  O   UNL     1      20.067  48.895  47.404  1.00  0.00    -0.388 OA
ATOM     17  H   UNL     1      19.215  49.132  47.853  1.00  0.00     0.211 HD
ENDBRANCH  12  16
BRANCH  14  18
ATOM     18  O   UNL     1      17.591  48.392  46.375  1.00  0.00    -0.387 OA
ATOM     19  H   UNL     1      16.792  48.094  45.859  1.00  0.00     0.211 HD
ENDBRANCH  14  18
BRANCH  15  20
ATOM     20  O   UNL     1      19.246  46.264  46.905  1.00  0.00    -0.385 OA
ATOM     21  H   UNL     1      18.977  47.023  47.489  1.00  0.00     0.211 HD
ENDBRANCH  15  20
ENDBRANCH   8   9
ENDBRANCH   7   8
ENDBRANCH   1   7
BRANCH   2  22
ATOM     22  O   UNL     1      18.497  44.845  39.297  1.00  0.00    -0.387 OA
ATOM     23  H   UNL     1      17.763  45.463  39.035  1.00  0.00     0.211 HD
ENDBRANCH   2  22
BRANCH   3  24
ATOM     24  O   UNL     1      16.310  43.385  40.304  1.00  0.00    -0.387 OA
ATOM     25  H   UNL     1      15.481  43.763  39.914  1.00  0.00     0.211 HD
ENDBRANCH   3  24
BRANCH   5  26
ATOM     26  O   UNL     1      16.615  46.772  43.072  1.00  0.00    -0.454 OA
BRANCH  26  27
ATOM     27  C   UNL     1      15.442  47.192  43.735  1.00  0.00     0.214 A 
ATOM     28  C   UNL     1      14.928  48.473  43.476  1.00  0.00     0.180 A 
ATOM     29  C   UNL     1      14.758  46.379  44.665  1.00  0.00     0.239 A 
ATOM     30  O   UNL     1      13.748  48.830  43.962  1.00  0.00    -0.452 OA
ATOM     31  C   UNL     1      13.477  46.761  45.123  1.00  0.00     0.111 A 
ATOM     32  O   UNL     1      15.327  45.350  45.124  1.00  0.00    -0.285 OA
ATOM     33  C   UNL     1      13.014  48.046  44.740  1.00  0.00     0.146 A 
ATOM     34  C   UNL     1      12.643  45.955  45.959  1.00  0.00     0.134 A 
ATOM     35  C   UNL     1      11.785  48.525  45.205  1.00  0.00     0.094 A 
ATOM     36  C   UNL     1      11.437  46.478  46.441  1.00  0.00     0.093 A 
ATOM     37  C   UNL     1      11.002  47.748  46.064  1.00  0.00     0.123 A 
BRANCH  28  38
ATOM     38  C   UNL     1      15.690  49.467  42.709  1.00  0.00     0.025 A 
ATOM     39  C   UNL     1      16.828  50.066  43.259  1.00  0.00     0.062 A 
ATOM     40  C   UNL     1      15.355  49.715  41.367  1.00  0.00     0.016 A 
ATOM     41  C   UNL     1      17.630  50.918  42.488  1.00  0.00     0.158 A 
ATOM     42  C   UNL     1      16.172  50.529  40.578  1.00  0.00     0.051 A 
ATOM     43  C   UNL     1      17.307  51.139  41.122  1.00  0.00     0.157 A 
BRANCH  41  44
ATOM     44  O   UNL     1      18.731  51.519  43.106  1.00  0.00    -0.504 OA
ATOM     45  H   UNL     1      19.113  52.414  42.833  1.00  0.00     0.293 HD
ENDBRANCH  41  44
BRANCH  43  46
ATOM     46  O   UNL     1      18.084  51.936  40.278  1.00  0.00    -0.504 OA
ATOM     47  H   UNL     1      17.739  52.752  39.791  1.00  0.00     0.293 HD
ENDBRANCH  43  46
ENDBRANCH  28  38
BRANCH  34  48
ATOM     48  O   UNL     1      12.937  44.633  46.310  1.00  0.00    -0.507 OA
ATOM     49  H   UNL     1      12.464  43.815  45.949  1.00  0.00     0.293 HD
ENDBRANCH  34  48
BRANCH  37  50
ATOM     50  O   UNL     1       9.783  48.230  46.544  1.00  0.00    -0.508 OA
ATOM     51  H   UNL     1       9.673  49.210  46.788  1.00  0.00     0.293 HD
ENDBRANCH  37  50
ENDBRANCH  26  27
ENDBRANCH   5  26
BRANCH   4  52
ATOM     52  O   UNL     1      15.882  46.007  39.557  1.00  0.00    -0.384 OA
ATOM     53  H   UNL     1      16.680  45.738  39.034  1.00  0.00     0.211 HD
ENDBRANCH   4  52
TORSDOF 16
ENDMDL
MODEL 8
REMARK VINA RESULT:    -7.107      2.313      8.641
REMARK INTER + INTRA:         -13.902
REMARK INTER:                 -11.577
REMARK INTRA:                  -2.325
REMARK UNBOUND:                -2.226
REMARK SMILES C[C@@H]1O[C@H](OC[C@@H]2O[C@H](Oc3c(-c4ccc(O)c(O)c4)oc4cc(O)cc(O)c4c3=O)[C@@H](O)[C@@H](O)[C@H]2O)[C@@H](O)[C@@H](O)[C@H]1O
REMARK SMILES IDX 7 1 36 2 34 3 32 4 9 5 8 6 6 7 5 8 4 9 1 10 2 11 42 12 3 13
REMARK SMILES IDX 40 14 38 15 43 16 41 18 39 20 37 22 35 24 10 26 11 27 12 28
REMARK SMILES IDX 30 29 21 30 29 31 31 32 22 33 27 34 23 35 26 36 24 37 13 38
REMARK SMILES IDX 20 39 14 40 18 41 15 42 16 43 19 44 17 46 28 48 25 50 33 52
REMARK H PARENT 43 17 41 19 39 21 37 23 35 25 19 45 17 47 28 49 25 51 33 53
REMARK Flexibility Score: inf
ROOT
ATOM      1  C   UNL     1      18.798  46.001  41.475  1.00  0.00     0.180 C 
ATOM      2  C   UNL     1      18.546  44.709  40.662  1.00  0.00     0.177 C 
ATOM      3  C   UNL     1      17.110  44.193  40.894  1.00  0.00     0.180 C 
ATOM      4  C   UNL     1      16.093  45.309  40.637  1.00  0.00     0.214 C 
ATOM      5  C   UNL     1      16.464  46.583  41.436  1.00  0.00     0.339 C 
ATOM      6  O   UNL     1      17.814  47.007  41.275  1.00  0.00    -0.332 OA
ENDROOT
BRANCH   1   7
ATOM      7  C   UNL     1      19.166  45.812  42.973  1.00  0.00     0.198 C 
BRANCH   7   8
ATOM      8  O   UNL     1      20.247  46.639  43.381  1.00  0.00    -0.347 OA
BRANCH   8   9
ATOM      9  C   UNL     1      19.831  47.984  43.609  1.00  0.00     0.281 C 
ATOM     10  C   UNL     1      19.924  46.380  46.256  1.00  0.00     0.041 C 
ATOM     11  C   UNL     1      19.586  47.855  45.988  1.00  0.00     0.150 C 
ATOM     12  C   UNL     1      20.778  48.808  46.236  1.00  0.00     0.174 C 
ATOM     13  O   UNL     1      18.964  48.059  44.727  1.00  0.00    -0.344 OA
ATOM     14  C   UNL     1      21.768  48.744  45.067  1.00  0.00     0.179 C 
ATOM     15  C   UNL     1      21.039  48.940  43.728  1.00  0.00     0.202 C 
BRANCH  12  16
ATOM     16  O   UNL     1      20.328  50.129  46.399  1.00  0.00    -0.388 OA
ATOM     17  H   UNL     1      19.844  50.170  47.264  1.00  0.00     0.211 HD
ENDBRANCH  12  16
BRANCH  14  18
ATOM     18  O   UNL     1      22.760  49.724  45.232  1.00  0.00    -0.387 OA
ATOM     19  H   UNL     1      23.507  49.486  44.616  1.00  0.00     0.211 HD
ENDBRANCH  14  18
BRANCH  15  20
ATOM     20  O   UNL     1      20.605  50.270  43.616  1.00  0.00    -0.385 OA
ATOM     21  H   UNL     1      19.630  50.277  43.810  1.00  0.00     0.211 HD
ENDBRANCH  15  20
ENDBRANCH   8   9
ENDBRANCH   7   8
ENDBRANCH   1   7
BRANCH   2  22
ATOM     22  O   UNL     1      18.761  44.970  39.298  1.00  0.00    -0.387 OA
ATOM     23  H   UNL     1      18.220  44.316  38.781  1.00  0.00     0.211 HD
ENDBRANCH   2  22
BRANCH   3  24
ATOM     24  O   UNL     1      16.823  43.083  40.079  1.00  0.00    -0.387 OA
ATOM     25  H   UNL     1      16.317  42.439  40.635  1.00  0.00     0.211 HD
ENDBRANCH   3  24
BRANCH   5  26
ATOM     26  O   UNL     1      16.128  46.430  42.825  1.00  0.00    -0.454 OA
BRANCH  26  27
ATOM     27  C   UNL     1      14.851  46.684  43.367  1.00  0.00     0.214 A 
ATOM     28  C   UNL     1      14.577  47.946  43.920  1.00  0.00     0.180 A 
ATOM     29  C   UNL     1      13.824  45.714  43.389  1.00  0.00     0.239 A 
ATOM     30  O   UNL     1      13.344  48.260  44.290  1.00  0.00    -0.452 OA
ATOM     31  C   UNL     1      12.508  46.094  43.736  1.00  0.00     0.111 A 
ATOM     32  O   UNL     1      14.108  44.507  43.158  1.00  0.00    -0.285 OA
ATOM     33  C   UNL     1      12.323  47.418  44.211  1.00  0.00     0.146 A 
ATOM     34  C   UNL     1      11.372  45.229  43.667  1.00  0.00     0.134 A 
ATOM     35  C   UNL     1      11.064  47.851  44.636  1.00  0.00     0.094 A 
ATOM     36  C   UNL     1      10.132  45.678  44.138  1.00  0.00     0.093 A 
ATOM     37  C   UNL     1       9.971  46.979  44.611  1.00  0.00     0.123 A 
BRANCH  28  38
ATOM     38  C   UNL     1      15.642  48.931  44.150  1.00  0.00     0.025 A 
ATOM     39  C   UNL     1      16.301  49.529  43.071  1.00  0.00     0.062 A 
ATOM     40  C   UNL     1      15.904  49.376  45.457  1.00  0.00     0.016 A 
ATOM     41  C   UNL     1      17.227  50.559  43.282  1.00  0.00     0.158 A 
ATOM     42  C   UNL     1      16.794  50.432  45.674  1.00  0.00     0.051 A 
ATOM     43  C   UNL     1      17.464  51.030  44.602  1.00  0.00     0.157 A 
BRANCH  41  44
ATOM     44  O   UNL     1      17.884  51.089  42.167  1.00  0.00    -0.504 OA
ATOM     45  H   UNL     1      18.736  51.628  42.216  1.00  0.00     0.293 HD
ENDBRANCH  41  44
BRANCH  43  46
ATOM     46  O   UNL     1      18.335  52.085  44.886  1.00  0.00    -0.504 OA
ATOM     47  H   UNL     1      18.038  53.033  45.066  1.00  0.00     0.293 HD
ENDBRANCH  43  46
ENDBRANCH  28  38
BRANCH  34  48
ATOM     48  O   UNL     1      11.403  43.944  43.113  1.00  0.00    -0.507 OA
ATOM     49  H   UNL     1      12.241  43.425  42.891  1.00  0.00     0.293 HD
ENDBRANCH  34  48
BRANCH  37  50
ATOM     50  O   UNL     1       8.715  47.402  45.051  1.00  0.00    -0.508 OA
ATOM     51  H   UNL     1       8.141  46.801  45.636  1.00  0.00     0.293 HD
ENDBRANCH  37  50
ENDBRANCH  26  27
ENDBRANCH   5  26
BRANCH   4  52
ATOM     52  O   UNL     1      15.952  45.570  39.260  1.00  0.00    -0.384 OA
ATOM     53  H   UNL     1      16.745  46.080  38.953  1.00  0.00     0.211 HD
ENDBRANCH   4  52
TORSDOF 16
ENDMDL
MODEL 9
REMARK VINA RESULT:    -6.968      2.544      6.614
REMARK INTER + INTRA:         -13.675
REMARK INTER:                 -11.810
REMARK INTRA:                  -1.864
REMARK UNBOUND:                -2.226
REMARK SMILES C[C@@H]1O[C@H](OC[C@@H]2O[C@H](Oc3c(-c4ccc(O)c(O)c4)oc4cc(O)cc(O)c4c3=O)[C@@H](O)[C@@H](O)[C@H]2O)[C@@H](O)[C@@H](O)[C@H]1O
REMARK SMILES IDX 7 1 36 2 34 3 32 4 9 5 8 6 6 7 5 8 4 9 1 10 2 11 42 12 3 13
REMARK SMILES IDX 40 14 38 15 43 16 41 18 39 20 37 22 35 24 10 26 11 27 12 28
REMARK SMILES IDX 30 29 21 30 29 31 31 32 22 33 27 34 23 35 26 36 24 37 13 38
REMARK SMILES IDX 20 39 14 40 18 41 15 42 16 43 19 44 17 46 28 48 25 50 33 52
REMARK H PARENT 43 17 41 19 39 21 37 23 35 25 19 45 17 47 28 49 25 51 33 53
REMARK Flexibility Score: inf
ROOT
ATOM      1  C   UNL     1      19.191  46.829  43.882  1.00  0.00     0.180 C 
ATOM      2  C   UNL     1      20.582  47.436  44.185  1.00  0.00     0.177 C 
ATOM      3  C   UNL     1      20.438  48.775  44.937  1.00  0.00     0.180 C 
ATOM      4  C   UNL     1      19.543  48.603  46.168  1.00  0.00     0.214 C 
ATOM      5  C   UNL     1      18.205  47.927  45.782  1.00  0.00     0.339 C 
ATOM      6  O   UNL     1      18.347  46.731  45.021  1.00  0.00    -0.332 OA
ENDROOT
BRANCH   1   7
ATOM      7  C   UNL     1      18.452  47.389  42.635  1.00  0.00     0.198 C 
BRANCH   7   8
ATOM      8  O   UNL     1      17.373  46.562  42.220  1.00  0.00    -0.347 OA
BRANCH   8   9
ATOM      9  C   UNL     1      17.818  45.463  41.429  1.00  0.00     0.281 C 
ATOM     10  C   UNL     1      14.727  45.641  41.452  1.00  0.00     0.041 C 
ATOM     11  C   UNL     1      15.670  44.674  40.720  1.00  0.00     0.150 C 
ATOM     12  C   UNL     1      15.928  45.073  39.248  1.00  0.00     0.174 C 
ATOM     13  O   UNL     1      16.865  44.414  41.442  1.00  0.00    -0.344 OA
ATOM     14  C   UNL     1      16.933  46.229  39.174  1.00  0.00     0.179 C 
ATOM     15  C   UNL     1      18.191  45.908  39.997  1.00  0.00     0.202 C 
BRANCH  12  16
ATOM     16  O   UNL     1      16.418  43.977  38.518  1.00  0.00    -0.388 OA
ATOM     17  H   UNL     1      15.638  43.529  38.101  1.00  0.00     0.211 HD
ENDBRANCH  12  16
BRANCH  14  18
ATOM     18  O   UNL     1      17.275  46.475  37.835  1.00  0.00    -0.387 OA
ATOM     19  H   UNL     1      16.614  45.985  37.271  1.00  0.00     0.211 HD
ENDBRANCH  14  18
BRANCH  15  20
ATOM     20  O   UNL     1      18.926  44.896  39.361  1.00  0.00    -0.385 OA
ATOM     21  H   UNL     1      18.327  44.107  39.277  1.00  0.00     0.211 HD
ENDBRANCH  15  20
ENDBRANCH   8   9
ENDBRANCH   7   8
ENDBRANCH   1   7
BRANCH   2  22
ATOM     22  O   UNL     1      21.332  46.521  44.944  1.00  0.00    -0.387 OA
ATOM     23  H   UNL     1      20.800  45.684  45.012  1.00  0.00     0.211 HD
ENDBRANCH   2  22
BRANCH   3  24
ATOM     24  O   UNL     1      21.691  49.288  45.320  1.00  0.00    -0.387 OA
ATOM     25  H   UNL     1      21.521  50.137  45.801  1.00  0.00     0.211 HD
ENDBRANCH   3  24
BRANCH   5  26
ATOM     26  O   UNL     1      17.331  48.860  45.127  1.00  0.00    -0.454 OA
BRANCH  26  27
ATOM     27  C   UNL     1      15.923  48.775  45.140  1.00  0.00     0.214 A 
ATOM     28  C   UNL     1      15.203  49.133  43.989  1.00  0.00     0.180 A 
ATOM     29  C   UNL     1      15.194  48.352  46.273  1.00  0.00     0.239 A 
ATOM     30  O   UNL     1      13.897  48.914  43.922  1.00  0.00    -0.452 OA
ATOM     31  C   UNL     1      13.814  48.073  46.156  1.00  0.00     0.111 A 
ATOM     32  O   UNL     1      15.773  48.286  47.392  1.00  0.00    -0.285 OA
ATOM     33  C   UNL     1      13.194  48.399  44.922  1.00  0.00     0.146 A 
ATOM     34  C   UNL     1      13.009  47.517  47.198  1.00  0.00     0.134 A 
ATOM     35  C   UNL     1      11.819  48.216  44.748  1.00  0.00     0.094 A 
ATOM     36  C   UNL     1      11.628  47.384  47.008  1.00  0.00     0.093 A 
ATOM     37  C   UNL     1      11.034  47.719  45.793  1.00  0.00     0.123 A 
BRANCH  28  38
ATOM     38  C   UNL     1      15.852  49.800  42.852  1.00  0.00     0.025 A 
ATOM     39  C   UNL     1      16.944  50.649  43.058  1.00  0.00     0.062 A 
ATOM     40  C   UNL     1      15.460  49.476  41.542  1.00  0.00     0.016 A 
ATOM     41  C   UNL     1      17.644  51.186  41.970  1.00  0.00     0.158 A 
ATOM     42  C   UNL     1      16.179  49.974  40.452  1.00  0.00     0.051 A 
ATOM     43  C   UNL     1      17.267  50.829  40.647  1.00  0.00     0.157 A 
BRANCH  41  44
ATOM     44  O   UNL     1      18.702  52.060  42.239  1.00  0.00    -0.504 OA
ATOM     45  H   UNL     1      18.990  52.807  41.622  1.00  0.00     0.293 HD
ENDBRANCH  41  44
BRANCH  43  46
ATOM     46  O   UNL     1      17.947  51.286  39.515  1.00  0.00    -0.504 OA
ATOM     47  H   UNL     1      17.582  51.977  38.874  1.00  0.00     0.293 HD
ENDBRANCH  43  46
ENDBRANCH  28  38
BRANCH  34  48
ATOM     48  O   UNL     1      13.522  47.052  48.414  1.00  0.00    -0.507 OA
ATOM     49  H   UNL     1      13.798  46.098  48.603  1.00  0.00     0.293 HD
ENDBRANCH  34  48
BRANCH  37  50
ATOM     50  O   UNL     1       9.658  47.550  45.629  1.00  0.00    -0.508 OA
ATOM     51  H   UNL     1       9.239  47.575  44.703  1.00  0.00     0.293 HD
ENDBRANCH  37  50
ENDBRANCH  26  27
ENDBRANCH   5  26
BRANCH   4  52
ATOM     52  O   UNL     1      20.211  47.909  47.196  1.00  0.00    -0.384 OA
ATOM     53  H   UNL     1      20.094  48.410  48.043  1.00  0.00     0.211 HD
ENDBRANCH   4  52
TORSDOF 16
ENDMDL
