MODEL 1
REMARK VINA RESULT:    -2.572      0.000      0.000
REMARK INTER + INTRA:         -12.567
REMARK INTER:                  -6.482
REMARK INTRA:                  -6.085
REMARK UNBOUND:                -6.085
REMARK SMILES CCCCCCCCCCCCCCCCCCCCCCCCCCCC(=O)[O-]
REMARK SMILES IDX 15 1 16 2 17 3 18 4 19 5 20 6 21 7 22 8 23 9 24 10 25 11
REMARK SMILES IDX 26 12 27 13 28 14 29 15 30 16 14 17 13 18 12 19 11 20 10 21
REMARK SMILES IDX 9 22 8 23 7 24 6 25 5 26 4 27 3 28 2 29 1 30
REMARK H PARENT
REMARK Flexibility Score: inf
ROOT
ATOM      1  C   UNL     1     -96.419 -27.590  82.254  1.00  0.00     0.000 C 
ENDROOT
BRANCH   1   2
ATOM      2  C   UNL     1     -95.753 -26.208  82.162  1.00  0.00     0.000 C 
BRANCH   2   3
ATOM      3  C   UNL     1     -94.839 -26.118  80.930  1.00  0.00     0.000 C 
BRANCH   3   4
ATOM      4  C   UNL     1     -95.331 -25.085  79.902  1.00  0.00     0.000 C 
BRANCH   4   5
ATOM      5  C   UNL     1     -95.803 -25.729  78.591  1.00  0.00     0.000 C 
BRANCH   5   6
ATOM      6  C   UNL     1     -95.667 -27.257  78.651  1.00  0.00     0.000 C 
BRANCH   6   7
ATOM      7  C   UNL     1     -97.023 -27.980  78.592  1.00  0.00     0.000 C 
BRANCH   7   8
ATOM      8  C   UNL     1     -97.001 -29.448  79.064  1.00  0.00     0.000 C 
BRANCH   8   9
ATOM      9  C   UNL     1     -98.115 -30.339  78.482  1.00  0.00     0.000 C 
BRANCH   9  10
ATOM     10  C   UNL     1     -99.042 -29.580  77.517  1.00  0.00     0.000 C 
BRANCH  10  11
ATOM     11  C   UNL     1    -100.528 -29.745  77.875  1.00  0.00     0.000 C 
BRANCH  11  12
ATOM     12  C   UNL     1    -100.778 -30.949  78.800  1.00  0.00     0.006 C 
BRANCH  12  13
ATOM     13  C   UNL     1    -102.119 -30.848  79.538  1.00  0.00     0.053 C 
BRANCH  13  14
ATOM     14  C   UNL     1    -102.231 -31.860  80.636  1.00  0.00     0.041 C 
ATOM     15  O   UNL     1    -103.329 -32.031  81.228  1.00  0.00    -0.550 OA
ATOM     16  O   UNL     1    -101.116 -32.593  81.025  1.00  0.00    -0.550 OA
ENDBRANCH  13  14
ENDBRANCH  12  13
ENDBRANCH  11  12
ENDBRANCH  10  11
ENDBRANCH   9  10
ENDBRANCH   8   9
ENDBRANCH   7   8
ENDBRANCH   6   7
ENDBRANCH   5   6
ENDBRANCH   4   5
ENDBRANCH   3   4
ENDBRANCH   2   3
ENDBRANCH   1   2
BRANCH   1  17
ATOM     17  C   UNL     1     -96.457 -28.164  83.684  1.00  0.00     0.000 C 
BRANCH  17  18
ATOM     18  C   UNL     1     -97.126 -27.273  84.754  1.00  0.00     0.000 C 
BRANCH  18  19
ATOM     19  C   UNL     1     -98.601 -26.922  84.478  1.00  0.00     0.000 C 
BRANCH  19  20
ATOM     20  C   UNL     1     -98.910 -25.417  84.602  1.00  0.00     0.000 C 
BRANCH  20  21
ATOM     21  C   UNL     1     -98.843 -24.672  83.250  1.00  0.00     0.000 C 
BRANCH  21  22
ATOM     22  C   UNL     1     -99.800 -25.227  82.178  1.00  0.00    -0.000 C 
BRANCH  22  23
ATOM     23  C   UNL     1     -99.129 -25.658  80.864  1.00  0.00    -0.000 C 
BRANCH  23  24
ATOM     24  C   UNL     1     -99.907 -26.760  80.131  1.00  0.00    -0.000 C 
BRANCH  24  25
ATOM     25  C   UNL     1    -100.689 -27.632  81.121  1.00  0.00    -0.000 C 
BRANCH  25  26
ATOM     26  C   UNL     1     -99.832 -28.807  81.613  1.00  0.00    -0.000 C 
BRANCH  26  27
ATOM     27  C   UNL     1    -100.455 -29.542  82.814  1.00  0.00    -0.000 C 
BRANCH  27  28
ATOM     28  C   UNL     1    -101.882 -29.093  83.190  1.00  0.00    -0.000 C 
BRANCH  28  29
ATOM     29  C   UNL     1    -102.004 -28.381  84.550  1.00  0.00    -0.003 C 
ATOM     30  C   UNL     1    -102.333 -26.895  84.414  1.00  0.00     0.004 C 
ENDBRANCH  28  29
ENDBRANCH  27  28
ENDBRANCH  26  27
ENDBRANCH  25  26
ENDBRANCH  24  25
ENDBRANCH  23  24
ENDBRANCH  22  23
ENDBRANCH  21  22
ENDBRANCH  20  21
ENDBRANCH  19  20
ENDBRANCH  18  19
ENDBRANCH  17  18
ENDBRANCH   1  17
TORSDOF 26
ENDMDL
MODEL 2
REMARK VINA RESULT:    -2.564      1.226      4.342
REMARK INTER + INTRA:         -12.546
REMARK INTER:                  -6.642
REMARK INTRA:                  -5.904
REMARK UNBOUND:                -6.085
REMARK SMILES CCCCCCCCCCCCCCCCCCCCCCCCCCCC(=O)[O-]
REMARK SMILES IDX 15 1 16 2 17 3 18 4 19 5 20 6 21 7 22 8 23 9 24 10 25 11
REMARK SMILES IDX 26 12 27 13 28 14 29 15 30 16 14 17 13 18 12 19 11 20 10 21
REMARK SMILES IDX 9 22 8 23 7 24 6 25 5 26 4 27 3 28 2 29 1 30
REMARK H PARENT
REMARK Flexibility Score: inf
ROOT
ATOM      1  C   UNL     1     -98.617 -26.565  84.614  1.00  0.00     0.000 C 
ENDROOT
BRANCH   1   2
ATOM      2  C   UNL     1     -99.184 -25.149  84.422  1.00  0.00     0.000 C 
BRANCH   2   3
ATOM      3  C   UNL     1     -98.751 -24.561  83.070  1.00  0.00     0.000 C 
BRANCH   3   4
ATOM      4  C   UNL     1     -99.780 -24.818  81.957  1.00  0.00     0.000 C 
BRANCH   4   5
ATOM      5  C   UNL     1     -99.132 -25.266  80.639  1.00  0.00     0.000 C 
BRANCH   5   6
ATOM      6  C   UNL     1     -99.370 -26.761  80.393  1.00  0.00     0.000 C 
BRANCH   6   7
ATOM      7  C   UNL     1    -100.385 -27.373  81.373  1.00  0.00     0.000 C 
BRANCH   7   8
ATOM      8  C   UNL     1    -100.060 -28.807  81.838  1.00  0.00     0.000 C 
BRANCH   8   9
ATOM      9  C   UNL     1    -100.743 -29.240  83.150  1.00  0.00     0.000 C 
BRANCH   9  10
ATOM     10  C   UNL     1    -101.599 -30.508  82.985  1.00  0.00     0.000 C 
BRANCH  10  11
ATOM     11  C   UNL     1    -101.805 -30.894  81.511  1.00  0.00     0.000 C 
BRANCH  11  12
ATOM     12  C   UNL     1    -101.005 -32.149  81.118  1.00  0.00     0.006 C 
BRANCH  12  13
ATOM     13  C   UNL     1    -101.781 -33.054  80.151  1.00  0.00     0.053 C 
BRANCH  13  14
ATOM     14  C   UNL     1    -103.212 -33.215  80.563  1.00  0.00     0.041 C 
ATOM     15  O   UNL     1    -104.134 -32.741  79.847  1.00  0.00    -0.550 OA
ATOM     16  O   UNL     1    -103.527 -33.863  81.752  1.00  0.00    -0.550 OA
ENDBRANCH  13  14
ENDBRANCH  12  13
ENDBRANCH  11  12
ENDBRANCH  10  11
ENDBRANCH   9  10
ENDBRANCH   8   9
ENDBRANCH   7   8
ENDBRANCH   6   7
ENDBRANCH   5   6
ENDBRANCH   4   5
ENDBRANCH   3   4
ENDBRANCH   2   3
ENDBRANCH   1   2
BRANCH   1  17
ATOM     17  C   UNL     1     -97.171 -26.726  84.105  1.00  0.00     0.000 C 
BRANCH  17  18
ATOM     18  C   UNL     1     -96.902 -27.954  83.208  1.00  0.00     0.000 C 
BRANCH  18  19
ATOM     19  C   UNL     1     -96.152 -27.649  81.897  1.00  0.00     0.000 C 
BRANCH  19  20
ATOM     20  C   UNL     1     -95.735 -26.172  81.755  1.00  0.00     0.000 C 
BRANCH  20  21
ATOM     21  C   UNL     1     -95.446 -25.763  80.294  1.00  0.00     0.000 C 
BRANCH  21  22
ATOM     22  C   UNL     1     -95.470 -26.936  79.295  1.00  0.00    -0.000 C 
BRANCH  22  23
ATOM     23  C   UNL     1     -96.532 -26.828  78.188  1.00  0.00    -0.000 C 
BRANCH  23  24
ATOM     24  C   UNL     1     -97.122 -28.190  77.794  1.00  0.00    -0.000 C 
BRANCH  24  25
ATOM     25  C   UNL     1     -96.747 -29.268  78.818  1.00  0.00    -0.000 C 
BRANCH  25  26
ATOM     26  C   UNL     1     -97.958 -30.153  79.150  1.00  0.00    -0.000 C 
BRANCH  26  27
ATOM     27  C   UNL     1     -98.481 -30.935  77.932  1.00  0.00    -0.000 C 
BRANCH  27  28
ATOM     28  C   UNL     1    -100.001 -30.832  77.690  1.00  0.00    -0.000 C 
BRANCH  28  29
ATOM     29  C   UNL     1    -100.677 -29.594  78.308  1.00  0.00    -0.003 C 
ATOM     30  C   UNL     1    -102.175 -29.526  78.014  1.00  0.00     0.004 C 
ENDBRANCH  28  29
ENDBRANCH  27  28
ENDBRANCH  26  27
ENDBRANCH  25  26
ENDBRANCH  24  25
ENDBRANCH  23  24
ENDBRANCH  22  23
ENDBRANCH  21  22
ENDBRANCH  20  21
ENDBRANCH  19  20
ENDBRANCH  18  19
ENDBRANCH  17  18
ENDBRANCH   1  17
TORSDOF 26
ENDMDL
MODEL 3
REMARK VINA RESULT:    -2.502      1.158      3.018
REMARK INTER + INTRA:         -12.390
REMARK INTER:                  -6.306
REMARK INTRA:                  -6.084
REMARK UNBOUND:                -6.085
REMARK SMILES CCCCCCCCCCCCCCCCCCCCCCCCCCCC(=O)[O-]
REMARK SMILES IDX 15 1 16 2 17 3 18 4 19 5 20 6 21 7 22 8 23 9 24 10 25 11
REMARK SMILES IDX 26 12 27 13 28 14 29 15 30 16 14 17 13 18 12 19 11 20 10 21
REMARK SMILES IDX 9 22 8 23 7 24 6 25 5 26 4 27 3 28 2 29 1 30
REMARK H PARENT
REMARK Flexibility Score: inf
ROOT
ATOM      1  C   UNL     1     -97.894 -24.566  81.357  1.00  0.00     0.000 C 
ENDROOT
BRANCH   1   2
ATOM      2  C   UNL     1     -96.700 -24.488  80.393  1.00  0.00     0.000 C 
BRANCH   2   3
ATOM      3  C   UNL     1     -95.427 -25.052  81.045  1.00  0.00     0.000 C 
BRANCH   3   4
ATOM      4  C   UNL     1     -94.638 -25.975  80.102  1.00  0.00     0.000 C 
BRANCH   4   5
ATOM      5  C   UNL     1     -95.253 -26.057  78.697  1.00  0.00     0.000 C 
BRANCH   5   6
ATOM      6  C   UNL     1     -95.720 -27.485  78.387  1.00  0.00     0.000 C 
BRANCH   6   7
ATOM      7  C   UNL     1     -96.765 -27.540  77.260  1.00  0.00     0.000 C 
BRANCH   7   8
ATOM      8  C   UNL     1     -97.751 -28.723  77.341  1.00  0.00     0.000 C 
BRANCH   8   9
ATOM      9  C   UNL     1     -97.365 -29.828  78.342  1.00  0.00     0.000 C 
BRANCH   9  10
ATOM     10  C   UNL     1     -98.589 -30.543  78.942  1.00  0.00     0.000 C 
BRANCH  10  11
ATOM     11  C   UNL     1     -99.919 -29.986  78.406  1.00  0.00     0.000 C 
BRANCH  11  12
ATOM     12  C   UNL     1    -100.959 -29.780  79.522  1.00  0.00     0.006 C 
BRANCH  12  13
ATOM     13  C   UNL     1    -100.933 -30.914  80.556  1.00  0.00     0.053 C 
BRANCH  13  14
ATOM     14  C   UNL     1    -102.218 -31.683  80.574  1.00  0.00     0.041 C 
ATOM     15  O   UNL     1    -102.782 -31.998  79.493  1.00  0.00    -0.550 OA
ATOM     16  O   UNL     1    -102.808 -32.028  81.785  1.00  0.00    -0.550 OA
ENDBRANCH  13  14
ENDBRANCH  12  13
ENDBRANCH  11  12
ENDBRANCH  10  11
ENDBRANCH   9  10
ENDBRANCH   8   9
ENDBRANCH   7   8
ENDBRANCH   6   7
ENDBRANCH   5   6
ENDBRANCH   4   5
ENDBRANCH   3   4
ENDBRANCH   2   3
ENDBRANCH   1   2
BRANCH   1  17
ATOM     17  C   UNL     1     -99.102 -25.334  80.785  1.00  0.00     0.000 C 
BRANCH  17  18
ATOM     18  C   UNL     1     -98.832 -26.789  80.344  1.00  0.00     0.000 C 
BRANCH  18  19
ATOM     19  C   UNL     1     -98.618 -27.789  81.496  1.00  0.00     0.000 C 
BRANCH  19  20
ATOM     20  C   UNL     1     -97.176 -28.326  81.586  1.00  0.00     0.000 C 
BRANCH  20  21
ATOM     21  C   UNL     1     -96.495 -28.008  82.936  1.00  0.00     0.000 C 
BRANCH  21  22
ATOM     22  C   UNL     1     -97.471 -27.901  84.123  1.00  0.00    -0.000 C 
BRANCH  22  23
ATOM     23  C   UNL     1     -97.339 -26.620  84.963  1.00  0.00    -0.000 C 
BRANCH  23  24
ATOM     24  C   UNL     1     -98.695 -26.080  85.443  1.00  0.00    -0.000 C 
BRANCH  24  25
ATOM     25  C   UNL     1     -99.271 -25.073  84.441  1.00  0.00    -0.000 C 
BRANCH  25  26
ATOM     26  C   UNL     1    -100.801 -25.188  84.367  1.00  0.00    -0.000 C 
BRANCH  26  27
ATOM     27  C   UNL     1    -101.305 -26.628  84.574  1.00  0.00    -0.000 C 
BRANCH  27  28
ATOM     28  C   UNL     1    -101.662 -27.390  83.281  1.00  0.00    -0.000 C 
BRANCH  28  29
ATOM     29  C   UNL     1    -101.906 -28.900  83.461  1.00  0.00    -0.003 C 
ATOM     30  C   UNL     1    -100.708 -29.627  84.069  1.00  0.00     0.004 C 
ENDBRANCH  28  29
ENDBRANCH  27  28
ENDBRANCH  26  27
ENDBRANCH  25  26
ENDBRANCH  24  25
ENDBRANCH  23  24
ENDBRANCH  22  23
ENDBRANCH  21  22
ENDBRANCH  20  21
ENDBRANCH  19  20
ENDBRANCH  18  19
ENDBRANCH  17  18
ENDBRANCH   1  17
TORSDOF 26
ENDMDL
MODEL 4
REMARK VINA RESULT:    -2.492      1.650      4.927
REMARK INTER + INTRA:         -12.364
REMARK INTER:                  -6.643
REMARK INTRA:                  -5.721
REMARK UNBOUND:                -6.085
REMARK SMILES CCCCCCCCCCCCCCCCCCCCCCCCCCCC(=O)[O-]
REMARK SMILES IDX 15 1 16 2 17 3 18 4 19 5 20 6 21 7 22 8 23 9 24 10 25 11
REMARK SMILES IDX 26 12 27 13 28 14 29 15 30 16 14 17 13 18 12 19 11 20 10 21
REMARK SMILES IDX 9 22 8 23 7 24 6 25 5 26 4 27 3 28 2 29 1 30
REMARK H PARENT
REMARK Flexibility Score: inf
ROOT
ATOM      1  C   UNL     1     -97.746 -28.034  83.995  1.00  0.00     0.000 C 
ENDROOT
BRANCH   1   2
ATOM      2  C   UNL     1     -97.928 -26.715  84.763  1.00  0.00     0.000 C 
BRANCH   2   3
ATOM      3  C   UNL     1     -99.398 -26.267  84.749  1.00  0.00     0.000 C 
BRANCH   3   4
ATOM      4  C   UNL     1     -99.565 -24.798  84.328  1.00  0.00     0.000 C 
BRANCH   4   5
ATOM      5  C   UNL     1     -99.033 -24.520  82.914  1.00  0.00     0.000 C 
BRANCH   5   6
ATOM      6  C   UNL     1    -100.052 -24.954  81.852  1.00  0.00     0.000 C 
BRANCH   6   7
ATOM      7  C   UNL     1     -99.550 -26.122  80.986  1.00  0.00     0.000 C 
BRANCH   7   8
ATOM      8  C   UNL     1    -100.165 -27.496  81.323  1.00  0.00     0.000 C 
BRANCH   8   9
ATOM      9  C   UNL     1    -101.601 -27.451  81.877  1.00  0.00     0.000 C 
BRANCH   9  10
ATOM     10  C   UNL     1    -102.091 -28.823  82.375  1.00  0.00     0.000 C 
BRANCH  10  11
ATOM     11  C   UNL     1    -100.936 -29.739  82.812  1.00  0.00     0.000 C 
BRANCH  11  12
ATOM     12  C   UNL     1    -100.864 -29.900  84.340  1.00  0.00     0.006 C 
BRANCH  12  13
ATOM     13  C   UNL     1    -102.186 -29.532  85.027  1.00  0.00     0.053 C 
BRANCH  13  14
ATOM     14  C   UNL     1    -102.961 -30.746  85.437  1.00  0.00     0.041 C 
ATOM     15  O   UNL     1    -103.701 -31.335  84.605  1.00  0.00    -0.550 OA
ATOM     16  O   UNL     1    -102.888 -31.211  86.744  1.00  0.00    -0.550 OA
ENDBRANCH  13  14
ENDBRANCH  12  13
ENDBRANCH  11  12
ENDBRANCH  10  11
ENDBRANCH   9  10
ENDBRANCH   8   9
ENDBRANCH   7   8
ENDBRANCH   6   7
ENDBRANCH   5   6
ENDBRANCH   4   5
ENDBRANCH   3   4
ENDBRANCH   2   3
ENDBRANCH   1   2
BRANCH   1  17
ATOM     17  C   UNL     1     -96.757 -27.933  82.817  1.00  0.00     0.000 C 
BRANCH  17  18
ATOM     18  C   UNL     1     -95.950 -26.619  82.721  1.00  0.00     0.000 C 
BRANCH  18  19
ATOM     19  C   UNL     1     -96.091 -25.866  81.385  1.00  0.00     0.000 C 
BRANCH  19  20
ATOM     20  C   UNL     1     -94.908 -26.090  80.422  1.00  0.00     0.000 C 
BRANCH  20  21
ATOM     21  C   UNL     1     -95.339 -26.675  79.059  1.00  0.00     0.000 C 
BRANCH  21  22
ATOM     22  C   UNL     1     -96.663 -27.463  79.103  1.00  0.00    -0.000 C 
BRANCH  22  23
ATOM     23  C   UNL     1     -96.513 -28.982  79.280  1.00  0.00    -0.000 C 
BRANCH  23  24
ATOM     24  C   UNL     1     -97.548 -29.781  78.474  1.00  0.00    -0.000 C 
BRANCH  24  25
ATOM     25  C   UNL     1     -98.666 -30.304  79.383  1.00  0.00    -0.000 C 
BRANCH  25  26
ATOM     26  C   UNL     1     -99.816 -30.895  78.553  1.00  0.00    -0.000 C 
BRANCH  26  27
ATOM     27  C   UNL     1    -101.202 -30.605  79.156  1.00  0.00    -0.000 C 
BRANCH  27  28
ATOM     28  C   UNL     1    -101.870 -29.303  78.667  1.00  0.00    -0.000 C 
BRANCH  28  29
ATOM     29  C   UNL     1    -101.028 -28.467  77.686  1.00  0.00    -0.003 C 
ATOM     30  C   UNL     1    -101.323 -26.971  77.777  1.00  0.00     0.004 C 
ENDBRANCH  28  29
ENDBRANCH  27  28
ENDBRANCH  26  27
ENDBRANCH  25  26
ENDBRANCH  24  25
ENDBRANCH  23  24
ENDBRANCH  22  23
ENDBRANCH  21  22
ENDBRANCH  20  21
ENDBRANCH  19  20
ENDBRANCH  18  19
ENDBRANCH  17  18
ENDBRANCH   1  17
TORSDOF 26
ENDMDL
MODEL 5
REMARK VINA RESULT:    -2.478      2.458      5.316
REMARK INTER + INTRA:         -12.328
REMARK INTER:                  -7.196
REMARK INTRA:                  -5.133
REMARK UNBOUND:                -6.085
REMARK SMILES CCCCCCCCCCCCCCCCCCCCCCCCCCCC(=O)[O-]
REMARK SMILES IDX 15 1 16 2 17 3 18 4 19 5 20 6 21 7 22 8 23 9 24 10 25 11
REMARK SMILES IDX 26 12 27 13 28 14 29 15 30 16 14 17 13 18 12 19 11 20 10 21
REMARK SMILES IDX 9 22 8 23 7 24 6 25 5 26 4 27 3 28 2 29 1 30
REMARK H PARENT
REMARK Flexibility Score: inf
ROOT
ATOM      1  C   UNL     1     -98.189 -26.348  84.834  1.00  0.00     0.000 C 
ENDROOT
BRANCH   1   2
ATOM      2  C   UNL     1     -99.079 -25.164  84.424  1.00  0.00     0.000 C 
BRANCH   2   3
ATOM      3  C   UNL     1     -98.717 -24.664  83.016  1.00  0.00     0.000 C 
BRANCH   3   4
ATOM      4  C   UNL     1     -99.836 -24.918  81.993  1.00  0.00     0.000 C 
BRANCH   4   5
ATOM      5  C   UNL     1     -99.316 -25.525  80.682  1.00  0.00     0.000 C 
BRANCH   5   6
ATOM      6  C   UNL     1     -99.757 -26.989  80.545  1.00  0.00     0.000 C 
BRANCH   6   7
ATOM      7  C   UNL     1    -100.729 -27.426  81.654  1.00  0.00     0.000 C 
BRANCH   7   8
ATOM      8  C   UNL     1    -100.282 -28.660  82.464  1.00  0.00     0.000 C 
BRANCH   8   9
ATOM      9  C   UNL     1    -100.655 -28.633  83.958  1.00  0.00     0.000 C 
BRANCH   9  10
ATOM     10  C   UNL     1    -101.010 -30.026  84.508  1.00  0.00     0.000 C 
BRANCH  10  11
ATOM     11  C   UNL     1    -102.523 -30.300  84.490  1.00  0.00     0.000 C 
BRANCH  11  12
ATOM     12  C   UNL     1    -103.146 -30.237  85.896  1.00  0.00     0.006 C 
BRANCH  12  13
ATOM     13  C   UNL     1    -102.923 -31.532  86.689  1.00  0.00     0.053 C 
BRANCH  13  14
ATOM     14  C   UNL     1    -103.738 -31.565  87.945  1.00  0.00     0.041 C 
ATOM     15  O   UNL     1    -103.355 -30.932  88.965  1.00  0.00    -0.550 OA
ATOM     16  O   UNL     1    -104.905 -32.318  87.999  1.00  0.00    -0.550 OA
ENDBRANCH  13  14
ENDBRANCH  12  13
ENDBRANCH  11  12
ENDBRANCH  10  11
ENDBRANCH   9  10
ENDBRANCH   8   9
ENDBRANCH   7   8
ENDBRANCH   6   7
ENDBRANCH   5   6
ENDBRANCH   4   5
ENDBRANCH   3   4
ENDBRANCH   2   3
ENDBRANCH   1   2
BRANCH   1  17
ATOM     17  C   UNL     1     -96.977 -26.561  83.906  1.00  0.00     0.000 C 
BRANCH  17  18
ATOM     18  C   UNL     1     -96.878 -27.945  83.229  1.00  0.00     0.000 C 
BRANCH  18  19
ATOM     19  C   UNL     1     -96.445 -27.916  81.750  1.00  0.00     0.000 C 
BRANCH  19  20
ATOM     20  C   UNL     1     -95.901 -26.548  81.295  1.00  0.00     0.000 C 
BRANCH  20  21
ATOM     21  C   UNL     1     -95.624 -26.482  79.776  1.00  0.00     0.000 C 
BRANCH  21  22
ATOM     22  C   UNL     1     -95.982 -27.773  79.015  1.00  0.00    -0.000 C 
BRANCH  22  23
ATOM     23  C   UNL     1     -97.139 -27.639  78.011  1.00  0.00    -0.000 C 
BRANCH  23  24
ATOM     24  C   UNL     1     -98.014 -28.899  77.939  1.00  0.00    -0.000 C 
BRANCH  24  25
ATOM     25  C   UNL     1     -97.610 -29.911  79.017  1.00  0.00    -0.000 C 
BRANCH  25  26
ATOM     26  C   UNL     1     -98.814 -30.758  79.454  1.00  0.00    -0.000 C 
BRANCH  26  27
ATOM     27  C   UNL     1    -100.162 -30.154  79.018  1.00  0.00    -0.000 C 
BRANCH  27  28
ATOM     28  C   UNL     1    -101.411 -30.890  79.544  1.00  0.00    -0.000 C 
BRANCH  28  29
ATOM     29  C   UNL     1    -101.176 -31.765  80.789  1.00  0.00    -0.003 C 
ATOM     30  C   UNL     1    -102.196 -32.895  80.921  1.00  0.00     0.004 C 
ENDBRANCH  28  29
ENDBRANCH  27  28
ENDBRANCH  26  27
ENDBRANCH  25  26
ENDBRANCH  24  25
ENDBRANCH  23  24
ENDBRANCH  22  23
ENDBRANCH  21  22
ENDBRANCH  20  21
ENDBRANCH  19  20
ENDBRANCH  18  19
ENDBRANCH  17  18
ENDBRANCH   1  17
TORSDOF 26
ENDMDL
MODEL 6
REMARK VINA RESULT:    -2.413      1.361      5.063
REMARK INTER + INTRA:         -12.166
REMARK INTER:                  -6.396
REMARK INTRA:                  -5.770
REMARK UNBOUND:                -6.085
REMARK SMILES CCCCCCCCCCCCCCCCCCCCCCCCCCCC(=O)[O-]
REMARK SMILES IDX 15 1 16 2 17 3 18 4 19 5 20 6 21 7 22 8 23 9 24 10 25 11
REMARK SMILES IDX 26 12 27 13 28 14 29 15 30 16 14 17 13 18 12 19 11 20 10 21
REMARK SMILES IDX 9 22 8 23 7 24 6 25 5 26 4 27 3 28 2 29 1 30
REMARK H PARENT
REMARK Flexibility Score: inf
ROOT
ATOM      1  C   UNL     1     -97.965 -27.607  84.615  1.00  0.00     0.000 C 
ENDROOT
BRANCH   1   2
ATOM      2  C   UNL     1     -98.205 -26.139  85.001  1.00  0.00     0.000 C 
BRANCH   2   3
ATOM      3  C   UNL     1     -99.189 -25.468  84.030  1.00  0.00     0.000 C 
BRANCH   3   4
ATOM      4  C   UNL     1     -99.977 -26.486  83.189  1.00  0.00     0.000 C 
BRANCH   4   5
ATOM      5  C   UNL     1    -101.407 -26.021  82.877  1.00  0.00     0.000 C 
BRANCH   5   6
ATOM      6  C   UNL     1    -102.297 -26.115  84.124  1.00  0.00     0.000 C 
BRANCH   6   7
ATOM      7  C   UNL     1    -101.938 -27.310  85.024  1.00  0.00     0.000 C 
BRANCH   7   8
ATOM      8  C   UNL     1    -102.797 -28.572  84.805  1.00  0.00     0.000 C 
BRANCH   8   9
ATOM      9  C   UNL     1    -102.043 -29.909  84.943  1.00  0.00     0.000 C 
BRANCH   9  10
ATOM     10  C   UNL     1    -100.744 -29.947  84.119  1.00  0.00     0.000 C 
BRANCH  10  11
ATOM     11  C   UNL     1    -101.004 -29.921  82.604  1.00  0.00     0.000 C 
BRANCH  11  12
ATOM     12  C   UNL     1    -102.021 -30.990  82.167  1.00  0.00     0.006 C 
BRANCH  12  13
ATOM     13  C   UNL     1    -101.498 -31.850  81.009  1.00  0.00     0.053 C 
BRANCH  13  14
ATOM     14  C   UNL     1    -101.720 -31.195  79.681  1.00  0.00     0.041 C 
ATOM     15  O   UNL     1    -102.757 -30.509  79.479  1.00  0.00    -0.550 OA
ATOM     16  O   UNL     1    -100.797 -31.365  78.656  1.00  0.00    -0.550 OA
ENDBRANCH  13  14
ENDBRANCH  12  13
ENDBRANCH  11  12
ENDBRANCH  10  11
ENDBRANCH   9  10
ENDBRANCH   8   9
ENDBRANCH   7   8
ENDBRANCH   6   7
ENDBRANCH   5   6
ENDBRANCH   4   5
ENDBRANCH   3   4
ENDBRANCH   2   3
ENDBRANCH   1   2
BRANCH   1  17
ATOM     17  C   UNL     1     -96.537 -27.888  84.109  1.00  0.00     0.000 C 
BRANCH  17  18
ATOM     18  C   UNL     1     -96.355 -27.912  82.576  1.00  0.00     0.000 C 
BRANCH  18  19
ATOM     19  C   UNL     1     -95.783 -26.615  81.969  1.00  0.00     0.000 C 
BRANCH  19  20
ATOM     20  C   UNL     1     -96.835 -25.766  81.227  1.00  0.00     0.000 C 
BRANCH  20  21
ATOM     21  C   UNL     1     -96.597 -25.705  79.702  1.00  0.00     0.000 C 
BRANCH  21  22
ATOM     22  C   UNL     1     -95.526 -26.688  79.192  1.00  0.00    -0.000 C 
BRANCH  22  23
ATOM     23  C   UNL     1     -96.047 -27.795  78.262  1.00  0.00    -0.000 C 
BRANCH  23  24
ATOM     24  C   UNL     1     -96.243 -29.137  78.982  1.00  0.00    -0.000 C 
BRANCH  24  25
ATOM     25  C   UNL     1     -97.698 -29.609  78.879  1.00  0.00    -0.000 C 
BRANCH  25  26
ATOM     26  C   UNL     1     -98.483 -29.246  80.148  1.00  0.00    -0.000 C 
BRANCH  26  27
ATOM     27  C   UNL     1     -99.489 -28.103  79.924  1.00  0.00    -0.000 C 
BRANCH  27  28
ATOM     28  C   UNL     1     -99.755 -27.743  78.448  1.00  0.00    -0.000 C 
BRANCH  28  29
ATOM     29  C   UNL     1    -100.033 -26.252  78.180  1.00  0.00    -0.003 C 
ATOM     30  C   UNL     1    -100.229 -25.445  79.463  1.00  0.00     0.004 C 
ENDBRANCH  28  29
ENDBRANCH  27  28
ENDBRANCH  26  27
ENDBRANCH  25  26
ENDBRANCH  24  25
ENDBRANCH  23  24
ENDBRANCH  22  23
ENDBRANCH  21  22
ENDBRANCH  20  21
ENDBRANCH  19  20
ENDBRANCH  18  19
ENDBRANCH  17  18
ENDBRANCH   1  17
TORSDOF 26
ENDMDL
MODEL 7
REMARK VINA RESULT:    -2.387      1.186      4.859
REMARK INTER + INTRA:         -12.099
REMARK INTER:                  -6.776
REMARK INTRA:                  -5.323
REMARK UNBOUND:                -6.085
REMARK SMILES CCCCCCCCCCCCCCCCCCCCCCCCCCCC(=O)[O-]
REMARK SMILES IDX 15 1 16 2 17 3 18 4 19 5 20 6 21 7 22 8 23 9 24 10 25 11
REMARK SMILES IDX 26 12 27 13 28 14 29 15 30 16 14 17 13 18 12 19 11 20 10 21
REMARK SMILES IDX 9 22 8 23 7 24 6 25 5 26 4 27 3 28 2 29 1 30
REMARK H PARENT
REMARK Flexibility Score: inf
ROOT
ATOM      1  C   UNL     1     -98.747 -25.752  85.125  1.00  0.00     0.000 C 
ENDROOT
BRANCH   1   2
ATOM      2  C   UNL     1     -99.695 -25.068  84.127  1.00  0.00     0.000 C 
BRANCH   2   3
ATOM      3  C   UNL     1     -99.048 -24.960  82.737  1.00  0.00     0.000 C 
BRANCH   3   4
ATOM      4  C   UNL     1    -100.042 -25.247  81.599  1.00  0.00     0.000 C 
BRANCH   4   5
ATOM      5  C   UNL     1     -99.562 -26.360  80.657  1.00  0.00     0.000 C 
BRANCH   5   6
ATOM      6  C   UNL     1    -100.466 -27.595  80.765  1.00  0.00     0.000 C 
BRANCH   6   7
ATOM      7  C   UNL     1     -99.780 -28.776  81.473  1.00  0.00     0.000 C 
BRANCH   7   8
ATOM      8  C   UNL     1    -100.351 -29.124  82.863  1.00  0.00     0.000 C 
BRANCH   8   9
ATOM      9  C   UNL     1    -101.549 -28.265  83.312  1.00  0.00     0.000 C 
BRANCH   9  10
ATOM     10  C   UNL     1    -102.888 -29.018  83.226  1.00  0.00     0.000 C 
BRANCH  10  11
ATOM     11  C   UNL     1    -102.742 -30.519  83.530  1.00  0.00     0.000 C 
BRANCH  11  12
ATOM     12  C   UNL     1    -103.526 -31.396  82.538  1.00  0.00     0.006 C 
BRANCH  12  13
ATOM     13  C   UNL     1    -102.885 -31.411  81.143  1.00  0.00     0.053 C 
BRANCH  13  14
ATOM     14  C   UNL     1    -101.842 -32.479  81.019  1.00  0.00     0.041 C 
ATOM     15  O   UNL     1    -100.621 -32.185  81.111  1.00  0.00    -0.550 OA
ATOM     16  O   UNL     1    -102.217 -33.795  80.773  1.00  0.00    -0.550 OA
ENDBRANCH  13  14
ENDBRANCH  12  13
ENDBRANCH  11  12
ENDBRANCH  10  11
ENDBRANCH   9  10
ENDBRANCH   8   9
ENDBRANCH   7   8
ENDBRANCH   6   7
ENDBRANCH   5   6
ENDBRANCH   4   5
ENDBRANCH   3   4
ENDBRANCH   2   3
ENDBRANCH   1   2
BRANCH   1  17
ATOM     17  C   UNL     1     -98.272 -27.147  84.672  1.00  0.00     0.000 C 
BRANCH  17  18
ATOM     18  C   UNL     1     -96.752 -27.405  84.754  1.00  0.00     0.000 C 
BRANCH  18  19
ATOM     19  C   UNL     1     -96.181 -28.292  83.631  1.00  0.00     0.000 C 
BRANCH  19  20
ATOM     20  C   UNL     1     -96.399 -27.713  82.218  1.00  0.00     0.000 C 
BRANCH  20  21
ATOM     21  C   UNL     1     -95.785 -26.307  82.040  1.00  0.00     0.000 C 
BRANCH  21  22
ATOM     22  C   UNL     1     -95.975 -25.711  80.631  1.00  0.00    -0.000 C 
BRANCH  22  23
ATOM     23  C   UNL     1     -94.898 -26.103  79.606  1.00  0.00    -0.000 C 
BRANCH  23  24
ATOM     24  C   UNL     1     -95.427 -26.123  78.164  1.00  0.00    -0.000 C 
BRANCH  24  25
ATOM     25  C   UNL     1     -96.941 -25.886  78.132  1.00  0.00    -0.000 C 
BRANCH  25  26
ATOM     26  C   UNL     1     -97.581 -26.594  76.928  1.00  0.00    -0.000 C 
BRANCH  26  27
ATOM     27  C   UNL     1     -98.644 -27.630  77.337  1.00  0.00    -0.000 C 
BRANCH  27  28
ATOM     28  C   UNL     1     -98.248 -29.102  77.105  1.00  0.00    -0.000 C 
BRANCH  28  29
ATOM     29  C   UNL     1     -97.975 -29.913  78.385  1.00  0.00    -0.003 C 
ATOM     30  C   UNL     1     -96.713 -29.460  79.117  1.00  0.00     0.004 C 
ENDBRANCH  28  29
ENDBRANCH  27  28
ENDBRANCH  26  27
ENDBRANCH  25  26
ENDBRANCH  24  25
ENDBRANCH  23  24
ENDBRANCH  22  23
ENDBRANCH  21  22
ENDBRANCH  20  21
ENDBRANCH  19  20
ENDBRANCH  18  19
ENDBRANCH  17  18
ENDBRANCH   1  17
TORSDOF 26
ENDMDL
MODEL 8
REMARK VINA RESULT:    -2.360     13.470     16.774
REMARK INTER + INTRA:         -12.031
REMARK INTER:                  -8.359
REMARK INTRA:                  -3.672
REMARK UNBOUND:                -6.085
REMARK SMILES CCCCCCCCCCCCCCCCCCCCCCCCCCCC(=O)[O-]
REMARK SMILES IDX 15 1 16 2 17 3 18 4 19 5 20 6 21 7 22 8 23 9 24 10 25 11
REMARK SMILES IDX 26 12 27 13 28 14 29 15 30 16 14 17 13 18 12 19 11 20 10 21
REMARK SMILES IDX 9 22 8 23 7 24 6 25 5 26 4 27 3 28 2 29 1 30
REMARK H PARENT
REMARK Flexibility Score: inf
ROOT
ATOM      1  C   UNL     1     -98.326 -40.100  89.635  1.00  0.00     0.000 C 
ENDROOT
BRANCH   1   2
ATOM      2  C   UNL     1     -98.005 -41.213  90.645  1.00  0.00     0.000 C 
BRANCH   2   3
ATOM      3  C   UNL     1     -96.524 -41.175  91.053  1.00  0.00     0.000 C 
BRANCH   3   4
ATOM      4  C   UNL     1     -96.322 -41.377  92.564  1.00  0.00     0.000 C 
BRANCH   4   5
ATOM      5  C   UNL     1     -97.073 -42.601  93.106  1.00  0.00     0.000 C 
BRANCH   5   6
ATOM      6  C   UNL     1     -97.490 -42.384  94.567  1.00  0.00     0.000 C 
BRANCH   6   7
ATOM      7  C   UNL     1     -97.649 -40.897  94.928  1.00  0.00     0.000 C 
BRANCH   7   8
ATOM      8  C   UNL     1     -99.106 -40.400  95.019  1.00  0.00     0.000 C 
BRANCH   8   9
ATOM      9  C   UNL     1    -100.094 -41.089  94.059  1.00  0.00     0.000 C 
BRANCH   9  10
ATOM     10  C   UNL     1    -100.670 -40.127  93.005  1.00  0.00     0.000 C 
BRANCH  10  11
ATOM     11  C   UNL     1     -99.812 -38.863  92.830  1.00  0.00     0.000 C 
BRANCH  11  12
ATOM     12  C   UNL     1    -100.332 -37.956  91.699  1.00  0.00     0.006 C 
BRANCH  12  13
ATOM     13  C   UNL     1    -101.205 -36.811  92.227  1.00  0.00     0.053 C 
BRANCH  13  14
ATOM     14  C   UNL     1    -102.623 -36.926  91.757  1.00  0.00     0.041 C 
ATOM     15  O   UNL     1    -103.476 -36.068  92.107  1.00  0.00    -0.550 OA
ATOM     16  O   UNL     1    -103.007 -37.994  90.956  1.00  0.00    -0.550 OA
ENDBRANCH  13  14
ENDBRANCH  12  13
ENDBRANCH  11  12
ENDBRANCH  10  11
ENDBRANCH   9  10
ENDBRANCH   8   9
ENDBRANCH   7   8
ENDBRANCH   6   7
ENDBRANCH   5   6
ENDBRANCH   4   5
ENDBRANCH   3   4
ENDBRANCH   2   3
ENDBRANCH   1   2
BRANCH   1  17
ATOM     17  C   UNL     1     -97.238 -39.905  88.561  1.00  0.00     0.000 C 
BRANCH  17  18
ATOM     18  C   UNL     1     -97.271 -40.895  87.376  1.00  0.00     0.000 C 
BRANCH  18  19
ATOM     19  C   UNL     1     -96.137 -41.938  87.368  1.00  0.00     0.000 C 
BRANCH  19  20
ATOM     20  C   UNL     1     -96.530 -43.281  88.016  1.00  0.00     0.000 C 
BRANCH  20  21
ATOM     21  C   UNL     1     -97.823 -43.883  87.422  1.00  0.00     0.000 C 
BRANCH  21  22
ATOM     22  C   UNL     1     -99.009 -43.919  88.405  1.00  0.00    -0.000 C 
BRANCH  22  23
ATOM     23  C   UNL     1    -100.347 -43.424  87.831  1.00  0.00    -0.000 C 
BRANCH  23  24
ATOM     24  C   UNL     1    -100.245 -43.009  86.356  1.00  0.00    -0.000 C 
BRANCH  24  25
ATOM     25  C   UNL     1    -101.586 -43.200  85.638  1.00  0.00    -0.000 C 
BRANCH  25  26
ATOM     26  C   UNL     1    -101.750 -42.181  84.501  1.00  0.00    -0.000 C 
BRANCH  26  27
ATOM     27  C   UNL     1    -100.450 -41.953  83.708  1.00  0.00    -0.000 C 
BRANCH  27  28
ATOM     28  C   UNL     1    -100.520 -42.326  82.213  1.00  0.00    -0.000 C 
BRANCH  28  29
ATOM     29  C   UNL     1    -100.158 -41.189  81.240  1.00  0.00    -0.003 C 
ATOM     30  C   UNL     1    -100.589 -39.814  81.748  1.00  0.00     0.004 C 
ENDBRANCH  28  29
ENDBRANCH  27  28
ENDBRANCH  26  27
ENDBRANCH  25  26
ENDBRANCH  24  25
ENDBRANCH  23  24
ENDBRANCH  22  23
ENDBRANCH  21  22
ENDBRANCH  20  21
ENDBRANCH  19  20
ENDBRANCH  18  19
ENDBRANCH  17  18
ENDBRANCH   1  17
TORSDOF 26
ENDMDL
MODEL 9
REMARK VINA RESULT:    -2.344      1.799      5.068
REMARK INTER + INTRA:         -11.991
REMARK INTER:                  -7.007
REMARK INTRA:                  -4.985
REMARK UNBOUND:                -6.085
REMARK SMILES CCCCCCCCCCCCCCCCCCCCCCCCCCCC(=O)[O-]
REMARK SMILES IDX 15 1 16 2 17 3 18 4 19 5 20 6 21 7 22 8 23 9 24 10 25 11
REMARK SMILES IDX 26 12 27 13 28 14 29 15 30 16 14 17 13 18 12 19 11 20 10 21
REMARK SMILES IDX 9 22 8 23 7 24 6 25 5 26 4 27 3 28 2 29 1 30
REMARK H PARENT
REMARK Flexibility Score: inf
ROOT
ATOM      1  C   UNL     1     -98.464 -26.868  84.705  1.00  0.00     0.000 C 
ENDROOT
BRANCH   1   2
ATOM      2  C   UNL     1     -98.780 -25.382  84.934  1.00  0.00     0.000 C 
BRANCH   2   3
ATOM      3  C   UNL     1     -99.113 -24.678  83.609  1.00  0.00     0.000 C 
BRANCH   3   4
ATOM      4  C   UNL     1     -99.878 -25.587  82.633  1.00  0.00     0.000 C 
BRANCH   4   5
ATOM      5  C   UNL     1     -99.393 -25.447  81.183  1.00  0.00     0.000 C 
BRANCH   5   6
ATOM      6  C   UNL     1    -100.229 -26.322  80.239  1.00  0.00     0.000 C 
BRANCH   6   7
ATOM      7  C   UNL     1    -101.319 -27.120  80.975  1.00  0.00     0.000 C 
BRANCH   7   8
ATOM      8  C   UNL     1    -101.495 -28.576  80.498  1.00  0.00     0.000 C 
BRANCH   8   9
ATOM      9  C   UNL     1    -101.380 -29.644  81.602  1.00  0.00     0.000 C 
BRANCH   9  10
ATOM     10  C   UNL     1    -100.502 -29.190  82.781  1.00  0.00     0.000 C 
BRANCH  10  11
ATOM     11  C   UNL     1    -101.309 -28.990  84.075  1.00  0.00     0.000 C 
BRANCH  11  12
ATOM     12  C   UNL     1    -101.652 -30.323  84.762  1.00  0.00     0.006 C 
BRANCH  12  13
ATOM     13  C   UNL     1    -103.155 -30.631  84.717  1.00  0.00     0.053 C 
BRANCH  13  14
ATOM     14  C   UNL     1    -103.602 -31.412  85.915  1.00  0.00     0.041 C 
ATOM     15  O   UNL     1    -104.478 -32.308  85.794  1.00  0.00    -0.550 OA
ATOM     16  O   UNL     1    -103.071 -31.131  87.168  1.00  0.00    -0.550 OA
ENDBRANCH  13  14
ENDBRANCH  12  13
ENDBRANCH  11  12
ENDBRANCH  10  11
ENDBRANCH   9  10
ENDBRANCH   8   9
ENDBRANCH   7   8
ENDBRANCH   6   7
ENDBRANCH   5   6
ENDBRANCH   4   5
ENDBRANCH   3   4
ENDBRANCH   2   3
ENDBRANCH   1   2
BRANCH   1  17
ATOM     17  C   UNL     1     -96.955 -27.184  84.681  1.00  0.00     0.000 C 
BRANCH  17  18
ATOM     18  C   UNL     1     -96.481 -28.141  83.566  1.00  0.00     0.000 C 
BRANCH  18  19
ATOM     19  C   UNL     1     -96.455 -27.529  82.152  1.00  0.00     0.000 C 
BRANCH  19  20
ATOM     20  C   UNL     1     -95.912 -26.087  82.115  1.00  0.00     0.000 C 
BRANCH  20  21
ATOM     21  C   UNL     1     -94.701 -25.920  81.169  1.00  0.00     0.000 C 
BRANCH  21  22
ATOM     22  C   UNL     1     -94.913 -24.881  80.052  1.00  0.00    -0.000 C 
BRANCH  22  23
ATOM     23  C   UNL     1     -95.329 -25.461  78.691  1.00  0.00    -0.000 C 
BRANCH  23  24
ATOM     24  C   UNL     1     -96.853 -25.531  78.513  1.00  0.00    -0.000 C 
BRANCH  24  25
ATOM     25  C   UNL     1     -97.304 -26.961  78.196  1.00  0.00    -0.000 C 
BRANCH  25  26
ATOM     26  C   UNL     1     -96.127 -27.942  78.294  1.00  0.00    -0.000 C 
BRANCH  26  27
ATOM     27  C   UNL     1     -96.477 -29.223  79.073  1.00  0.00    -0.000 C 
BRANCH  27  28
ATOM     28  C   UNL     1     -97.945 -29.330  79.533  1.00  0.00    -0.000 C 
BRANCH  28  29
ATOM     29  C   UNL     1     -98.676 -30.610  79.087  1.00  0.00    -0.003 C 
ATOM     30  C   UNL     1     -98.428 -30.953  77.619  1.00  0.00     0.004 C 
ENDBRANCH  28  29
ENDBRANCH  27  28
ENDBRANCH  26  27
ENDBRANCH  25  26
ENDBRANCH  24  25
ENDBRANCH  23  24
ENDBRANCH  22  23
ENDBRANCH  21  22
ENDBRANCH  20  21
ENDBRANCH  19  20
ENDBRANCH  18  19
ENDBRANCH  17  18
ENDBRANCH   1  17
TORSDOF 26
ENDMDL
