MODEL 1
REMARK VINA RESULT:    23.389      0.000      0.000
REMARK INTER + INTRA:          27.306
REMARK INTER:                  27.491
REMARK INTRA:                  -0.185
REMARK UNBOUND:                -0.185
REMARK SMILES O=c1c(O)c(-c2ccc(O)cc2)oc2cc(O)cc(O)c12
REMARK SMILES IDX 5 1 3 2 2 3 1 4 21 5 19 6 18 7 16 8 15 9 14 10 13 11 6 12
REMARK SMILES IDX 7 13 8 14 9 15 12 16 11 17 10 18 4 20 20 22 17 24
REMARK H PARENT 10 19 4 21 20 23 17 25
REMARK Flexibility Score: inf
ROOT
ATOM      1  C   UNL     1      12.203  -2.894  10.805  1.00  0.00     0.180 A 
ATOM      2  C   UNL     1      10.986  -2.244  11.077  1.00  0.00     0.208 A 
ATOM      3  C   UNL     1      10.034  -2.129  10.052  1.00  0.00     0.238 A 
ATOM      4  O   UNL     1       8.969  -1.499  10.285  1.00  0.00    -0.285 OA
ATOM      5  C   UNL     1      10.302  -2.678   8.775  1.00  0.00     0.111 A 
ATOM      6  C   UNL     1       9.391  -2.656   7.676  1.00  0.00     0.134 A 
ATOM      7  C   UNL     1       9.812  -3.114   6.421  1.00  0.00     0.093 A 
ATOM      8  C   UNL     1      11.087  -3.654   6.243  1.00  0.00     0.123 A 
ATOM      9  C   UNL     1      11.963  -3.736   7.324  1.00  0.00     0.094 A 
ATOM     10  C   UNL     1      11.584  -3.254   8.579  1.00  0.00     0.146 A 
ATOM     11  O   UNL     1      12.452  -3.340   9.580  1.00  0.00    -0.452 OA
ENDROOT
BRANCH   1  12
ATOM     12  C   UNL     1      13.247  -3.076  11.840  1.00  0.00     0.021 A 
ATOM     13  C   UNL     1      14.448  -2.343  11.808  1.00  0.00     0.016 A 
ATOM     14  C   UNL     1      15.408  -2.515  12.810  1.00  0.00     0.047 A 
ATOM     15  C   UNL     1      15.174  -3.408  13.863  1.00  0.00     0.115 A 
ATOM     16  C   UNL     1      13.014  -3.956  12.911  1.00  0.00     0.016 A 
ATOM     17  C   UNL     1      13.975  -4.125  13.911  1.00  0.00     0.047 A 
BRANCH  15  18
ATOM     18  O   UNL     1      16.125  -3.588  14.866  1.00  0.00    -0.508 OA
ATOM     19  H   UNL     1      15.859  -3.660  15.841  1.00  0.00     0.293 HD
ENDBRANCH  15  18
ENDBRANCH   1  12
BRANCH   2  20
ATOM     20  O   UNL     1      10.751  -1.689  12.337  1.00  0.00    -0.502 OA
ATOM     21  H   UNL     1       9.857  -1.765  12.807  1.00  0.00     0.293 HD
ENDBRANCH   2  20
BRANCH   6  22
ATOM     22  O   UNL     1       8.066  -2.222   7.769  1.00  0.00    -0.507 OA
ATOM     23  H   UNL     1       7.500  -1.932   6.986  1.00  0.00     0.293 HD
ENDBRANCH   6  22
BRANCH   8  24
ATOM     24  O   UNL     1      11.494  -4.122   4.995  1.00  0.00    -0.508 OA
ATOM     25  H   UNL     1      12.460  -4.364   4.808  1.00  0.00     0.293 HD
ENDBRANCH   8  24
TORSDOF 5
ENDMDL
MODEL 2
REMARK VINA RESULT:    24.320     10.357     14.123
REMARK INTER + INTRA:          28.400
REMARK INTER:                  28.307
REMARK INTRA:                   0.093
REMARK UNBOUND:                -0.185
REMARK SMILES O=c1c(O)c(-c2ccc(O)cc2)oc2cc(O)cc(O)c12
REMARK SMILES IDX 5 1 3 2 2 3 1 4 21 5 19 6 18 7 16 8 15 9 14 10 13 11 6 12
REMARK SMILES IDX 7 13 8 14 9 15 12 16 11 17 10 18 4 20 20 22 17 24
REMARK H PARENT 10 19 4 21 20 23 17 25
REMARK Flexibility Score: inf
ROOT
ATOM      1  C   UNL     1       2.451  -1.530   0.989  1.00  0.00     0.180 A 
ATOM      2  C   UNL     1       1.531  -0.969   1.892  1.00  0.00     0.208 A 
ATOM      3  C   UNL     1       0.157  -1.115   1.641  1.00  0.00     0.238 A 
ATOM      4  O   UNL     1      -0.662  -0.564   2.422  1.00  0.00    -0.285 OA
ATOM      5  C   UNL     1      -0.279  -1.833   0.502  1.00  0.00     0.111 A 
ATOM      6  C   UNL     1      -1.647  -2.078   0.172  1.00  0.00     0.134 A 
ATOM      7  C   UNL     1      -1.964  -2.689  -1.048  1.00  0.00     0.093 A 
ATOM      8  C   UNL     1      -0.962  -3.121  -1.919  1.00  0.00     0.123 A 
ATOM      9  C   UNL     1       0.377  -2.941  -1.579  1.00  0.00     0.094 A 
ATOM     10  C   UNL     1       0.724  -2.303  -0.385  1.00  0.00     0.146 A 
ATOM     11  O   UNL     1       2.012  -2.141  -0.104  1.00  0.00    -0.452 OA
ENDROOT
BRANCH   1  12
ATOM     12  C   UNL     1       3.914  -1.439   1.199  1.00  0.00     0.021 A 
ATOM     13  C   UNL     1       4.490  -1.663   2.463  1.00  0.00     0.016 A 
ATOM     14  C   UNL     1       5.876  -1.596   2.631  1.00  0.00     0.047 A 
ATOM     15  C   UNL     1       6.705  -1.318   1.537  1.00  0.00     0.115 A 
ATOM     16  C   UNL     1       4.755  -1.179   0.103  1.00  0.00     0.016 A 
ATOM     17  C   UNL     1       6.141  -1.112   0.275  1.00  0.00     0.047 A 
BRANCH  15  18
ATOM     18  O   UNL     1       8.088  -1.246   1.693  1.00  0.00    -0.508 OA
ATOM     19  H   UNL     1       8.554  -0.369   1.895  1.00  0.00     0.293 HD
ENDBRANCH  15  18
ENDBRANCH   1  12
BRANCH   2  20
ATOM     20  O   UNL     1       1.982  -0.244   2.998  1.00  0.00    -0.502 OA
ATOM     21  H   UNL     1       2.966  -0.104   3.191  1.00  0.00     0.293 HD
ENDBRANCH   2  20
BRANCH   6  22
ATOM     22  O   UNL     1      -2.719  -1.769   1.013  1.00  0.00    -0.507 OA
ATOM     23  H   UNL     1      -3.293  -2.451   1.488  1.00  0.00     0.293 HD
ENDBRANCH   6  22
BRANCH   8  24
ATOM     24  O   UNL     1      -1.286  -3.741  -3.124  1.00  0.00    -0.508 OA
ATOM     25  H   UNL     1      -0.965  -4.677  -3.341  1.00  0.00     0.293 HD
ENDBRANCH   8  24
TORSDOF 5
ENDMDL
MODEL 3
REMARK VINA RESULT:    25.910      1.433      2.219
REMARK INTER + INTRA:          30.269
REMARK INTER:                  30.563
REMARK INTRA:                  -0.294
REMARK UNBOUND:                -0.185
REMARK SMILES O=c1c(O)c(-c2ccc(O)cc2)oc2cc(O)cc(O)c12
REMARK SMILES IDX 5 1 3 2 2 3 1 4 21 5 19 6 18 7 16 8 15 9 14 10 13 11 6 12
REMARK SMILES IDX 7 13 8 14 9 15 12 16 11 17 10 18 4 20 20 22 17 24
REMARK H PARENT 10 19 4 21 20 23 17 25
REMARK Flexibility Score: inf
ROOT
ATOM      1  C   UNL     1      11.818  -3.064   9.393  1.00  0.00     0.180 A 
ATOM      2  C   UNL     1      10.413  -3.042   9.352  1.00  0.00     0.208 A 
ATOM      3  C   UNL     1       9.765  -3.302   8.134  1.00  0.00     0.238 A 
ATOM      4  O   UNL     1       8.509  -3.228   8.090  1.00  0.00    -0.285 OA
ATOM      5  C   UNL     1      10.527  -3.596   6.978  1.00  0.00     0.111 A 
ATOM      6  C   UNL     1       9.973  -3.915   5.701  1.00  0.00     0.134 A 
ATOM      7  C   UNL     1      10.823  -4.061   4.597  1.00  0.00     0.093 A 
ATOM      8  C   UNL     1      12.209  -3.964   4.737  1.00  0.00     0.123 A 
ATOM      9  C   UNL     1      12.762  -3.712   5.990  1.00  0.00     0.094 A 
ATOM     10  C   UNL     1      11.939  -3.526   7.104  1.00  0.00     0.146 A 
ATOM     11  O   UNL     1      12.506  -3.277   8.278  1.00  0.00    -0.452 OA
ENDROOT
BRANCH   1  12
ATOM     12  C   UNL     1      12.573  -2.824  10.644  1.00  0.00     0.021 A 
ATOM     13  C   UNL     1      12.951  -3.885  11.488  1.00  0.00     0.016 A 
ATOM     14  C   UNL     1      13.685  -3.636  12.652  1.00  0.00     0.047 A 
ATOM     15  C   UNL     1      14.062  -2.327  12.980  1.00  0.00     0.115 A 
ATOM     16  C   UNL     1      12.972  -1.517  10.972  1.00  0.00     0.016 A 
ATOM     17  C   UNL     1      13.705  -1.271  12.137  1.00  0.00     0.047 A 
BRANCH  15  18
ATOM     18  O   UNL     1      14.791  -2.068  14.139  1.00  0.00    -0.508 OA
ATOM     19  H   UNL     1      15.022  -1.122  14.418  1.00  0.00     0.293 HD
ENDBRANCH  15  18
ENDBRANCH   1  12
BRANCH   2  20
ATOM     20  O   UNL     1       9.680  -2.728  10.499  1.00  0.00    -0.502 OA
ATOM     21  H   UNL     1       9.032  -3.378  10.926  1.00  0.00     0.293 HD
ENDBRANCH   2  20
BRANCH   6  22
ATOM     22  O   UNL     1       8.611  -4.125   5.472  1.00  0.00    -0.507 OA
ATOM     23  H   UNL     1       8.005  -4.669   6.068  1.00  0.00     0.293 HD
ENDBRANCH   6  22
BRANCH   8  24
ATOM     24  O   UNL     1      13.048  -4.125   3.636  1.00  0.00    -0.508 OA
ATOM     25  H   UNL     1      12.836  -3.699   2.742  1.00  0.00     0.293 HD
ENDBRANCH   8  24
TORSDOF 5
ENDMDL
