MODEL 1
REMARK VINA RESULT:    -4.083      0.000      0.000
REMARK INTER + INTRA:         -10.411
REMARK INTER:                  -7.901
REMARK INTRA:                  -2.510
REMARK UNBOUND:                -2.510
REMARK SMILES CCCCCCCCCCCCCCCCCC(=O)[O-]
REMARK SMILES IDX 10 1 11 2 12 3 13 4 14 5 15 6 16 7 17 8 18 9 19 10 20 11
REMARK SMILES IDX 9 12 8 13 7 14 6 15 5 16 4 17 3 18 2 19 1 20
REMARK H PARENT
REMARK Flexibility Score: inf
ROOT
ATOM      1  C   UNL     1       7.423   0.457   8.360  1.00  0.00     0.000 C 
ENDROOT
BRANCH   1   2
ATOM      2  C   UNL     1       7.922   0.323   9.806  1.00  0.00     0.000 C 
BRANCH   2   3
ATOM      3  C   UNL     1       9.286   1.000   9.980  1.00  0.00     0.000 C 
BRANCH   3   4
ATOM      4  C   UNL     1       9.178   2.239  10.882  1.00  0.00     0.000 C 
BRANCH   4   5
ATOM      5  C   UNL     1       9.658   3.524  10.175  1.00  0.00     0.000 C 
BRANCH   5   6
ATOM      6  C   UNL     1       9.783   3.384   8.646  1.00  0.00     0.000 C 
BRANCH   6   7
ATOM      7  C   UNL     1       8.767   4.204   7.835  1.00  0.00     0.006 C 
BRANCH   7   8
ATOM      8  C   UNL     1       8.528   3.633   6.431  1.00  0.00     0.053 C 
BRANCH   8   9
ATOM      9  C   UNL     1       7.605   4.520   5.657  1.00  0.00     0.041 C 
ATOM     10  O   UNL     1       7.936   5.708   5.402  1.00  0.00    -0.550 OA
ATOM     11  O   UNL     1       6.401   4.023   5.176  1.00  0.00    -0.550 OA
ENDBRANCH   8   9
ENDBRANCH   7   8
ENDBRANCH   6   7
ENDBRANCH   5   6
ENDBRANCH   4   5
ENDBRANCH   3   4
ENDBRANCH   2   3
ENDBRANCH   1   2
BRANCH   1  12
ATOM     12  C   UNL     1       6.056   1.154   8.262  1.00  0.00     0.000 C 
BRANCH  12  13
ATOM     13  C   UNL     1       6.051   2.541   8.928  1.00  0.00    -0.000 C 
BRANCH  13  14
ATOM     14  C   UNL     1       4.963   3.465   8.358  1.00  0.00    -0.000 C 
BRANCH  14  15
ATOM     15  C   UNL     1       5.202   4.945   8.696  1.00  0.00    -0.000 C 
BRANCH  15  16
ATOM     16  C   UNL     1       3.925   5.593   9.251  1.00  0.00    -0.000 C 
BRANCH  16  17
ATOM     17  C   UNL     1       2.640   4.890   8.775  1.00  0.00    -0.000 C 
BRANCH  17  18
ATOM     18  C   UNL     1       1.728   4.361   9.901  1.00  0.00    -0.000 C 
BRANCH  18  19
ATOM     19  C   UNL     1       2.465   3.893  11.167  1.00  0.00    -0.003 C 
ATOM     20  C   UNL     1       2.816   2.407  11.137  1.00  0.00     0.004 C 
ENDBRANCH  18  19
ENDBRANCH  17  18
ENDBRANCH  16  17
ENDBRANCH  15  16
ENDBRANCH  14  15
ENDBRANCH  13  14
ENDBRANCH  12  13
ENDBRANCH   1  12
TORSDOF 16
ENDMDL
MODEL 2
REMARK VINA RESULT:    -4.043     10.795     13.486
REMARK INTER + INTRA:         -10.335
REMARK INTER:                  -8.357
REMARK INTRA:                  -1.978
REMARK UNBOUND:                -2.510
REMARK SMILES CCCCCCCCCCCCCCCCCC(=O)[O-]
REMARK SMILES IDX 10 1 11 2 12 3 13 4 14 5 15 6 16 7 17 8 18 9 19 10 20 11
REMARK SMILES IDX 9 12 8 13 7 14 6 15 5 16 4 17 3 18 2 19 1 20
REMARK H PARENT
REMARK Flexibility Score: inf
ROOT
ATOM      1  C   UNL     1      -4.458  -4.851   9.252  1.00  0.00     0.000 C 
ENDROOT
BRANCH   1   2
ATOM      2  C   UNL     1      -3.390  -4.857   8.148  1.00  0.00     0.000 C 
BRANCH   2   3
ATOM      3  C   UNL     1      -1.984  -4.974   8.747  1.00  0.00     0.000 C 
BRANCH   3   4
ATOM      4  C   UNL     1      -1.330  -3.591   8.894  1.00  0.00     0.000 C 
BRANCH   4   5
ATOM      5  C   UNL     1      -1.068  -3.219  10.369  1.00  0.00     0.000 C 
BRANCH   5   6
ATOM      6  C   UNL     1      -2.339  -2.827  11.148  1.00  0.00     0.000 C 
BRANCH   6   7
ATOM      7  C   UNL     1      -2.760  -1.356  11.000  1.00  0.00     0.006 C 
BRANCH   7   8
ATOM      8  C   UNL     1      -3.880  -1.160   9.970  1.00  0.00     0.053 C 
BRANCH   8   9
ATOM      9  C   UNL     1      -3.487  -0.126   8.963  1.00  0.00     0.041 C 
ATOM     10  O   UNL     1      -4.083   0.983   8.929  1.00  0.00    -0.550 OA
ATOM     11  O   UNL     1      -2.433  -0.368   8.091  1.00  0.00    -0.550 OA
ENDBRANCH   8   9
ENDBRANCH   7   8
ENDBRANCH   6   7
ENDBRANCH   5   6
ENDBRANCH   4   5
ENDBRANCH   3   4
ENDBRANCH   2   3
ENDBRANCH   1   2
BRANCH   1  12
ATOM     12  C   UNL     1      -5.780  -4.209   8.799  1.00  0.00     0.000 C 
BRANCH  12  13
ATOM     13  C   UNL     1      -6.899  -5.245   8.592  1.00  0.00    -0.000 C 
BRANCH  13  14
ATOM     14  C   UNL     1      -7.485  -5.203   7.171  1.00  0.00    -0.000 C 
BRANCH  14  15
ATOM     15  C   UNL     1      -7.365  -3.817   6.519  1.00  0.00    -0.000 C 
BRANCH  15  16
ATOM     16  C   UNL     1      -8.734  -3.125   6.446  1.00  0.00    -0.000 C 
BRANCH  16  17
ATOM     17  C   UNL     1      -9.030  -2.251   7.678  1.00  0.00    -0.000 C 
BRANCH  17  18
ATOM     18  C   UNL     1      -9.875  -2.931   8.774  1.00  0.00    -0.000 C 
BRANCH  18  19
ATOM     19  C   UNL     1      -9.335  -2.764  10.205  1.00  0.00    -0.003 C 
ATOM     20  C   UNL     1      -9.514  -1.347  10.748  1.00  0.00     0.004 C 
ENDBRANCH  18  19
ENDBRANCH  17  18
ENDBRANCH  16  17
ENDBRANCH  15  16
ENDBRANCH  14  15
ENDBRANCH  13  14
ENDBRANCH  12  13
ENDBRANCH   1  12
TORSDOF 16
ENDMDL
MODEL 3
REMARK VINA RESULT:    -4.002      1.924      3.635
REMARK INTER + INTRA:         -10.255
REMARK INTER:                  -7.661
REMARK INTRA:                  -2.594
REMARK UNBOUND:                -2.510
REMARK SMILES CCCCCCCCCCCCCCCCCC(=O)[O-]
REMARK SMILES IDX 10 1 11 2 12 3 13 4 14 5 15 6 16 7 17 8 18 9 19 10 20 11
REMARK SMILES IDX 9 12 8 13 7 14 6 15 5 16 4 17 3 18 2 19 1 20
REMARK H PARENT
REMARK Flexibility Score: inf
ROOT
ATOM      1  C   UNL     1       5.198   4.734   8.676  1.00  0.00     0.000 C 
ENDROOT
BRANCH   1   2
ATOM      2  C   UNL     1       6.514   5.485   8.426  1.00  0.00     0.000 C 
BRANCH   2   3
ATOM      3  C   UNL     1       7.718   4.549   8.583  1.00  0.00     0.000 C 
BRANCH   3   4
ATOM      4  C   UNL     1       7.280   3.076   8.551  1.00  0.00     0.000 C 
BRANCH   4   5
ATOM      5  C   UNL     1       8.032   2.264   7.475  1.00  0.00     0.000 C 
BRANCH   5   6
ATOM      6  C   UNL     1       7.173   1.918   6.243  1.00  0.00     0.000 C 
BRANCH   6   7
ATOM      7  C   UNL     1       6.415   3.105   5.629  1.00  0.00     0.006 C 
BRANCH   7   8
ATOM      8  C   UNL     1       7.101   3.663   4.374  1.00  0.00     0.053 C 
BRANCH   8   9
ATOM      9  C   UNL     1       8.223   4.576   4.755  1.00  0.00     0.041 C 
ATOM     10  O   UNL     1       9.416   4.186   4.659  1.00  0.00    -0.550 OA
ATOM     11  O   UNL     1       7.954   5.874   5.172  1.00  0.00    -0.550 OA
ENDBRANCH   8   9
ENDBRANCH   7   8
ENDBRANCH   6   7
ENDBRANCH   5   6
ENDBRANCH   4   5
ENDBRANCH   3   4
ENDBRANCH   2   3
ENDBRANCH   1   2
BRANCH   1  12
ATOM     12  C   UNL     1       4.095   5.639   9.249  1.00  0.00     0.000 C 
BRANCH  12  13
ATOM     13  C   UNL     1       2.693   5.021   9.113  1.00  0.00    -0.000 C 
BRANCH  13  14
ATOM     14  C   UNL     1       2.445   4.425   7.718  1.00  0.00    -0.000 C 
BRANCH  14  15
ATOM     15  C   UNL     1       1.196   3.531   7.666  1.00  0.00    -0.000 C 
BRANCH  15  16
ATOM     16  C   UNL     1       1.582   2.064   7.423  1.00  0.00    -0.000 C 
BRANCH  16  17
ATOM     17  C   UNL     1       3.093   1.809   7.574  1.00  0.00    -0.000 C 
BRANCH  17  18
ATOM     18  C   UNL     1       3.489   0.917   8.768  1.00  0.00    -0.000 C 
BRANCH  18  19
ATOM     19  C   UNL     1       4.126   1.663   9.953  1.00  0.00    -0.003 C 
ATOM     20  C   UNL     1       3.157   1.871  11.116  1.00  0.00     0.004 C 
ENDBRANCH  18  19
ENDBRANCH  17  18
ENDBRANCH  16  17
ENDBRANCH  15  16
ENDBRANCH  14  15
ENDBRANCH  13  14
ENDBRANCH  12  13
ENDBRANCH   1  12
TORSDOF 16
ENDMDL
MODEL 4
REMARK VINA RESULT:    -3.988     10.998     13.971
REMARK INTER + INTRA:         -10.229
REMARK INTER:                  -7.325
REMARK INTRA:                  -2.904
REMARK UNBOUND:                -2.510
REMARK SMILES CCCCCCCCCCCCCCCCCC(=O)[O-]
REMARK SMILES IDX 10 1 11 2 12 3 13 4 14 5 15 6 16 7 17 8 18 9 19 10 20 11
REMARK SMILES IDX 9 12 8 13 7 14 6 15 5 16 4 17 3 18 2 19 1 20
REMARK H PARENT
REMARK Flexibility Score: inf
ROOT
ATOM      1  C   UNL     1      -7.931  -4.251   8.361  1.00  0.00     0.000 C 
ENDROOT
BRANCH   1   2
ATOM      2  C   UNL     1      -6.607  -4.912   8.772  1.00  0.00     0.000 C 
BRANCH   2   3
ATOM      3  C   UNL     1      -5.511  -3.860   8.979  1.00  0.00     0.000 C 
BRANCH   3   4
ATOM      4  C   UNL     1      -4.237  -4.496   9.558  1.00  0.00     0.000 C 
BRANCH   4   5
ATOM      5  C   UNL     1      -3.170  -4.764   8.475  1.00  0.00     0.000 C 
BRANCH   5   6
ATOM      6  C   UNL     1      -3.294  -3.853   7.239  1.00  0.00     0.000 C 
BRANCH   6   7
ATOM      7  C   UNL     1      -2.421  -2.589   7.277  1.00  0.00     0.006 C 
BRANCH   7   8
ATOM      8  C   UNL     1      -3.244  -1.295   7.206  1.00  0.00     0.053 C 
BRANCH   8   9
ATOM      9  C   UNL     1      -3.163  -0.554   8.504  1.00  0.00     0.041 C 
ATOM     10  O   UNL     1      -3.415   0.679   8.545  1.00  0.00    -0.550 OA
ATOM     11  O   UNL     1      -2.855  -1.233   9.676  1.00  0.00    -0.550 OA
ENDBRANCH   8   9
ENDBRANCH   7   8
ENDBRANCH   6   7
ENDBRANCH   5   6
ENDBRANCH   4   5
ENDBRANCH   3   4
ENDBRANCH   2   3
ENDBRANCH   1   2
BRANCH   1  12
ATOM     12  C   UNL     1      -8.532  -3.378   9.474  1.00  0.00     0.000 C 
BRANCH  12  13
ATOM     13  C   UNL     1      -9.277  -2.149   8.925  1.00  0.00    -0.000 C 
BRANCH  13  14
ATOM     14  C   UNL     1      -8.689  -0.825   9.440  1.00  0.00    -0.000 C 
BRANCH  14  15
ATOM     15  C   UNL     1      -8.163   0.073   8.309  1.00  0.00    -0.000 C 
BRANCH  15  16
ATOM     16  C   UNL     1      -6.855  -0.486   7.730  1.00  0.00    -0.000 C 
BRANCH  16  17
ATOM     17  C   UNL     1      -6.927  -0.730   6.211  1.00  0.00    -0.000 C 
BRANCH  17  18
ATOM     18  C   UNL     1      -6.446  -2.120   5.748  1.00  0.00    -0.000 C 
BRANCH  18  19
ATOM     19  C   UNL     1      -7.502  -2.959   5.010  1.00  0.00    -0.003 C 
ATOM     20  C   UNL     1      -8.930  -2.484   5.272  1.00  0.00     0.004 C 
ENDBRANCH  18  19
ENDBRANCH  17  18
ENDBRANCH  16  17
ENDBRANCH  15  16
ENDBRANCH  14  15
ENDBRANCH  13  14
ENDBRANCH  12  13
ENDBRANCH   1  12
TORSDOF 16
ENDMDL
MODEL 5
REMARK VINA RESULT:    -3.987     11.030     14.372
REMARK INTER + INTRA:         -10.226
REMARK INTER:                  -7.554
REMARK INTRA:                  -2.672
REMARK UNBOUND:                -2.510
REMARK SMILES CCCCCCCCCCCCCCCCCC(=O)[O-]
REMARK SMILES IDX 10 1 11 2 12 3 13 4 14 5 15 6 16 7 17 8 18 9 19 10 20 11
REMARK SMILES IDX 9 12 8 13 7 14 6 15 5 16 4 17 3 18 2 19 1 20
REMARK H PARENT
REMARK Flexibility Score: inf
ROOT
ATOM      1  C   UNL     1      -4.159  -4.883   9.564  1.00  0.00     0.000 C 
ENDROOT
BRANCH   1   2
ATOM      2  C   UNL     1      -5.161  -4.586   8.438  1.00  0.00     0.000 C 
BRANCH   2   3
ATOM      3  C   UNL     1      -6.536  -5.183   8.757  1.00  0.00     0.000 C 
BRANCH   3   4
ATOM      4  C   UNL     1      -7.501  -5.011   7.573  1.00  0.00     0.000 C 
BRANCH   4   5
ATOM      5  C   UNL     1      -8.255  -3.665   7.620  1.00  0.00     0.000 C 
BRANCH   5   6
ATOM      6  C   UNL     1      -9.042  -3.437   8.925  1.00  0.00     0.000 C 
BRANCH   6   7
ATOM      7  C   UNL     1      -8.644  -2.177   9.709  1.00  0.00     0.006 C 
BRANCH   7   8
ATOM      8  C   UNL     1      -7.312  -1.579   9.235  1.00  0.00     0.053 C 
BRANCH   8   9
ATOM      9  C   UNL     1      -7.522  -0.200   8.695  1.00  0.00     0.041 C 
ATOM     10  O   UNL     1      -8.662   0.157   8.297  1.00  0.00    -0.550 OA
ATOM     11  O   UNL     1      -6.471   0.708   8.675  1.00  0.00    -0.550 OA
ENDBRANCH   8   9
ENDBRANCH   7   8
ENDBRANCH   6   7
ENDBRANCH   5   6
ENDBRANCH   4   5
ENDBRANCH   3   4
ENDBRANCH   2   3
ENDBRANCH   1   2
BRANCH   1  12
ATOM     12  C   UNL     1      -3.579  -3.608  10.197  1.00  0.00     0.000 C 
BRANCH  12  13
ATOM     13  C   UNL     1      -3.826  -2.356   9.338  1.00  0.00    -0.000 C 
BRANCH  13  14
ATOM     14  C   UNL     1      -2.525  -1.766   8.768  1.00  0.00    -0.000 C 
BRANCH  14  15
ATOM     15  C   UNL     1      -1.918  -2.633   7.653  1.00  0.00    -0.000 C 
BRANCH  15  16
ATOM     16  C   UNL     1      -1.571  -1.780   6.424  1.00  0.00    -0.000 C 
BRANCH  16  17
ATOM     17  C   UNL     1      -2.766  -1.586   5.473  1.00  0.00    -0.000 C 
BRANCH  17  18
ATOM     18  C   UNL     1      -3.461  -2.887   5.023  1.00  0.00    -0.000 C 
BRANCH  18  19
ATOM     19  C   UNL     1      -4.979  -2.929   5.266  1.00  0.00    -0.003 C 
ATOM     20  C   UNL     1      -5.503  -1.685   5.981  1.00  0.00     0.004 C 
ENDBRANCH  18  19
ENDBRANCH  17  18
ENDBRANCH  16  17
ENDBRANCH  15  16
ENDBRANCH  14  15
ENDBRANCH  13  14
ENDBRANCH  12  13
ENDBRANCH   1  12
TORSDOF 16
ENDMDL
MODEL 6
REMARK VINA RESULT:    -3.952      1.947      3.745
REMARK INTER + INTRA:         -10.158
REMARK INTER:                  -7.313
REMARK INTRA:                  -2.845
REMARK UNBOUND:                -2.510
REMARK SMILES CCCCCCCCCCCCCCCCCC(=O)[O-]
REMARK SMILES IDX 10 1 11 2 12 3 13 4 14 5 15 6 16 7 17 8 18 9 19 10 20 11
REMARK SMILES IDX 9 12 8 13 7 14 6 15 5 16 4 17 3 18 2 19 1 20
REMARK H PARENT
REMARK Flexibility Score: inf
ROOT
ATOM      1  C   UNL     1       6.542   5.568   8.314  1.00  0.00     0.000 C 
ENDROOT
BRANCH   1   2
ATOM      2  C   UNL     1       7.562   4.491   8.713  1.00  0.00     0.000 C 
BRANCH   2   3
ATOM      3  C   UNL     1       6.921   3.099   8.709  1.00  0.00     0.000 C 
BRANCH   3   4
ATOM      4  C   UNL     1       7.831   2.073   8.017  1.00  0.00     0.000 C 
BRANCH   4   5
ATOM      5  C   UNL     1       8.316   2.557   6.633  1.00  0.00     0.000 C 
BRANCH   5   6
ATOM      6  C   UNL     1       7.278   2.368   5.509  1.00  0.00     0.000 C 
BRANCH   6   7
ATOM      7  C   UNL     1       6.880   3.658   4.774  1.00  0.00     0.006 C 
BRANCH   7   8
ATOM      8  C   UNL     1       7.891   4.794   4.978  1.00  0.00     0.053 C 
BRANCH   8   9
ATOM      9  C   UNL     1       8.687   5.015   3.731  1.00  0.00     0.041 C 
ATOM     10  O   UNL     1       8.315   5.873   2.887  1.00  0.00    -0.550 OA
ATOM     11  O   UNL     1       9.863   4.307   3.520  1.00  0.00    -0.550 OA
ENDBRANCH   8   9
ENDBRANCH   7   8
ENDBRANCH   6   7
ENDBRANCH   5   6
ENDBRANCH   4   5
ENDBRANCH   3   4
ENDBRANCH   2   3
ENDBRANCH   1   2
BRANCH   1  12
ATOM     12  C   UNL     1       5.121   5.008   8.142  1.00  0.00     0.000 C 
BRANCH  12  13
ATOM     13  C   UNL     1       4.131   5.579   9.173  1.00  0.00    -0.000 C 
BRANCH  13  14
ATOM     14  C   UNL     1       2.692   5.088   8.943  1.00  0.00    -0.000 C 
BRANCH  14  15
ATOM     15  C   UNL     1       2.196   4.156  10.059  1.00  0.00    -0.000 C 
BRANCH  15  16
ATOM     16  C   UNL     1       1.904   2.751   9.510  1.00  0.00    -0.000 C 
BRANCH  16  17
ATOM     17  C   UNL     1       3.165   1.873   9.410  1.00  0.00    -0.000 C 
BRANCH  17  18
ATOM     18  C   UNL     1       3.677   1.623   7.977  1.00  0.00    -0.000 C 
BRANCH  18  19
ATOM     19  C   UNL     1       2.701   2.030   6.860  1.00  0.00    -0.003 C 
ATOM     20  C   UNL     1       3.384   2.780   5.717  1.00  0.00     0.004 C 
ENDBRANCH  18  19
ENDBRANCH  17  18
ENDBRANCH  16  17
ENDBRANCH  15  16
ENDBRANCH  14  15
ENDBRANCH  13  14
ENDBRANCH  12  13
ENDBRANCH   1  12
TORSDOF 16
ENDMDL
MODEL 7
REMARK VINA RESULT:    -3.930      2.068      3.875
REMARK INTER + INTRA:         -10.115
REMARK INTER:                  -7.958
REMARK INTRA:                  -2.157
REMARK UNBOUND:                -2.510
REMARK SMILES CCCCCCCCCCCCCCCCCC(=O)[O-]
REMARK SMILES IDX 10 1 11 2 12 3 13 4 14 5 15 6 16 7 17 8 18 9 19 10 20 11
REMARK SMILES IDX 9 12 8 13 7 14 6 15 5 16 4 17 3 18 2 19 1 20
REMARK H PARENT
REMARK Flexibility Score: inf
ROOT
ATOM      1  C   UNL     1       4.937   4.183   8.792  1.00  0.00     0.000 C 
ENDROOT
BRANCH   1   2
ATOM      2  C   UNL     1       6.041   4.320   7.734  1.00  0.00     0.000 C 
BRANCH   2   3
ATOM      3  C   UNL     1       7.284   4.998   8.322  1.00  0.00     0.000 C 
BRANCH   3   4
ATOM      4  C   UNL     1       8.531   4.118   8.142  1.00  0.00     0.000 C 
BRANCH   4   5
ATOM      5  C   UNL     1       9.367   4.014   9.435  1.00  0.00     0.000 C 
BRANCH   5   6
ATOM      6  C   UNL     1       9.349   2.614  10.078  1.00  0.00     0.000 C 
BRANCH   6   7
ATOM      7  C   UNL     1       8.116   1.762   9.737  1.00  0.00     0.006 C 
BRANCH   7   8
ATOM      8  C   UNL     1       8.455   0.556   8.849  1.00  0.00     0.053 C 
BRANCH   8   9
ATOM      9  C   UNL     1       7.355   0.307   7.866  1.00  0.00     0.041 C 
ATOM     10  O   UNL     1       7.593  -0.307   6.793  1.00  0.00    -0.550 OA
ATOM     11  O   UNL     1       6.058   0.711   8.155  1.00  0.00    -0.550 OA
ENDBRANCH   8   9
ENDBRANCH   7   8
ENDBRANCH   6   7
ENDBRANCH   5   6
ENDBRANCH   4   5
ENDBRANCH   3   4
ENDBRANCH   2   3
ENDBRANCH   1   2
BRANCH   1  12
ATOM     12  C   UNL     1       4.254   5.522   9.117  1.00  0.00     0.000 C 
BRANCH  12  13
ATOM     13  C   UNL     1       2.798   5.578   8.622  1.00  0.00    -0.000 C 
BRANCH  13  14
ATOM     14  C   UNL     1       2.437   4.389   7.716  1.00  0.00    -0.000 C 
BRANCH  14  15
ATOM     15  C   UNL     1       1.155   3.669   8.163  1.00  0.00    -0.000 C 
BRANCH  15  16
ATOM     16  C   UNL     1       1.455   2.220   8.576  1.00  0.00    -0.000 C 
BRANCH  16  17
ATOM     17  C   UNL     1       1.294   1.982  10.088  1.00  0.00    -0.000 C 
BRANCH  17  18
ATOM     18  C   UNL     1       2.487   2.436  10.953  1.00  0.00    -0.000 C 
BRANCH  18  19
ATOM     19  C   UNL     1       2.250   3.723  11.762  1.00  0.00    -0.003 C 
ATOM     20  C   UNL     1       0.771   4.087  11.882  1.00  0.00     0.004 C 
ENDBRANCH  18  19
ENDBRANCH  17  18
ENDBRANCH  16  17
ENDBRANCH  15  16
ENDBRANCH  14  15
ENDBRANCH  13  14
ENDBRANCH  12  13
ENDBRANCH   1  12
TORSDOF 16
ENDMDL
MODEL 8
REMARK VINA RESULT:    -3.929     10.901     14.662
REMARK INTER + INTRA:         -10.114
REMARK INTER:                  -7.427
REMARK INTRA:                  -2.687
REMARK UNBOUND:                -2.510
REMARK SMILES CCCCCCCCCCCCCCCCCC(=O)[O-]
REMARK SMILES IDX 10 1 11 2 12 3 13 4 14 5 15 6 16 7 17 8 18 9 19 10 20 11
REMARK SMILES IDX 9 12 8 13 7 14 6 15 5 16 4 17 3 18 2 19 1 20
REMARK H PARENT
REMARK Flexibility Score: inf
ROOT
ATOM      1  C   UNL     1      -4.799  -0.534   8.703  1.00  0.00     0.000 C 
ENDROOT
BRANCH   1   2
ATOM      2  C   UNL     1      -5.793  -0.382   9.863  1.00  0.00     0.000 C 
BRANCH   2   3
ATOM      3  C   UNL     1      -6.904   0.612   9.508  1.00  0.00     0.000 C 
BRANCH   3   4
ATOM      4  C   UNL     1      -8.293  -0.005   9.738  1.00  0.00     0.000 C 
BRANCH   4   5
ATOM      5  C   UNL     1      -8.608  -1.133   8.734  1.00  0.00     0.000 C 
BRANCH   5   6
ATOM      6  C   UNL     1      -8.932  -2.486   9.398  1.00  0.00     0.000 C 
BRANCH   6   7
ATOM      7  C   UNL     1      -8.630  -3.720   8.534  1.00  0.00     0.006 C 
BRANCH   7   8
ATOM      8  C   UNL     1      -8.399  -3.369   7.057  1.00  0.00     0.053 C 
BRANCH   8   9
ATOM      9  C   UNL     1      -7.543  -4.406   6.403  1.00  0.00     0.041 C 
ATOM     10  O   UNL     1      -7.600  -5.606   6.782  1.00  0.00    -0.550 OA
ATOM     11  O   UNL     1      -6.715  -4.058   5.343  1.00  0.00    -0.550 OA
ENDBRANCH   8   9
ENDBRANCH   7   8
ENDBRANCH   6   7
ENDBRANCH   5   6
ENDBRANCH   4   5
ENDBRANCH   3   4
ENDBRANCH   2   3
ENDBRANCH   1   2
BRANCH   1  12
ATOM     12  C   UNL     1      -4.725  -1.972   8.165  1.00  0.00     0.000 C 
BRANCH  12  13
ATOM     13  C   UNL     1      -5.242  -3.009   9.178  1.00  0.00    -0.000 C 
BRANCH  13  14
ATOM     14  C   UNL     1      -4.862  -4.448   8.794  1.00  0.00    -0.000 C 
BRANCH  14  15
ATOM     15  C   UNL     1      -3.552  -4.913   9.451  1.00  0.00    -0.000 C 
BRANCH  15  16
ATOM     16  C   UNL     1      -2.375  -4.794   8.471  1.00  0.00    -0.000 C 
BRANCH  16  17
ATOM     17  C   UNL     1      -1.438  -3.618   8.799  1.00  0.00    -0.000 C 
BRANCH  17  18
ATOM     18  C   UNL     1      -1.072  -3.470  10.290  1.00  0.00    -0.000 C 
BRANCH  18  19
ATOM     19  C   UNL     1      -1.303  -2.067  10.878  1.00  0.00    -0.003 C 
ATOM     20  C   UNL     1      -2.698  -1.896  11.479  1.00  0.00     0.004 C 
ENDBRANCH  18  19
ENDBRANCH  17  18
ENDBRANCH  16  17
ENDBRANCH  15  16
ENDBRANCH  14  15
ENDBRANCH  13  14
ENDBRANCH  12  13
ENDBRANCH   1  12
TORSDOF 16
ENDMDL
MODEL 9
REMARK VINA RESULT:    -3.926     10.374     13.250
REMARK INTER + INTRA:         -10.107
REMARK INTER:                  -7.168
REMARK INTRA:                  -2.940
REMARK UNBOUND:                -2.510
REMARK SMILES CCCCCCCCCCCCCCCCCC(=O)[O-]
REMARK SMILES IDX 10 1 11 2 12 3 13 4 14 5 15 6 16 7 17 8 18 9 19 10 20 11
REMARK SMILES IDX 9 12 8 13 7 14 6 15 5 16 4 17 3 18 2 19 1 20
REMARK H PARENT
REMARK Flexibility Score: inf
ROOT
ATOM      1  C   UNL     1      -5.475  -2.648   9.206  1.00  0.00     0.000 C 
ENDROOT
BRANCH   1   2
ATOM      2  C   UNL     1      -5.596  -4.134   8.835  1.00  0.00     0.000 C 
BRANCH   2   3
ATOM      3  C   UNL     1      -4.339  -4.906   9.250  1.00  0.00     0.000 C 
BRANCH   3   4
ATOM      4  C   UNL     1      -3.282  -4.884   8.134  1.00  0.00     0.000 C 
BRANCH   4   5
ATOM      5  C   UNL     1      -1.854  -4.677   8.682  1.00  0.00     0.000 C 
BRANCH   5   6
ATOM      6  C   UNL     1      -1.263  -3.288   8.369  1.00  0.00     0.000 C 
BRANCH   6   7
ATOM      7  C   UNL     1      -1.776  -2.150   9.266  1.00  0.00     0.006 C 
BRANCH   7   8
ATOM      8  C   UNL     1      -1.981  -0.837   8.499  1.00  0.00     0.053 C 
BRANCH   8   9
ATOM      9  C   UNL     1      -2.738   0.144   9.338  1.00  0.00     0.041 C 
ATOM     10  O   UNL     1      -3.284   1.144   8.803  1.00  0.00    -0.550 OA
ATOM     11  O   UNL     1      -2.880  -0.070  10.703  1.00  0.00    -0.550 OA
ENDBRANCH   8   9
ENDBRANCH   7   8
ENDBRANCH   6   7
ENDBRANCH   5   6
ENDBRANCH   4   5
ENDBRANCH   3   4
ENDBRANCH   2   3
ENDBRANCH   1   2
BRANCH   1  12
ATOM     12  C   UNL     1      -5.639  -1.716   7.994  1.00  0.00     0.000 C 
BRANCH  12  13
ATOM     13  C   UNL     1      -6.422  -0.436   8.335  1.00  0.00    -0.000 C 
BRANCH  13  14
ATOM     14  C   UNL     1      -6.491  -0.173   9.848  1.00  0.00    -0.000 C 
BRANCH  14  15
ATOM     15  C   UNL     1      -7.921   0.101  10.340  1.00  0.00    -0.000 C 
BRANCH  15  16
ATOM     16  C   UNL     1      -8.943  -0.714   9.533  1.00  0.00    -0.000 C 
BRANCH  16  17
ATOM     17  C   UNL     1      -9.122  -2.147  10.066  1.00  0.00    -0.000 C 
BRANCH  17  18
ATOM     18  C   UNL     1      -9.235  -3.239   8.983  1.00  0.00    -0.000 C 
BRANCH  18  19
ATOM     19  C   UNL     1      -9.317  -2.714   7.539  1.00  0.00    -0.003 C 
ATOM     20  C   UNL     1      -8.483  -3.536   6.558  1.00  0.00     0.004 C 
ENDBRANCH  18  19
ENDBRANCH  17  18
ENDBRANCH  16  17
ENDBRANCH  15  16
ENDBRANCH  14  15
ENDBRANCH  13  14
ENDBRANCH  12  13
ENDBRANCH   1  12
TORSDOF 16
ENDMDL
