MODEL 1
REMARK VINA RESULT:    -4.614      0.000      0.000
REMARK INTER + INTRA:         -11.770
REMARK INTER:                  -8.930
REMARK INTRA:                  -2.840
REMARK UNBOUND:                -2.840
REMARK SMILES CCCCCCCCCCCCCCCCCC(=O)[O-]
REMARK SMILES IDX 10 1 11 2 12 3 13 4 14 5 15 6 16 7 17 8 18 9 19 10 20 11
REMARK SMILES IDX 9 12 8 13 7 14 6 15 5 16 4 17 3 18 2 19 1 20
REMARK H PARENT
REMARK Flexibility Score: inf
ROOT
ATOM      1  C   UNL     1      18.326 -33.375  20.088  1.00  0.00     0.000 C 
ENDROOT
BRANCH   1   2
ATOM      2  C   UNL     1      17.949 -31.983  20.635  1.00  0.00     0.000 C 
BRANCH   2   3
ATOM      3  C   UNL     1      18.183 -31.785  22.145  1.00  0.00     0.000 C 
BRANCH   3   4
ATOM      4  C   UNL     1      17.251 -30.762  22.819  1.00  0.00     0.000 C 
BRANCH   4   5
ATOM      5  C   UNL     1      16.679 -29.735  21.830  1.00  0.00     0.000 C 
BRANCH   5   6
ATOM      6  C   UNL     1      15.151 -29.670  21.933  1.00  0.00     0.000 C 
BRANCH   6   7
ATOM      7  C   UNL     1      14.681 -29.948  23.366  1.00  0.00     0.006 C 
BRANCH   7   8
ATOM      8  C   UNL     1      13.180 -30.250  23.401  1.00  0.00     0.053 C 
BRANCH   8   9
ATOM      9  C   UNL     1      12.394 -28.991  23.595  1.00  0.00     0.041 C 
ATOM     10  O   UNL     1      11.256 -28.869  23.072  1.00  0.00    -0.550 OA
ATOM     11  O   UNL     1      12.901 -27.970  24.389  1.00  0.00    -0.550 OA
ENDBRANCH   8   9
ENDBRANCH   7   8
ENDBRANCH   6   7
ENDBRANCH   5   6
ENDBRANCH   4   5
ENDBRANCH   3   4
ENDBRANCH   2   3
ENDBRANCH   1   2
BRANCH   1  12
ATOM     12  C   UNL     1      17.317 -33.980  19.095  1.00  0.00     0.000 C 
BRANCH  12  13
ATOM     13  C   UNL     1      16.822 -35.370  19.519  1.00  0.00    -0.000 C 
BRANCH  13  14
ATOM     14  C   UNL     1      15.367 -35.308  20.010  1.00  0.00    -0.000 C 
BRANCH  14  15
ATOM     15  C   UNL     1      14.796 -33.881  19.981  1.00  0.00    -0.000 C 
BRANCH  15  16
ATOM     16  C   UNL     1      14.567 -33.308  21.391  1.00  0.00    -0.000 C 
BRANCH  16  17
ATOM     17  C   UNL     1      15.316 -34.099  22.476  1.00  0.00    -0.000 C 
BRANCH  17  18
ATOM     18  C   UNL     1      15.064 -33.544  23.890  1.00  0.00    -0.000 C 
BRANCH  18  19
ATOM     19  C   UNL     1      16.160 -33.952  24.886  1.00  0.00    -0.003 C 
ATOM     20  C   UNL     1      17.179 -34.916  24.280  1.00  0.00     0.004 C 
ENDBRANCH  18  19
ENDBRANCH  17  18
ENDBRANCH  16  17
ENDBRANCH  15  16
ENDBRANCH  14  15
ENDBRANCH  13  14
ENDBRANCH  12  13
ENDBRANCH   1  12
TORSDOF 16
ENDMDL
MODEL 2
REMARK VINA RESULT:    -4.574      3.570      6.440
REMARK INTER + INTRA:         -11.693
REMARK INTER:                  -9.415
REMARK INTRA:                  -2.279
REMARK UNBOUND:                -2.840
REMARK SMILES CCCCCCCCCCCCCCCCCC(=O)[O-]
REMARK SMILES IDX 10 1 11 2 12 3 13 4 14 5 15 6 16 7 17 8 18 9 19 10 20 11
REMARK SMILES IDX 9 12 8 13 7 14 6 15 5 16 4 17 3 18 2 19 1 20
REMARK H PARENT
REMARK Flexibility Score: inf
ROOT
ATOM      1  C   UNL     1      17.190 -30.645  22.876  1.00  0.00     0.000 C 
ENDROOT
BRANCH   1   2
ATOM      2  C   UNL     1      16.288 -31.446  23.836  1.00  0.00     0.000 C 
BRANCH   2   3
ATOM      3  C   UNL     1      16.771 -32.875  24.152  1.00  0.00     0.000 C 
BRANCH   3   4
ATOM      4  C   UNL     1      16.589 -33.890  23.009  1.00  0.00     0.000 C 
BRANCH   4   5
ATOM      5  C   UNL     1      15.148 -33.939  22.479  1.00  0.00     0.000 C 
BRANCH   5   6
ATOM      6  C   UNL     1      15.130 -33.945  20.946  1.00  0.00     0.000 C 
BRANCH   6   7
ATOM      7  C   UNL     1      16.499 -33.555  20.375  1.00  0.00     0.006 C 
BRANCH   7   8
ATOM      8  C   UNL     1      16.848 -34.412  19.155  1.00  0.00     0.053 C 
BRANCH   8   9
ATOM      9  C   UNL     1      17.590 -35.643  19.571  1.00  0.00     0.041 C 
ATOM     10  O   UNL     1      18.568 -35.555  20.360  1.00  0.00    -0.550 OA
ATOM     11  O   UNL     1      17.176 -36.891  19.122  1.00  0.00    -0.550 OA
ENDBRANCH   8   9
ENDBRANCH   7   8
ENDBRANCH   6   7
ENDBRANCH   5   6
ENDBRANCH   4   5
ENDBRANCH   3   4
ENDBRANCH   2   3
ENDBRANCH   1   2
BRANCH   1  12
ATOM     12  C   UNL     1      16.483 -30.094  21.625  1.00  0.00     0.000 C 
BRANCH  12  13
ATOM     13  C   UNL     1      15.020 -29.708  21.887  1.00  0.00    -0.000 C 
BRANCH  13  14
ATOM     14  C   UNL     1      14.063 -30.610  21.093  1.00  0.00    -0.000 C 
BRANCH  14  15
ATOM     15  C   UNL     1      12.676 -30.717  21.746  1.00  0.00    -0.000 C 
BRANCH  15  16
ATOM     16  C   UNL     1      12.530 -29.801  22.974  1.00  0.00    -0.000 C 
BRANCH  16  17
ATOM     17  C   UNL     1      11.372 -28.800  22.827  1.00  0.00    -0.000 C 
BRANCH  17  18
ATOM     18  C   UNL     1      11.536 -27.570  23.739  1.00  0.00    -0.000 C 
BRANCH  18  19
ATOM     19  C   UNL     1      12.630 -27.766  24.800  1.00  0.00    -0.003 C 
ATOM     20  C   UNL     1      13.595 -26.583  24.878  1.00  0.00     0.004 C 
ENDBRANCH  18  19
ENDBRANCH  17  18
ENDBRANCH  16  17
ENDBRANCH  15  16
ENDBRANCH  14  15
ENDBRANCH  13  14
ENDBRANCH  12  13
ENDBRANCH   1  12
TORSDOF 16
ENDMDL
MODEL 3
REMARK VINA RESULT:    -4.487      1.420      3.394
REMARK INTER + INTRA:         -11.524
REMARK INTER:                  -8.880
REMARK INTRA:                  -2.644
REMARK UNBOUND:                -2.840
REMARK SMILES CCCCCCCCCCCCCCCCCC(=O)[O-]
REMARK SMILES IDX 10 1 11 2 12 3 13 4 14 5 15 6 16 7 17 8 18 9 19 10 20 11
REMARK SMILES IDX 9 12 8 13 7 14 6 15 5 16 4 17 3 18 2 19 1 20
REMARK H PARENT
REMARK Flexibility Score: inf
ROOT
ATOM      1  C   UNL     1      16.408 -34.733  19.311  1.00  0.00     0.000 C 
ENDROOT
BRANCH   1   2
ATOM      2  C   UNL     1      15.375 -34.871  20.448  1.00  0.00     0.000 C 
BRANCH   2   3
ATOM      3  C   UNL     1      14.808 -33.542  20.984  1.00  0.00     0.000 C 
BRANCH   3   4
ATOM      4  C   UNL     1      14.918 -33.358  22.509  1.00  0.00     0.000 C 
BRANCH   4   5
ATOM      5  C   UNL     1      14.239 -32.072  23.004  1.00  0.00     0.000 C 
BRANCH   5   6
ATOM      6  C   UNL     1      13.549 -31.339  21.849  1.00  0.00     0.000 C 
BRANCH   6   7
ATOM      7  C   UNL     1      12.611 -30.243  22.371  1.00  0.00     0.006 C 
BRANCH   7   8
ATOM      8  C   UNL     1      13.014 -29.804  23.782  1.00  0.00     0.053 C 
BRANCH   8   9
ATOM      9  C   UNL     1      12.404 -28.479  24.115  1.00  0.00     0.041 C 
ATOM     10  O   UNL     1      12.978 -27.704  24.924  1.00  0.00    -0.550 OA
ATOM     11  O   UNL     1      11.223 -28.082  23.500  1.00  0.00    -0.550 OA
ENDBRANCH   8   9
ENDBRANCH   7   8
ENDBRANCH   6   7
ENDBRANCH   5   6
ENDBRANCH   4   5
ENDBRANCH   3   4
ENDBRANCH   2   3
ENDBRANCH   1   2
BRANCH   1  12
ATOM     12  C   UNL     1      17.582 -35.726  19.373  1.00  0.00     0.000 C 
BRANCH  12  13
ATOM     13  C   UNL     1      17.481 -36.697  20.560  1.00  0.00    -0.000 C 
BRANCH  13  14
ATOM     14  C   UNL     1      18.607 -36.443  21.573  1.00  0.00    -0.000 C 
BRANCH  14  15
ATOM     15  C   UNL     1      18.081 -35.924  22.921  1.00  0.00    -0.000 C 
BRANCH  15  16
ATOM     16  C   UNL     1      18.287 -34.408  23.090  1.00  0.00    -0.000 C 
BRANCH  16  17
ATOM     17  C   UNL     1      19.319 -33.840  22.102  1.00  0.00    -0.000 C 
BRANCH  17  18
ATOM     18  C   UNL     1      18.733 -32.729  21.211  1.00  0.00    -0.000 C 
BRANCH  18  19
ATOM     19  C   UNL     1      18.193 -31.545  22.026  1.00  0.00    -0.003 C 
ATOM     20  C   UNL     1      17.247 -30.655  21.219  1.00  0.00     0.004 C 
ENDBRANCH  18  19
ENDBRANCH  17  18
ENDBRANCH  16  17
ENDBRANCH  15  16
ENDBRANCH  14  15
ENDBRANCH  13  14
ENDBRANCH  12  13
ENDBRANCH   1  12
TORSDOF 16
ENDMDL
MODEL 4
REMARK VINA RESULT:    -4.487      1.269      3.195
REMARK INTER + INTRA:         -11.524
REMARK INTER:                  -8.320
REMARK INTRA:                  -3.203
REMARK UNBOUND:                -2.840
REMARK SMILES CCCCCCCCCCCCCCCCCC(=O)[O-]
REMARK SMILES IDX 10 1 11 2 12 3 13 4 14 5 15 6 16 7 17 8 18 9 19 10 20 11
REMARK SMILES IDX 9 12 8 13 7 14 6 15 5 16 4 17 3 18 2 19 1 20
REMARK H PARENT
REMARK Flexibility Score: inf
ROOT
ATOM      1  C   UNL     1      19.222 -33.576  22.695  1.00  0.00     0.000 C 
ENDROOT
BRANCH   1   2
ATOM      2  C   UNL     1      19.614 -32.164  22.214  1.00  0.00     0.000 C 
BRANCH   2   3
ATOM      3  C   UNL     1      19.052 -31.760  20.837  1.00  0.00     0.000 C 
BRANCH   3   4
ATOM      4  C   UNL     1      17.680 -31.063  20.875  1.00  0.00     0.000 C 
BRANCH   4   5
ATOM      5  C   UNL     1      17.337 -30.497  22.260  1.00  0.00     0.000 C 
BRANCH   5   6
ATOM      6  C   UNL     1      15.820 -30.355  22.432  1.00  0.00     0.000 C 
BRANCH   6   7
ATOM      7  C   UNL     1      15.353 -30.978  23.754  1.00  0.00     0.006 C 
BRANCH   7   8
ATOM      8  C   UNL     1      13.868 -31.348  23.690  1.00  0.00     0.053 C 
BRANCH   8   9
ATOM      9  C   UNL     1      13.035 -30.135  23.416  1.00  0.00     0.041 C 
ATOM     10  O   UNL     1      13.008 -29.186  24.243  1.00  0.00    -0.550 OA
ATOM     11  O   UNL     1      12.321 -30.035  22.228  1.00  0.00    -0.550 OA
ENDBRANCH   8   9
ENDBRANCH   7   8
ENDBRANCH   6   7
ENDBRANCH   5   6
ENDBRANCH   4   5
ENDBRANCH   3   4
ENDBRANCH   2   3
ENDBRANCH   1   2
BRANCH   1  12
ATOM     12  C   UNL     1      18.564 -33.630  24.086  1.00  0.00     0.000 C 
BRANCH  12  13
ATOM     13  C   UNL     1      17.109 -34.119  24.040  1.00  0.00    -0.000 C 
BRANCH  13  14
ATOM     14  C   UNL     1      16.772 -34.712  22.663  1.00  0.00    -0.000 C 
BRANCH  14  15
ATOM     15  C   UNL     1      15.361 -34.333  22.187  1.00  0.00    -0.000 C 
BRANCH  15  16
ATOM     16  C   UNL     1      15.365 -33.668  20.799  1.00  0.00    -0.000 C 
BRANCH  16  17
ATOM     17  C   UNL     1      15.760 -34.645  19.680  1.00  0.00    -0.000 C 
BRANCH  17  18
ATOM     18  C   UNL     1      17.080 -34.251  18.992  1.00  0.00    -0.000 C 
BRANCH  18  19
ATOM     19  C   UNL     1      18.232 -35.207  19.336  1.00  0.00    -0.003 C 
ATOM     20  C   UNL     1      17.756 -36.637  19.590  1.00  0.00     0.004 C 
ENDBRANCH  18  19
ENDBRANCH  17  18
ENDBRANCH  16  17
ENDBRANCH  15  16
ENDBRANCH  14  15
ENDBRANCH  13  14
ENDBRANCH  12  13
ENDBRANCH   1  12
TORSDOF 16
ENDMDL
MODEL 5
REMARK VINA RESULT:    -4.473      3.351      5.616
REMARK INTER + INTRA:         -11.497
REMARK INTER:                  -8.544
REMARK INTRA:                  -2.953
REMARK UNBOUND:                -2.840
REMARK SMILES CCCCCCCCCCCCCCCCCC(=O)[O-]
REMARK SMILES IDX 10 1 11 2 12 3 13 4 14 5 15 6 16 7 17 8 18 9 19 10 20 11
REMARK SMILES IDX 9 12 8 13 7 14 6 15 5 16 4 17 3 18 2 19 1 20
REMARK H PARENT
REMARK Flexibility Score: inf
ROOT
ATOM      1  C   UNL     1      19.597 -32.401  22.340  1.00  0.00     0.000 C 
ENDROOT
BRANCH   1   2
ATOM      2  C   UNL     1      19.031 -33.466  23.301  1.00  0.00     0.000 C 
BRANCH   2   3
ATOM      3  C   UNL     1      18.199 -32.914  24.475  1.00  0.00     0.000 C 
BRANCH   3   4
ATOM      4  C   UNL     1      16.675 -33.060  24.316  1.00  0.00     0.000 C 
BRANCH   4   5
ATOM      5  C   UNL     1      16.278 -34.266  23.453  1.00  0.00     0.000 C 
BRANCH   5   6
ATOM      6  C   UNL     1      15.057 -33.939  22.586  1.00  0.00     0.000 C 
BRANCH   6   7
ATOM      7  C   UNL     1      15.300 -34.324  21.121  1.00  0.00     0.006 C 
BRANCH   7   8
ATOM      8  C   UNL     1      16.570 -35.169  20.980  1.00  0.00     0.053 C 
BRANCH   8   9
ATOM      9  C   UNL     1      16.891 -35.400  19.537  1.00  0.00     0.041 C 
ATOM     10  O   UNL     1      16.885 -36.568  19.067  1.00  0.00    -0.550 OA
ATOM     11  O   UNL     1      17.154 -34.322  18.701  1.00  0.00    -0.550 OA
ENDBRANCH   8   9
ENDBRANCH   7   8
ENDBRANCH   6   7
ENDBRANCH   5   6
ENDBRANCH   4   5
ENDBRANCH   3   4
ENDBRANCH   2   3
ENDBRANCH   1   2
BRANCH   1  12
ATOM     12  C   UNL     1      18.975 -32.399  20.932  1.00  0.00     0.000 C 
BRANCH  12  13
ATOM     13  C   UNL     1      17.678 -31.580  20.852  1.00  0.00    -0.000 C 
BRANCH  13  14
ATOM     14  C   UNL     1      17.952 -30.091  21.108  1.00  0.00    -0.000 C 
BRANCH  14  15
ATOM     15  C   UNL     1      16.776 -29.386  21.802  1.00  0.00    -0.000 C 
BRANCH  15  16
ATOM     16  C   UNL     1      15.527 -30.280  21.901  1.00  0.00    -0.000 C 
BRANCH  16  17
ATOM     17  C   UNL     1      14.872 -30.225  23.290  1.00  0.00    -0.000 C 
BRANCH  17  18
ATOM     18  C   UNL     1      13.371 -30.564  23.249  1.00  0.00    -0.000 C 
BRANCH  18  19
ATOM     19  C   UNL     1      12.895 -30.956  21.842  1.00  0.00    -0.003 C 
ATOM     20  C   UNL     1      11.443 -30.558  21.577  1.00  0.00     0.004 C 
ENDBRANCH  18  19
ENDBRANCH  17  18
ENDBRANCH  16  17
ENDBRANCH  15  16
ENDBRANCH  14  15
ENDBRANCH  13  14
ENDBRANCH  12  13
ENDBRANCH   1  12
TORSDOF 16
ENDMDL
MODEL 6
REMARK VINA RESULT:    -4.467      3.536      5.653
REMARK INTER + INTRA:         -11.486
REMARK INTER:                  -8.134
REMARK INTRA:                  -3.352
REMARK UNBOUND:                -2.840
REMARK SMILES CCCCCCCCCCCCCCCCCC(=O)[O-]
REMARK SMILES IDX 10 1 11 2 12 3 13 4 14 5 15 6 16 7 17 8 18 9 19 10 20 11
REMARK SMILES IDX 9 12 8 13 7 14 6 15 5 16 4 17 3 18 2 19 1 20
REMARK H PARENT
REMARK Flexibility Score: inf
ROOT
ATOM      1  C   UNL     1      14.431 -30.108  23.202  1.00  0.00     0.000 C 
ENDROOT
BRANCH   1   2
ATOM      2  C   UNL     1      15.844 -29.876  22.628  1.00  0.00     0.000 C 
BRANCH   2   3
ATOM      3  C   UNL     1      16.982 -30.597  23.376  1.00  0.00     0.000 C 
BRANCH   3   4
ATOM      4  C   UNL     1      18.100 -31.153  22.475  1.00  0.00     0.000 C 
BRANCH   4   5
ATOM      5  C   UNL     1      17.607 -31.516  21.067  1.00  0.00     0.000 C 
BRANCH   5   6
ATOM      6  C   UNL     1      18.409 -32.689  20.492  1.00  0.00     0.000 C 
BRANCH   6   7
ATOM      7  C   UNL     1      17.514 -33.613  19.657  1.00  0.00     0.006 C 
BRANCH   7   8
ATOM      8  C   UNL     1      18.241 -34.917  19.314  1.00  0.00     0.053 C 
BRANCH   8   9
ATOM      9  C   UNL     1      17.321 -36.088  19.464  1.00  0.00     0.041 C 
ATOM     10  O   UNL     1      16.075 -35.914  19.482  1.00  0.00    -0.550 OA
ATOM     11  O   UNL     1      17.839 -37.374  19.541  1.00  0.00    -0.550 OA
ENDBRANCH   8   9
ENDBRANCH   7   8
ENDBRANCH   6   7
ENDBRANCH   5   6
ENDBRANCH   4   5
ENDBRANCH   3   4
ENDBRANCH   2   3
ENDBRANCH   1   2
BRANCH   1  12
ATOM     12  C   UNL     1      14.030 -31.585  23.368  1.00  0.00     0.000 C 
BRANCH  12  13
ATOM     13  C   UNL     1      14.196 -32.398  22.075  1.00  0.00    -0.000 C 
BRANCH  13  14
ATOM     14  C   UNL     1      14.939 -33.715  22.347  1.00  0.00    -0.000 C 
BRANCH  14  15
ATOM     15  C   UNL     1      15.271 -33.907  23.835  1.00  0.00    -0.000 C 
BRANCH  15  16
ATOM     16  C   UNL     1      16.736 -34.319  24.064  1.00  0.00    -0.000 C 
BRANCH  16  17
ATOM     17  C   UNL     1      17.258 -35.268  22.974  1.00  0.00    -0.000 C 
BRANCH  17  18
ATOM     18  C   UNL     1      18.771 -35.531  23.094  1.00  0.00    -0.000 C 
BRANCH  18  19
ATOM     19  C   UNL     1      19.530 -34.333  23.685  1.00  0.00    -0.003 C 
ATOM     20  C   UNL     1      20.821 -34.022  22.928  1.00  0.00     0.004 C 
ENDBRANCH  18  19
ENDBRANCH  17  18
ENDBRANCH  16  17
ENDBRANCH  15  16
ENDBRANCH  14  15
ENDBRANCH  13  14
ENDBRANCH  12  13
ENDBRANCH   1  12
TORSDOF 16
ENDMDL
MODEL 7
REMARK VINA RESULT:    -4.449      1.733      2.765
REMARK INTER + INTRA:         -11.451
REMARK INTER:                  -8.549
REMARK INTRA:                  -2.902
REMARK UNBOUND:                -2.840
REMARK SMILES CCCCCCCCCCCCCCCCCC(=O)[O-]
REMARK SMILES IDX 10 1 11 2 12 3 13 4 14 5 15 6 16 7 17 8 18 9 19 10 20 11
REMARK SMILES IDX 9 12 8 13 7 14 6 15 5 16 4 17 3 18 2 19 1 20
REMARK H PARENT
REMARK Flexibility Score: inf
ROOT
ATOM      1  C   UNL     1      16.355 -34.249  19.735  1.00  0.00     0.000 C 
ENDROOT
BRANCH   1   2
ATOM      2  C   UNL     1      17.715 -33.533  19.603  1.00  0.00     0.000 C 
BRANCH   2   3
ATOM      3  C   UNL     1      17.883 -32.278  20.481  1.00  0.00     0.000 C 
BRANCH   3   4
ATOM      4  C   UNL     1      16.676 -31.946  21.377  1.00  0.00     0.000 C 
BRANCH   4   5
ATOM      5  C   UNL     1      17.059 -31.111  22.608  1.00  0.00     0.000 C 
BRANCH   5   6
ATOM      6  C   UNL     1      16.098 -31.380  23.772  1.00  0.00     0.000 C 
BRANCH   6   7
ATOM      7  C   UNL     1      14.928 -32.267  23.328  1.00  0.00     0.006 C 
BRANCH   7   8
ATOM      8  C   UNL     1      13.605 -31.759  23.907  1.00  0.00     0.053 C 
BRANCH   8   9
ATOM      9  C   UNL     1      13.271 -30.410  23.352  1.00  0.00     0.041 C 
ATOM     10  O   UNL     1      13.074 -29.438  24.128  1.00  0.00    -0.550 OA
ATOM     11  O   UNL     1      13.219 -30.217  21.977  1.00  0.00    -0.550 OA
ENDBRANCH   8   9
ENDBRANCH   7   8
ENDBRANCH   6   7
ENDBRANCH   5   6
ENDBRANCH   4   5
ENDBRANCH   3   4
ENDBRANCH   2   3
ENDBRANCH   1   2
BRANCH   1  12
ATOM     12  C   UNL     1      16.417 -35.785  19.646  1.00  0.00     0.000 C 
BRANCH  12  13
ATOM     13  C   UNL     1      17.848 -36.333  19.751  1.00  0.00    -0.000 C 
BRANCH  13  14
ATOM     14  C   UNL     1      17.921 -37.485  20.764  1.00  0.00    -0.000 C 
BRANCH  14  15
ATOM     15  C   UNL     1      18.750 -37.125  22.007  1.00  0.00    -0.000 C 
BRANCH  15  16
ATOM     16  C   UNL     1      19.275 -35.679  21.967  1.00  0.00    -0.000 C 
BRANCH  16  17
ATOM     17  C   UNL     1      18.705 -34.814  23.103  1.00  0.00    -0.000 C 
BRANCH  17  18
ATOM     18  C   UNL     1      17.200 -35.050  23.326  1.00  0.00    -0.000 C 
BRANCH  18  19
ATOM     19  C   UNL     1      16.860 -35.333  24.797  1.00  0.00    -0.003 C 
ATOM     20  C   UNL     1      17.267 -34.190  25.727  1.00  0.00     0.004 C 
ENDBRANCH  18  19
ENDBRANCH  17  18
ENDBRANCH  16  17
ENDBRANCH  15  16
ENDBRANCH  14  15
ENDBRANCH  13  14
ENDBRANCH  12  13
ENDBRANCH   1  12
TORSDOF 16
ENDMDL
MODEL 8
REMARK VINA RESULT:    -4.442      1.249      3.189
REMARK INTER + INTRA:         -11.437
REMARK INTER:                  -8.779
REMARK INTRA:                  -2.658
REMARK UNBOUND:                -2.840
REMARK SMILES CCCCCCCCCCCCCCCCCC(=O)[O-]
REMARK SMILES IDX 10 1 11 2 12 3 13 4 14 5 15 6 16 7 17 8 18 9 19 10 20 11
REMARK SMILES IDX 9 12 8 13 7 14 6 15 5 16 4 17 3 18 2 19 1 20
REMARK H PARENT
REMARK Flexibility Score: inf
ROOT
ATOM      1  C   UNL     1      17.828 -33.946  21.288  1.00  0.00     0.000 C 
ENDROOT
BRANCH   1   2
ATOM      2  C   UNL     1      16.844 -34.844  20.512  1.00  0.00     0.000 C 
BRANCH   2   3
ATOM      3  C   UNL     1      15.373 -34.749  20.964  1.00  0.00     0.000 C 
BRANCH   3   4
ATOM      4  C   UNL     1      14.628 -33.488  20.489  1.00  0.00     0.000 C 
BRANCH   4   5
ATOM      5  C   UNL     1      14.249 -32.549  21.644  1.00  0.00     0.000 C 
BRANCH   5   6
ATOM      6  C   UNL     1      13.680 -31.229  21.111  1.00  0.00     0.000 C 
BRANCH   6   7
ATOM      7  C   UNL     1      12.619 -30.661  22.061  1.00  0.00     0.006 C 
BRANCH   7   8
ATOM      8  C   UNL     1      13.237 -30.286  23.412  1.00  0.00     0.053 C 
BRANCH   8   9
ATOM      9  C   UNL     1      12.985 -28.845  23.724  1.00  0.00     0.041 C 
ATOM     10  O   UNL     1      11.886 -28.489  24.224  1.00  0.00    -0.550 OA
ATOM     11  O   UNL     1      13.980 -27.900  23.502  1.00  0.00    -0.550 OA
ENDBRANCH   8   9
ENDBRANCH   7   8
ENDBRANCH   6   7
ENDBRANCH   5   6
ENDBRANCH   4   5
ENDBRANCH   3   4
ENDBRANCH   2   3
ENDBRANCH   1   2
BRANCH   1  12
ATOM     12  C   UNL     1      18.474 -32.820  20.459  1.00  0.00     0.000 C 
BRANCH  12  13
ATOM     13  C   UNL     1      17.771 -31.467  20.640  1.00  0.00    -0.000 C 
BRANCH  13  14
ATOM     14  C   UNL     1      18.214 -30.788  21.946  1.00  0.00    -0.000 C 
BRANCH  14  15
ATOM     15  C   UNL     1      17.026 -30.401  22.841  1.00  0.00    -0.000 C 
BRANCH  15  16
ATOM     16  C   UNL     1      16.761 -31.435  23.949  1.00  0.00    -0.000 C 
BRANCH  16  17
ATOM     17  C   UNL     1      18.014 -31.733  24.788  1.00  0.00    -0.000 C 
BRANCH  17  18
ATOM     18  C   UNL     1      18.019 -33.165  25.354  1.00  0.00    -0.000 C 
BRANCH  18  19
ATOM     19  C   UNL     1      16.761 -33.956  24.964  1.00  0.00    -0.003 C 
ATOM     20  C   UNL     1      17.069 -35.402  24.577  1.00  0.00     0.004 C 
ENDBRANCH  18  19
ENDBRANCH  17  18
ENDBRANCH  16  17
ENDBRANCH  15  16
ENDBRANCH  14  15
ENDBRANCH  13  14
ENDBRANCH  12  13
ENDBRANCH   1  12
TORSDOF 16
ENDMDL
MODEL 9
REMARK VINA RESULT:    -4.405      2.816      4.971
REMARK INTER + INTRA:         -11.366
REMARK INTER:                  -9.048
REMARK INTRA:                  -2.318
REMARK UNBOUND:                -2.840
REMARK SMILES CCCCCCCCCCCCCCCCCC(=O)[O-]
REMARK SMILES IDX 10 1 11 2 12 3 13 4 14 5 15 6 16 7 17 8 18 9 19 10 20 11
REMARK SMILES IDX 9 12 8 13 7 14 6 15 5 16 4 17 3 18 2 19 1 20
REMARK H PARENT
REMARK Flexibility Score: inf
ROOT
ATOM      1  C   UNL     1      15.783 -35.184  20.263  1.00  0.00     0.000 C 
ENDROOT
BRANCH   1   2
ATOM      2  C   UNL     1      17.209 -35.274  19.682  1.00  0.00     0.000 C 
BRANCH   2   3
ATOM      3  C   UNL     1      17.881 -33.921  19.378  1.00  0.00     0.000 C 
BRANCH   3   4
ATOM      4  C   UNL     1      18.376 -33.149  20.615  1.00  0.00     0.000 C 
BRANCH   4   5
ATOM      5  C   UNL     1      18.060 -31.648  20.548  1.00  0.00     0.000 C 
BRANCH   5   6
ATOM      6  C   UNL     1      17.063 -31.250  21.643  1.00  0.00     0.000 C 
BRANCH   6   7
ATOM      7  C   UNL     1      17.662 -31.461  23.039  1.00  0.00     0.006 C 
BRANCH   7   8
ATOM      8  C   UNL     1      16.805 -32.428  23.862  1.00  0.00     0.053 C 
BRANCH   8   9
ATOM      9  C   UNL     1      17.663 -33.466  24.514  1.00  0.00     0.041 C 
ATOM     10  O   UNL     1      18.329 -33.180  25.543  1.00  0.00    -0.550 OA
ATOM     11  O   UNL     1      17.694 -34.760  24.010  1.00  0.00    -0.550 OA
ENDBRANCH   8   9
ENDBRANCH   7   8
ENDBRANCH   6   7
ENDBRANCH   5   6
ENDBRANCH   4   5
ENDBRANCH   3   4
ENDBRANCH   2   3
ENDBRANCH   1   2
BRANCH   1  12
ATOM     12  C   UNL     1      14.961 -33.973  19.785  1.00  0.00     0.000 C 
BRANCH  12  13
ATOM     13  C   UNL     1      14.294 -33.210  20.940  1.00  0.00    -0.000 C 
BRANCH  13  14
ATOM     14  C   UNL     1      13.445 -32.046  20.409  1.00  0.00    -0.000 C 
BRANCH  14  15
ATOM     15  C   UNL     1      13.142 -30.997  21.491  1.00  0.00    -0.000 C 
BRANCH  15  16
ATOM     16  C   UNL     1      13.493 -31.491  22.906  1.00  0.00    -0.000 C 
BRANCH  16  17
ATOM     17  C   UNL     1      13.478 -30.359  23.945  1.00  0.00    -0.000 C 
BRANCH  17  18
ATOM     18  C   UNL     1      14.237 -29.108  23.466  1.00  0.00    -0.000 C 
BRANCH  18  19
ATOM     19  C   UNL     1      13.523 -27.803  23.849  1.00  0.00    -0.003 C 
ATOM     20  C   UNL     1      12.110 -28.039  24.385  1.00  0.00     0.004 C 
ENDBRANCH  18  19
ENDBRANCH  17  18
ENDBRANCH  16  17
ENDBRANCH  15  16
ENDBRANCH  14  15
ENDBRANCH  13  14
ENDBRANCH  12  13
ENDBRANCH   1  12
TORSDOF 16
ENDMDL
