MODEL 1
REMARK VINA RESULT:     9.225      0.000      0.000
REMARK INTER + INTRA:          22.946
REMARK INTER:                  24.326
REMARK INTRA:                  -1.380
REMARK UNBOUND:                -1.380
REMARK SMILES CCCCCCCCCCCCCCCCCCCCCCCCCCCCCC(=O)[O-]
REMARK SMILES IDX 16 1 17 2 18 3 19 4 20 5 21 6 22 7 23 8 24 9 25 10 26 11
REMARK SMILES IDX 27 12 28 13 29 14 30 15 31 16 32 17 15 18 14 19 13 20 12 21
REMARK SMILES IDX 11 22 10 23 9 24 8 25 7 26 6 27 5 28 4 29 3 30 2 31 1 32
REMARK H PARENT
REMARK Flexibility Score: inf
ROOT
ATOM      1  C   UNL     1      31.815  18.689  36.879  1.00  0.00     0.000 C 
ENDROOT
BRANCH   1   2
ATOM      2  C   UNL     1      31.845  20.190  36.534  1.00  0.00     0.000 C 
BRANCH   2   3
ATOM      3  C   UNL     1      31.198  21.065  37.621  1.00  0.00     0.000 C 
BRANCH   3   4
ATOM      4  C   UNL     1      31.766  22.494  37.652  1.00  0.00     0.000 C 
BRANCH   4   5
ATOM      5  C   UNL     1      32.199  22.992  36.263  1.00  0.00     0.000 C 
BRANCH   5   6
ATOM      6  C   UNL     1      31.337  24.181  35.815  1.00  0.00     0.000 C 
BRANCH   6   7
ATOM      7  C   UNL     1      32.132  25.123  34.902  1.00  0.00     0.000 C 
BRANCH   7   8
ATOM      8  C   UNL     1      31.778  24.888  33.425  1.00  0.00     0.000 C 
BRANCH   8   9
ATOM      9  C   UNL     1      30.263  24.825  33.178  1.00  0.00     0.000 C 
BRANCH   9  10
ATOM     10  C   UNL     1      29.909  24.556  31.705  1.00  0.00     0.000 C 
BRANCH  10  11
ATOM     11  C   UNL     1      31.001  25.055  30.735  1.00  0.00     0.000 C 
BRANCH  11  12
ATOM     12  C   UNL     1      30.911  24.441  29.326  1.00  0.00     0.000 C 
BRANCH  12  13
ATOM     13  C   UNL     1      32.170  23.647  28.940  1.00  0.00     0.006 C 
BRANCH  13  14
ATOM     14  C   UNL     1      33.411  24.542  28.824  1.00  0.00     0.053 C 
BRANCH  14  15
ATOM     15  C   UNL     1      34.542  23.851  28.122  1.00  0.00     0.041 C 
ATOM     16  O   UNL     1      34.323  23.162  27.091  1.00  0.00    -0.550 OA
ATOM     17  O   UNL     1      35.836  23.958  28.620  1.00  0.00    -0.550 OA
ENDBRANCH  14  15
ENDBRANCH  13  14
ENDBRANCH  12  13
ENDBRANCH  11  12
ENDBRANCH  10  11
ENDBRANCH   9  10
ENDBRANCH   8   9
ENDBRANCH   7   8
ENDBRANCH   6   7
ENDBRANCH   5   6
ENDBRANCH   4   5
ENDBRANCH   3   4
ENDBRANCH   2   3
ENDBRANCH   1   2
BRANCH   1  18
ATOM     18  C   UNL     1      31.881  18.365  38.383  1.00  0.00     0.000 C 
BRANCH  18  19
ATOM     19  C   UNL     1      33.118  17.537  38.761  1.00  0.00     0.000 C 
BRANCH  19  20
ATOM     20  C   UNL     1      33.941  18.249  39.844  1.00  0.00     0.000 C 
BRANCH  20  21
ATOM     21  C   UNL     1      33.396  17.937  41.247  1.00  0.00     0.000 C 
BRANCH  21  22
ATOM     22  C   UNL     1      34.505  17.897  42.314  1.00  0.00     0.000 C 
BRANCH  22  23
ATOM     23  C   UNL     1      34.839  16.460  42.753  1.00  0.00     0.000 C 
BRANCH  23  24
ATOM     24  C   UNL     1      36.338  16.261  43.034  1.00  0.00    -0.000 C 
BRANCH  24  25
ATOM     25  C   UNL     1      36.685  14.810  43.414  1.00  0.00    -0.000 C 
BRANCH  25  26
ATOM     26  C   UNL     1      35.499  13.849  43.183  1.00  0.00    -0.000 C 
BRANCH  26  27
ATOM     27  C   UNL     1      35.453  13.248  41.767  1.00  0.00    -0.000 C 
BRANCH  27  28
ATOM     28  C   UNL     1      34.418  12.118  41.630  1.00  0.00    -0.000 C 
BRANCH  28  29
ATOM     29  C   UNL     1      34.052  11.831  40.165  1.00  0.00    -0.000 C 
BRANCH  29  30
ATOM     30  C   UNL     1      32.792  10.962  40.033  1.00  0.00    -0.000 C 
BRANCH  30  31
ATOM     31  C   UNL     1      33.151   9.530  39.615  1.00  0.00    -0.003 C 
ATOM     32  C   UNL     1      34.659   9.368  39.443  1.00  0.00     0.004 C 
ENDBRANCH  30  31
ENDBRANCH  29  30
ENDBRANCH  28  29
ENDBRANCH  27  28
ENDBRANCH  26  27
ENDBRANCH  25  26
ENDBRANCH  24  25
ENDBRANCH  23  24
ENDBRANCH  22  23
ENDBRANCH  21  22
ENDBRANCH  20  21
ENDBRANCH  19  20
ENDBRANCH  18  19
ENDBRANCH   1  18
TORSDOF 28
ENDMDL
MODEL 2
REMARK VINA RESULT:     9.672      4.723     14.132
REMARK INTER + INTRA:          24.124
REMARK INTER:                  25.716
REMARK INTRA:                  -1.592
REMARK UNBOUND:                -1.380
REMARK SMILES CCCCCCCCCCCCCCCCCCCCCCCCCCCCCC(=O)[O-]
REMARK SMILES IDX 16 1 17 2 18 3 19 4 20 5 21 6 22 7 23 8 24 9 25 10 26 11
REMARK SMILES IDX 27 12 28 13 29 14 30 15 31 16 32 17 15 18 14 19 13 20 12 21
REMARK SMILES IDX 11 22 10 23 9 24 8 25 7 26 6 27 5 28 4 29 3 30 2 31 1 32
REMARK H PARENT
REMARK Flexibility Score: inf
ROOT
ATOM      1  C   UNL     1      31.033  19.450  37.411  1.00  0.00     0.000 C 
ENDROOT
BRANCH   1   2
ATOM      2  C   UNL     1      32.083  18.358  37.688  1.00  0.00     0.000 C 
BRANCH   2   3
ATOM      3  C   UNL     1      32.918  18.638  38.950  1.00  0.00     0.000 C 
BRANCH   3   4
ATOM      4  C   UNL     1      33.403  17.353  39.641  1.00  0.00     0.000 C 
BRANCH   4   5
ATOM      5  C   UNL     1      34.408  17.628  40.771  1.00  0.00     0.000 C 
BRANCH   5   6
ATOM      6  C   UNL     1      33.702  17.661  42.134  1.00  0.00     0.000 C 
BRANCH   6   7
ATOM      7  C   UNL     1      34.686  17.353  43.271  1.00  0.00     0.000 C 
BRANCH   7   8
ATOM      8  C   UNL     1      35.970  16.705  42.728  1.00  0.00     0.000 C 
BRANCH   8   9
ATOM      9  C   UNL     1      36.542  15.636  43.671  1.00  0.00     0.000 C 
BRANCH   9  10
ATOM     10  C   UNL     1      35.760  14.311  43.617  1.00  0.00     0.000 C 
BRANCH  10  11
ATOM     11  C   UNL     1      35.771  13.677  42.209  1.00  0.00     0.000 C 
BRANCH  11  12
ATOM     12  C   UNL     1      34.599  12.713  41.951  1.00  0.00     0.000 C 
BRANCH  12  13
ATOM     13  C   UNL     1      34.894  11.702  40.831  1.00  0.00     0.006 C 
BRANCH  13  14
ATOM     14  C   UNL     1      33.733  11.580  39.835  1.00  0.00     0.053 C 
BRANCH  14  15
ATOM     15  C   UNL     1      33.162  10.194  39.801  1.00  0.00     0.041 C 
ATOM     16  O   UNL     1      33.556   9.365  38.939  1.00  0.00    -0.550 OA
ATOM     17  O   UNL     1      32.180   9.826  40.714  1.00  0.00    -0.550 OA
ENDBRANCH  14  15
ENDBRANCH  13  14
ENDBRANCH  12  13
ENDBRANCH  11  12
ENDBRANCH  10  11
ENDBRANCH   9  10
ENDBRANCH   8   9
ENDBRANCH   7   8
ENDBRANCH   6   7
ENDBRANCH   5   6
ENDBRANCH   4   5
ENDBRANCH   3   4
ENDBRANCH   2   3
ENDBRANCH   1   2
BRANCH   1  18
ATOM     18  C   UNL     1      31.579  20.724  36.741  1.00  0.00     0.000 C 
BRANCH  18  19
ATOM     19  C   UNL     1      31.807  21.872  37.736  1.00  0.00     0.000 C 
BRANCH  19  20
ATOM     20  C   UNL     1      31.378  23.214  37.128  1.00  0.00     0.000 C 
BRANCH  20  21
ATOM     21  C   UNL     1      32.386  23.689  36.069  1.00  0.00     0.000 C 
BRANCH  21  22
ATOM     22  C   UNL     1      31.822  24.813  35.182  1.00  0.00     0.000 C 
BRANCH  22  23
ATOM     23  C   UNL     1      32.112  24.578  33.688  1.00  0.00     0.000 C 
BRANCH  23  24
ATOM     24  C   UNL     1      30.953  25.028  32.783  1.00  0.00    -0.000 C 
BRANCH  24  25
ATOM     25  C   UNL     1      31.349  25.090  31.296  1.00  0.00    -0.000 C 
BRANCH  25  26
ATOM     26  C   UNL     1      30.612  24.026  30.454  1.00  0.00    -0.000 C 
BRANCH  26  27
ATOM     27  C   UNL     1      29.872  24.602  29.234  1.00  0.00    -0.000 C 
BRANCH  27  28
ATOM     28  C   UNL     1      30.048  23.746  27.968  1.00  0.00    -0.000 C 
BRANCH  28  29
ATOM     29  C   UNL     1      31.201  24.241  27.080  1.00  0.00    -0.000 C 
BRANCH  29  30
ATOM     30  C   UNL     1      32.537  23.561  27.419  1.00  0.00    -0.000 C 
BRANCH  30  31
ATOM     31  C   UNL     1      33.623  24.600  27.724  1.00  0.00    -0.003 C 
ATOM     32  C   UNL     1      34.834  23.952  28.391  1.00  0.00     0.004 C 
ENDBRANCH  30  31
ENDBRANCH  29  30
ENDBRANCH  28  29
ENDBRANCH  27  28
ENDBRANCH  26  27
ENDBRANCH  25  26
ENDBRANCH  24  25
ENDBRANCH  23  24
ENDBRANCH  22  23
ENDBRANCH  21  22
ENDBRANCH  20  21
ENDBRANCH  19  20
ENDBRANCH  18  19
ENDBRANCH   1  18
TORSDOF 28
ENDMDL
MODEL 3
REMARK VINA RESULT:    10.318      4.607     13.885
REMARK INTER + INTRA:          25.828
REMARK INTER:                  26.486
REMARK INTRA:                  -0.658
REMARK UNBOUND:                -1.380
REMARK SMILES CCCCCCCCCCCCCCCCCCCCCCCCCCCCCC(=O)[O-]
REMARK SMILES IDX 16 1 17 2 18 3 19 4 20 5 21 6 22 7 23 8 24 9 25 10 26 11
REMARK SMILES IDX 27 12 28 13 29 14 30 15 31 16 32 17 15 18 14 19 13 20 12 21
REMARK SMILES IDX 11 22 10 23 9 24 8 25 7 26 6 27 5 28 4 29 3 30 2 31 1 32
REMARK H PARENT
REMARK Flexibility Score: inf
ROOT
ATOM      1  C   UNL     1      32.750  17.977  38.396  1.00  0.00     0.000 C 
ENDROOT
BRANCH   1   2
ATOM      2  C   UNL     1      34.015  18.154  39.257  1.00  0.00     0.000 C 
BRANCH   2   3
ATOM      3  C   UNL     1      33.746  17.956  40.759  1.00  0.00     0.000 C 
BRANCH   3   4
ATOM      4  C   UNL     1      34.869  18.522  41.644  1.00  0.00     0.000 C 
BRANCH   4   5
ATOM      5  C   UNL     1      34.864  17.930  43.064  1.00  0.00     0.000 C 
BRANCH   5   6
ATOM      6  C   UNL     1      34.881  16.396  43.016  1.00  0.00     0.000 C 
BRANCH   6   7
ATOM      7  C   UNL     1      36.237  15.846  43.477  1.00  0.00     0.000 C 
BRANCH   7   8
ATOM      8  C   UNL     1      36.355  14.344  43.174  1.00  0.00     0.000 C 
BRANCH   8   9
ATOM      9  C   UNL     1      35.123  13.784  42.448  1.00  0.00     0.000 C 
BRANCH   9  10
ATOM     10  C   UNL     1      35.429  12.501  41.654  1.00  0.00     0.000 C 
BRANCH  10  11
ATOM     11  C   UNL     1      35.100  12.644  40.153  1.00  0.00     0.000 C 
BRANCH  11  12
ATOM     12  C   UNL     1      33.655  12.255  39.793  1.00  0.00     0.000 C 
BRANCH  12  13
ATOM     13  C   UNL     1      32.871  11.695  40.991  1.00  0.00     0.006 C 
BRANCH  13  14
ATOM     14  C   UNL     1      32.740  10.167  40.941  1.00  0.00     0.053 C 
BRANCH  14  15
ATOM     15  C   UNL     1      33.164   9.608  39.615  1.00  0.00     0.041 C 
ATOM     16  O   UNL     1      34.151   8.831  39.539  1.00  0.00    -0.550 OA
ATOM     17  O   UNL     1      32.474   9.962  38.460  1.00  0.00    -0.550 OA
ENDBRANCH  14  15
ENDBRANCH  13  14
ENDBRANCH  12  13
ENDBRANCH  11  12
ENDBRANCH  10  11
ENDBRANCH   9  10
ENDBRANCH   8   9
ENDBRANCH   7   8
ENDBRANCH   6   7
ENDBRANCH   5   6
ENDBRANCH   4   5
ENDBRANCH   3   4
ENDBRANCH   2   3
ENDBRANCH   1   2
BRANCH   1  18
ATOM     18  C   UNL     1      31.770  19.164  38.426  1.00  0.00     0.000 C 
BRANCH  18  19
ATOM     19  C   UNL     1      31.735  19.943  37.102  1.00  0.00     0.000 C 
BRANCH  19  20
ATOM     20  C   UNL     1      31.259  21.384  37.329  1.00  0.00     0.000 C 
BRANCH  20  21
ATOM     21  C   UNL     1      31.690  22.297  36.170  1.00  0.00     0.000 C 
BRANCH  21  22
ATOM     22  C   UNL     1      31.796  23.773  36.592  1.00  0.00     0.000 C 
BRANCH  22  23
ATOM     23  C   UNL     1      32.679  24.592  35.632  1.00  0.00     0.000 C 
BRANCH  23  24
ATOM     24  C   UNL     1      32.262  24.427  34.161  1.00  0.00    -0.000 C 
BRANCH  24  25
ATOM     25  C   UNL     1      30.859  24.991  33.873  1.00  0.00    -0.000 C 
BRANCH  25  26
ATOM     26  C   UNL     1      30.181  24.281  32.681  1.00  0.00    -0.000 C 
BRANCH  26  27
ATOM     27  C   UNL     1      30.143  25.125  31.394  1.00  0.00    -0.000 C 
BRANCH  27  28
ATOM     28  C   UNL     1      31.022  24.545  30.273  1.00  0.00    -0.000 C 
BRANCH  28  29
ATOM     29  C   UNL     1      30.211  24.178  29.021  1.00  0.00    -0.000 C 
BRANCH  29  30
ATOM     30  C   UNL     1      30.869  24.676  27.725  1.00  0.00    -0.000 C 
BRANCH  30  31
ATOM     31  C   UNL     1      32.364  24.336  27.701  1.00  0.00    -0.003 C 
ATOM     32  C   UNL     1      32.607  22.888  28.120  1.00  0.00     0.004 C 
ENDBRANCH  30  31
ENDBRANCH  29  30
ENDBRANCH  28  29
ENDBRANCH  27  28
ENDBRANCH  26  27
ENDBRANCH  25  26
ENDBRANCH  24  25
ENDBRANCH  23  24
ENDBRANCH  22  23
ENDBRANCH  21  22
ENDBRANCH  20  21
ENDBRANCH  19  20
ENDBRANCH  18  19
ENDBRANCH   1  18
TORSDOF 28
ENDMDL
