MODEL 1
REMARK VINA RESULT:    -5.140      0.000      0.000
REMARK INTER + INTRA:         -17.399
REMARK INTER:                 -13.552
REMARK INTRA:                  -3.847
REMARK UNBOUND:                -3.847
REMARK SMILES CCCCCCCCCCCCCCCCCCCCCCCCCCCCCC(=O)[O-]
REMARK SMILES IDX 16 1 17 2 18 3 19 4 20 5 21 6 22 7 23 8 24 9 25 10 26 11
REMARK SMILES IDX 27 12 28 13 29 14 30 15 31 16 32 17 15 18 14 19 13 20 12 21
REMARK SMILES IDX 11 22 10 23 9 24 8 25 7 26 6 27 5 28 4 29 3 30 2 31 1 32
REMARK H PARENT
REMARK Flexibility Score: inf
ROOT
ATOM      1  C   UNL     1      41.281  59.371  57.536  1.00  0.00     0.000 C 
ENDROOT
BRANCH   1   2
ATOM      2  C   UNL     1      40.667  58.347  58.505  1.00  0.00     0.000 C 
BRANCH   2   3
ATOM      3  C   UNL     1      41.715  57.680  59.410  1.00  0.00     0.000 C 
BRANCH   3   4
ATOM      4  C   UNL     1      42.431  56.534  58.678  1.00  0.00     0.000 C 
BRANCH   4   5
ATOM      5  C   UNL     1      43.437  55.793  59.574  1.00  0.00     0.000 C 
BRANCH   5   6
ATOM      6  C   UNL     1      42.754  54.895  60.620  1.00  0.00     0.000 C 
BRANCH   6   7
ATOM      7  C   UNL     1      41.536  54.143  60.053  1.00  0.00     0.000 C 
BRANCH   7   8
ATOM      8  C   UNL     1      40.321  54.058  60.999  1.00  0.00     0.000 C 
BRANCH   8   9
ATOM      9  C   UNL     1      38.970  54.436  60.365  1.00  0.00     0.000 C 
BRANCH   9  10
ATOM     10  C   UNL     1      38.472  55.820  60.804  1.00  0.00     0.000 C 
BRANCH  10  11
ATOM     11  C   UNL     1      37.606  56.467  59.712  1.00  0.00     0.000 C 
BRANCH  11  12
ATOM     12  C   UNL     1      36.159  55.948  59.718  1.00  0.00     0.000 C 
BRANCH  12  13
ATOM     13  C   UNL     1      35.883  54.951  58.578  1.00  0.00     0.006 C 
BRANCH  13  14
ATOM     14  C   UNL     1      36.033  53.493  59.034  1.00  0.00     0.053 C 
BRANCH  14  15
ATOM     15  C   UNL     1      35.207  52.559  58.205  1.00  0.00     0.041 C 
ATOM     16  O   UNL     1      33.983  52.790  58.020  1.00  0.00    -0.550 OA
ATOM     17  O   UNL     1      35.796  51.449  57.611  1.00  0.00    -0.550 OA
ENDBRANCH  14  15
ENDBRANCH  13  14
ENDBRANCH  12  13
ENDBRANCH  11  12
ENDBRANCH  10  11
ENDBRANCH   9  10
ENDBRANCH   8   9
ENDBRANCH   7   8
ENDBRANCH   6   7
ENDBRANCH   5   6
ENDBRANCH   4   5
ENDBRANCH   3   4
ENDBRANCH   2   3
ENDBRANCH   1   2
BRANCH   1  18
ATOM     18  C   UNL     1      40.448  60.649  57.319  1.00  0.00     0.000 C 
BRANCH  18  19
ATOM     19  C   UNL     1      40.790  61.416  56.021  1.00  0.00     0.000 C 
BRANCH  19  20
ATOM     20  C   UNL     1      41.409  62.813  56.235  1.00  0.00     0.000 C 
BRANCH  20  21
ATOM     21  C   UNL     1      42.039  63.055  57.621  1.00  0.00     0.000 C 
BRANCH  21  22
ATOM     22  C   UNL     1      43.583  63.125  57.607  1.00  0.00     0.000 C 
BRANCH  22  23
ATOM     23  C   UNL     1      44.253  61.889  58.233  1.00  0.00     0.000 C 
BRANCH  23  24
ATOM     24  C   UNL     1      45.782  61.897  58.050  1.00  0.00    -0.000 C 
BRANCH  24  25
ATOM     25  C   UNL     1      46.348  60.502  57.711  1.00  0.00    -0.000 C 
BRANCH  25  26
ATOM     26  C   UNL     1      45.378  59.345  58.012  1.00  0.00    -0.000 C 
BRANCH  26  27
ATOM     27  C   UNL     1      45.969  58.194  58.847  1.00  0.00    -0.000 C 
BRANCH  27  28
ATOM     28  C   UNL     1      45.862  58.371  60.373  1.00  0.00    -0.000 C 
BRANCH  28  29
ATOM     29  C   UNL     1      44.972  59.555  60.779  1.00  0.00    -0.000 C 
BRANCH  29  30
ATOM     30  C   UNL     1      44.142  59.215  62.025  1.00  0.00    -0.000 C 
BRANCH  30  31
ATOM     31  C   UNL     1      43.174  60.343  62.414  1.00  0.00    -0.003 C 
ATOM     32  C   UNL     1      42.613  61.087  61.202  1.00  0.00     0.004 C 
ENDBRANCH  30  31
ENDBRANCH  29  30
ENDBRANCH  28  29
ENDBRANCH  27  28
ENDBRANCH  26  27
ENDBRANCH  25  26
ENDBRANCH  24  25
ENDBRANCH  23  24
ENDBRANCH  22  23
ENDBRANCH  21  22
ENDBRANCH  20  21
ENDBRANCH  19  20
ENDBRANCH  18  19
ENDBRANCH   1  18
TORSDOF 28
ENDMDL
MODEL 2
REMARK VINA RESULT:    -5.033      1.408      4.434
REMARK INTER + INTRA:         -17.117
REMARK INTER:                 -13.754
REMARK INTRA:                  -3.363
REMARK UNBOUND:                -3.847
REMARK SMILES CCCCCCCCCCCCCCCCCCCCCCCCCCCCCC(=O)[O-]
REMARK SMILES IDX 16 1 17 2 18 3 19 4 20 5 21 6 22 7 23 8 24 9 25 10 26 11
REMARK SMILES IDX 27 12 28 13 29 14 30 15 31 16 32 17 15 18 14 19 13 20 12 21
REMARK SMILES IDX 11 22 10 23 9 24 8 25 7 26 6 27 5 28 4 29 3 30 2 31 1 32
REMARK H PARENT
REMARK Flexibility Score: inf
ROOT
ATOM      1  C   UNL     1      41.897  56.973  59.245  1.00  0.00     0.000 C 
ENDROOT
BRANCH   1   2
ATOM      2  C   UNL     1      42.636  56.443  60.484  1.00  0.00     0.000 C 
BRANCH   2   3
ATOM      3  C   UNL     1      42.735  54.910  60.512  1.00  0.00     0.000 C 
BRANCH   3   4
ATOM      4  C   UNL     1      41.491  54.263  59.882  1.00  0.00     0.000 C 
BRANCH   4   5
ATOM      5  C   UNL     1      40.387  53.972  60.911  1.00  0.00     0.000 C 
BRANCH   5   6
ATOM      6  C   UNL     1      39.012  54.508  60.478  1.00  0.00     0.000 C 
BRANCH   6   7
ATOM      7  C   UNL     1      38.871  56.026  60.695  1.00  0.00     0.000 C 
BRANCH   7   8
ATOM      8  C   UNL     1      37.766  56.707  59.863  1.00  0.00     0.000 C 
BRANCH   8   9
ATOM      9  C   UNL     1      36.372  56.063  59.975  1.00  0.00     0.000 C 
BRANCH   9  10
ATOM     10  C   UNL     1      35.909  55.410  58.665  1.00  0.00     0.000 C 
BRANCH  10  11
ATOM     11  C   UNL     1      35.884  53.879  58.790  1.00  0.00     0.000 C 
BRANCH  11  12
ATOM     12  C   UNL     1      34.767  53.233  57.954  1.00  0.00     0.000 C 
BRANCH  12  13
ATOM     13  C   UNL     1      34.492  51.774  58.358  1.00  0.00     0.006 C 
BRANCH  13  14
ATOM     14  C   UNL     1      35.374  50.784  57.584  1.00  0.00     0.053 C 
BRANCH  14  15
ATOM     15  C   UNL     1      34.620  49.552  57.190  1.00  0.00     0.041 C 
ATOM     16  O   UNL     1      35.189  48.644  56.529  1.00  0.00    -0.550 OA
ATOM     17  O   UNL     1      33.295  49.392  57.579  1.00  0.00    -0.550 OA
ENDBRANCH  14  15
ENDBRANCH  13  14
ENDBRANCH  12  13
ENDBRANCH  11  12
ENDBRANCH  10  11
ENDBRANCH   9  10
ENDBRANCH   8   9
ENDBRANCH   7   8
ENDBRANCH   6   7
ENDBRANCH   5   6
ENDBRANCH   4   5
ENDBRANCH   3   4
ENDBRANCH   2   3
ENDBRANCH   1   2
BRANCH   1  18
ATOM     18  C   UNL     1      42.736  57.868  58.313  1.00  0.00     0.000 C 
BRANCH  18  19
ATOM     19  C   UNL     1      44.264  57.689  58.470  1.00  0.00     0.000 C 
BRANCH  19  20
ATOM     20  C   UNL     1      45.100  58.950  58.169  1.00  0.00     0.000 C 
BRANCH  20  21
ATOM     21  C   UNL     1      45.864  59.543  59.370  1.00  0.00     0.000 C 
BRANCH  21  22
ATOM     22  C   UNL     1      45.561  58.845  60.716  1.00  0.00     0.000 C 
BRANCH  22  23
ATOM     23  C   UNL     1      44.816  59.749  61.715  1.00  0.00     0.000 C 
BRANCH  23  24
ATOM     24  C   UNL     1      43.329  59.921  61.353  1.00  0.00    -0.000 C 
BRANCH  24  25
ATOM     25  C   UNL     1      42.636  61.014  62.192  1.00  0.00    -0.000 C 
BRANCH  25  26
ATOM     26  C   UNL     1      42.604  62.396  61.513  1.00  0.00    -0.000 C 
BRANCH  26  27
ATOM     27  C   UNL     1      43.664  62.613  60.417  1.00  0.00    -0.000 C 
BRANCH  27  28
ATOM     28  C   UNL     1      43.106  62.994  59.033  1.00  0.00    -0.000 C 
BRANCH  28  29
ATOM     29  C   UNL     1      42.583  61.785  58.243  1.00  0.00    -0.000 C 
BRANCH  29  30
ATOM     30  C   UNL     1      41.174  62.055  57.697  1.00  0.00    -0.000 C 
BRANCH  30  31
ATOM     31  C   UNL     1      40.655  60.910  56.815  1.00  0.00    -0.003 C 
ATOM     32  C   UNL     1      40.290  61.367  55.402  1.00  0.00     0.004 C 
ENDBRANCH  30  31
ENDBRANCH  29  30
ENDBRANCH  28  29
ENDBRANCH  27  28
ENDBRANCH  26  27
ENDBRANCH  25  26
ENDBRANCH  24  25
ENDBRANCH  23  24
ENDBRANCH  22  23
ENDBRANCH  21  22
ENDBRANCH  20  21
ENDBRANCH  19  20
ENDBRANCH  18  19
ENDBRANCH   1  18
TORSDOF 28
ENDMDL
MODEL 3
REMARK VINA RESULT:    -4.869      3.032      9.540
REMARK INTER + INTRA:         -16.686
REMARK INTER:                 -13.796
REMARK INTRA:                  -2.890
REMARK UNBOUND:                -3.847
REMARK SMILES CCCCCCCCCCCCCCCCCCCCCCCCCCCCCC(=O)[O-]
REMARK SMILES IDX 16 1 17 2 18 3 19 4 20 5 21 6 22 7 23 8 24 9 25 10 26 11
REMARK SMILES IDX 27 12 28 13 29 14 30 15 31 16 32 17 15 18 14 19 13 20 12 21
REMARK SMILES IDX 11 22 10 23 9 24 8 25 7 26 6 27 5 28 4 29 3 30 2 31 1 32
REMARK H PARENT
REMARK Flexibility Score: inf
ROOT
ATOM      1  C   UNL     1      44.028  57.489  60.221  1.00  0.00     0.000 C 
ENDROOT
BRANCH   1   2
ATOM      2  C   UNL     1      44.630  57.907  58.870  1.00  0.00     0.000 C 
BRANCH   2   3
ATOM      3  C   UNL     1      46.102  58.333  58.979  1.00  0.00     0.000 C 
BRANCH   3   4
ATOM      4  C   UNL     1      46.381  59.025  60.322  1.00  0.00     0.000 C 
BRANCH   4   5
ATOM      5  C   UNL     1      46.551  60.547  60.183  1.00  0.00     0.000 C 
BRANCH   5   6
ATOM      6  C   UNL     1      45.459  61.338  60.922  1.00  0.00     0.000 C 
BRANCH   6   7
ATOM      7  C   UNL     1      44.548  60.438  61.777  1.00  0.00     0.000 C 
BRANCH   7   8
ATOM      8  C   UNL     1      43.059  60.837  61.789  1.00  0.00     0.000 C 
BRANCH   8   9
ATOM      9  C   UNL     1      42.770  62.274  62.259  1.00  0.00     0.000 C 
BRANCH   9  10
ATOM     10  C   UNL     1      41.989  63.095  61.222  1.00  0.00     0.000 C 
BRANCH  10  11
ATOM     11  C   UNL     1      42.724  63.125  59.874  1.00  0.00     0.000 C 
BRANCH  11  12
ATOM     12  C   UNL     1      41.990  62.333  58.780  1.00  0.00     0.000 C 
BRANCH  12  13
ATOM     13  C   UNL     1      42.879  61.260  58.126  1.00  0.00     0.006 C 
BRANCH  13  14
ATOM     14  C   UNL     1      42.063  60.066  57.611  1.00  0.00     0.053 C 
BRANCH  14  15
ATOM     15  C   UNL     1      40.880  60.505  56.804  1.00  0.00     0.041 C 
ATOM     16  O   UNL     1      41.045  61.115  55.716  1.00  0.00    -0.550 OA
ATOM     17  O   UNL     1      39.593  60.213  57.241  1.00  0.00    -0.550 OA
ENDBRANCH  14  15
ENDBRANCH  13  14
ENDBRANCH  12  13
ENDBRANCH  11  12
ENDBRANCH  10  11
ENDBRANCH   9  10
ENDBRANCH   8   9
ENDBRANCH   7   8
ENDBRANCH   6   7
ENDBRANCH   5   6
ENDBRANCH   4   5
ENDBRANCH   3   4
ENDBRANCH   2   3
ENDBRANCH   1   2
BRANCH   1  18
ATOM     18  C   UNL     1      42.576  56.976  60.160  1.00  0.00     0.000 C 
BRANCH  18  19
ATOM     19  C   UNL     1      42.314  55.943  59.040  1.00  0.00     0.000 C 
BRANCH  19  20
ATOM     20  C   UNL     1      42.090  54.497  59.528  1.00  0.00     0.000 C 
BRANCH  20  21
ATOM     21  C   UNL     1      41.120  54.339  60.716  1.00  0.00     0.000 C 
BRANCH  21  22
ATOM     22  C   UNL     1      39.642  54.161  60.301  1.00  0.00     0.000 C 
BRANCH  22  23
ATOM     23  C   UNL     1      38.694  55.164  60.984  1.00  0.00     0.000 C 
BRANCH  23  24
ATOM     24  C   UNL     1      38.088  56.168  59.986  1.00  0.00    -0.000 C 
BRANCH  24  25
ATOM     25  C   UNL     1      36.642  55.808  59.586  1.00  0.00    -0.000 C 
BRANCH  25  26
ATOM     26  C   UNL     1      36.376  54.293  59.503  1.00  0.00    -0.000 C 
BRANCH  26  27
ATOM     27  C   UNL     1      35.284  53.873  58.501  1.00  0.00    -0.000 C 
BRANCH  27  28
ATOM     28  C   UNL     1      35.551  52.549  57.761  1.00  0.00    -0.000 C 
BRANCH  28  29
ATOM     29  C   UNL     1      34.691  51.387  58.280  1.00  0.00    -0.000 C 
BRANCH  29  30
ATOM     30  C   UNL     1      33.197  51.727  58.187  1.00  0.00    -0.000 C 
BRANCH  30  31
ATOM     31  C   UNL     1      32.301  50.488  58.335  1.00  0.00    -0.003 C 
ATOM     32  C   UNL     1      31.026  50.769  59.131  1.00  0.00     0.004 C 
ENDBRANCH  30  31
ENDBRANCH  29  30
ENDBRANCH  28  29
ENDBRANCH  27  28
ENDBRANCH  26  27
ENDBRANCH  25  26
ENDBRANCH  24  25
ENDBRANCH  23  24
ENDBRANCH  22  23
ENDBRANCH  21  22
ENDBRANCH  20  21
ENDBRANCH  19  20
ENDBRANCH  18  19
ENDBRANCH   1  18
TORSDOF 28
ENDMDL
MODEL 4
REMARK VINA RESULT:    -4.865      0.937      2.372
REMARK INTER + INTRA:         -16.674
REMARK INTER:                 -12.326
REMARK INTRA:                  -4.348
REMARK UNBOUND:                -3.847
REMARK SMILES CCCCCCCCCCCCCCCCCCCCCCCCCCCCCC(=O)[O-]
REMARK SMILES IDX 16 1 17 2 18 3 19 4 20 5 21 6 22 7 23 8 24 9 25 10 26 11
REMARK SMILES IDX 27 12 28 13 29 14 30 15 31 16 32 17 15 18 14 19 13 20 12 21
REMARK SMILES IDX 11 22 10 23 9 24 8 25 7 26 6 27 5 28 4 29 3 30 2 31 1 32
REMARK H PARENT
REMARK Flexibility Score: inf
ROOT
ATOM      1  C   UNL     1      41.268  58.361  58.315  1.00  0.00     0.000 C 
ENDROOT
BRANCH   1   2
ATOM      2  C   UNL     1      41.453  58.282  59.839  1.00  0.00     0.000 C 
BRANCH   2   3
ATOM      3  C   UNL     1      42.560  57.301  60.256  1.00  0.00     0.000 C 
BRANCH   3   4
ATOM      4  C   UNL     1      42.954  56.382  59.090  1.00  0.00     0.000 C 
BRANCH   4   5
ATOM      5  C   UNL     1      42.314  54.988  59.190  1.00  0.00     0.000 C 
BRANCH   5   6
ATOM      6  C   UNL     1      42.223  54.476  60.637  1.00  0.00     0.000 C 
BRANCH   6   7
ATOM      7  C   UNL     1      40.798  54.042  61.026  1.00  0.00     0.000 C 
BRANCH   7   8
ATOM      8  C   UNL     1      39.680  54.557  60.097  1.00  0.00     0.000 C 
BRANCH   8   9
ATOM      9  C   UNL     1      38.720  55.578  60.733  1.00  0.00     0.000 C 
BRANCH   9  10
ATOM     10  C   UNL     1      37.926  56.379  59.691  1.00  0.00     0.000 C 
BRANCH  10  11
ATOM     11  C   UNL     1      36.414  56.186  59.880  1.00  0.00     0.000 C 
BRANCH  11  12
ATOM     12  C   UNL     1      35.807  55.214  58.855  1.00  0.00     0.000 C 
BRANCH  12  13
ATOM     13  C   UNL     1      35.992  53.739  59.255  1.00  0.00     0.006 C 
BRANCH  13  14
ATOM     14  C   UNL     1      36.037  52.810  58.034  1.00  0.00     0.053 C 
BRANCH  14  15
ATOM     15  C   UNL     1      34.907  51.827  58.038  1.00  0.00     0.041 C 
ATOM     16  O   UNL     1      35.125  50.610  57.801  1.00  0.00    -0.550 OA
ATOM     17  O   UNL     1      33.616  52.250  58.333  1.00  0.00    -0.550 OA
ENDBRANCH  14  15
ENDBRANCH  13  14
ENDBRANCH  12  13
ENDBRANCH  11  12
ENDBRANCH  10  11
ENDBRANCH   9  10
ENDBRANCH   8   9
ENDBRANCH   7   8
ENDBRANCH   6   7
ENDBRANCH   5   6
ENDBRANCH   4   5
ENDBRANCH   3   4
ENDBRANCH   2   3
ENDBRANCH   1   2
BRANCH   1  18
ATOM     18  C   UNL     1      41.941  59.569  57.634  1.00  0.00     0.000 C 
BRANCH  18  19
ATOM     19  C   UNL     1      40.957  60.524  56.920  1.00  0.00     0.000 C 
BRANCH  19  20
ATOM     20  C   UNL     1      41.418  61.994  56.844  1.00  0.00     0.000 C 
BRANCH  20  21
ATOM     21  C   UNL     1      41.599  62.705  58.200  1.00  0.00     0.000 C 
BRANCH  21  22
ATOM     22  C   UNL     1      43.075  62.921  58.604  1.00  0.00     0.000 C 
BRANCH  22  23
ATOM     23  C   UNL     1      43.306  62.848  60.124  1.00  0.00     0.000 C 
BRANCH  23  24
ATOM     24  C   UNL     1      43.418  61.398  60.629  1.00  0.00    -0.000 C 
BRANCH  24  25
ATOM     25  C   UNL     1      44.475  61.236  61.741  1.00  0.00    -0.000 C 
BRANCH  25  26
ATOM     26  C   UNL     1      45.644  60.307  61.361  1.00  0.00    -0.000 C 
BRANCH  26  27
ATOM     27  C   UNL     1      45.242  58.869  60.984  1.00  0.00    -0.000 C 
BRANCH  27  28
ATOM     28  C   UNL     1      46.328  58.058  60.252  1.00  0.00    -0.000 C 
BRANCH  28  29
ATOM     29  C   UNL     1      46.846  58.756  58.986  1.00  0.00    -0.000 C 
BRANCH  29  30
ATOM     30  C   UNL     1      45.699  59.034  58.004  1.00  0.00    -0.000 C 
BRANCH  30  31
ATOM     31  C   UNL     1      45.582  60.522  57.641  1.00  0.00    -0.003 C 
ATOM     32  C   UNL     1      46.788  61.341  58.101  1.00  0.00     0.004 C 
ENDBRANCH  30  31
ENDBRANCH  29  30
ENDBRANCH  28  29
ENDBRANCH  27  28
ENDBRANCH  26  27
ENDBRANCH  25  26
ENDBRANCH  24  25
ENDBRANCH  23  24
ENDBRANCH  22  23
ENDBRANCH  21  22
ENDBRANCH  20  21
ENDBRANCH  19  20
ENDBRANCH  18  19
ENDBRANCH   1  18
TORSDOF 28
ENDMDL
MODEL 5
REMARK VINA RESULT:    -4.856      3.001      9.036
REMARK INTER + INTRA:         -16.650
REMARK INTER:                 -12.893
REMARK INTRA:                  -3.757
REMARK UNBOUND:                -3.847
REMARK SMILES CCCCCCCCCCCCCCCCCCCCCCCCCCCCCC(=O)[O-]
REMARK SMILES IDX 16 1 17 2 18 3 19 4 20 5 21 6 22 7 23 8 24 9 25 10 26 11
REMARK SMILES IDX 27 12 28 13 29 14 30 15 31 16 32 17 15 18 14 19 13 20 12 21
REMARK SMILES IDX 11 22 10 23 9 24 8 25 7 26 6 27 5 28 4 29 3 30 2 31 1 32
REMARK H PARENT
REMARK Flexibility Score: inf
ROOT
ATOM      1  C   UNL     1      45.263  58.053  58.274  1.00  0.00     0.000 C 
ENDROOT
BRANCH   1   2
ATOM      2  C   UNL     1      46.285  59.106  57.815  1.00  0.00     0.000 C 
BRANCH   2   3
ATOM      3  C   UNL     1      46.874  59.915  58.980  1.00  0.00     0.000 C 
BRANCH   3   4
ATOM      4  C   UNL     1      46.738  61.425  58.731  1.00  0.00     0.000 C 
BRANCH   4   5
ATOM      5  C   UNL     1      46.593  62.231  60.032  1.00  0.00     0.000 C 
BRANCH   5   6
ATOM      6  C   UNL     1      46.640  61.347  61.290  1.00  0.00     0.000 C 
BRANCH   6   7
ATOM      7  C   UNL     1      46.207  62.099  62.562  1.00  0.00     0.000 C 
BRANCH   7   8
ATOM      8  C   UNL     1      44.955  61.535  63.262  1.00  0.00     0.000 C 
BRANCH   8   9
ATOM      9  C   UNL     1      43.611  61.959  62.641  1.00  0.00     0.000 C 
BRANCH   9  10
ATOM     10  C   UNL     1      42.744  60.763  62.221  1.00  0.00     0.000 C 
BRANCH  10  11
ATOM     11  C   UNL     1      43.036  60.352  60.770  1.00  0.00     0.000 C 
BRANCH  11  12
ATOM     12  C   UNL     1      42.983  61.540  59.795  1.00  0.00     0.000 C 
BRANCH  12  13
ATOM     13  C   UNL     1      43.053  61.100  58.321  1.00  0.00     0.006 C 
BRANCH  13  14
ATOM     14  C   UNL     1      41.850  60.237  57.917  1.00  0.00     0.053 C 
BRANCH  14  15
ATOM     15  C   UNL     1      40.784  61.043  57.241  1.00  0.00     0.041 C 
ATOM     16  O   UNL     1      40.843  62.300  57.244  1.00  0.00    -0.550 OA
ATOM     17  O   UNL     1      39.740  60.404  56.582  1.00  0.00    -0.550 OA
ENDBRANCH  14  15
ENDBRANCH  13  14
ENDBRANCH  12  13
ENDBRANCH  11  12
ENDBRANCH  10  11
ENDBRANCH   9  10
ENDBRANCH   8   9
ENDBRANCH   7   8
ENDBRANCH   6   7
ENDBRANCH   5   6
ENDBRANCH   4   5
ENDBRANCH   3   4
ENDBRANCH   2   3
ENDBRANCH   1   2
BRANCH   1  18
ATOM     18  C   UNL     1      45.142  57.880  59.801  1.00  0.00     0.000 C 
BRANCH  18  19
ATOM     19  C   UNL     1      44.179  56.751  60.237  1.00  0.00     0.000 C 
BRANCH  19  20
ATOM     20  C   UNL     1      43.140  56.337  59.174  1.00  0.00     0.000 C 
BRANCH  20  21
ATOM     21  C   UNL     1      42.525  54.935  59.358  1.00  0.00     0.000 C 
BRANCH  21  22
ATOM     22  C   UNL     1      41.581  54.817  60.576  1.00  0.00     0.000 C 
BRANCH  22  23
ATOM     23  C   UNL     1      40.312  53.996  60.285  1.00  0.00     0.000 C 
BRANCH  23  24
ATOM     24  C   UNL     1      39.106  54.467  61.118  1.00  0.00    -0.000 C 
BRANCH  24  25
ATOM     25  C   UNL     1      38.703  55.924  60.807  1.00  0.00    -0.000 C 
BRANCH  25  26
ATOM     26  C   UNL     1      37.870  56.081  59.522  1.00  0.00    -0.000 C 
BRANCH  26  27
ATOM     27  C   UNL     1      36.348  55.929  59.704  1.00  0.00    -0.000 C 
BRANCH  27  28
ATOM     28  C   UNL     1      35.712  54.753  58.940  1.00  0.00    -0.000 C 
BRANCH  28  29
ATOM     29  C   UNL     1      36.495  53.442  59.097  1.00  0.00    -0.000 C 
BRANCH  29  30
ATOM     30  C   UNL     1      35.704  52.258  58.522  1.00  0.00    -0.000 C 
BRANCH  30  31
ATOM     31  C   UNL     1      34.318  52.672  58.005  1.00  0.00    -0.003 C 
ATOM     32  C   UNL     1      33.249  51.607  58.254  1.00  0.00     0.004 C 
ENDBRANCH  30  31
ENDBRANCH  29  30
ENDBRANCH  28  29
ENDBRANCH  27  28
ENDBRANCH  26  27
ENDBRANCH  25  26
ENDBRANCH  24  25
ENDBRANCH  23  24
ENDBRANCH  22  23
ENDBRANCH  21  22
ENDBRANCH  20  21
ENDBRANCH  19  20
ENDBRANCH  18  19
ENDBRANCH   1  18
TORSDOF 28
ENDMDL
MODEL 6
REMARK VINA RESULT:    -4.834      2.985      6.641
REMARK INTER + INTRA:         -16.593
REMARK INTER:                 -12.462
REMARK INTRA:                  -4.131
REMARK UNBOUND:                -3.847
REMARK SMILES CCCCCCCCCCCCCCCCCCCCCCCCCCCCCC(=O)[O-]
REMARK SMILES IDX 16 1 17 2 18 3 19 4 20 5 21 6 22 7 23 8 24 9 25 10 26 11
REMARK SMILES IDX 27 12 28 13 29 14 30 15 31 16 32 17 15 18 14 19 13 20 12 21
REMARK SMILES IDX 11 22 10 23 9 24 8 25 7 26 6 27 5 28 4 29 3 30 2 31 1 32
REMARK H PARENT
REMARK Flexibility Score: inf
ROOT
ATOM      1  C   UNL     1      38.800  53.692  61.407  1.00  0.00     0.000 C 
ENDROOT
BRANCH   1   2
ATOM      2  C   UNL     1      38.083  53.618  60.049  1.00  0.00     0.000 C 
BRANCH   2   3
ATOM      3  C   UNL     1      36.556  53.516  60.184  1.00  0.00     0.000 C 
BRANCH   3   4
ATOM      4  C   UNL     1      35.849  54.157  58.979  1.00  0.00     0.000 C 
BRANCH   4   5
ATOM      5  C   UNL     1      36.219  55.636  58.790  1.00  0.00     0.000 C 
BRANCH   5   6
ATOM      6  C   UNL     1      36.386  56.384  60.123  1.00  0.00     0.000 C 
BRANCH   6   7
ATOM      7  C   UNL     1      37.803  56.958  60.310  1.00  0.00     0.000 C 
BRANCH   7   8
ATOM      8  C   UNL     1      38.629  57.097  59.015  1.00  0.00     0.000 C 
BRANCH   8   9
ATOM      9  C   UNL     1      40.011  57.752  59.188  1.00  0.00     0.000 C 
BRANCH   9  10
ATOM     10  C   UNL     1      40.431  58.590  57.972  1.00  0.00     0.000 C 
BRANCH  10  11
ATOM     11  C   UNL     1      41.952  58.800  57.945  1.00  0.00     0.000 C 
BRANCH  11  12
ATOM     12  C   UNL     1      42.347  60.219  57.506  1.00  0.00     0.000 C 
BRANCH  12  13
ATOM     13  C   UNL     1      41.186  61.222  57.629  1.00  0.00     0.006 C 
BRANCH  13  14
ATOM     14  C   UNL     1      41.225  62.291  56.527  1.00  0.00     0.053 C 
BRANCH  14  15
ATOM     15  C   UNL     1      40.416  61.891  55.332  1.00  0.00     0.041 C 
ATOM     16  O   UNL     1      40.636  62.422  54.212  1.00  0.00    -0.550 OA
ATOM     17  O   UNL     1      39.439  60.909  55.448  1.00  0.00    -0.550 OA
ENDBRANCH  14  15
ENDBRANCH  13  14
ENDBRANCH  12  13
ENDBRANCH  11  12
ENDBRANCH  10  11
ENDBRANCH   9  10
ENDBRANCH   8   9
ENDBRANCH   7   8
ENDBRANCH   6   7
ENDBRANCH   5   6
ENDBRANCH   4   5
ENDBRANCH   3   4
ENDBRANCH   2   3
ENDBRANCH   1   2
BRANCH   1  18
ATOM     18  C   UNL     1      40.339  53.701  61.336  1.00  0.00     0.000 C 
BRANCH  18  19
ATOM     19  C   UNL     1      40.913  54.424  60.095  1.00  0.00     0.000 C 
BRANCH  19  20
ATOM     20  C   UNL     1      42.437  54.656  60.125  1.00  0.00     0.000 C 
BRANCH  20  21
ATOM     21  C   UNL     1      42.884  56.093  60.460  1.00  0.00     0.000 C 
BRANCH  21  22
ATOM     22  C   UNL     1      44.111  56.575  59.652  1.00  0.00     0.000 C 
BRANCH  22  23
ATOM     23  C   UNL     1      44.834  57.769  60.300  1.00  0.00     0.000 C 
BRANCH  23  24
ATOM     24  C   UNL     1      46.076  58.205  59.500  1.00  0.00    -0.000 C 
BRANCH  24  25
ATOM     25  C   UNL     1      45.713  58.863  58.152  1.00  0.00    -0.000 C 
BRANCH  25  26
ATOM     26  C   UNL     1      46.686  59.975  57.719  1.00  0.00    -0.000 C 
BRANCH  26  27
ATOM     27  C   UNL     1      46.562  61.296  58.501  1.00  0.00    -0.000 C 
BRANCH  27  28
ATOM     28  C   UNL     1      45.406  62.212  58.056  1.00  0.00    -0.000 C 
BRANCH  28  29
ATOM     29  C   UNL     1      44.533  62.688  59.227  1.00  0.00    -0.000 C 
BRANCH  29  30
ATOM     30  C   UNL     1      44.705  61.772  60.447  1.00  0.00    -0.000 C 
BRANCH  30  31
ATOM     31  C   UNL     1      43.421  61.002  60.791  1.00  0.00    -0.003 C 
ATOM     32  C   UNL     1      42.990  61.188  62.245  1.00  0.00     0.004 C 
ENDBRANCH  30  31
ENDBRANCH  29  30
ENDBRANCH  28  29
ENDBRANCH  27  28
ENDBRANCH  26  27
ENDBRANCH  25  26
ENDBRANCH  24  25
ENDBRANCH  23  24
ENDBRANCH  22  23
ENDBRANCH  21  22
ENDBRANCH  20  21
ENDBRANCH  19  20
ENDBRANCH  18  19
ENDBRANCH   1  18
TORSDOF 28
ENDMDL
MODEL 7
REMARK VINA RESULT:    -4.785      3.440      8.832
REMARK INTER + INTRA:         -16.465
REMARK INTER:                 -12.835
REMARK INTRA:                  -3.630
REMARK UNBOUND:                -3.847
REMARK SMILES CCCCCCCCCCCCCCCCCCCCCCCCCCCCCC(=O)[O-]
REMARK SMILES IDX 16 1 17 2 18 3 19 4 20 5 21 6 22 7 23 8 24 9 25 10 26 11
REMARK SMILES IDX 27 12 28 13 29 14 30 15 31 16 32 17 15 18 14 19 13 20 12 21
REMARK SMILES IDX 11 22 10 23 9 24 8 25 7 26 6 27 5 28 4 29 3 30 2 31 1 32
REMARK H PARENT
REMARK Flexibility Score: inf
ROOT
ATOM      1  C   UNL     1      41.218  58.134  58.822  1.00  0.00     0.000 C 
ENDROOT
BRANCH   1   2
ATOM      2  C   UNL     1      42.671  58.061  58.325  1.00  0.00     0.000 C 
BRANCH   2   3
ATOM      3  C   UNL     1      43.400  56.793  58.795  1.00  0.00     0.000 C 
BRANCH   3   4
ATOM      4  C   UNL     1      44.621  57.144  59.659  1.00  0.00     0.000 C 
BRANCH   4   5
ATOM      5  C   UNL     1      45.181  58.543  59.357  1.00  0.00     0.000 C 
BRANCH   5   6
ATOM      6  C   UNL     1      45.304  59.419  60.616  1.00  0.00     0.000 C 
BRANCH   6   7
ATOM      7  C   UNL     1      44.158  59.186  61.617  1.00  0.00     0.000 C 
BRANCH   7   8
ATOM      8  C   UNL     1      42.976  60.169  61.500  1.00  0.00     0.000 C 
BRANCH   8   9
ATOM      9  C   UNL     1      43.317  61.641  61.791  1.00  0.00     0.000 C 
BRANCH   9  10
ATOM     10  C   UNL     1      43.183  62.541  60.554  1.00  0.00     0.000 C 
BRANCH  10  11
ATOM     11  C   UNL     1      42.768  61.725  59.321  1.00  0.00     0.000 C 
BRANCH  11  12
ATOM     12  C   UNL     1      43.078  62.447  58.000  1.00  0.00     0.000 C 
BRANCH  12  13
ATOM     13  C   UNL     1      41.820  62.684  57.144  1.00  0.00     0.006 C 
BRANCH  13  14
ATOM     14  C   UNL     1      40.861  61.486  57.182  1.00  0.00     0.053 C 
BRANCH  14  15
ATOM     15  C   UNL     1      40.222  61.239  55.850  1.00  0.00     0.041 C 
ATOM     16  O   UNL     1      39.175  60.545  55.768  1.00  0.00    -0.550 OA
ATOM     17  O   UNL     1      40.768  61.800  54.701  1.00  0.00    -0.550 OA
ENDBRANCH  14  15
ENDBRANCH  13  14
ENDBRANCH  12  13
ENDBRANCH  11  12
ENDBRANCH  10  11
ENDBRANCH   9  10
ENDBRANCH   8   9
ENDBRANCH   7   8
ENDBRANCH   6   7
ENDBRANCH   5   6
ENDBRANCH   4   5
ENDBRANCH   3   4
ENDBRANCH   2   3
ENDBRANCH   1   2
BRANCH   1  18
ATOM     18  C   UNL     1      40.973  57.538  60.222  1.00  0.00     0.000 C 
BRANCH  18  19
ATOM     19  C   UNL     1      40.063  56.288  60.228  1.00  0.00     0.000 C 
BRANCH  19  20
ATOM     20  C   UNL     1      40.808  54.940  60.134  1.00  0.00     0.000 C 
BRANCH  20  21
ATOM     21  C   UNL     1      40.232  53.801  60.998  1.00  0.00     0.000 C 
BRANCH  21  22
ATOM     22  C   UNL     1      38.856  54.120  61.625  1.00  0.00     0.000 C 
BRANCH  22  23
ATOM     23  C   UNL     1      37.697  53.344  60.975  1.00  0.00     0.000 C 
BRANCH  23  24
ATOM     24  C   UNL     1      37.301  53.922  59.604  1.00  0.00    -0.000 C 
BRANCH  24  25
ATOM     25  C   UNL     1      36.078  54.859  59.686  1.00  0.00    -0.000 C 
BRANCH  25  26
ATOM     26  C   UNL     1      36.437  56.333  59.953  1.00  0.00    -0.000 C 
BRANCH  26  27
ATOM     27  C   UNL     1      35.438  57.101  60.838  1.00  0.00    -0.000 C 
BRANCH  27  28
ATOM     28  C   UNL     1      36.035  57.714  62.118  1.00  0.00    -0.000 C 
BRANCH  28  29
ATOM     29  C   UNL     1      35.021  58.550  62.913  1.00  0.00    -0.000 C 
BRANCH  29  30
ATOM     30  C   UNL     1      33.659  58.579  62.204  1.00  0.00    -0.000 C 
BRANCH  30  31
ATOM     31  C   UNL     1      32.527  58.019  63.078  1.00  0.00    -0.003 C 
ATOM     32  C   UNL     1      31.162  58.080  62.393  1.00  0.00     0.004 C 
ENDBRANCH  30  31
ENDBRANCH  29  30
ENDBRANCH  28  29
ENDBRANCH  27  28
ENDBRANCH  26  27
ENDBRANCH  25  26
ENDBRANCH  24  25
ENDBRANCH  23  24
ENDBRANCH  22  23
ENDBRANCH  21  22
ENDBRANCH  20  21
ENDBRANCH  19  20
ENDBRANCH  18  19
ENDBRANCH   1  18
TORSDOF 28
ENDMDL
MODEL 8
REMARK VINA RESULT:    -4.768      3.591      9.777
REMARK INTER + INTRA:         -16.420
REMARK INTER:                 -12.592
REMARK INTRA:                  -3.828
REMARK UNBOUND:                -3.847
REMARK SMILES CCCCCCCCCCCCCCCCCCCCCCCCCCCCCC(=O)[O-]
REMARK SMILES IDX 16 1 17 2 18 3 19 4 20 5 21 6 22 7 23 8 24 9 25 10 26 11
REMARK SMILES IDX 27 12 28 13 29 14 30 15 31 16 32 17 15 18 14 19 13 20 12 21
REMARK SMILES IDX 11 22 10 23 9 24 8 25 7 26 6 27 5 28 4 29 3 30 2 31 1 32
REMARK H PARENT
REMARK Flexibility Score: inf
ROOT
ATOM      1  C   UNL     1      42.093  58.590  59.808  1.00  0.00     0.000 C 
ENDROOT
BRANCH   1   2
ATOM      2  C   UNL     1      41.917  58.499  58.283  1.00  0.00     0.000 C 
BRANCH   2   3
ATOM      3  C   UNL     1      40.450  58.327  57.859  1.00  0.00     0.000 C 
BRANCH   3   4
ATOM      4  C   UNL     1      39.790  59.687  57.586  1.00  0.00     0.000 C 
BRANCH   4   5
ATOM      5  C   UNL     1      40.528  60.501  56.511  1.00  0.00     0.000 C 
BRANCH   5   6
ATOM      6  C   UNL     1      40.384  62.019  56.710  1.00  0.00     0.000 C 
BRANCH   6   7
ATOM      7  C   UNL     1      41.740  62.748  56.728  1.00  0.00     0.000 C 
BRANCH   7   8
ATOM      8  C   UNL     1      42.277  63.097  58.131  1.00  0.00     0.000 C 
BRANCH   8   9
ATOM      9  C   UNL     1      42.966  61.938  58.874  1.00  0.00     0.000 C 
BRANCH   9  10
ATOM     10  C   UNL     1      44.494  61.956  58.723  1.00  0.00     0.000 C 
BRANCH  10  11
ATOM     11  C   UNL     1      45.075  60.538  58.821  1.00  0.00     0.000 C 
BRANCH  11  12
ATOM     12  C   UNL     1      45.817  60.291  60.145  1.00  0.00     0.000 C 
BRANCH  12  13
ATOM     13  C   UNL     1      45.360  61.241  61.266  1.00  0.00     0.006 C 
BRANCH  13  14
ATOM     14  C   UNL     1      44.291  60.603  62.165  1.00  0.00     0.053 C 
BRANCH  14  15
ATOM     15  C   UNL     1      43.175  61.554  62.468  1.00  0.00     0.041 C 
ATOM     16  O   UNL     1      42.076  61.123  62.905  1.00  0.00    -0.550 OA
ATOM     17  O   UNL     1      43.358  62.922  62.295  1.00  0.00    -0.550 OA
ENDBRANCH  14  15
ENDBRANCH  13  14
ENDBRANCH  12  13
ENDBRANCH  11  12
ENDBRANCH  10  11
ENDBRANCH   9  10
ENDBRANCH   8   9
ENDBRANCH   7   8
ENDBRANCH   6   7
ENDBRANCH   5   6
ENDBRANCH   4   5
ENDBRANCH   3   4
ENDBRANCH   2   3
ENDBRANCH   1   2
BRANCH   1  18
ATOM     18  C   UNL     1      43.188  57.681  60.397  1.00  0.00     0.000 C 
BRANCH  18  19
ATOM     19  C   UNL     1      43.760  56.647  59.399  1.00  0.00     0.000 C 
BRANCH  19  20
ATOM     20  C   UNL     1      43.056  55.275  59.411  1.00  0.00     0.000 C 
BRANCH  20  21
ATOM     21  C   UNL     1      42.040  55.058  60.550  1.00  0.00     0.000 C 
BRANCH  21  22
ATOM     22  C   UNL     1      40.922  54.046  60.212  1.00  0.00     0.000 C 
BRANCH  22  23
ATOM     23  C   UNL     1      39.535  54.481  60.718  1.00  0.00     0.000 C 
BRANCH  23  24
ATOM     24  C   UNL     1      39.317  56.000  60.595  1.00  0.00    -0.000 C 
BRANCH  24  25
ATOM     25  C   UNL     1      37.951  56.355  59.970  1.00  0.00    -0.000 C 
BRANCH  25  26
ATOM     26  C   UNL     1      36.996  55.155  59.833  1.00  0.00    -0.000 C 
BRANCH  26  27
ATOM     27  C   UNL     1      36.049  55.206  58.620  1.00  0.00    -0.000 C 
BRANCH  27  28
ATOM     28  C   UNL     1      35.120  53.987  58.464  1.00  0.00    -0.000 C 
BRANCH  28  29
ATOM     29  C   UNL     1      35.886  52.669  58.279  1.00  0.00    -0.000 C 
BRANCH  29  30
ATOM     30  C   UNL     1      34.919  51.507  58.005  1.00  0.00    -0.000 C 
BRANCH  30  31
ATOM     31  C   UNL     1      33.465  51.855  58.356  1.00  0.00    -0.003 C 
ATOM     32  C   UNL     1      32.514  50.670  58.187  1.00  0.00     0.004 C 
ENDBRANCH  30  31
ENDBRANCH  29  30
ENDBRANCH  28  29
ENDBRANCH  27  28
ENDBRANCH  26  27
ENDBRANCH  25  26
ENDBRANCH  24  25
ENDBRANCH  23  24
ENDBRANCH  22  23
ENDBRANCH  21  22
ENDBRANCH  20  21
ENDBRANCH  19  20
ENDBRANCH  18  19
ENDBRANCH   1  18
TORSDOF 28
ENDMDL
MODEL 9
REMARK VINA RESULT:    -4.719      1.267      4.008
REMARK INTER + INTRA:         -16.291
REMARK INTER:                 -12.744
REMARK INTRA:                  -3.547
REMARK UNBOUND:                -3.847
REMARK SMILES CCCCCCCCCCCCCCCCCCCCCCCCCCCCCC(=O)[O-]
REMARK SMILES IDX 16 1 17 2 18 3 19 4 20 5 21 6 22 7 23 8 24 9 25 10 26 11
REMARK SMILES IDX 27 12 28 13 29 14 30 15 31 16 32 17 15 18 14 19 13 20 12 21
REMARK SMILES IDX 11 22 10 23 9 24 8 25 7 26 6 27 5 28 4 29 3 30 2 31 1 32
REMARK H PARENT
REMARK Flexibility Score: inf
ROOT
ATOM      1  C   UNL     1      43.863  58.999  58.231  1.00  0.00     0.000 C 
ENDROOT
BRANCH   1   2
ATOM      2  C   UNL     1      42.663  58.070  57.989  1.00  0.00     0.000 C 
BRANCH   2   3
ATOM      3  C   UNL     1      41.702  58.010  59.186  1.00  0.00     0.000 C 
BRANCH   3   4
ATOM      4  C   UNL     1      42.203  57.021  60.250  1.00  0.00     0.000 C 
BRANCH   4   5
ATOM      5  C   UNL     1      43.003  55.855  59.648  1.00  0.00     0.000 C 
BRANCH   5   6
ATOM      6  C   UNL     1      42.421  54.480  60.017  1.00  0.00     0.000 C 
BRANCH   6   7
ATOM      7  C   UNL     1      40.891  54.508  60.187  1.00  0.00     0.000 C 
BRANCH   7   8
ATOM      8  C   UNL     1      40.345  53.660  61.353  1.00  0.00     0.000 C 
BRANCH   8   9
ATOM      9  C   UNL     1      38.837  53.812  61.623  1.00  0.00     0.000 C 
BRANCH   9  10
ATOM     10  C   UNL     1      38.094  54.515  60.478  1.00  0.00     0.000 C 
BRANCH  10  11
ATOM     11  C   UNL     1      36.869  53.702  60.034  1.00  0.00     0.000 C 
BRANCH  11  12
ATOM     12  C   UNL     1      36.178  54.299  58.797  1.00  0.00     0.000 C 
BRANCH  12  13
ATOM     13  C   UNL     1      35.001  53.439  58.303  1.00  0.00     0.006 C 
BRANCH  13  14
ATOM     14  C   UNL     1      35.444  52.022  57.913  1.00  0.00     0.053 C 
BRANCH  14  15
ATOM     15  C   UNL     1      34.298  51.058  57.914  1.00  0.00     0.041 C 
ATOM     16  O   UNL     1      33.144  51.445  58.238  1.00  0.00    -0.550 OA
ATOM     17  O   UNL     1      34.498  49.737  57.528  1.00  0.00    -0.550 OA
ENDBRANCH  14  15
ENDBRANCH  13  14
ENDBRANCH  12  13
ENDBRANCH  11  12
ENDBRANCH  10  11
ENDBRANCH   9  10
ENDBRANCH   8   9
ENDBRANCH   7   8
ENDBRANCH   6   7
ENDBRANCH   5   6
ENDBRANCH   4   5
ENDBRANCH   3   4
ENDBRANCH   2   3
ENDBRANCH   1   2
BRANCH   1  18
ATOM     18  C   UNL     1      45.221  58.288  58.393  1.00  0.00     0.000 C 
BRANCH  18  19
ATOM     19  C   UNL     1      46.437  59.138  57.958  1.00  0.00     0.000 C 
BRANCH  19  20
ATOM     20  C   UNL     1      46.256  60.661  58.113  1.00  0.00     0.000 C 
BRANCH  20  21
ATOM     21  C   UNL     1      46.941  61.290  59.343  1.00  0.00     0.000 C 
BRANCH  21  22
ATOM     22  C   UNL     1      46.685  60.529  60.663  1.00  0.00     0.000 C 
BRANCH  22  23
ATOM     23  C   UNL     1      45.544  61.133  61.502  1.00  0.00     0.000 C 
BRANCH  23  24
ATOM     24  C   UNL     1      44.225  60.357  61.339  1.00  0.00    -0.000 C 
BRANCH  24  25
ATOM     25  C   UNL     1      43.067  61.249  60.845  1.00  0.00    -0.000 C 
BRANCH  25  26
ATOM     26  C   UNL     1      43.502  62.672  60.447  1.00  0.00    -0.000 C 
BRANCH  26  27
ATOM     27  C   UNL     1      43.406  62.991  58.943  1.00  0.00    -0.000 C 
BRANCH  27  28
ATOM     28  C   UNL     1      42.000  62.843  58.332  1.00  0.00    -0.000 C 
BRANCH  28  29
ATOM     29  C   UNL     1      41.930  61.765  57.241  1.00  0.00    -0.000 C 
BRANCH  29  30
ATOM     30  C   UNL     1      40.529  61.139  57.177  1.00  0.00    -0.000 C 
BRANCH  30  31
ATOM     31  C   UNL     1      39.989  61.048  55.742  1.00  0.00    -0.003 C 
ATOM     32  C   UNL     1      40.487  62.184  54.848  1.00  0.00     0.004 C 
ENDBRANCH  30  31
ENDBRANCH  29  30
ENDBRANCH  28  29
ENDBRANCH  27  28
ENDBRANCH  26  27
ENDBRANCH  25  26
ENDBRANCH  24  25
ENDBRANCH  23  24
ENDBRANCH  22  23
ENDBRANCH  21  22
ENDBRANCH  20  21
ENDBRANCH  19  20
ENDBRANCH  18  19
ENDBRANCH   1  18
TORSDOF 28
ENDMDL
