MODEL 1
REMARK VINA RESULT:    -4.917      0.000      0.000
REMARK INTER + INTRA:         -10.506
REMARK INTER:                  -8.942
REMARK INTRA:                  -1.564
REMARK UNBOUND:                -1.564
REMARK SMILES CCCCCCCCCCCCCCCC(=O)[O-]
REMARK SMILES IDX 9 1 10 2 11 3 12 4 13 5 14 6 15 7 16 8 17 9 18 10 8 11 7 12
REMARK SMILES IDX 6 13 5 14 4 15 3 16 2 17 1 18
REMARK H PARENT
REMARK Flexibility Score: inf
ROOT
ATOM      1  C   UNL     1      10.219  13.408  15.256  1.00  0.00     0.000 C 
ENDROOT
BRANCH   1   2
ATOM      2  C   UNL     1      11.127  13.274  16.493  1.00  0.00     0.000 C 
BRANCH   2   3
ATOM      3  C   UNL     1      12.453  14.034  16.332  1.00  0.00     0.000 C 
BRANCH   3   4
ATOM      4  C   UNL     1      13.128  13.759  14.979  1.00  0.00     0.000 C 
BRANCH   4   5
ATOM      5  C   UNL     1      13.546  15.045  14.247  1.00  0.00     0.000 C 
BRANCH   5   6
ATOM      6  C   UNL     1      13.033  16.335  14.919  1.00  0.00     0.006 C 
BRANCH   6   7
ATOM      7  C   UNL     1      13.616  17.601  14.277  1.00  0.00     0.053 C 
BRANCH   7   8
ATOM      8  C   UNL     1      14.358  18.410  15.293  1.00  0.00     0.041 C 
ATOM      9  O   UNL     1      13.727  19.133  16.111  1.00  0.00    -0.550 OA
ATOM     10  O   UNL     1      15.748  18.409  15.304  1.00  0.00    -0.550 OA
ENDBRANCH   7   8
ENDBRANCH   6   7
ENDBRANCH   5   6
ENDBRANCH   4   5
ENDBRANCH   3   4
ENDBRANCH   2   3
ENDBRANCH   1   2
BRANCH   1  11
ATOM     11  C   UNL     1       9.439  14.731  15.242  1.00  0.00     0.000 C 
BRANCH  11  12
ATOM     12  C   UNL     1       9.635  15.519  13.934  1.00  0.00    -0.000 C 
BRANCH  12  13
ATOM     13  C   UNL     1      10.306  14.665  12.835  1.00  0.00    -0.000 C 
BRANCH  13  14
ATOM     14  C   UNL     1      10.361  15.357  11.459  1.00  0.00    -0.000 C 
BRANCH  14  15
ATOM     15  C   UNL     1      10.616  14.413  10.271  1.00  0.00    -0.000 C 
BRANCH  15  16
ATOM     16  C   UNL     1       9.502  14.471   9.216  1.00  0.00    -0.000 C 
BRANCH  16  17
ATOM     17  C   UNL     1       8.578  13.254   9.331  1.00  0.00    -0.003 C 
ATOM     18  C   UNL     1       8.222  12.699   7.955  1.00  0.00     0.004 C 
ENDBRANCH  16  17
ENDBRANCH  15  16
ENDBRANCH  14  15
ENDBRANCH  13  14
ENDBRANCH  12  13
ENDBRANCH  11  12
ENDBRANCH   1  11
TORSDOF 14
ENDMDL
MODEL 2
REMARK VINA RESULT:    -4.760      3.365      6.752
REMARK INTER + INTRA:         -10.220
REMARK INTER:                  -8.612
REMARK INTRA:                  -1.609
REMARK UNBOUND:                -1.564
REMARK SMILES CCCCCCCCCCCCCCCC(=O)[O-]
REMARK SMILES IDX 9 1 10 2 11 3 12 4 13 5 14 6 15 7 16 8 17 9 18 10 8 11 7 12
REMARK SMILES IDX 6 13 5 14 4 15 3 16 2 17 1 18
REMARK H PARENT
REMARK Flexibility Score: inf
ROOT
ATOM      1  C   UNL     1      11.162  13.311  16.532  1.00  0.00     0.000 C 
ENDROOT
BRANCH   1   2
ATOM      2  C   UNL     1      10.229  13.433  15.313  1.00  0.00     0.000 C 
BRANCH   2   3
ATOM      3  C   UNL     1       9.411  14.734  15.328  1.00  0.00     0.000 C 
BRANCH   3   4
ATOM      4  C   UNL     1       9.594  15.560  14.045  1.00  0.00     0.000 C 
BRANCH   4   5
ATOM      5  C   UNL     1      10.337  14.792  12.939  1.00  0.00     0.000 C 
BRANCH   5   6
ATOM      6  C   UNL     1      10.288  15.487  11.563  1.00  0.00     0.006 C 
BRANCH   6   7
ATOM      7  C   UNL     1      10.976  14.661  10.466  1.00  0.00     0.053 C 
BRANCH   7   8
ATOM      8  C   UNL     1       9.987  14.250   9.422  1.00  0.00     0.041 C 
ATOM      9  O   UNL     1       9.121  13.372   9.680  1.00  0.00    -0.550 OA
ATOM     10  O   UNL     1      10.055  14.798   8.146  1.00  0.00    -0.550 OA
ENDBRANCH   7   8
ENDBRANCH   6   7
ENDBRANCH   5   6
ENDBRANCH   4   5
ENDBRANCH   3   4
ENDBRANCH   2   3
ENDBRANCH   1   2
BRANCH   1  11
ATOM     11  C   UNL     1      12.481  14.072  16.339  1.00  0.00     0.000 C 
BRANCH  11  12
ATOM     12  C   UNL     1      13.112  13.821  14.957  1.00  0.00    -0.000 C 
BRANCH  12  13
ATOM     13  C   UNL     1      13.652  15.119  14.319  1.00  0.00    -0.000 C 
BRANCH  13  14
ATOM     14  C   UNL     1      13.064  16.404  14.935  1.00  0.00    -0.000 C 
BRANCH  14  15
ATOM     15  C   UNL     1      13.593  17.714  14.324  1.00  0.00    -0.000 C 
BRANCH  15  16
ATOM     16  C   UNL     1      14.514  18.486  15.280  1.00  0.00    -0.000 C 
BRANCH  16  17
ATOM     17  C   UNL     1      13.697  19.367  16.231  1.00  0.00    -0.003 C 
ATOM     18  C   UNL     1      14.383  19.500  17.587  1.00  0.00     0.004 C 
ENDBRANCH  16  17
ENDBRANCH  15  16
ENDBRANCH  14  15
ENDBRANCH  13  14
ENDBRANCH  12  13
ENDBRANCH  11  12
ENDBRANCH   1  11
TORSDOF 14
ENDMDL
MODEL 3
REMARK VINA RESULT:    -4.712      3.181      6.000
REMARK INTER + INTRA:         -10.133
REMARK INTER:                  -7.646
REMARK INTRA:                  -2.487
REMARK UNBOUND:                -1.564
REMARK SMILES CCCCCCCCCCCCCCCC(=O)[O-]
REMARK SMILES IDX 9 1 10 2 11 3 12 4 13 5 14 6 15 7 16 8 17 9 18 10 8 11 7 12
REMARK SMILES IDX 6 13 5 14 4 15 3 16 2 17 1 18
REMARK H PARENT
REMARK Flexibility Score: inf
ROOT
ATOM      1  C   UNL     1      15.053  16.763  11.355  1.00  0.00     0.000 C 
ENDROOT
BRANCH   1   2
ATOM      2  C   UNL     1      13.556  16.907  11.026  1.00  0.00     0.000 C 
BRANCH   2   3
ATOM      3  C   UNL     1      12.966  15.631  10.405  1.00  0.00     0.000 C 
BRANCH   3   4
ATOM      4  C   UNL     1      11.915  14.967  11.308  1.00  0.00     0.000 C 
BRANCH   4   5
ATOM      5  C   UNL     1      10.865  15.960  11.834  1.00  0.00     0.000 C 
BRANCH   5   6
ATOM      6  C   UNL     1      10.131  15.472  13.100  1.00  0.00     0.006 C 
BRANCH   6   7
ATOM      7  C   UNL     1       9.853  16.611  14.091  1.00  0.00     0.053 C 
BRANCH   7   8
ATOM      8  C   UNL     1       8.550  16.390  14.791  1.00  0.00     0.041 C 
ATOM      9  O   UNL     1       8.360  15.338  15.458  1.00  0.00    -0.550 OA
ATOM     10  O   UNL     1       7.525  17.320  14.663  1.00  0.00    -0.550 OA
ENDBRANCH   7   8
ENDBRANCH   6   7
ENDBRANCH   5   6
ENDBRANCH   4   5
ENDBRANCH   3   4
ENDBRANCH   2   3
ENDBRANCH   1   2
BRANCH   1  11
ATOM     11  C   UNL     1      15.308  16.582  12.859  1.00  0.00     0.000 C 
BRANCH  11  12
ATOM     12  C   UNL     1      14.204  17.214  13.726  1.00  0.00    -0.000 C 
BRANCH  12  13
ATOM     13  C   UNL     1      13.562  16.190  14.687  1.00  0.00    -0.000 C 
BRANCH  13  14
ATOM     14  C   UNL     1      13.931  14.727  14.372  1.00  0.00    -0.000 C 
BRANCH  14  15
ATOM     15  C   UNL     1      12.877  13.689  14.798  1.00  0.00    -0.000 C 
BRANCH  15  16
ATOM     16  C   UNL     1      12.290  13.975  16.188  1.00  0.00    -0.000 C 
BRANCH  16  17
ATOM     17  C   UNL     1      11.017  13.154  16.420  1.00  0.00    -0.003 C 
ATOM     18  C   UNL     1      10.640  12.356  15.175  1.00  0.00     0.004 C 
ENDBRANCH  16  17
ENDBRANCH  15  16
ENDBRANCH  14  15
ENDBRANCH  13  14
ENDBRANCH  12  13
ENDBRANCH  11  12
ENDBRANCH   1  11
TORSDOF 14
ENDMDL
MODEL 4
REMARK VINA RESULT:    -4.686      3.787      6.329
REMARK INTER + INTRA:         -10.086
REMARK INTER:                  -7.910
REMARK INTRA:                  -2.176
REMARK UNBOUND:                -1.564
REMARK SMILES CCCCCCCCCCCCCCCC(=O)[O-]
REMARK SMILES IDX 9 1 10 2 11 3 12 4 13 5 14 6 15 7 16 8 17 9 18 10 8 11 7 12
REMARK SMILES IDX 6 13 5 14 4 15 3 16 2 17 1 18
REMARK H PARENT
REMARK Flexibility Score: inf
ROOT
ATOM      1  C   UNL     1       9.108  15.811  14.617  1.00  0.00     0.000 C 
ENDROOT
BRANCH   1   2
ATOM      2  C   UNL     1       8.074  16.949  14.706  1.00  0.00     0.000 C 
BRANCH   2   3
ATOM      3  C   UNL     1       8.731  18.336  14.764  1.00  0.00     0.000 C 
BRANCH   3   4
ATOM      4  C   UNL     1       8.151  19.308  13.725  1.00  0.00     0.000 C 
BRANCH   4   5
ATOM      5  C   UNL     1       9.153  19.667  12.616  1.00  0.00     0.000 C 
BRANCH   5   6
ATOM      6  C   UNL     1       8.644  19.349  11.194  1.00  0.00     0.006 C 
BRANCH   6   7
ATOM      7  C   UNL     1       8.928  17.897  10.783  1.00  0.00     0.053 C 
BRANCH   7   8
ATOM      8  C   UNL     1       7.660  17.107  10.740  1.00  0.00     0.041 C 
ATOM      9  O   UNL     1       7.602  15.972  11.286  1.00  0.00    -0.550 OA
ATOM     10  O   UNL     1       6.556  17.598  10.052  1.00  0.00    -0.550 OA
ENDBRANCH   7   8
ENDBRANCH   6   7
ENDBRANCH   5   6
ENDBRANCH   4   5
ENDBRANCH   3   4
ENDBRANCH   2   3
ENDBRANCH   1   2
BRANCH   1  11
ATOM     11  C   UNL     1      10.319  16.187  13.751  1.00  0.00     0.000 C 
BRANCH  11  12
ATOM     12  C   UNL     1      10.680  15.091  12.731  1.00  0.00    -0.000 C 
BRANCH  12  13
ATOM     13  C   UNL     1      12.204  14.855  12.647  1.00  0.00    -0.000 C 
BRANCH  13  14
ATOM     14  C   UNL     1      12.932  15.012  13.996  1.00  0.00    -0.000 C 
BRANCH  14  15
ATOM     15  C   UNL     1      12.903  13.764  14.895  1.00  0.00    -0.000 C 
BRANCH  15  16
ATOM     16  C   UNL     1      12.249  14.029  16.259  1.00  0.00    -0.000 C 
BRANCH  16  17
ATOM     17  C   UNL     1      11.035  13.117  16.467  1.00  0.00    -0.003 C 
ATOM     18  C   UNL     1      10.727  12.313  15.207  1.00  0.00     0.004 C 
ENDBRANCH  16  17
ENDBRANCH  15  16
ENDBRANCH  14  15
ENDBRANCH  13  14
ENDBRANCH  12  13
ENDBRANCH  11  12
ENDBRANCH   1  11
TORSDOF 14
ENDMDL
MODEL 5
REMARK VINA RESULT:    -4.684      1.085      1.680
REMARK INTER + INTRA:         -10.082
REMARK INTER:                  -8.291
REMARK INTRA:                  -1.792
REMARK UNBOUND:                -1.564
REMARK SMILES CCCCCCCCCCCCCCCC(=O)[O-]
REMARK SMILES IDX 9 1 10 2 11 3 12 4 13 5 14 6 15 7 16 8 17 9 18 10 8 11 7 12
REMARK SMILES IDX 6 13 5 14 4 15 3 16 2 17 1 18
REMARK H PARENT
REMARK Flexibility Score: inf
ROOT
ATOM      1  C   UNL     1       9.275  14.509  15.324  1.00  0.00     0.000 C 
ENDROOT
BRANCH   1   2
ATOM      2  C   UNL     1      10.251  13.318  15.324  1.00  0.00     0.000 C 
BRANCH   2   3
ATOM      3  C   UNL     1      11.226  13.359  16.510  1.00  0.00     0.000 C 
BRANCH   3   4
ATOM      4  C   UNL     1      12.528  14.104  16.177  1.00  0.00     0.000 C 
BRANCH   4   5
ATOM      5  C   UNL     1      13.091  13.736  14.794  1.00  0.00     0.000 C 
BRANCH   5   6
ATOM      6  C   UNL     1      13.762  14.919  14.064  1.00  0.00     0.006 C 
BRANCH   6   7
ATOM      7  C   UNL     1      13.424  16.270  14.708  1.00  0.00     0.053 C 
BRANCH   7   8
ATOM      8  C   UNL     1      14.378  17.324  14.244  1.00  0.00     0.041 C 
ATOM      9  O   UNL     1      14.976  18.051  15.082  1.00  0.00    -0.550 OA
ATOM     10  O   UNL     1      14.568  17.542  12.884  1.00  0.00    -0.550 OA
ENDBRANCH   7   8
ENDBRANCH   6   7
ENDBRANCH   5   6
ENDBRANCH   4   5
ENDBRANCH   3   4
ENDBRANCH   2   3
ENDBRANCH   1   2
BRANCH   1  11
ATOM     11  C   UNL     1       9.733  15.643  14.395  1.00  0.00     0.000 C 
BRANCH  11  12
ATOM     12  C   UNL     1      10.190  15.130  13.017  1.00  0.00    -0.000 C 
BRANCH  12  13
ATOM     13  C   UNL     1      10.610  16.283  12.079  1.00  0.00    -0.000 C 
BRANCH  13  14
ATOM     14  C   UNL     1       9.444  16.875  11.263  1.00  0.00    -0.000 C 
BRANCH  14  15
ATOM     15  C   UNL     1       8.438  15.841  10.729  1.00  0.00    -0.000 C 
BRANCH  15  16
ATOM     16  C   UNL     1       8.738  15.410   9.286  1.00  0.00    -0.000 C 
BRANCH  16  17
ATOM     17  C   UNL     1       9.430  14.042   9.258  1.00  0.00    -0.003 C 
ATOM     18  C   UNL     1       8.410  12.907   9.291  1.00  0.00     0.004 C 
ENDBRANCH  16  17
ENDBRANCH  15  16
ENDBRANCH  14  15
ENDBRANCH  13  14
ENDBRANCH  12  13
ENDBRANCH  11  12
ENDBRANCH   1  11
TORSDOF 14
ENDMDL
MODEL 6
REMARK VINA RESULT:    -4.679      1.423      2.063
REMARK INTER + INTRA:         -10.072
REMARK INTER:                  -8.437
REMARK INTRA:                  -1.635
REMARK UNBOUND:                -1.564
REMARK SMILES CCCCCCCCCCCCCCCC(=O)[O-]
REMARK SMILES IDX 9 1 10 2 11 3 12 4 13 5 14 6 15 7 16 8 17 9 18 10 8 11 7 12
REMARK SMILES IDX 6 13 5 14 4 15 3 16 2 17 1 18
REMARK H PARENT
REMARK Flexibility Score: inf
ROOT
ATOM      1  C   UNL     1      10.251  13.195  15.356  1.00  0.00     0.000 C 
ENDROOT
BRANCH   1   2
ATOM      2  C   UNL     1      11.245  13.221  16.533  1.00  0.00     0.000 C 
BRANCH   2   3
ATOM      3  C   UNL     1      12.436  14.157  16.274  1.00  0.00     0.000 C 
BRANCH   3   4
ATOM      4  C   UNL     1      13.183  13.814  14.976  1.00  0.00     0.000 C 
BRANCH   4   5
ATOM      5  C   UNL     1      13.393  15.035  14.065  1.00  0.00     0.000 C 
BRANCH   5   6
ATOM      6  C   UNL     1      13.252  16.385  14.799  1.00  0.00     0.006 C 
BRANCH   6   7
ATOM      7  C   UNL     1      13.788  17.560  13.969  1.00  0.00     0.053 C 
BRANCH   7   8
ATOM      8  C   UNL     1      15.266  17.698  14.151  1.00  0.00     0.041 C 
ATOM      9  O   UNL     1      16.058  17.145  13.341  1.00  0.00    -0.550 OA
ATOM     10  O   UNL     1      15.771  18.392  15.244  1.00  0.00    -0.550 OA
ENDBRANCH   7   8
ENDBRANCH   6   7
ENDBRANCH   5   6
ENDBRANCH   4   5
ENDBRANCH   3   4
ENDBRANCH   2   3
ENDBRANCH   1   2
BRANCH   1  11
ATOM     11  C   UNL     1       9.500  14.524  15.194  1.00  0.00     0.000 C 
BRANCH  11  12
ATOM     12  C   UNL     1       9.860  15.251  13.885  1.00  0.00    -0.000 C 
BRANCH  12  13
ATOM     13  C   UNL     1       9.575  16.767  13.965  1.00  0.00    -0.000 C 
BRANCH  13  14
ATOM     14  C   UNL     1       9.213  17.402  12.608  1.00  0.00    -0.000 C 
BRANCH  14  15
ATOM     15  C   UNL     1       7.774  17.134  12.133  1.00  0.00    -0.000 C 
BRANCH  15  16
ATOM     16  C   UNL     1       7.692  16.020  11.080  1.00  0.00    -0.000 C 
BRANCH  16  17
ATOM     17  C   UNL     1       9.027  15.872  10.340  1.00  0.00    -0.003 C 
ATOM     18  C   UNL     1       9.155  14.490   9.705  1.00  0.00     0.004 C 
ENDBRANCH  16  17
ENDBRANCH  15  16
ENDBRANCH  14  15
ENDBRANCH  13  14
ENDBRANCH  12  13
ENDBRANCH  11  12
ENDBRANCH   1  11
TORSDOF 14
ENDMDL
MODEL 7
REMARK VINA RESULT:    -4.675      3.186      6.090
REMARK INTER + INTRA:         -10.065
REMARK INTER:                  -8.009
REMARK INTRA:                  -2.056
REMARK UNBOUND:                -1.564
REMARK SMILES CCCCCCCCCCCCCCCC(=O)[O-]
REMARK SMILES IDX 9 1 10 2 11 3 12 4 13 5 14 6 15 7 16 8 17 9 18 10 8 11 7 12
REMARK SMILES IDX 6 13 5 14 4 15 3 16 2 17 1 18
REMARK H PARENT
REMARK Flexibility Score: inf
ROOT
ATOM      1  C   UNL     1       9.890  13.621  14.580  1.00  0.00     0.000 C 
ENDROOT
BRANCH   1   2
ATOM      2  C   UNL     1       9.350  14.804  15.405  1.00  0.00     0.000 C 
BRANCH   2   3
ATOM      3  C   UNL     1       9.055  16.037  14.538  1.00  0.00     0.000 C 
BRANCH   3   4
ATOM      4  C   UNL     1       9.229  15.758  13.037  1.00  0.00     0.000 C 
BRANCH   4   5
ATOM      5  C   UNL     1      10.137  16.784  12.338  1.00  0.00     0.000 C 
BRANCH   5   6
ATOM      6  C   UNL     1      11.191  16.146  11.409  1.00  0.00     0.006 C 
BRANCH   6   7
ATOM      7  C   UNL     1      10.980  14.635  11.237  1.00  0.00     0.053 C 
BRANCH   7   8
ATOM      8  C   UNL     1      10.367  14.340   9.905  1.00  0.00     0.041 C 
ATOM      9  O   UNL     1       9.376  13.565   9.822  1.00  0.00    -0.550 OA
ATOM     10  O   UNL     1      10.920  14.879   8.749  1.00  0.00    -0.550 OA
ENDBRANCH   7   8
ENDBRANCH   6   7
ENDBRANCH   5   6
ENDBRANCH   4   5
ENDBRANCH   3   4
ENDBRANCH   2   3
ENDBRANCH   1   2
BRANCH   1  11
ATOM     11  C   UNL     1      10.761  12.672  15.416  1.00  0.00     0.000 C 
BRANCH  11  12
ATOM     12  C   UNL     1      11.309  13.340  16.689  1.00  0.00    -0.000 C 
BRANCH  12  13
ATOM     13  C   UNL     1      12.614  14.122  16.420  1.00  0.00    -0.000 C 
BRANCH  13  14
ATOM     14  C   UNL     1      13.213  13.868  15.023  1.00  0.00    -0.000 C 
BRANCH  14  15
ATOM     15  C   UNL     1      13.371  15.124  14.149  1.00  0.00    -0.000 C 
BRANCH  15  16
ATOM     16  C   UNL     1      12.815  16.389  14.821  1.00  0.00    -0.000 C 
BRANCH  16  17
ATOM     17  C   UNL     1      13.837  17.530  14.762  1.00  0.00    -0.003 C 
ATOM     18  C   UNL     1      13.424  18.687  15.667  1.00  0.00     0.004 C 
ENDBRANCH  16  17
ENDBRANCH  15  16
ENDBRANCH  14  15
ENDBRANCH  13  14
ENDBRANCH  12  13
ENDBRANCH  11  12
ENDBRANCH   1  11
TORSDOF 14
ENDMDL
MODEL 8
REMARK VINA RESULT:    -4.659      3.119      6.412
REMARK INTER + INTRA:         -10.036
REMARK INTER:                  -8.984
REMARK INTRA:                  -1.052
REMARK UNBOUND:                -1.564
REMARK SMILES CCCCCCCCCCCCCCCC(=O)[O-]
REMARK SMILES IDX 9 1 10 2 11 3 12 4 13 5 14 6 15 7 16 8 17 9 18 10 8 11 7 12
REMARK SMILES IDX 6 13 5 14 4 15 3 16 2 17 1 18
REMARK H PARENT
REMARK Flexibility Score: inf
ROOT
ATOM      1  C   UNL     1      12.170  14.059  16.526  1.00  0.00     0.000 C 
ENDROOT
BRANCH   1   2
ATOM      2  C   UNL     1      11.065  12.996  16.382  1.00  0.00     0.000 C 
BRANCH   2   3
ATOM      3  C   UNL     1      10.205  13.210  15.126  1.00  0.00     0.000 C 
BRANCH   3   4
ATOM      4  C   UNL     1       9.509  14.580  15.116  1.00  0.00     0.000 C 
BRANCH   4   5
ATOM      5  C   UNL     1       9.851  15.416  13.871  1.00  0.00     0.000 C 
BRANCH   5   6
ATOM      6  C   UNL     1       8.734  16.397  13.458  1.00  0.00     0.006 C 
BRANCH   6   7
ATOM      7  C   UNL     1       8.061  17.059  14.668  1.00  0.00     0.053 C 
BRANCH   7   8
ATOM      8  C   UNL     1       8.358  18.525  14.695  1.00  0.00     0.041 C 
ATOM      9  O   UNL     1       7.492  19.354  14.308  1.00  0.00    -0.550 OA
ATOM     10  O   UNL     1       9.611  18.973  15.097  1.00  0.00    -0.550 OA
ENDBRANCH   7   8
ENDBRANCH   6   7
ENDBRANCH   5   6
ENDBRANCH   4   5
ENDBRANCH   3   4
ENDBRANCH   2   3
ENDBRANCH   1   2
BRANCH   1  11
ATOM     11  C   UNL     1      13.084  14.124  15.294  1.00  0.00     0.000 C 
BRANCH  11  12
ATOM     12  C   UNL     1      13.228  15.553  14.739  1.00  0.00    -0.000 C 
BRANCH  12  13
ATOM     13  C   UNL     1      14.475  15.704  13.839  1.00  0.00    -0.000 C 
BRANCH  13  14
ATOM     14  C   UNL     1      15.016  17.145  13.767  1.00  0.00    -0.000 C 
BRANCH  14  15
ATOM     15  C   UNL     1      14.209  18.179  14.571  1.00  0.00    -0.000 C 
BRANCH  15  16
ATOM     16  C   UNL     1      15.005  18.776  15.741  1.00  0.00    -0.000 C 
BRANCH  16  17
ATOM     17  C   UNL     1      14.065  19.408  16.773  1.00  0.00    -0.003 C 
ATOM     18  C   UNL     1      14.764  19.589  18.118  1.00  0.00     0.004 C 
ENDBRANCH  16  17
ENDBRANCH  15  16
ENDBRANCH  14  15
ENDBRANCH  13  14
ENDBRANCH  12  13
ENDBRANCH  11  12
ENDBRANCH   1  11
TORSDOF 14
ENDMDL
MODEL 9
REMARK VINA RESULT:    -4.628      3.890      6.496
REMARK INTER + INTRA:          -9.980
REMARK INTER:                  -8.049
REMARK INTRA:                  -1.931
REMARK UNBOUND:                -1.564
REMARK SMILES CCCCCCCCCCCCCCCC(=O)[O-]
REMARK SMILES IDX 9 1 10 2 11 3 12 4 13 5 14 6 15 7 16 8 17 9 18 10 8 11 7 12
REMARK SMILES IDX 6 13 5 14 4 15 3 16 2 17 1 18
REMARK H PARENT
REMARK Flexibility Score: inf
ROOT
ATOM      1  C   UNL     1       9.328  14.674  15.379  1.00  0.00     0.000 C 
ENDROOT
BRANCH   1   2
ATOM      2  C   UNL     1       9.521  15.627  14.184  1.00  0.00     0.000 C 
BRANCH   2   3
ATOM      3  C   UNL     1      10.308  14.976  13.036  1.00  0.00     0.000 C 
BRANCH   3   4
ATOM      4  C   UNL     1       9.856  15.476  11.655  1.00  0.00     0.000 C 
BRANCH   4   5
ATOM      5  C   UNL     1       9.086  16.806  11.722  1.00  0.00     0.000 C 
BRANCH   5   6
ATOM      6  C   UNL     1       7.585  16.669  11.393  1.00  0.00     0.006 C 
BRANCH   6   7
ATOM      7  C   UNL     1       6.752  17.817  11.978  1.00  0.00     0.053 C 
BRANCH   7   8
ATOM      8  C   UNL     1       6.060  18.572  10.887  1.00  0.00     0.041 C 
ATOM      9  O   UNL     1       5.272  19.514  11.170  1.00  0.00    -0.550 OA
ATOM     10  O   UNL     1       6.243  18.200   9.560  1.00  0.00    -0.550 OA
ENDBRANCH   7   8
ENDBRANCH   6   7
ENDBRANCH   5   6
ENDBRANCH   4   5
ENDBRANCH   3   4
ENDBRANCH   2   3
ENDBRANCH   1   2
BRANCH   1  11
ATOM     11  C   UNL     1      10.219  13.427  15.283  1.00  0.00     0.000 C 
BRANCH  11  12
ATOM     12  C   UNL     1      11.167  13.284  16.488  1.00  0.00    -0.000 C 
BRANCH  12  13
ATOM     13  C   UNL     1      12.490  14.053  16.281  1.00  0.00    -0.000 C 
BRANCH  13  14
ATOM     14  C   UNL     1      13.132  13.823  14.899  1.00  0.00    -0.000 C 
BRANCH  14  15
ATOM     15  C   UNL     1      13.701  15.088  14.233  1.00  0.00    -0.000 C 
BRANCH  15  16
ATOM     16  C   UNL     1      13.185  16.382  14.877  1.00  0.00    -0.000 C 
BRANCH  16  17
ATOM     17  C   UNL     1      12.975  17.471  13.818  1.00  0.00    -0.003 C 
ATOM     18  C   UNL     1      11.798  18.373  14.180  1.00  0.00     0.004 C 
ENDBRANCH  16  17
ENDBRANCH  15  16
ENDBRANCH  14  15
ENDBRANCH  13  14
ENDBRANCH  12  13
ENDBRANCH  11  12
ENDBRANCH   1  11
TORSDOF 14
ENDMDL
