MODEL 1
REMARK VINA RESULT:    -3.080      0.000      0.000
REMARK INTER + INTRA:          -8.733
REMARK INTER:                  -5.960
REMARK INTRA:                  -2.773
REMARK UNBOUND:                -2.773
REMARK SMILES CCCCCCCCCCCCCCCCCC(=O)[O-]
REMARK SMILES IDX 10 1 11 2 12 3 13 4 14 5 15 6 16 7 17 8 18 9 19 10 20 11
REMARK SMILES IDX 9 12 8 13 7 14 6 15 5 16 4 17 3 18 2 19 1 20
REMARK H PARENT
REMARK Flexibility Score: inf
ROOT
ATOM      1  C   UNL     1     167.884 169.006 152.579  1.00  0.00     0.000 C 
ENDROOT
BRANCH   1   2
ATOM      2  C   UNL     1     167.915 170.323 153.374  1.00  0.00     0.000 C 
BRANCH   2   3
ATOM      3  C   UNL     1     167.624 170.179 154.879  1.00  0.00     0.000 C 
BRANCH   3   4
ATOM      4  C   UNL     1     166.340 170.910 155.312  1.00  0.00     0.000 C 
BRANCH   4   5
ATOM      5  C   UNL     1     165.135 169.963 155.460  1.00  0.00     0.000 C 
BRANCH   5   6
ATOM      6  C   UNL     1     164.294 169.779 154.183  1.00  0.00     0.000 C 
BRANCH   6   7
ATOM      7  C   UNL     1     163.846 168.327 153.963  1.00  0.00     0.006 C 
BRANCH   7   8
ATOM      8  C   UNL     1     165.021 167.358 154.127  1.00  0.00     0.053 C 
BRANCH   8   9
ATOM      9  C   UNL     1     164.633 166.207 154.999  1.00  0.00     0.041 C 
ATOM     10  O   UNL     1     164.494 165.058 154.506  1.00  0.00    -0.550 OA
ATOM     11  O   UNL     1     164.473 166.393 156.365  1.00  0.00    -0.550 OA
ENDBRANCH   8   9
ENDBRANCH   7   8
ENDBRANCH   6   7
ENDBRANCH   5   6
ENDBRANCH   4   5
ENDBRANCH   3   4
ENDBRANCH   2   3
ENDBRANCH   1   2
BRANCH   1  12
ATOM     12  C   UNL     1     168.888 168.982 151.416  1.00  0.00     0.000 C 
BRANCH  12  13
ATOM     13  C   UNL     1     169.148 170.396 150.884  1.00  0.00    -0.000 C 
BRANCH  13  14
ATOM     14  C   UNL     1     168.372 170.646 149.583  1.00  0.00    -0.000 C 
BRANCH  14  15
ATOM     15  C   UNL     1     168.023 169.345 148.844  1.00  0.00    -0.000 C 
BRANCH  15  16
ATOM     16  C   UNL     1     166.525 169.238 148.508  1.00  0.00    -0.000 C 
BRANCH  16  17
ATOM     17  C   UNL     1     165.652 170.164 149.374  1.00  0.00    -0.000 C 
BRANCH  17  18
ATOM     18  C   UNL     1     164.852 169.453 150.480  1.00  0.00    -0.000 C 
BRANCH  18  19
ATOM     19  C   UNL     1     164.972 167.923 150.415  1.00  0.00    -0.003 C 
ATOM     20  C   UNL     1     163.595 167.268 150.356  1.00  0.00     0.004 C 
ENDBRANCH  18  19
ENDBRANCH  17  18
ENDBRANCH  16  17
ENDBRANCH  15  16
ENDBRANCH  14  15
ENDBRANCH  13  14
ENDBRANCH  12  13
ENDBRANCH   1  12
TORSDOF 16
ENDMDL
MODEL 2
REMARK VINA RESULT:    -2.999     13.276     15.358
REMARK INTER + INTRA:          -8.577
REMARK INTER:                  -5.535
REMARK INTRA:                  -3.042
REMARK UNBOUND:                -2.773
REMARK SMILES CCCCCCCCCCCCCCCCCC(=O)[O-]
REMARK SMILES IDX 10 1 11 2 12 3 13 4 14 5 15 6 16 7 17 8 18 9 19 10 20 11
REMARK SMILES IDX 9 12 8 13 7 14 6 15 5 16 4 17 3 18 2 19 1 20
REMARK H PARENT
REMARK Flexibility Score: inf
ROOT
ATOM      1  C   UNL     1     171.256 151.694 153.941  1.00  0.00     0.000 C 
ENDROOT
BRANCH   1   2
ATOM      2  C   UNL     1     171.312 151.431 155.457  1.00  0.00     0.000 C 
BRANCH   2   3
ATOM      3  C   UNL     1     170.717 152.548 156.331  1.00  0.00     0.000 C 
BRANCH   3   4
ATOM      4  C   UNL     1     171.790 153.354 157.085  1.00  0.00     0.000 C 
BRANCH   4   5
ATOM      5  C   UNL     1     171.655 154.873 156.874  1.00  0.00     0.000 C 
BRANCH   5   6
ATOM      6  C   UNL     1     172.406 155.427 155.649  1.00  0.00     0.000 C 
BRANCH   6   7
ATOM      7  C   UNL     1     172.217 156.940 155.462  1.00  0.00     0.006 C 
BRANCH   7   8
ATOM      8  C   UNL     1     171.088 157.467 156.352  1.00  0.00     0.053 C 
BRANCH   8   9
ATOM      9  C   UNL     1     170.119 158.272 155.546  1.00  0.00     0.041 C 
ATOM     10  O   UNL     1     170.109 158.180 154.291  1.00  0.00    -0.550 OA
ATOM     11  O   UNL     1     169.193 159.087 156.183  1.00  0.00    -0.550 OA
ENDBRANCH   8   9
ENDBRANCH   7   8
ENDBRANCH   6   7
ENDBRANCH   5   6
ENDBRANCH   4   5
ENDBRANCH   3   4
ENDBRANCH   2   3
ENDBRANCH   1   2
BRANCH   1  12
ATOM     12  C   UNL     1     172.432 152.540 153.433  1.00  0.00     0.000 C 
BRANCH  12  13
ATOM     13  C   UNL     1     172.624 152.365 151.922  1.00  0.00    -0.000 C 
BRANCH  13  14
ATOM     14  C   UNL     1     172.320 153.671 151.173  1.00  0.00    -0.000 C 
BRANCH  14  15
ATOM     15  C   UNL     1     172.706 154.919 151.982  1.00  0.00    -0.000 C 
BRANCH  15  16
ATOM     16  C   UNL     1     171.646 156.031 151.895  1.00  0.00    -0.000 C 
BRANCH  16  17
ATOM     17  C   UNL     1     170.309 155.538 151.313  1.00  0.00    -0.000 C 
BRANCH  17  18
ATOM     18  C   UNL     1     169.132 155.537 152.304  1.00  0.00    -0.000 C 
BRANCH  18  19
ATOM     19  C   UNL     1     169.430 154.749 153.587  1.00  0.00    -0.003 C 
ATOM     20  C   UNL     1     168.417 155.076 154.680  1.00  0.00     0.004 C 
ENDBRANCH  18  19
ENDBRANCH  17  18
ENDBRANCH  16  17
ENDBRANCH  15  16
ENDBRANCH  14  15
ENDBRANCH  13  14
ENDBRANCH  12  13
ENDBRANCH   1  12
TORSDOF 16
ENDMDL
MODEL 3
REMARK VINA RESULT:    -2.941      1.187      2.134
REMARK INTER + INTRA:          -8.465
REMARK INTER:                  -5.502
REMARK INTRA:                  -2.962
REMARK UNBOUND:                -2.773
REMARK SMILES CCCCCCCCCCCCCCCCCC(=O)[O-]
REMARK SMILES IDX 10 1 11 2 12 3 13 4 14 5 15 6 16 7 17 8 18 9 19 10 20 11
REMARK SMILES IDX 9 12 8 13 7 14 6 15 5 16 4 17 3 18 2 19 1 20
REMARK H PARENT
REMARK Flexibility Score: inf
ROOT
ATOM      1  C   UNL     1     168.403 169.341 151.973  1.00  0.00     0.000 C 
ENDROOT
BRANCH   1   2
ATOM      2  C   UNL     1     168.290 170.564 152.901  1.00  0.00     0.000 C 
BRANCH   2   3
ATOM      3  C   UNL     1     167.654 170.281 154.274  1.00  0.00     0.000 C 
BRANCH   3   4
ATOM      4  C   UNL     1     166.384 171.113 154.527  1.00  0.00     0.000 C 
BRANCH   4   5
ATOM      5  C   UNL     1     165.136 170.242 154.763  1.00  0.00     0.000 C 
BRANCH   5   6
ATOM      6  C   UNL     1     165.421 168.842 155.338  1.00  0.00     0.000 C 
BRANCH   6   7
ATOM      7  C   UNL     1     164.819 167.711 154.490  1.00  0.00     0.006 C 
BRANCH   7   8
ATOM      8  C   UNL     1     165.905 166.989 153.688  1.00  0.00     0.053 C 
BRANCH   8   9
ATOM      9  C   UNL     1     165.816 165.510 153.898  1.00  0.00     0.041 C 
ATOM     10  O   UNL     1     165.235 165.049 154.915  1.00  0.00    -0.550 OA
ATOM     11  O   UNL     1     166.331 164.640 152.947  1.00  0.00    -0.550 OA
ENDBRANCH   8   9
ENDBRANCH   7   8
ENDBRANCH   6   7
ENDBRANCH   5   6
ENDBRANCH   4   5
ENDBRANCH   3   4
ENDBRANCH   2   3
ENDBRANCH   1   2
BRANCH   1  12
ATOM     12  C   UNL     1     168.292 169.702 150.485  1.00  0.00     0.000 C 
BRANCH  12  13
ATOM     13  C   UNL     1     167.487 170.993 150.290  1.00  0.00    -0.000 C 
BRANCH  13  14
ATOM     14  C   UNL     1     166.083 170.690 149.747  1.00  0.00    -0.000 C 
BRANCH  14  15
ATOM     15  C   UNL     1     165.002 170.750 150.838  1.00  0.00    -0.000 C 
BRANCH  15  16
ATOM     16  C   UNL     1     164.513 169.354 151.263  1.00  0.00    -0.000 C 
BRANCH  16  17
ATOM     17  C   UNL     1     164.902 168.254 150.259  1.00  0.00    -0.000 C 
BRANCH  17  18
ATOM     18  C   UNL     1     163.878 167.114 150.118  1.00  0.00    -0.000 C 
BRANCH  18  19
ATOM     19  C   UNL     1     162.753 167.187 151.161  1.00  0.00    -0.003 C 
ATOM     20  C   UNL     1     162.701 165.915 152.000  1.00  0.00     0.004 C 
ENDBRANCH  18  19
ENDBRANCH  17  18
ENDBRANCH  16  17
ENDBRANCH  15  16
ENDBRANCH  14  15
ENDBRANCH  13  14
ENDBRANCH  12  13
ENDBRANCH   1  12
TORSDOF 16
ENDMDL
MODEL 4
REMARK VINA RESULT:    -2.921     13.674     16.046
REMARK INTER + INTRA:          -8.426
REMARK INTER:                  -5.752
REMARK INTRA:                  -2.674
REMARK UNBOUND:                -2.773
REMARK SMILES CCCCCCCCCCCCCCCCCC(=O)[O-]
REMARK SMILES IDX 10 1 11 2 12 3 13 4 14 5 15 6 16 7 17 8 18 9 19 10 20 11
REMARK SMILES IDX 9 12 8 13 7 14 6 15 5 16 4 17 3 18 2 19 1 20
REMARK H PARENT
REMARK Flexibility Score: inf
ROOT
ATOM      1  C   UNL     1     171.162 154.932 155.938  1.00  0.00     0.000 C 
ENDROOT
BRANCH   1   2
ATOM      2  C   UNL     1     172.662 155.088 155.631  1.00  0.00     0.000 C 
BRANCH   2   3
ATOM      3  C   UNL     1     173.018 155.115 154.133  1.00  0.00     0.000 C 
BRANCH   3   4
ATOM      4  C   UNL     1     172.283 156.227 153.364  1.00  0.00     0.000 C 
BRANCH   4   5
ATOM      5  C   UNL     1     172.017 155.861 151.892  1.00  0.00     0.000 C 
BRANCH   5   6
ATOM      6  C   UNL     1     170.553 156.008 151.441  1.00  0.00     0.000 C 
BRANCH   6   7
ATOM      7  C   UNL     1     169.551 155.870 152.597  1.00  0.00     0.006 C 
BRANCH   7   8
ATOM      8  C   UNL     1     168.334 156.774 152.381  1.00  0.00     0.053 C 
BRANCH   8   9
ATOM      9  C   UNL     1     168.728 158.214 152.480  1.00  0.00     0.041 C 
ATOM     10  O   UNL     1     169.185 158.673 153.558  1.00  0.00    -0.550 OA
ATOM     11  O   UNL     1     168.636 159.037 151.366  1.00  0.00    -0.550 OA
ENDBRANCH   8   9
ENDBRANCH   7   8
ENDBRANCH   6   7
ENDBRANCH   5   6
ENDBRANCH   4   5
ENDBRANCH   3   4
ENDBRANCH   2   3
ENDBRANCH   1   2
BRANCH   1  12
ATOM     12  C   UNL     1     170.857 153.740 156.858  1.00  0.00     0.000 C 
BRANCH  12  13
ATOM     13  C   UNL     1     172.113 152.893 157.095  1.00  0.00    -0.000 C 
BRANCH  13  14
ATOM     14  C   UNL     1     172.062 151.593 156.279  1.00  0.00    -0.000 C 
BRANCH  14  15
ATOM     15  C   UNL     1     170.669 151.320 155.690  1.00  0.00    -0.000 C 
BRANCH  15  16
ATOM     16  C   UNL     1     170.703 151.106 154.167  1.00  0.00    -0.000 C 
BRANCH  16  17
ATOM     17  C   UNL     1     170.675 152.427 153.377  1.00  0.00    -0.000 C 
BRANCH  17  18
ATOM     18  C   UNL     1     170.434 152.274 151.865  1.00  0.00    -0.000 C 
BRANCH  18  19
ATOM     19  C   UNL     1     171.648 151.700 151.121  1.00  0.00    -0.003 C 
ATOM     20  C   UNL     1     172.935 152.395 151.555  1.00  0.00     0.004 C 
ENDBRANCH  18  19
ENDBRANCH  17  18
ENDBRANCH  16  17
ENDBRANCH  15  16
ENDBRANCH  14  15
ENDBRANCH  13  14
ENDBRANCH  12  13
ENDBRANCH   1  12
TORSDOF 16
ENDMDL
MODEL 5
REMARK VINA RESULT:    -2.872      8.654     10.744
REMARK INTER + INTRA:          -8.331
REMARK INTER:                  -5.126
REMARK INTRA:                  -3.205
REMARK UNBOUND:                -2.773
REMARK SMILES CCCCCCCCCCCCCCCCCC(=O)[O-]
REMARK SMILES IDX 10 1 11 2 12 3 13 4 14 5 15 6 16 7 17 8 18 9 19 10 20 11
REMARK SMILES IDX 9 12 8 13 7 14 6 15 5 16 4 17 3 18 2 19 1 20
REMARK H PARENT
REMARK Flexibility Score: inf
ROOT
ATOM      1  C   UNL     1     172.630 165.805 144.352  1.00  0.00     0.000 C 
ENDROOT
BRANCH   1   2
ATOM      2  C   UNL     1     172.693 165.119 142.975  1.00  0.00     0.000 C 
BRANCH   2   3
ATOM      3  C   UNL     1     172.768 163.582 143.019  1.00  0.00     0.000 C 
BRANCH   3   4
ATOM      4  C   UNL     1     171.416 162.910 142.722  1.00  0.00     0.000 C 
BRANCH   4   5
ATOM      5  C   UNL     1     170.816 162.204 143.952  1.00  0.00     0.000 C 
BRANCH   5   6
ATOM      6  C   UNL     1     171.766 161.225 144.666  1.00  0.00     0.000 C 
BRANCH   6   7
ATOM      7  C   UNL     1     171.506 161.130 146.177  1.00  0.00     0.006 C 
BRANCH   7   8
ATOM      8  C   UNL     1     170.013 160.945 146.466  1.00  0.00     0.053 C 
BRANCH   8   9
ATOM      9  C   UNL     1     169.711 161.282 147.892  1.00  0.00     0.041 C 
ATOM     10  O   UNL     1     168.645 161.882 148.188  1.00  0.00    -0.550 OA
ATOM     11  O   UNL     1     170.583 160.891 148.899  1.00  0.00    -0.550 OA
ENDBRANCH   8   9
ENDBRANCH   7   8
ENDBRANCH   6   7
ENDBRANCH   5   6
ENDBRANCH   4   5
ENDBRANCH   3   4
ENDBRANCH   2   3
ENDBRANCH   1   2
BRANCH   1  12
ATOM     12  C   UNL     1     173.067 164.886 145.502  1.00  0.00     0.000 C 
BRANCH  12  13
ATOM     13  C   UNL     1     171.985 164.809 146.586  1.00  0.00    -0.000 C 
BRANCH  13  14
ATOM     14  C   UNL     1     170.719 165.563 146.155  1.00  0.00    -0.000 C 
BRANCH  14  15
ATOM     15  C   UNL     1     169.453 164.698 146.260  1.00  0.00    -0.000 C 
BRANCH  15  16
ATOM     16  C   UNL     1     168.391 165.075 145.212  1.00  0.00    -0.000 C 
BRANCH  16  17
ATOM     17  C   UNL     1     169.002 165.426 143.843  1.00  0.00    -0.000 C 
BRANCH  17  18
ATOM     18  C   UNL     1     168.575 166.790 143.273  1.00  0.00    -0.000 C 
BRANCH  18  19
ATOM     19  C   UNL     1     169.704 167.831 143.304  1.00  0.00    -0.003 C 
ATOM     20  C   UNL     1     170.399 167.925 141.950  1.00  0.00     0.004 C 
ENDBRANCH  18  19
ENDBRANCH  17  18
ENDBRANCH  16  17
ENDBRANCH  15  16
ENDBRANCH  14  15
ENDBRANCH  13  14
ENDBRANCH  12  13
ENDBRANCH   1  12
TORSDOF 16
ENDMDL
MODEL 6
REMARK VINA RESULT:    -2.858      2.086      2.820
REMARK INTER + INTRA:          -8.305
REMARK INTER:                  -5.844
REMARK INTRA:                  -2.461
REMARK UNBOUND:                -2.773
REMARK SMILES CCCCCCCCCCCCCCCCCC(=O)[O-]
REMARK SMILES IDX 10 1 11 2 12 3 13 4 14 5 15 6 16 7 17 8 18 9 19 10 20 11
REMARK SMILES IDX 9 12 8 13 7 14 6 15 5 16 4 17 3 18 2 19 1 20
REMARK H PARENT
REMARK Flexibility Score: inf
ROOT
ATOM      1  C   UNL     1     167.917 169.312 152.478  1.00  0.00     0.000 C 
ENDROOT
BRANCH   1   2
ATOM      2  C   UNL     1     167.969 170.388 153.577  1.00  0.00     0.000 C 
BRANCH   2   3
ATOM      3  C   UNL     1     167.556 169.905 154.978  1.00  0.00     0.000 C 
BRANCH   3   4
ATOM      4  C   UNL     1     166.328 170.650 155.530  1.00  0.00     0.000 C 
BRANCH   4   5
ATOM      5  C   UNL     1     165.042 170.355 154.735  1.00  0.00     0.000 C 
BRANCH   5   6
ATOM      6  C   UNL     1     164.710 168.860 154.571  1.00  0.00     0.000 C 
BRANCH   6   7
ATOM      7  C   UNL     1     164.070 168.533 153.214  1.00  0.00     0.006 C 
BRANCH   7   8
ATOM      8  C   UNL     1     163.069 169.616 152.803  1.00  0.00     0.053 C 
BRANCH   8   9
ATOM      9  C   UNL     1     161.731 169.354 153.418  1.00  0.00     0.041 C 
ATOM     10  O   UNL     1     161.367 169.992 154.440  1.00  0.00    -0.550 OA
ATOM     11  O   UNL     1     160.864 168.440 152.833  1.00  0.00    -0.550 OA
ENDBRANCH   8   9
ENDBRANCH   7   8
ENDBRANCH   6   7
ENDBRANCH   5   6
ENDBRANCH   4   5
ENDBRANCH   3   4
ENDBRANCH   2   3
ENDBRANCH   1   2
BRANCH   1  12
ATOM     12  C   UNL     1     167.547 169.878 151.099  1.00  0.00     0.000 C 
BRANCH  12  13
ATOM     13  C   UNL     1     166.302 170.768 151.185  1.00  0.00    -0.000 C 
BRANCH  13  14
ATOM     14  C   UNL     1     165.320 170.456 150.046  1.00  0.00    -0.000 C 
BRANCH  14  15
ATOM     15  C   UNL     1     165.985 169.700 148.885  1.00  0.00    -0.000 C 
BRANCH  15  16
ATOM     16  C   UNL     1     165.238 168.406 148.517  1.00  0.00    -0.000 C 
BRANCH  16  17
ATOM     17  C   UNL     1     164.732 167.637 149.751  1.00  0.00    -0.000 C 
BRANCH  17  18
ATOM     18  C   UNL     1     164.127 166.255 149.451  1.00  0.00    -0.000 C 
BRANCH  18  19
ATOM     19  C   UNL     1     162.670 166.330 148.972  1.00  0.00    -0.003 C 
ATOM     20  C   UNL     1     161.704 166.328 150.152  1.00  0.00     0.004 C 
ENDBRANCH  18  19
ENDBRANCH  17  18
ENDBRANCH  16  17
ENDBRANCH  15  16
ENDBRANCH  14  15
ENDBRANCH  13  14
ENDBRANCH  12  13
ENDBRANCH   1  12
TORSDOF 16
ENDMDL
MODEL 7
REMARK VINA RESULT:    -2.841      1.458      4.736
REMARK INTER + INTRA:          -8.271
REMARK INTER:                  -5.434
REMARK INTRA:                  -2.837
REMARK UNBOUND:                -2.773
REMARK SMILES CCCCCCCCCCCCCCCCCC(=O)[O-]
REMARK SMILES IDX 10 1 11 2 12 3 13 4 14 5 15 6 16 7 17 8 18 9 19 10 20 11
REMARK SMILES IDX 9 12 8 13 7 14 6 15 5 16 4 17 3 18 2 19 1 20
REMARK H PARENT
REMARK Flexibility Score: inf
ROOT
ATOM      1  C   UNL     1     165.807 168.708 149.414  1.00  0.00     0.000 C 
ENDROOT
BRANCH   1   2
ATOM      2  C   UNL     1     164.862 167.848 148.555  1.00  0.00     0.000 C 
BRANCH   2   3
ATOM      3  C   UNL     1     164.455 166.505 149.187  1.00  0.00     0.000 C 
BRANCH   3   4
ATOM      4  C   UNL     1     163.280 166.639 150.172  1.00  0.00     0.000 C 
BRANCH   4   5
ATOM      5  C   UNL     1     163.701 166.418 151.637  1.00  0.00     0.000 C 
BRANCH   5   6
ATOM      6  C   UNL     1     165.121 165.853 151.826  1.00  0.00     0.000 C 
BRANCH   6   7
ATOM      7  C   UNL     1     165.854 166.463 153.030  1.00  0.00     0.006 C 
BRANCH   7   8
ATOM      8  C   UNL     1     164.991 166.394 154.292  1.00  0.00     0.053 C 
BRANCH   8   9
ATOM      9  C   UNL     1     165.029 165.019 154.878  1.00  0.00     0.041 C 
ATOM     10  O   UNL     1     166.112 164.380 154.926  1.00  0.00    -0.550 OA
ATOM     11  O   UNL     1     163.877 164.460 155.417  1.00  0.00    -0.550 OA
ENDBRANCH   8   9
ENDBRANCH   7   8
ENDBRANCH   6   7
ENDBRANCH   5   6
ENDBRANCH   4   5
ENDBRANCH   3   4
ENDBRANCH   2   3
ENDBRANCH   1   2
BRANCH   1  12
ATOM     12  C   UNL     1     165.544 170.215 149.273  1.00  0.00     0.000 C 
BRANCH  12  13
ATOM     13  C   UNL     1     164.825 170.766 150.509  1.00  0.00    -0.000 C 
BRANCH  13  14
ATOM     14  C   UNL     1     164.778 169.719 151.631  1.00  0.00    -0.000 C 
BRANCH  14  15
ATOM     15  C   UNL     1     164.259 170.297 152.957  1.00  0.00    -0.000 C 
BRANCH  15  16
ATOM     16  C   UNL     1     165.210 170.022 154.135  1.00  0.00    -0.000 C 
BRANCH  16  17
ATOM     17  C   UNL     1     166.429 170.961 154.150  1.00  0.00    -0.000 C 
BRANCH  17  18
ATOM     18  C   UNL     1     167.785 170.268 153.933  1.00  0.00    -0.000 C 
BRANCH  18  19
ATOM     19  C   UNL     1     168.271 170.346 152.478  1.00  0.00    -0.003 C 
ATOM     20  C   UNL     1     168.466 168.952 151.890  1.00  0.00     0.004 C 
ENDBRANCH  18  19
ENDBRANCH  17  18
ENDBRANCH  16  17
ENDBRANCH  15  16
ENDBRANCH  14  15
ENDBRANCH  13  14
ENDBRANCH  12  13
ENDBRANCH   1  12
TORSDOF 16
ENDMDL
MODEL 8
REMARK VINA RESULT:    -2.814      3.017      5.592
REMARK INTER + INTRA:          -8.220
REMARK INTER:                  -5.871
REMARK INTRA:                  -2.349
REMARK UNBOUND:                -2.773
REMARK SMILES CCCCCCCCCCCCCCCCCC(=O)[O-]
REMARK SMILES IDX 10 1 11 2 12 3 13 4 14 5 15 6 16 7 17 8 18 9 19 10 20 11
REMARK SMILES IDX 9 12 8 13 7 14 6 15 5 16 4 17 3 18 2 19 1 20
REMARK H PARENT
REMARK Flexibility Score: inf
ROOT
ATOM      1  C   UNL     1     165.047 169.581 152.873  1.00  0.00     0.000 C 
ENDROOT
BRANCH   1   2
ATOM      2  C   UNL     1     164.285 170.517 151.917  1.00  0.00     0.000 C 
BRANCH   2   3
ATOM      3  C   UNL     1     165.136 171.125 150.789  1.00  0.00     0.000 C 
BRANCH   3   4
ATOM      4  C   UNL     1     165.882 170.062 149.963  1.00  0.00     0.000 C 
BRANCH   4   5
ATOM      5  C   UNL     1     164.937 169.207 149.097  1.00  0.00     0.000 C 
BRANCH   5   6
ATOM      6  C   UNL     1     164.866 167.720 149.489  1.00  0.00     0.000 C 
BRANCH   6   7
ATOM      7  C   UNL     1     164.194 166.848 148.418  1.00  0.00     0.006 C 
BRANCH   7   8
ATOM      8  C   UNL     1     164.960 166.917 147.093  1.00  0.00     0.053 C 
BRANCH   8   9
ATOM      9  C   UNL     1     165.986 165.831 147.024  1.00  0.00     0.041 C 
ATOM     10  O   UNL     1     165.811 164.754 147.649  1.00  0.00    -0.550 OA
ATOM     11  O   UNL     1     167.114 165.990 146.230  1.00  0.00    -0.550 OA
ENDBRANCH   8   9
ENDBRANCH   7   8
ENDBRANCH   6   7
ENDBRANCH   5   6
ENDBRANCH   4   5
ENDBRANCH   3   4
ENDBRANCH   2   3
ENDBRANCH   1   2
BRANCH   1  12
ATOM     12  C   UNL     1     165.914 170.336 153.891  1.00  0.00     0.000 C 
BRANCH  12  13
ATOM     13  C   UNL     1     167.382 169.904 153.793  1.00  0.00    -0.000 C 
BRANCH  13  14
ATOM     14  C   UNL     1     168.258 171.045 153.257  1.00  0.00    -0.000 C 
BRANCH  14  15
ATOM     15  C   UNL     1     168.855 170.733 151.875  1.00  0.00    -0.000 C 
BRANCH  15  16
ATOM     16  C   UNL     1     168.885 169.225 151.572  1.00  0.00    -0.000 C 
BRANCH  16  17
ATOM     17  C   UNL     1     169.784 168.876 150.372  1.00  0.00    -0.000 C 
BRANCH  17  18
ATOM     18  C   UNL     1     169.377 169.535 149.043  1.00  0.00    -0.000 C 
BRANCH  18  19
ATOM     19  C   UNL     1     168.694 168.557 148.075  1.00  0.00    -0.003 C 
ATOM     20  C   UNL     1     168.625 169.139 146.667  1.00  0.00     0.004 C 
ENDBRANCH  18  19
ENDBRANCH  17  18
ENDBRANCH  16  17
ENDBRANCH  15  16
ENDBRANCH  14  15
ENDBRANCH  13  14
ENDBRANCH  12  13
ENDBRANCH   1  12
TORSDOF 16
ENDMDL
MODEL 9
REMARK VINA RESULT:    -2.805     13.733     15.585
REMARK INTER + INTRA:          -8.203
REMARK INTER:                  -5.112
REMARK INTRA:                  -3.091
REMARK UNBOUND:                -2.773
REMARK SMILES CCCCCCCCCCCCCCCCCC(=O)[O-]
REMARK SMILES IDX 10 1 11 2 12 3 13 4 14 5 15 6 16 7 17 8 18 9 19 10 20 11
REMARK SMILES IDX 9 12 8 13 7 14 6 15 5 16 4 17 3 18 2 19 1 20
REMARK H PARENT
REMARK Flexibility Score: inf
ROOT
ATOM      1  C   UNL     1     170.672 156.215 153.315  1.00  0.00     0.000 C 
ENDROOT
BRANCH   1   2
ATOM      2  C   UNL     1     170.093 157.576 153.744  1.00  0.00     0.000 C 
BRANCH   2   3
ATOM      3  C   UNL     1     170.378 157.970 155.204  1.00  0.00     0.000 C 
BRANCH   3   4
ATOM      4  C   UNL     1     171.552 157.185 155.818  1.00  0.00     0.000 C 
BRANCH   4   5
ATOM      5  C   UNL     1     171.171 156.465 157.125  1.00  0.00     0.000 C 
BRANCH   5   6
ATOM      6  C   UNL     1     170.124 155.347 156.969  1.00  0.00     0.000 C 
BRANCH   6   7
ATOM      7  C   UNL     1     170.747 153.982 156.645  1.00  0.00     0.006 C 
BRANCH   7   8
ATOM      8  C   UNL     1     169.948 153.256 155.559  1.00  0.00     0.053 C 
BRANCH   8   9
ATOM      9  C   UNL     1     169.817 151.803 155.887  1.00  0.00     0.041 C 
ATOM     10  O   UNL     1     168.709 151.334 156.255  1.00  0.00    -0.550 OA
ATOM     11  O   UNL     1     170.907 150.956 155.738  1.00  0.00    -0.550 OA
ENDBRANCH   8   9
ENDBRANCH   7   8
ENDBRANCH   6   7
ENDBRANCH   5   6
ENDBRANCH   4   5
ENDBRANCH   3   4
ENDBRANCH   2   3
ENDBRANCH   1   2
BRANCH   1  12
ATOM     12  C   UNL     1     171.569 156.308 152.072  1.00  0.00     0.000 C 
BRANCH  12  13
ATOM     13  C   UNL     1     172.770 155.363 152.188  1.00  0.00    -0.000 C 
BRANCH  13  14
ATOM     14  C   UNL     1     172.853 154.748 153.593  1.00  0.00    -0.000 C 
BRANCH  14  15
ATOM     15  C   UNL     1     173.024 153.221 153.560  1.00  0.00    -0.000 C 
BRANCH  15  16
ATOM     16  C   UNL     1     172.632 152.611 152.202  1.00  0.00    -0.000 C 
BRANCH  16  17
ATOM     17  C   UNL     1     171.331 151.792 152.269  1.00  0.00    -0.000 C 
BRANCH  17  18
ATOM     18  C   UNL     1     170.054 152.573 151.913  1.00  0.00    -0.000 C 
BRANCH  18  19
ATOM     19  C   UNL     1     170.149 153.290 150.558  1.00  0.00    -0.003 C 
ATOM     20  C   UNL     1     168.973 154.240 150.357  1.00  0.00     0.004 C 
ENDBRANCH  18  19
ENDBRANCH  17  18
ENDBRANCH  16  17
ENDBRANCH  15  16
ENDBRANCH  14  15
ENDBRANCH  13  14
ENDBRANCH  12  13
ENDBRANCH   1  12
TORSDOF 16
ENDMDL
