MODEL 1
REMARK VINA RESULT:    -3.871      0.000      0.000
REMARK INTER + INTRA:         -12.321
REMARK INTER:                  -8.396
REMARK INTRA:                  -3.925
REMARK UNBOUND:                -3.925
REMARK SMILES CCCCCCCCCCCCCCCCCCCCCC(=O)[O-]
REMARK SMILES IDX 12 1 11 2 10 3 9 4 8 5 7 6 6 7 5 8 4 9 3 10 2 11 1 12 13 13
REMARK SMILES IDX 14 14 15 15 16 16 17 17 18 18 19 19 20 20 21 21 22 22 23 23
REMARK SMILES IDX 24 24
REMARK H PARENT
REMARK Flexibility Score: inf
ROOT
ATOM      1  C   UNL     1      18.317   1.358  60.294  1.00  0.00     0.000 C 
ENDROOT
BRANCH   1   2
ATOM      2  C   UNL     1      17.144   1.759  61.207  1.00  0.00     0.000 C 
BRANCH   2   3
ATOM      3  C   UNL     1      16.459   0.555  61.870  1.00  0.00     0.000 C 
BRANCH   3   4
ATOM      4  C   UNL     1      14.935   0.646  61.739  1.00  0.00    -0.000 C 
BRANCH   4   5
ATOM      5  C   UNL     1      14.313  -0.751  61.591  1.00  0.00    -0.000 C 
BRANCH   5   6
ATOM      6  C   UNL     1      14.863  -1.523  60.380  1.00  0.00    -0.000 C 
BRANCH   6   7
ATOM      7  C   UNL     1      15.616  -2.802  60.787  1.00  0.00    -0.000 C 
BRANCH   7   8
ATOM      8  C   UNL     1      15.438  -3.154  62.276  1.00  0.00    -0.000 C 
BRANCH   8   9
ATOM      9  C   UNL     1      16.747  -3.376  63.055  1.00  0.00    -0.000 C 
BRANCH   9  10
ATOM     10  C   UNL     1      17.995  -3.314  62.158  1.00  0.00    -0.000 C 
BRANCH  10  11
ATOM     11  C   UNL     1      18.955  -2.185  62.562  1.00  0.00    -0.003 C 
ATOM     12  C   UNL     1      20.278  -2.232  61.796  1.00  0.00     0.004 C 
ENDBRANCH  10  11
ENDBRANCH   9  10
ENDBRANCH   8   9
ENDBRANCH   7   8
ENDBRANCH   6   7
ENDBRANCH   5   6
ENDBRANCH   4   5
ENDBRANCH   3   4
ENDBRANCH   2   3
ENDBRANCH   1   2
BRANCH   1  13
ATOM     13  C   UNL     1      18.197  -0.035  59.648  1.00  0.00     0.000 C 
BRANCH  13  14
ATOM     14  C   UNL     1      19.242  -0.277  58.545  1.00  0.00     0.000 C 
BRANCH  14  15
ATOM     15  C   UNL     1      18.617  -0.321  57.141  1.00  0.00     0.000 C 
BRANCH  15  16
ATOM     16  C   UNL     1      17.218  -0.954  57.131  1.00  0.00     0.000 C 
BRANCH  16  17
ATOM     17  C   UNL     1      16.188   0.001  56.510  1.00  0.00     0.000 C 
BRANCH  17  18
ATOM     18  C   UNL     1      14.932   0.166  57.381  1.00  0.00     0.000 C 
BRANCH  18  19
ATOM     19  C   UNL     1      14.930   1.481  58.175  1.00  0.00     0.000 C 
BRANCH  19  20
ATOM     20  C   UNL     1      15.998   2.448  57.641  1.00  0.00     0.006 C 
BRANCH  20  21
ATOM     21  C   UNL     1      15.445   3.863  57.427  1.00  0.00     0.053 C 
BRANCH  21  22
ATOM     22  C   UNL     1      15.906   4.807  58.495  1.00  0.00     0.041 C 
ATOM     23  O   UNL     1      15.595   4.603  59.698  1.00  0.00    -0.550 OA
ATOM     24  O   UNL     1      16.707   5.892  58.166  1.00  0.00    -0.550 OA
ENDBRANCH  21  22
ENDBRANCH  20  21
ENDBRANCH  19  20
ENDBRANCH  18  19
ENDBRANCH  17  18
ENDBRANCH  16  17
ENDBRANCH  15  16
ENDBRANCH  14  15
ENDBRANCH  13  14
ENDBRANCH   1  13
TORSDOF 20
ENDMDL
MODEL 2
REMARK VINA RESULT:    -3.816      2.959      6.697
REMARK INTER + INTRA:         -12.201
REMARK INTER:                  -8.510
REMARK INTRA:                  -3.691
REMARK UNBOUND:                -3.925
REMARK SMILES CCCCCCCCCCCCCCCCCCCCCC(=O)[O-]
REMARK SMILES IDX 12 1 11 2 10 3 9 4 8 5 7 6 6 7 5 8 4 9 3 10 2 11 1 12 13 13
REMARK SMILES IDX 14 14 15 15 16 16 17 17 18 18 19 19 20 20 21 21 22 22 23 23
REMARK SMILES IDX 24 24
REMARK H PARENT
REMARK Flexibility Score: inf
ROOT
ATOM      1  C   UNL     1      17.557   2.067  61.067  1.00  0.00     0.000 C 
ENDROOT
BRANCH   1   2
ATOM      2  C   UNL     1      18.509   1.492  60.001  1.00  0.00     0.000 C 
BRANCH   2   3
ATOM      3  C   UNL     1      18.757  -0.014  60.167  1.00  0.00     0.000 C 
BRANCH   3   4
ATOM      4  C   UNL     1      18.517  -0.761  58.850  1.00  0.00    -0.000 C 
BRANCH   4   5
ATOM      5  C   UNL     1      17.027  -1.090  58.670  1.00  0.00    -0.000 C 
BRANCH   5   6
ATOM      6  C   UNL     1      16.513  -0.770  57.256  1.00  0.00    -0.000 C 
BRANCH   6   7
ATOM      7  C   UNL     1      17.655  -0.558  56.247  1.00  0.00    -0.000 C 
BRANCH   7   8
ATOM      8  C   UNL     1      17.565   0.796  55.517  1.00  0.00    -0.000 C 
BRANCH   8   9
ATOM      9  C   UNL     1      17.847   2.030  56.394  1.00  0.00    -0.000 C 
BRANCH   9  10
ATOM     10  C   UNL     1      16.853   3.178  56.149  1.00  0.00    -0.000 C 
BRANCH  10  11
ATOM     11  C   UNL     1      16.098   3.585  57.424  1.00  0.00    -0.003 C 
ATOM     12  C   UNL     1      15.307   2.429  58.036  1.00  0.00     0.004 C 
ENDBRANCH  10  11
ENDBRANCH   9  10
ENDBRANCH   8   9
ENDBRANCH   7   8
ENDBRANCH   6   7
ENDBRANCH   5   6
ENDBRANCH   4   5
ENDBRANCH   3   4
ENDBRANCH   2   3
ENDBRANCH   1   2
BRANCH   1  13
ATOM     13  C   UNL     1      16.742   1.020  61.849  1.00  0.00     0.000 C 
BRANCH  13  14
ATOM     14  C   UNL     1      15.226   1.273  61.789  1.00  0.00     0.000 C 
BRANCH  14  15
ATOM     15  C   UNL     1      14.483   0.205  60.968  1.00  0.00     0.000 C 
BRANCH  15  16
ATOM     16  C   UNL     1      13.405  -0.526  61.781  1.00  0.00     0.000 C 
BRANCH  16  17
ATOM     17  C   UNL     1      13.854  -1.954  62.128  1.00  0.00     0.000 C 
BRANCH  17  18
ATOM     18  C   UNL     1      14.740  -2.578  61.037  1.00  0.00     0.000 C 
BRANCH  18  19
ATOM     19  C   UNL     1      15.513  -3.808  61.534  1.00  0.00     0.000 C 
BRANCH  19  20
ATOM     20  C   UNL     1      16.405  -3.451  62.733  1.00  0.00     0.006 C 
BRANCH  20  21
ATOM     21  C   UNL     1      17.610  -2.594  62.326  1.00  0.00     0.053 C 
BRANCH  21  22
ATOM     22  C   UNL     1      18.856  -3.416  62.192  1.00  0.00     0.041 C 
ATOM     23  O   UNL     1      18.788  -4.673  62.187  1.00  0.00    -0.550 OA
ATOM     24  O   UNL     1      20.086  -2.792  62.037  1.00  0.00    -0.550 OA
ENDBRANCH  21  22
ENDBRANCH  20  21
ENDBRANCH  19  20
ENDBRANCH  18  19
ENDBRANCH  17  18
ENDBRANCH  16  17
ENDBRANCH  15  16
ENDBRANCH  14  15
ENDBRANCH  13  14
ENDBRANCH   1  13
TORSDOF 20
ENDMDL
MODEL 3
REMARK VINA RESULT:    -3.736      4.006      7.845
REMARK INTER + INTRA:         -12.030
REMARK INTER:                  -9.047
REMARK INTRA:                  -2.983
REMARK UNBOUND:                -3.925
REMARK SMILES CCCCCCCCCCCCCCCCCCCCCC(=O)[O-]
REMARK SMILES IDX 12 1 11 2 10 3 9 4 8 5 7 6 6 7 5 8 4 9 3 10 2 11 1 12 13 13
REMARK SMILES IDX 14 14 15 15 16 16 17 17 18 18 19 19 20 20 21 21 22 22 23 23
REMARK SMILES IDX 24 24
REMARK H PARENT
REMARK Flexibility Score: inf
ROOT
ATOM      1  C   UNL     1      15.777   2.576  58.411  1.00  0.00     0.000 C 
ENDROOT
BRANCH   1   2
ATOM      2  C   UNL     1      15.523   3.913  57.690  1.00  0.00     0.000 C 
BRANCH   2   3
ATOM      3  C   UNL     1      16.143   3.967  56.286  1.00  0.00     0.000 C 
BRANCH   3   4
ATOM      4  C   UNL     1      17.536   3.327  56.273  1.00  0.00    -0.000 C 
BRANCH   4   5
ATOM      5  C   UNL     1      18.047   3.154  54.835  1.00  0.00    -0.000 C 
BRANCH   5   6
ATOM      6  C   UNL     1      19.415   3.816  54.605  1.00  0.00    -0.000 C 
BRANCH   6   7
ATOM      7  C   UNL     1      19.322   5.349  54.510  1.00  0.00    -0.000 C 
BRANCH   7   8
ATOM      8  C   UNL     1      20.678   6.015  54.210  1.00  0.00    -0.000 C 
BRANCH   8   9
ATOM      9  C   UNL     1      21.099   5.999  52.729  1.00  0.00    -0.000 C 
BRANCH   9  10
ATOM     10  C   UNL     1      22.477   5.352  52.506  1.00  0.00    -0.000 C 
BRANCH  10  11
ATOM     11  C   UNL     1      22.418   3.817  52.533  1.00  0.00    -0.003 C 
ATOM     12  C   UNL     1      21.389   3.250  51.554  1.00  0.00     0.004 C 
ENDBRANCH  10  11
ENDBRANCH   9  10
ENDBRANCH   8   9
ENDBRANCH   7   8
ENDBRANCH   6   7
ENDBRANCH   5   6
ENDBRANCH   4   5
ENDBRANCH   3   4
ENDBRANCH   2   3
ENDBRANCH   1   2
BRANCH   1  13
ATOM     13  C   UNL     1      14.696   1.500  58.195  1.00  0.00     0.000 C 
BRANCH  13  14
ATOM     14  C   UNL     1      15.284   0.095  57.984  1.00  0.00     0.000 C 
BRANCH  14  15
ATOM     15  C   UNL     1      15.977  -0.056  56.619  1.00  0.00     0.000 C 
BRANCH  15  16
ATOM     16  C   UNL     1      17.214  -0.965  56.678  1.00  0.00     0.000 C 
BRANCH  16  17
ATOM     17  C   UNL     1      18.505  -0.140  56.570  1.00  0.00     0.000 C 
BRANCH  17  18
ATOM     18  C   UNL     1      19.374  -0.231  57.835  1.00  0.00     0.000 C 
BRANCH  18  19
ATOM     19  C   UNL     1      18.860   0.664  58.972  1.00  0.00     0.000 C 
BRANCH  19  20
ATOM     20  C   UNL     1      19.002  -0.036  60.332  1.00  0.00     0.006 C 
BRANCH  20  21
ATOM     21  C   UNL     1      17.645  -0.438  60.923  1.00  0.00     0.053 C 
BRANCH  21  22
ATOM     22  C   UNL     1      16.933   0.734  61.527  1.00  0.00     0.041 C 
ATOM     23  O   UNL     1      15.675   0.771  61.546  1.00  0.00    -0.550 OA
ATOM     24  O   UNL     1      17.660   1.770  62.098  1.00  0.00    -0.550 OA
ENDBRANCH  21  22
ENDBRANCH  20  21
ENDBRANCH  19  20
ENDBRANCH  18  19
ENDBRANCH  17  18
ENDBRANCH  16  17
ENDBRANCH  15  16
ENDBRANCH  14  15
ENDBRANCH  13  14
ENDBRANCH   1  13
TORSDOF 20
ENDMDL
MODEL 4
REMARK VINA RESULT:    -3.728      3.181      6.582
REMARK INTER + INTRA:         -12.011
REMARK INTER:                  -8.426
REMARK INTRA:                  -3.585
REMARK UNBOUND:                -3.925
REMARK SMILES CCCCCCCCCCCCCCCCCCCCCC(=O)[O-]
REMARK SMILES IDX 12 1 11 2 10 3 9 4 8 5 7 6 6 7 5 8 4 9 3 10 2 11 1 12 13 13
REMARK SMILES IDX 14 14 15 15 16 16 17 17 18 18 19 19 20 20 21 21 22 22 23 23
REMARK SMILES IDX 24 24
REMARK H PARENT
REMARK Flexibility Score: inf
ROOT
ATOM      1  C   UNL     1      15.986  -0.299  57.233  1.00  0.00     0.000 C 
ENDROOT
BRANCH   1   2
ATOM      2  C   UNL     1      16.754  -0.204  55.902  1.00  0.00     0.000 C 
BRANCH   2   3
ATOM      3  C   UNL     1      18.107   0.510  56.038  1.00  0.00     0.000 C 
BRANCH   3   4
ATOM      4  C   UNL     1      19.024  -0.230  57.018  1.00  0.00    -0.000 C 
BRANCH   4   5
ATOM      5  C   UNL     1      19.962   0.751  57.738  1.00  0.00    -0.000 C 
BRANCH   5   6
ATOM      6  C   UNL     1      19.845   0.674  59.269  1.00  0.00    -0.000 C 
BRANCH   6   7
ATOM      7  C   UNL     1      18.832  -0.389  59.731  1.00  0.00    -0.000 C 
BRANCH   7   8
ATOM      8  C   UNL     1      18.164  -0.036  61.074  1.00  0.00    -0.000 C 
BRANCH   8   9
ATOM      9  C   UNL     1      17.830   1.454  61.265  1.00  0.00    -0.000 C 
BRANCH   9  10
ATOM     10  C   UNL     1      17.074   1.735  62.576  1.00  0.00    -0.000 C 
BRANCH  10  11
ATOM     11  C   UNL     1      15.876   2.675  62.375  1.00  0.00    -0.003 C 
ATOM     12  C   UNL     1      16.125   3.724  61.291  1.00  0.00     0.004 C 
ENDBRANCH  10  11
ENDBRANCH   9  10
ENDBRANCH   8   9
ENDBRANCH   7   8
ENDBRANCH   6   7
ENDBRANCH   5   6
ENDBRANCH   4   5
ENDBRANCH   3   4
ENDBRANCH   2   3
ENDBRANCH   1   2
BRANCH   1  13
ATOM     13  C   UNL     1      15.719   1.047  57.932  1.00  0.00     0.000 C 
BRANCH  13  14
ATOM     14  C   UNL     1      14.840   0.907  59.187  1.00  0.00     0.000 C 
BRANCH  14  15
ATOM     15  C   UNL     1      14.849  -0.522  59.756  1.00  0.00     0.000 C 
BRANCH  15  16
ATOM     16  C   UNL     1      14.481  -0.571  61.246  1.00  0.00     0.000 C 
BRANCH  16  17
ATOM     17  C   UNL     1      14.977  -1.874  61.891  1.00  0.00     0.000 C 
BRANCH  17  18
ATOM     18  C   UNL     1      13.911  -2.982  61.883  1.00  0.00     0.000 C 
BRANCH  18  19
ATOM     19  C   UNL     1      14.467  -4.336  61.418  1.00  0.00     0.000 C 
BRANCH  19  20
ATOM     20  C   UNL     1      15.604  -4.144  60.403  1.00  0.00     0.006 C 
BRANCH  20  21
ATOM     21  C   UNL     1      16.756  -5.132  60.627  1.00  0.00     0.053 C 
BRANCH  21  22
ATOM     22  C   UNL     1      17.596  -4.748  61.807  1.00  0.00     0.041 C 
ATOM     23  O   UNL     1      17.778  -5.563  62.749  1.00  0.00    -0.550 OA
ATOM     24  O   UNL     1      18.205  -3.501  61.849  1.00  0.00    -0.550 OA
ENDBRANCH  21  22
ENDBRANCH  20  21
ENDBRANCH  19  20
ENDBRANCH  18  19
ENDBRANCH  17  18
ENDBRANCH  16  17
ENDBRANCH  15  16
ENDBRANCH  14  15
ENDBRANCH  13  14
ENDBRANCH   1  13
TORSDOF 20
ENDMDL
MODEL 5
REMARK VINA RESULT:    -3.710      1.841      3.351
REMARK INTER + INTRA:         -11.972
REMARK INTER:                  -8.932
REMARK INTRA:                  -3.040
REMARK UNBOUND:                -3.925
REMARK SMILES CCCCCCCCCCCCCCCCCCCCCC(=O)[O-]
REMARK SMILES IDX 12 1 11 2 10 3 9 4 8 5 7 6 6 7 5 8 4 9 3 10 2 11 1 12 13 13
REMARK SMILES IDX 14 14 15 15 16 16 17 17 18 18 19 19 20 20 21 21 22 22 23 23
REMARK SMILES IDX 24 24
REMARK H PARENT
REMARK Flexibility Score: inf
ROOT
ATOM      1  C   UNL     1      14.745   1.333  59.555  1.00  0.00     0.000 C 
ENDROOT
BRANCH   1   2
ATOM      2  C   UNL     1      14.875   0.007  60.326  1.00  0.00     0.000 C 
BRANCH   2   3
ATOM      3  C   UNL     1      14.006  -0.041  61.591  1.00  0.00     0.000 C 
BRANCH   3   4
ATOM      4  C   UNL     1      13.629  -1.483  61.948  1.00  0.00    -0.000 C 
BRANCH   4   5
ATOM      5  C   UNL     1      14.534  -2.484  61.213  1.00  0.00    -0.000 C 
BRANCH   5   6
ATOM      6  C   UNL     1      14.265  -3.942  61.621  1.00  0.00    -0.000 C 
BRANCH   6   7
ATOM      7  C   UNL     1      15.198  -4.937  60.909  1.00  0.00    -0.000 C 
BRANCH   7   8
ATOM      8  C   UNL     1      15.976  -5.836  61.888  1.00  0.00    -0.000 C 
BRANCH   8   9
ATOM      9  C   UNL     1      16.979  -5.099  62.795  1.00  0.00    -0.000 C 
BRANCH   9  10
ATOM     10  C   UNL     1      18.163  -4.501  62.015  1.00  0.00    -0.000 C 
BRANCH  10  11
ATOM     11  C   UNL     1      18.146  -2.965  62.006  1.00  0.00    -0.003 C 
ATOM     12  C   UNL     1      17.707  -2.371  63.345  1.00  0.00     0.004 C 
ENDBRANCH  10  11
ENDBRANCH   9  10
ENDBRANCH   8   9
ENDBRANCH   7   8
ENDBRANCH   6   7
ENDBRANCH   5   6
ENDBRANCH   4   5
ENDBRANCH   3   4
ENDBRANCH   2   3
ENDBRANCH   1   2
BRANCH   1  13
ATOM     13  C   UNL     1      15.211   1.286  58.088  1.00  0.00     0.000 C 
BRANCH  13  14
ATOM     14  C   UNL     1      15.426  -0.147  57.573  1.00  0.00     0.000 C 
BRANCH  14  15
ATOM     15  C   UNL     1      16.222  -0.189  56.258  1.00  0.00     0.000 C 
BRANCH  15  16
ATOM     16  C   UNL     1      17.628  -0.782  56.432  1.00  0.00     0.000 C 
BRANCH  16  17
ATOM     17  C   UNL     1      18.640   0.309  56.813  1.00  0.00     0.000 C 
BRANCH  17  18
ATOM     18  C   UNL     1      19.565  -0.117  57.965  1.00  0.00     0.000 C 
BRANCH  18  19
ATOM     19  C   UNL     1      18.800  -0.405  59.264  1.00  0.00     0.000 C 
BRANCH  19  20
ATOM     20  C   UNL     1      19.005   0.724  60.286  1.00  0.00     0.006 C 
BRANCH  20  21
ATOM     21  C   UNL     1      17.931   0.719  61.381  1.00  0.00     0.053 C 
BRANCH  21  22
ATOM     22  C   UNL     1      17.720   2.086  61.958  1.00  0.00     0.041 C 
ATOM     23  O   UNL     1      16.883   2.262  62.882  1.00  0.00    -0.550 OA
ATOM     24  O   UNL     1      18.473   3.158  61.499  1.00  0.00    -0.550 OA
ENDBRANCH  21  22
ENDBRANCH  20  21
ENDBRANCH  19  20
ENDBRANCH  18  19
ENDBRANCH  17  18
ENDBRANCH  16  17
ENDBRANCH  15  16
ENDBRANCH  14  15
ENDBRANCH  13  14
ENDBRANCH   1  13
TORSDOF 20
ENDMDL
MODEL 6
REMARK VINA RESULT:    -3.701      3.514      7.058
REMARK INTER + INTRA:         -11.954
REMARK INTER:                  -7.834
REMARK INTRA:                  -4.119
REMARK UNBOUND:                -3.925
REMARK SMILES CCCCCCCCCCCCCCCCCCCCCC(=O)[O-]
REMARK SMILES IDX 12 1 11 2 10 3 9 4 8 5 7 6 6 7 5 8 4 9 3 10 2 11 1 12 13 13
REMARK SMILES IDX 14 14 15 15 16 16 17 17 18 18 19 19 20 20 21 21 22 22 23 23
REMARK SMILES IDX 24 24
REMARK H PARENT
REMARK Flexibility Score: inf
ROOT
ATOM      1  C   UNL     1      18.947   1.584  58.866  1.00  0.00     0.000 C 
ENDROOT
BRANCH   1   2
ATOM      2  C   UNL     1      18.454   3.039  58.968  1.00  0.00     0.000 C 
BRANCH   2   3
ATOM      3  C   UNL     1      16.943   3.144  59.222  1.00  0.00     0.000 C 
BRANCH   3   4
ATOM      4  C   UNL     1      16.146   2.834  57.950  1.00  0.00    -0.000 C 
BRANCH   4   5
ATOM      5  C   UNL     1      15.617   4.124  57.305  1.00  0.00    -0.000 C 
BRANCH   5   6
ATOM      6  C   UNL     1      16.156   4.343  55.882  1.00  0.00    -0.000 C 
BRANCH   6   7
ATOM      7  C   UNL     1      17.212   3.298  55.482  1.00  0.00    -0.000 C 
BRANCH   7   8
ATOM      8  C   UNL     1      18.448   3.922  54.809  1.00  0.00    -0.000 C 
BRANCH   8   9
ATOM      9  C   UNL     1      19.471   4.550  55.774  1.00  0.00    -0.000 C 
BRANCH   9  10
ATOM     10  C   UNL     1      19.676   6.055  55.533  1.00  0.00    -0.000 C 
BRANCH  10  11
ATOM     11  C   UNL     1      18.626   6.915  56.254  1.00  0.00    -0.003 C 
ATOM     12  C   UNL     1      18.520   6.589  57.744  1.00  0.00     0.004 C 
ENDBRANCH  10  11
ENDBRANCH   9  10
ENDBRANCH   8   9
ENDBRANCH   7   8
ENDBRANCH   6   7
ENDBRANCH   5   6
ENDBRANCH   4   5
ENDBRANCH   3   4
ENDBRANCH   2   3
ENDBRANCH   1   2
BRANCH   1  13
ATOM     13  C   UNL     1      19.489   1.171  57.484  1.00  0.00     0.000 C 
BRANCH  13  14
ATOM     14  C   UNL     1      19.017  -0.226  57.048  1.00  0.00     0.000 C 
BRANCH  14  15
ATOM     15  C   UNL     1      17.831  -0.169  56.070  1.00  0.00     0.000 C 
BRANCH  15  16
ATOM     16  C   UNL     1      16.502  -0.575  56.723  1.00  0.00     0.000 C 
BRANCH  16  17
ATOM     17  C   UNL     1      16.742  -1.257  58.078  1.00  0.00     0.000 C 
BRANCH  17  18
ATOM     18  C   UNL     1      15.891  -0.652  59.206  1.00  0.00     0.000 C 
BRANCH  18  19
ATOM     19  C   UNL     1      16.615  -0.650  60.560  1.00  0.00     0.000 C 
BRANCH  19  20
ATOM     20  C   UNL     1      17.560  -1.855  60.679  1.00  0.00     0.006 C 
BRANCH  20  21
ATOM     21  C   UNL     1      19.004  -1.434  60.984  1.00  0.00     0.053 C 
BRANCH  21  22
ATOM     22  C   UNL     1      19.707  -2.442  61.841  1.00  0.00     0.041 C 
ATOM     23  O   UNL     1      20.787  -2.143  62.415  1.00  0.00    -0.550 OA
ATOM     24  O   UNL     1      19.152  -3.700  62.032  1.00  0.00    -0.550 OA
ENDBRANCH  21  22
ENDBRANCH  20  21
ENDBRANCH  19  20
ENDBRANCH  18  19
ENDBRANCH  17  18
ENDBRANCH  16  17
ENDBRANCH  15  16
ENDBRANCH  14  15
ENDBRANCH  13  14
ENDBRANCH   1  13
TORSDOF 20
ENDMDL
MODEL 7
REMARK VINA RESULT:    -3.699      2.195      4.267
REMARK INTER + INTRA:         -11.949
REMARK INTER:                  -7.743
REMARK INTRA:                  -4.206
REMARK UNBOUND:                -3.925
REMARK SMILES CCCCCCCCCCCCCCCCCCCCCC(=O)[O-]
REMARK SMILES IDX 12 1 11 2 10 3 9 4 8 5 7 6 6 7 5 8 4 9 3 10 2 11 1 12 13 13
REMARK SMILES IDX 14 14 15 15 16 16 17 17 18 18 19 19 20 20 21 21 22 22 23 23
REMARK SMILES IDX 24 24
REMARK H PARENT
REMARK Flexibility Score: inf
ROOT
ATOM      1  C   UNL     1      18.805   2.350  56.629  1.00  0.00     0.000 C 
ENDROOT
BRANCH   1   2
ATOM      2  C   UNL     1      18.424   0.963  57.177  1.00  0.00     0.000 C 
BRANCH   2   3
ATOM      3  C   UNL     1      17.868   0.022  56.098  1.00  0.00     0.000 C 
BRANCH   3   4
ATOM      4  C   UNL     1      16.566  -0.641  56.561  1.00  0.00    -0.000 C 
BRANCH   4   5
ATOM      5  C   UNL     1      15.662   0.370  57.283  1.00  0.00    -0.000 C 
BRANCH   5   6
ATOM      6  C   UNL     1      15.127  -0.159  58.624  1.00  0.00    -0.000 C 
BRANCH   6   7
ATOM      7  C   UNL     1      16.134  -1.073  59.343  1.00  0.00    -0.000 C 
BRANCH   7   8
ATOM      8  C   UNL     1      16.239  -0.781  60.851  1.00  0.00    -0.000 C 
BRANCH   8   9
ATOM      9  C   UNL     1      17.673  -0.649  61.393  1.00  0.00    -0.000 C 
BRANCH   9  10
ATOM     10  C   UNL     1      18.744  -0.991  60.342  1.00  0.00    -0.000 C 
BRANCH  10  11
ATOM     11  C   UNL     1      20.144  -0.506  60.749  1.00  0.00    -0.003 C 
ATOM     12  C   UNL     1      20.479   0.873  60.180  1.00  0.00     0.004 C 
ENDBRANCH  10  11
ENDBRANCH   9  10
ENDBRANCH   8   9
ENDBRANCH   7   8
ENDBRANCH   6   7
ENDBRANCH   5   6
ENDBRANCH   4   5
ENDBRANCH   3   4
ENDBRANCH   2   3
ENDBRANCH   1   2
BRANCH   1  13
ATOM     13  C   UNL     1      18.339   2.636  55.189  1.00  0.00     0.000 C 
BRANCH  13  14
ATOM     14  C   UNL     1      17.099   3.543  55.129  1.00  0.00     0.000 C 
BRANCH  14  15
ATOM     15  C   UNL     1      16.918   4.379  56.408  1.00  0.00     0.000 C 
BRANCH  15  16
ATOM     16  C   UNL     1      15.656   3.997  57.195  1.00  0.00     0.000 C 
BRANCH  16  17
ATOM     17  C   UNL     1      15.755   4.471  58.653  1.00  0.00     0.000 C 
BRANCH  17  18
ATOM     18  C   UNL     1      15.659   3.313  59.661  1.00  0.00     0.000 C 
BRANCH  18  19
ATOM     19  C   UNL     1      17.031   2.723  60.018  1.00  0.00     0.000 C 
BRANCH  19  20
ATOM     20  C   UNL     1      18.105   3.820  60.073  1.00  0.00     0.006 C 
BRANCH  20  21
ATOM     21  C   UNL     1      18.779   3.904  61.448  1.00  0.00     0.053 C 
BRANCH  21  22
ATOM     22  C   UNL     1      17.856   4.469  62.485  1.00  0.00     0.041 C 
ATOM     23  O   UNL     1      17.844   3.992  63.650  1.00  0.00    -0.550 OA
ATOM     24  O   UNL     1      17.035   5.544  62.173  1.00  0.00    -0.550 OA
ENDBRANCH  21  22
ENDBRANCH  20  21
ENDBRANCH  19  20
ENDBRANCH  18  19
ENDBRANCH  17  18
ENDBRANCH  16  17
ENDBRANCH  15  16
ENDBRANCH  14  15
ENDBRANCH  13  14
ENDBRANCH   1  13
TORSDOF 20
ENDMDL
MODEL 8
REMARK VINA RESULT:    -3.693      2.289      3.665
REMARK INTER + INTRA:         -11.935
REMARK INTER:                  -8.467
REMARK INTRA:                  -3.468
REMARK UNBOUND:                -3.925
REMARK SMILES CCCCCCCCCCCCCCCCCCCCCC(=O)[O-]
REMARK SMILES IDX 12 1 11 2 10 3 9 4 8 5 7 6 6 7 5 8 4 9 3 10 2 11 1 12 13 13
REMARK SMILES IDX 14 14 15 15 16 16 17 17 18 18 19 19 20 20 21 21 22 22 23 23
REMARK SMILES IDX 24 24
REMARK H PARENT
REMARK Flexibility Score: inf
ROOT
ATOM      1  C   UNL     1      16.646  -1.752  58.846  1.00  0.00     0.000 C 
ENDROOT
BRANCH   1   2
ATOM      2  C   UNL     1      17.334  -1.313  60.151  1.00  0.00     0.000 C 
BRANCH   2   3
ATOM      3  C   UNL     1      16.353  -0.743  61.186  1.00  0.00     0.000 C 
BRANCH   3   4
ATOM      4  C   UNL     1      14.902  -0.911  60.720  1.00  0.00    -0.000 C 
BRANCH   4   5
ATOM      5  C   UNL     1      13.927  -0.767  61.899  1.00  0.00    -0.000 C 
BRANCH   5   6
ATOM      6  C   UNL     1      13.149  -2.060  62.191  1.00  0.00    -0.000 C 
BRANCH   6   7
ATOM      7  C   UNL     1      13.783  -3.294  61.526  1.00  0.00    -0.000 C 
BRANCH   7   8
ATOM      8  C   UNL     1      13.712  -4.554  62.409  1.00  0.00    -0.000 C 
BRANCH   8   9
ATOM      9  C   UNL     1      15.073  -5.168  62.783  1.00  0.00    -0.000 C 
BRANCH   9  10
ATOM     10  C   UNL     1      16.239  -4.175  62.632  1.00  0.00    -0.000 C 
BRANCH  10  11
ATOM     11  C   UNL     1      17.259  -4.621  61.574  1.00  0.00    -0.003 C 
ATOM     12  C   UNL     1      16.788  -5.838  60.777  1.00  0.00     0.004 C 
ENDBRANCH  10  11
ENDBRANCH   9  10
ENDBRANCH   8   9
ENDBRANCH   7   8
ENDBRANCH   6   7
ENDBRANCH   5   6
ENDBRANCH   4   5
ENDBRANCH   3   4
ENDBRANCH   2   3
ENDBRANCH   1   2
BRANCH   1  13
ATOM     13  C   UNL     1      17.096  -0.995  57.582  1.00  0.00     0.000 C 
BRANCH  13  14
ATOM     14  C   UNL     1      15.966  -0.173  56.941  1.00  0.00     0.000 C 
BRANCH  14  15
ATOM     15  C   UNL     1      15.996   1.304  57.367  1.00  0.00     0.000 C 
BRANCH  15  16
ATOM     16  C   UNL     1      17.352   1.726  57.953  1.00  0.00     0.000 C 
BRANCH  16  17
ATOM     17  C   UNL     1      17.163   2.530  59.249  1.00  0.00     0.000 C 
BRANCH  17  18
ATOM     18  C   UNL     1      15.691   2.615  59.685  1.00  0.00     0.000 C 
BRANCH  18  19
ATOM     19  C   UNL     1      15.530   3.091  61.136  1.00  0.00     0.000 C 
BRANCH  19  20
ATOM     20  C   UNL     1      16.673   2.567  62.017  1.00  0.00     0.006 C 
BRANCH  20  21
ATOM     21  C   UNL     1      16.573   3.075  63.461  1.00  0.00     0.053 C 
BRANCH  21  22
ATOM     22  C   UNL     1      17.550   4.179  63.731  1.00  0.00     0.041 C 
ATOM     23  O   UNL     1      18.316   4.585  62.818  1.00  0.00    -0.550 OA
ATOM     24  O   UNL     1      17.590   4.783  64.980  1.00  0.00    -0.550 OA
ENDBRANCH  21  22
ENDBRANCH  20  21
ENDBRANCH  19  20
ENDBRANCH  18  19
ENDBRANCH  17  18
ENDBRANCH  16  17
ENDBRANCH  15  16
ENDBRANCH  14  15
ENDBRANCH  13  14
ENDBRANCH   1  13
TORSDOF 20
ENDMDL
MODEL 9
REMARK VINA RESULT:    -3.661      2.005      5.382
REMARK INTER + INTRA:         -11.866
REMARK INTER:                  -8.099
REMARK INTRA:                  -3.766
REMARK UNBOUND:                -3.925
REMARK SMILES CCCCCCCCCCCCCCCCCCCCCC(=O)[O-]
REMARK SMILES IDX 12 1 11 2 10 3 9 4 8 5 7 6 6 7 5 8 4 9 3 10 2 11 1 12 13 13
REMARK SMILES IDX 14 14 15 15 16 16 17 17 18 18 19 19 20 20 21 21 22 22 23 23
REMARK SMILES IDX 24 24
REMARK H PARENT
REMARK Flexibility Score: inf
ROOT
ATOM      1  C   UNL     1      16.028  -3.074  62.217  1.00  0.00     0.000 C 
ENDROOT
BRANCH   1   2
ATOM      2  C   UNL     1      14.724  -2.306  61.935  1.00  0.00     0.000 C 
BRANCH   2   3
ATOM      3  C   UNL     1      14.699  -1.654  60.545  1.00  0.00     0.000 C 
BRANCH   3   4
ATOM      4  C   UNL     1      15.005  -0.155  60.633  1.00  0.00    -0.000 C 
BRANCH   4   5
ATOM      5  C   UNL     1      15.544   0.375  59.296  1.00  0.00    -0.000 C 
BRANCH   5   6
ATOM      6  C   UNL     1      15.982  -0.748  58.342  1.00  0.00    -0.000 C 
BRANCH   6   7
ATOM      7  C   UNL     1      16.207  -0.249  56.905  1.00  0.00    -0.000 C 
BRANCH   7   8
ATOM      8  C   UNL     1      17.699  -0.092  56.552  1.00  0.00    -0.000 C 
BRANCH   8   9
ATOM      9  C   UNL     1      18.151   1.350  56.256  1.00  0.00    -0.000 C 
BRANCH   9  10
ATOM     10  C   UNL     1      16.984   2.353  56.245  1.00  0.00    -0.000 C 
BRANCH  10  11
ATOM     11  C   UNL     1      16.869   3.136  57.562  1.00  0.00    -0.003 C 
ATOM     12  C   UNL     1      15.592   3.973  57.640  1.00  0.00     0.004 C 
ENDBRANCH  10  11
ENDBRANCH   9  10
ENDBRANCH   8   9
ENDBRANCH   7   8
ENDBRANCH   6   7
ENDBRANCH   5   6
ENDBRANCH   4   5
ENDBRANCH   3   4
ENDBRANCH   2   3
ENDBRANCH   1   2
BRANCH   1  13
ATOM     13  C   UNL     1      17.236  -2.197  62.597  1.00  0.00     0.000 C 
BRANCH  13  14
ATOM     14  C   UNL     1      18.305  -2.139  61.494  1.00  0.00     0.000 C 
BRANCH  14  15
ATOM     15  C   UNL     1      18.992  -0.765  61.410  1.00  0.00     0.000 C 
BRANCH  15  16
ATOM     16  C   UNL     1      19.186  -0.284  59.965  1.00  0.00     0.000 C 
BRANCH  16  17
ATOM     17  C   UNL     1      19.132   1.249  59.885  1.00  0.00     0.000 C 
BRANCH  17  18
ATOM     18  C   UNL     1      18.398   1.879  61.080  1.00  0.00     0.000 C 
BRANCH  18  19
ATOM     19  C   UNL     1      18.314   3.410  60.983  1.00  0.00     0.000 C 
BRANCH  19  20
ATOM     20  C   UNL     1      16.976   3.923  61.536  1.00  0.00     0.006 C 
BRANCH  20  21
ATOM     21  C   UNL     1      16.263   2.875  62.399  1.00  0.00     0.053 C 
BRANCH  21  22
ATOM     22  C   UNL     1      15.702   3.476  63.653  1.00  0.00     0.041 C 
ATOM     23  O   UNL     1      16.326   4.391  64.251  1.00  0.00    -0.550 OA
ATOM     24  O   UNL     1      14.475   3.047  64.140  1.00  0.00    -0.550 OA
ENDBRANCH  21  22
ENDBRANCH  20  21
ENDBRANCH  19  20
ENDBRANCH  18  19
ENDBRANCH  17  18
ENDBRANCH  16  17
ENDBRANCH  15  16
ENDBRANCH  14  15
ENDBRANCH  13  14
ENDBRANCH   1  13
TORSDOF 20
ENDMDL
