MODEL 1
REMARK VINA RESULT:    -5.486      0.000      0.000
REMARK INTER + INTRA:         -15.677
REMARK INTER:                 -11.900
REMARK INTRA:                  -3.777
REMARK UNBOUND:                -3.777
REMARK SMILES CCCCCCCCCCCCCCCCCCCCCC(=O)[O-]
REMARK SMILES IDX 12 1 11 2 10 3 9 4 8 5 7 6 6 7 5 8 4 9 3 10 2 11 1 12 13 13
REMARK SMILES IDX 14 14 15 15 16 16 17 17 18 18 19 19 20 20 21 21 22 22 23 23
REMARK SMILES IDX 24 24
REMARK H PARENT
REMARK Flexibility Score: inf
ROOT
ATOM      1  C   UNL     1      38.441   1.189   6.977  1.00  0.00     0.000 C 
ENDROOT
BRANCH   1   2
ATOM      2  C   UNL     1      38.205   2.642   6.535  1.00  0.00     0.000 C 
BRANCH   2   3
ATOM      3  C   UNL     1      37.423   3.463   7.573  1.00  0.00     0.000 C 
BRANCH   3   4
ATOM      4  C   UNL     1      36.881   4.800   7.024  1.00  0.00    -0.000 C 
BRANCH   4   5
ATOM      5  C   UNL     1      35.844   5.437   7.967  1.00  0.00    -0.000 C 
BRANCH   5   6
ATOM      6  C   UNL     1      34.522   5.774   7.255  1.00  0.00    -0.000 C 
BRANCH   6   7
ATOM      7  C   UNL     1      34.210   4.808   6.101  1.00  0.00    -0.000 C 
BRANCH   7   8
ATOM      8  C   UNL     1      33.321   3.650   6.574  1.00  0.00    -0.000 C 
BRANCH   8   9
ATOM      9  C   UNL     1      34.122   2.340   6.652  1.00  0.00    -0.000 C 
BRANCH   9  10
ATOM     10  C   UNL     1      34.221   1.790   8.084  1.00  0.00    -0.000 C 
BRANCH  10  11
ATOM     11  C   UNL     1      33.420   0.489   8.276  1.00  0.00    -0.003 C 
ATOM     12  C   UNL     1      33.285  -0.270   6.958  1.00  0.00     0.004 C 
ENDBRANCH  10  11
ENDBRANCH   9  10
ENDBRANCH   8   9
ENDBRANCH   7   8
ENDBRANCH   6   7
ENDBRANCH   5   6
ENDBRANCH   4   5
ENDBRANCH   3   4
ENDBRANCH   2   3
ENDBRANCH   1   2
BRANCH   1  13
ATOM     13  C   UNL     1      37.253   0.268   6.651  1.00  0.00     0.000 C 
BRANCH  13  14
ATOM     14  C   UNL     1      37.167  -0.076   5.154  1.00  0.00     0.000 C 
BRANCH  14  15
ATOM     15  C   UNL     1      36.189  -1.229   4.869  1.00  0.00     0.000 C 
BRANCH  15  16
ATOM     16  C   UNL     1      35.159  -0.881   3.783  1.00  0.00     0.000 C 
BRANCH  16  17
ATOM     17  C   UNL     1      35.493   0.461   3.117  1.00  0.00     0.000 C 
BRANCH  17  18
ATOM     18  C   UNL     1      34.275   1.398   3.130  1.00  0.00     0.000 C 
BRANCH  18  19
ATOM     19  C   UNL     1      34.662   2.888   3.124  1.00  0.00     0.000 C 
BRANCH  19  20
ATOM     20  C   UNL     1      36.180   3.169   3.078  1.00  0.00     0.006 C 
BRANCH  20  21
ATOM     21  C   UNL     1      36.570   4.627   3.367  1.00  0.00     0.053 C 
BRANCH  21  22
ATOM     22  C   UNL     1      36.688   5.437   2.113  1.00  0.00     0.041 C 
ATOM     23  O   UNL     1      37.329   6.522   2.118  1.00  0.00    -0.550 OA
ATOM     24  O   UNL     1      36.110   4.982   0.933  1.00  0.00    -0.550 OA
ENDBRANCH  21  22
ENDBRANCH  20  21
ENDBRANCH  19  20
ENDBRANCH  18  19
ENDBRANCH  17  18
ENDBRANCH  16  17
ENDBRANCH  15  16
ENDBRANCH  14  15
ENDBRANCH  13  14
ENDBRANCH   1  13
TORSDOF 20
ENDMDL
MODEL 2
REMARK VINA RESULT:    -5.431     14.584     18.224
REMARK INTER + INTRA:         -15.557
REMARK INTER:                 -11.644
REMARK INTRA:                  -3.913
REMARK UNBOUND:                -3.777
REMARK SMILES CCCCCCCCCCCCCCCCCCCCCC(=O)[O-]
REMARK SMILES IDX 12 1 11 2 10 3 9 4 8 5 7 6 6 7 5 8 4 9 3 10 2 11 1 12 13 13
REMARK SMILES IDX 14 14 15 15 16 16 17 17 18 18 19 19 20 20 21 21 22 22 23 23
REMARK SMILES IDX 24 24
REMARK H PARENT
REMARK Flexibility Score: inf
ROOT
ATOM      1  C   UNL     1      47.440  12.372  -6.821  1.00  0.00     0.000 C 
ENDROOT
BRANCH   1   2
ATOM      2  C   UNL     1      47.412  12.199  -5.293  1.00  0.00     0.000 C 
BRANCH   2   3
ATOM      3  C   UNL     1      48.740  11.672  -4.727  1.00  0.00     0.000 C 
BRANCH   3   4
ATOM      4  C   UNL     1      49.886  11.640  -5.760  1.00  0.00    -0.000 C 
BRANCH   4   5
ATOM      5  C   UNL     1      50.319  10.204  -6.104  1.00  0.00    -0.000 C 
BRANCH   5   6
ATOM      6  C   UNL     1      50.009   9.822  -7.561  1.00  0.00    -0.000 C 
BRANCH   6   7
ATOM      7  C   UNL     1      49.106   8.582  -7.667  1.00  0.00    -0.000 C 
BRANCH   7   8
ATOM      8  C   UNL     1      47.777   8.803  -6.933  1.00  0.00    -0.000 C 
BRANCH   8   9
ATOM      9  C   UNL     1      46.977   7.493  -6.840  1.00  0.00    -0.000 C 
BRANCH   9  10
ATOM     10  C   UNL     1      46.023   7.465  -5.634  1.00  0.00    -0.000 C 
BRANCH  10  11
ATOM     11  C   UNL     1      46.530   8.320  -4.458  1.00  0.00    -0.003 C 
ATOM     12  C   UNL     1      46.091   7.726  -3.122  1.00  0.00     0.004 C 
ENDBRANCH  10  11
ENDBRANCH   9  10
ENDBRANCH   8   9
ENDBRANCH   7   8
ENDBRANCH   6   7
ENDBRANCH   5   6
ENDBRANCH   4   5
ENDBRANCH   3   4
ENDBRANCH   2   3
ENDBRANCH   1   2
BRANCH   1  13
ATOM     13  C   UNL     1      46.184  13.074  -7.363  1.00  0.00     0.000 C 
BRANCH  13  14
ATOM     14  C   UNL     1      45.886  12.706  -8.826  1.00  0.00     0.000 C 
BRANCH  14  15
ATOM     15  C   UNL     1      46.842  11.630  -9.370  1.00  0.00     0.000 C 
BRANCH  15  16
ATOM     16  C   UNL     1      46.109  10.361  -9.831  1.00  0.00     0.000 C 
BRANCH  16  17
ATOM     17  C   UNL     1      44.620  10.421  -9.465  1.00  0.00     0.000 C 
BRANCH  17  18
ATOM     18  C   UNL     1      44.355   9.715  -8.126  1.00  0.00     0.000 C 
BRANCH  18  19
ATOM     19  C   UNL     1      43.294  10.429  -7.269  1.00  0.00     0.000 C 
BRANCH  19  20
ATOM     20  C   UNL     1      43.347  10.106  -5.760  1.00  0.00     0.006 C 
BRANCH  20  21
ATOM     21  C   UNL     1      44.163  11.101  -4.920  1.00  0.00     0.053 C 
BRANCH  21  22
ATOM     22  C   UNL     1      43.593  11.279  -3.547  1.00  0.00     0.041 C 
ATOM     23  O   UNL     1      43.738  10.378  -2.679  1.00  0.00    -0.550 OA
ATOM     24  O   UNL     1      42.922  12.452  -3.219  1.00  0.00    -0.550 OA
ENDBRANCH  21  22
ENDBRANCH  20  21
ENDBRANCH  19  20
ENDBRANCH  18  19
ENDBRANCH  17  18
ENDBRANCH  16  17
ENDBRANCH  15  16
ENDBRANCH  14  15
ENDBRANCH  13  14
ENDBRANCH   1  13
TORSDOF 20
ENDMDL
MODEL 3
REMARK VINA RESULT:    -5.428     14.716     18.787
REMARK INTER + INTRA:         -15.551
REMARK INTER:                 -11.579
REMARK INTRA:                  -3.972
REMARK UNBOUND:                -3.777
REMARK SMILES CCCCCCCCCCCCCCCCCCCCCC(=O)[O-]
REMARK SMILES IDX 12 1 11 2 10 3 9 4 8 5 7 6 6 7 5 8 4 9 3 10 2 11 1 12 13 13
REMARK SMILES IDX 14 14 15 15 16 16 17 17 18 18 19 19 20 20 21 21 22 22 23 23
REMARK SMILES IDX 24 24
REMARK H PARENT
REMARK Flexibility Score: inf
ROOT
ATOM      1  C   UNL     1      44.812  11.377  -8.885  1.00  0.00     0.000 C 
ENDROOT
BRANCH   1   2
ATOM      2  C   UNL     1      45.831  12.526  -8.964  1.00  0.00     0.000 C 
BRANCH   2   3
ATOM      3  C   UNL     1      46.507  12.820  -7.615  1.00  0.00     0.000 C 
BRANCH   3   4
ATOM      4  C   UNL     1      46.460  11.635  -6.628  1.00  0.00    -0.000 C 
BRANCH   4   5
ATOM      5  C   UNL     1      46.603  12.092  -5.165  1.00  0.00    -0.000 C 
BRANCH   5   6
ATOM      6  C   UNL     1      48.063  12.366  -4.768  1.00  0.00    -0.000 C 
BRANCH   6   7
ATOM      7  C   UNL     1      48.887  11.077  -4.620  1.00  0.00    -0.000 C 
BRANCH   7   8
ATOM      8  C   UNL     1      50.237  11.198  -5.340  1.00  0.00    -0.000 C 
BRANCH   8   9
ATOM      9  C   UNL     1      50.415  10.066  -6.365  1.00  0.00    -0.000 C 
BRANCH   9  10
ATOM     10  C   UNL     1      49.977  10.474  -7.781  1.00  0.00    -0.000 C 
BRANCH  10  11
ATOM     11  C   UNL     1      49.943  12.001  -7.974  1.00  0.00    -0.003 C 
ATOM     12  C   UNL     1      49.948  12.365  -9.457  1.00  0.00     0.004 C 
ENDBRANCH  10  11
ENDBRANCH   9  10
ENDBRANCH   8   9
ENDBRANCH   7   8
ENDBRANCH   6   7
ENDBRANCH   5   6
ENDBRANCH   4   5
ENDBRANCH   3   4
ENDBRANCH   2   3
ENDBRANCH   1   2
BRANCH   1  13
ATOM     13  C   UNL     1      44.960  10.371 -10.038  1.00  0.00     0.000 C 
BRANCH  13  14
ATOM     14  C   UNL     1      45.460   8.997  -9.562  1.00  0.00     0.000 C 
BRANCH  14  15
ATOM     15  C   UNL     1      46.850   9.069  -8.906  1.00  0.00     0.000 C 
BRANCH  15  16
ATOM     16  C   UNL     1      47.156   7.848  -8.026  1.00  0.00     0.000 C 
BRANCH  16  17
ATOM     17  C   UNL     1      47.282   8.250  -6.550  1.00  0.00     0.000 C 
BRANCH  17  18
ATOM     18  C   UNL     1      46.216   7.548  -5.696  1.00  0.00     0.000 C 
BRANCH  18  19
ATOM     19  C   UNL     1      45.198   8.524  -5.080  1.00  0.00     0.000 C 
BRANCH  19  20
ATOM     20  C   UNL     1      43.909   8.732  -5.905  1.00  0.00     0.006 C 
BRANCH  20  21
ATOM     21  C   UNL     1      43.289  10.132  -5.782  1.00  0.00     0.053 C 
BRANCH  21  22
ATOM     22  C   UNL     1      42.901  10.454  -4.373  1.00  0.00     0.041 C 
ATOM     23  O   UNL     1      43.544  11.321  -3.721  1.00  0.00    -0.550 OA
ATOM     24  O   UNL     1      41.815   9.815  -3.785  1.00  0.00    -0.550 OA
ENDBRANCH  21  22
ENDBRANCH  20  21
ENDBRANCH  19  20
ENDBRANCH  18  19
ENDBRANCH  17  18
ENDBRANCH  16  17
ENDBRANCH  15  16
ENDBRANCH  14  15
ENDBRANCH  13  14
ENDBRANCH   1  13
TORSDOF 20
ENDMDL
MODEL 4
REMARK VINA RESULT:    -5.423      1.607      3.508
REMARK INTER + INTRA:         -15.540
REMARK INTER:                 -11.194
REMARK INTRA:                  -4.347
REMARK UNBOUND:                -3.777
REMARK SMILES CCCCCCCCCCCCCCCCCCCCCC(=O)[O-]
REMARK SMILES IDX 12 1 11 2 10 3 9 4 8 5 7 6 6 7 5 8 4 9 3 10 2 11 1 12 13 13
REMARK SMILES IDX 14 14 15 15 16 16 17 17 18 18 19 19 20 20 21 21 22 22 23 23
REMARK SMILES IDX 24 24
REMARK H PARENT
REMARK Flexibility Score: inf
ROOT
ATOM      1  C   UNL     1      34.264   0.955   3.085  1.00  0.00     0.000 C 
ENDROOT
BRANCH   1   2
ATOM      2  C   UNL     1      34.195   1.751   4.398  1.00  0.00     0.000 C 
BRANCH   2   3
ATOM      3  C   UNL     1      34.065   3.266   4.173  1.00  0.00     0.000 C 
BRANCH   3   4
ATOM      4  C   UNL     1      35.231   3.876   3.368  1.00  0.00    -0.000 C 
BRANCH   4   5
ATOM      5  C   UNL     1      36.050   4.879   4.199  1.00  0.00    -0.000 C 
BRANCH   5   6
ATOM      6  C   UNL     1      35.531   5.020   5.640  1.00  0.00    -0.000 C 
BRANCH   6   7
ATOM      7  C   UNL     1      36.662   5.254   6.655  1.00  0.00    -0.000 C 
BRANCH   7   8
ATOM      8  C   UNL     1      36.404   4.483   7.957  1.00  0.00    -0.000 C 
BRANCH   8   9
ATOM      9  C   UNL     1      34.899   4.242   8.162  1.00  0.00    -0.000 C 
BRANCH   9  10
ATOM     10  C   UNL     1      34.593   2.835   8.701  1.00  0.00    -0.000 C 
BRANCH  10  11
ATOM     11  C   UNL     1      33.692   2.021   7.755  1.00  0.00    -0.003 C 
ATOM     12  C   UNL     1      33.454   0.615   8.301  1.00  0.00     0.004 C 
ENDBRANCH  10  11
ENDBRANCH   9  10
ENDBRANCH   8   9
ENDBRANCH   7   8
ENDBRANCH   6   7
ENDBRANCH   5   6
ENDBRANCH   4   5
ENDBRANCH   3   4
ENDBRANCH   2   3
ENDBRANCH   1   2
BRANCH   1  13
ATOM     13  C   UNL     1      35.593   0.198   2.917  1.00  0.00     0.000 C 
BRANCH  13  14
ATOM     14  C   UNL     1      35.694  -1.029   3.839  1.00  0.00     0.000 C 
BRANCH  14  15
ATOM     15  C   UNL     1      36.830  -0.901   4.869  1.00  0.00     0.000 C 
BRANCH  15  16
ATOM     16  C   UNL     1      36.318  -0.596   6.284  1.00  0.00     0.000 C 
BRANCH  16  17
ATOM     17  C   UNL     1      37.078   0.584   6.903  1.00  0.00     0.000 C 
BRANCH  17  18
ATOM     18  C   UNL     1      37.314   1.692   5.864  1.00  0.00     0.000 C 
BRANCH  18  19
ATOM     19  C   UNL     1      38.731   2.289   5.930  1.00  0.00     0.000 C 
BRANCH  19  20
ATOM     20  C   UNL     1      39.216   2.970   4.632  1.00  0.00     0.006 C 
BRANCH  20  21
ATOM     21  C   UNL     1      38.741   2.292   3.338  1.00  0.00     0.053 C 
BRANCH  21  22
ATOM     22  C   UNL     1      38.947   3.163   2.138  1.00  0.00     0.041 C 
ATOM     23  O   UNL     1      38.052   3.248   1.254  1.00  0.00    -0.550 OA
ATOM     24  O   UNL     1      40.118   3.902   2.006  1.00  0.00    -0.550 OA
ENDBRANCH  21  22
ENDBRANCH  20  21
ENDBRANCH  19  20
ENDBRANCH  18  19
ENDBRANCH  17  18
ENDBRANCH  16  17
ENDBRANCH  15  16
ENDBRANCH  14  15
ENDBRANCH  13  14
ENDBRANCH   1  13
TORSDOF 20
ENDMDL
MODEL 5
REMARK VINA RESULT:    -5.420     14.224     18.312
REMARK INTER + INTRA:         -15.535
REMARK INTER:                 -11.571
REMARK INTRA:                  -3.965
REMARK UNBOUND:                -3.777
REMARK SMILES CCCCCCCCCCCCCCCCCCCCCC(=O)[O-]
REMARK SMILES IDX 12 1 11 2 10 3 9 4 8 5 7 6 6 7 5 8 4 9 3 10 2 11 1 12 13 13
REMARK SMILES IDX 14 14 15 15 16 16 17 17 18 18 19 19 20 20 21 21 22 22 23 23
REMARK SMILES IDX 24 24
REMARK H PARENT
REMARK Flexibility Score: inf
ROOT
ATOM      1  C   UNL     1      50.038  11.479  -6.599  1.00  0.00     0.000 C 
ENDROOT
BRANCH   1   2
ATOM      2  C   UNL     1      50.048  10.769  -5.235  1.00  0.00     0.000 C 
BRANCH   2   3
ATOM      3  C   UNL     1      48.811  11.095  -4.383  1.00  0.00     0.000 C 
BRANCH   3   4
ATOM      4  C   UNL     1      48.026  12.329  -4.875  1.00  0.00    -0.000 C 
BRANCH   4   5
ATOM      5  C   UNL     1      46.577  11.981  -5.260  1.00  0.00    -0.000 C 
BRANCH   5   6
ATOM      6  C   UNL     1      45.862  13.134  -5.985  1.00  0.00    -0.000 C 
BRANCH   6   7
ATOM      7  C   UNL     1      45.550  12.804  -7.454  1.00  0.00    -0.000 C 
BRANCH   7   8
ATOM      8  C   UNL     1      46.822  12.397  -8.210  1.00  0.00    -0.000 C 
BRANCH   8   9
ATOM      9  C   UNL     1      46.488  11.946  -9.642  1.00  0.00    -0.000 C 
BRANCH   9  10
ATOM     10  C   UNL     1      45.081  11.335  -9.758  1.00  0.00    -0.000 C 
BRANCH  10  11
ATOM     11  C   UNL     1      45.024  10.165 -10.756  1.00  0.00    -0.003 C 
ATOM     12  C   UNL     1      45.185   8.826 -10.039  1.00  0.00     0.004 C 
ENDBRANCH  10  11
ENDBRANCH   9  10
ENDBRANCH   8   9
ENDBRANCH   7   8
ENDBRANCH   6   7
ENDBRANCH   5   6
ENDBRANCH   4   5
ENDBRANCH   3   4
ENDBRANCH   2   3
ENDBRANCH   1   2
BRANCH   1  13
ATOM     13  C   UNL     1      49.970  10.497  -7.780  1.00  0.00     0.000 C 
BRANCH  13  14
ATOM     14  C   UNL     1      49.827   9.035  -7.325  1.00  0.00     0.000 C 
BRANCH  14  15
ATOM     15  C   UNL     1      48.519   8.389  -7.815  1.00  0.00     0.000 C 
BRANCH  15  16
ATOM     16  C   UNL     1      47.273   8.985  -7.143  1.00  0.00     0.000 C 
BRANCH  16  17
ATOM     17  C   UNL     1      46.766   8.074  -6.017  1.00  0.00     0.000 C 
BRANCH  17  18
ATOM     18  C   UNL     1      45.231   8.098  -5.940  1.00  0.00     0.000 C 
BRANCH  18  19
ATOM     19  C   UNL     1      44.613   9.327  -6.631  1.00  0.00     0.000 C 
BRANCH  19  20
ATOM     20  C   UNL     1      43.200   9.711  -6.142  1.00  0.00     0.006 C 
BRANCH  20  21
ATOM     21  C   UNL     1      43.172  10.508  -4.829  1.00  0.00     0.053 C 
BRANCH  21  22
ATOM     22  C   UNL     1      42.395   9.805  -3.760  1.00  0.00     0.041 C 
ATOM     23  O   UNL     1      41.298  10.277  -3.359  1.00  0.00    -0.550 OA
ATOM     24  O   UNL     1      42.871   8.613  -3.222  1.00  0.00    -0.550 OA
ENDBRANCH  21  22
ENDBRANCH  20  21
ENDBRANCH  19  20
ENDBRANCH  18  19
ENDBRANCH  17  18
ENDBRANCH  16  17
ENDBRANCH  15  16
ENDBRANCH  14  15
ENDBRANCH  13  14
ENDBRANCH   1  13
TORSDOF 20
ENDMDL
MODEL 6
REMARK VINA RESULT:    -5.408     13.816     17.973
REMARK INTER + INTRA:         -15.509
REMARK INTER:                 -11.698
REMARK INTRA:                  -3.811
REMARK UNBOUND:                -3.777
REMARK SMILES CCCCCCCCCCCCCCCCCCCCCC(=O)[O-]
REMARK SMILES IDX 12 1 11 2 10 3 9 4 8 5 7 6 6 7 5 8 4 9 3 10 2 11 1 12 13 13
REMARK SMILES IDX 14 14 15 15 16 16 17 17 18 18 19 19 20 20 21 21 22 22 23 23
REMARK SMILES IDX 24 24
REMARK H PARENT
REMARK Flexibility Score: inf
ROOT
ATOM      1  C   UNL     1      49.195   9.105  -6.895  1.00  0.00     0.000 C 
ENDROOT
BRANCH   1   2
ATOM      2  C   UNL     1      50.185  10.214  -7.285  1.00  0.00     0.000 C 
BRANCH   2   3
ATOM      3  C   UNL     1      49.907  11.544  -6.565  1.00  0.00     0.000 C 
BRANCH   3   4
ATOM      4  C   UNL     1      49.499  11.375  -5.087  1.00  0.00    -0.000 C 
BRANCH   4   5
ATOM      5  C   UNL     1      48.274  12.231  -4.720  1.00  0.00    -0.000 C 
BRANCH   5   6
ATOM      6  C   UNL     1      47.004  11.808  -5.479  1.00  0.00    -0.000 C 
BRANCH   6   7
ATOM      7  C   UNL     1      46.124  13.006  -5.871  1.00  0.00    -0.000 C 
BRANCH   7   8
ATOM      8  C   UNL     1      45.827  13.002  -7.377  1.00  0.00    -0.000 C 
BRANCH   8   9
ATOM      9  C   UNL     1      46.759  12.029  -8.117  1.00  0.00    -0.000 C 
BRANCH   9  10
ATOM     10  C   UNL     1      46.463  11.955  -9.624  1.00  0.00    -0.000 C 
BRANCH  10  11
ATOM     11  C   UNL     1      45.034  11.468  -9.924  1.00  0.00    -0.003 C 
ATOM     12  C   UNL     1      45.056  10.171 -10.731  1.00  0.00     0.004 C 
ENDBRANCH  10  11
ENDBRANCH   9  10
ENDBRANCH   8   9
ENDBRANCH   7   8
ENDBRANCH   6   7
ENDBRANCH   5   6
ENDBRANCH   4   5
ENDBRANCH   3   4
ENDBRANCH   2   3
ENDBRANCH   1   2
BRANCH   1  13
ATOM     13  C   UNL     1      48.552   8.425  -8.116  1.00  0.00     0.000 C 
BRANCH  13  14
ATOM     14  C   UNL     1      47.018   8.371  -8.023  1.00  0.00     0.000 C 
BRANCH  14  15
ATOM     15  C   UNL     1      46.527   7.865  -6.655  1.00  0.00     0.000 C 
BRANCH  15  16
ATOM     16  C   UNL     1      45.437   8.761  -6.046  1.00  0.00     0.000 C 
BRANCH  16  17
ATOM     17  C   UNL     1      44.471   9.265  -7.126  1.00  0.00     0.000 C 
BRANCH  17  18
ATOM     18  C   UNL     1      43.360  10.129  -6.509  1.00  0.00     0.000 C 
BRANCH  18  19
ATOM     19  C   UNL     1      43.608  10.460  -5.027  1.00  0.00     0.000 C 
BRANCH  19  20
ATOM     20  C   UNL     1      42.505   9.986  -4.056  1.00  0.00     0.006 C 
BRANCH  20  21
ATOM     21  C   UNL     1      41.726   8.748  -4.528  1.00  0.00     0.053 C 
BRANCH  21  22
ATOM     22  C   UNL     1      40.255   9.009  -4.619  1.00  0.00     0.041 C 
ATOM     23  O   UNL     1      39.668   8.952  -5.732  1.00  0.00    -0.550 OA
ATOM     24  O   UNL     1      39.526   9.293  -3.468  1.00  0.00    -0.550 OA
ENDBRANCH  21  22
ENDBRANCH  20  21
ENDBRANCH  19  20
ENDBRANCH  18  19
ENDBRANCH  17  18
ENDBRANCH  16  17
ENDBRANCH  15  16
ENDBRANCH  14  15
ENDBRANCH  13  14
ENDBRANCH   1  13
TORSDOF 20
ENDMDL
MODEL 7
REMARK VINA RESULT:    -5.394     14.092     18.385
REMARK INTER + INTRA:         -15.477
REMARK INTER:                 -11.803
REMARK INTRA:                  -3.675
REMARK UNBOUND:                -3.777
REMARK SMILES CCCCCCCCCCCCCCCCCCCCCC(=O)[O-]
REMARK SMILES IDX 12 1 11 2 10 3 9 4 8 5 7 6 6 7 5 8 4 9 3 10 2 11 1 12 13 13
REMARK SMILES IDX 14 14 15 15 16 16 17 17 18 18 19 19 20 20 21 21 22 22 23 23
REMARK SMILES IDX 24 24
REMARK H PARENT
REMARK Flexibility Score: inf
ROOT
ATOM      1  C   UNL     1      44.910  11.670  -9.656  1.00  0.00     0.000 C 
ENDROOT
BRANCH   1   2
ATOM      2  C   UNL     1      46.020  12.597  -9.133  1.00  0.00     0.000 C 
BRANCH   2   3
ATOM      3  C   UNL     1      45.732  13.138  -7.723  1.00  0.00     0.000 C 
BRANCH   3   4
ATOM      4  C   UNL     1      46.841  12.820  -6.699  1.00  0.00    -0.000 C 
BRANCH   4   5
ATOM      5  C   UNL     1      46.304  12.039  -5.485  1.00  0.00    -0.000 C 
BRANCH   5   6
ATOM      6  C   UNL     1      47.357  11.102  -4.869  1.00  0.00    -0.000 C 
BRANCH   6   7
ATOM      7  C   UNL     1      48.653  11.837  -4.490  1.00  0.00    -0.000 C 
BRANCH   7   8
ATOM      8  C   UNL     1      49.885  10.974  -4.793  1.00  0.00    -0.000 C 
BRANCH   8   9
ATOM      9  C   UNL     1      49.517   9.791  -5.704  1.00  0.00    -0.000 C 
BRANCH   9  10
ATOM     10  C   UNL     1      50.164   9.891  -7.095  1.00  0.00    -0.000 C 
BRANCH  10  11
ATOM     11  C   UNL     1      49.336  10.741  -8.075  1.00  0.00    -0.003 C 
ATOM     12  C   UNL     1      50.032  12.067  -8.372  1.00  0.00     0.004 C 
ENDBRANCH  10  11
ENDBRANCH   9  10
ENDBRANCH   8   9
ENDBRANCH   7   8
ENDBRANCH   6   7
ENDBRANCH   5   6
ENDBRANCH   4   5
ENDBRANCH   3   4
ENDBRANCH   2   3
ENDBRANCH   1   2
BRANCH   1  13
ATOM     13  C   UNL     1      43.943  11.219  -8.549  1.00  0.00     0.000 C 
BRANCH  13  14
ATOM     14  C   UNL     1      44.001   9.703  -8.296  1.00  0.00     0.000 C 
BRANCH  14  15
ATOM     15  C   UNL     1      45.166   9.302  -7.375  1.00  0.00     0.000 C 
BRANCH  15  16
ATOM     16  C   UNL     1      46.336   8.664  -8.140  1.00  0.00     0.000 C 
BRANCH  16  17
ATOM     17  C   UNL     1      47.007   7.566  -7.305  1.00  0.00     0.000 C 
BRANCH  17  18
ATOM     18  C   UNL     1      46.445   7.542  -5.875  1.00  0.00     0.000 C 
BRANCH  18  19
ATOM     19  C   UNL     1      45.881   6.167  -5.474  1.00  0.00     0.000 C 
BRANCH  19  20
ATOM     20  C   UNL     1      44.473   6.197  -4.840  1.00  0.00     0.006 C 
BRANCH  20  21
ATOM     21  C   UNL     1      44.387   6.956  -3.507  1.00  0.00     0.053 C 
BRANCH  21  22
ATOM     22  C   UNL     1      45.461   6.540  -2.551  1.00  0.00     0.041 C 
ATOM     23  O   UNL     1      46.339   7.367  -2.186  1.00  0.00    -0.550 OA
ATOM     24  O   UNL     1      45.479   5.245  -2.044  1.00  0.00    -0.550 OA
ENDBRANCH  21  22
ENDBRANCH  20  21
ENDBRANCH  19  20
ENDBRANCH  18  19
ENDBRANCH  17  18
ENDBRANCH  16  17
ENDBRANCH  15  16
ENDBRANCH  14  15
ENDBRANCH  13  14
ENDBRANCH   1  13
TORSDOF 20
ENDMDL
MODEL 8
REMARK VINA RESULT:    -5.362      2.108      4.348
REMARK INTER + INTRA:         -15.408
REMARK INTER:                 -11.309
REMARK INTRA:                  -4.099
REMARK UNBOUND:                -3.777
REMARK SMILES CCCCCCCCCCCCCCCCCCCCCC(=O)[O-]
REMARK SMILES IDX 12 1 11 2 10 3 9 4 8 5 7 6 6 7 5 8 4 9 3 10 2 11 1 12 13 13
REMARK SMILES IDX 14 14 15 15 16 16 17 17 18 18 19 19 20 20 21 21 22 22 23 23
REMARK SMILES IDX 24 24
REMARK H PARENT
REMARK Flexibility Score: inf
ROOT
ATOM      1  C   UNL     1      34.626   0.769   3.085  1.00  0.00     0.000 C 
ENDROOT
BRANCH   1   2
ATOM      2  C   UNL     1      34.250   2.197   3.515  1.00  0.00     0.000 C 
BRANCH   2   3
ATOM      3  C   UNL     1      33.891   2.296   5.006  1.00  0.00     0.000 C 
BRANCH   3   4
ATOM      4  C   UNL     1      33.158   3.601   5.382  1.00  0.00    -0.000 C 
BRANCH   4   5
ATOM      5  C   UNL     1      33.506   4.074   6.804  1.00  0.00    -0.000 C 
BRANCH   5   6
ATOM      6  C   UNL     1      34.450   3.107   7.538  1.00  0.00    -0.000 C 
BRANCH   6   7
ATOM      7  C   UNL     1      35.756   3.782   7.987  1.00  0.00    -0.000 C 
BRANCH   7   8
ATOM      8  C   UNL     1      35.877   5.194   7.399  1.00  0.00    -0.000 C 
BRANCH   8   9
ATOM      9  C   UNL     1      36.822   5.205   6.186  1.00  0.00    -0.000 C 
BRANCH   9  10
ATOM     10  C   UNL     1      36.162   5.789   4.926  1.00  0.00    -0.000 C 
BRANCH  10  11
ATOM     11  C   UNL     1      37.038   5.630   3.670  1.00  0.00    -0.003 C 
ATOM     12  C   UNL     1      36.214   5.123   2.489  1.00  0.00     0.004 C 
ENDBRANCH  10  11
ENDBRANCH   9  10
ENDBRANCH   8   9
ENDBRANCH   7   8
ENDBRANCH   6   7
ENDBRANCH   5   6
ENDBRANCH   4   5
ENDBRANCH   3   4
ENDBRANCH   2   3
ENDBRANCH   1   2
BRANCH   1  13
ATOM     13  C   UNL     1      34.342  -0.275   4.177  1.00  0.00     0.000 C 
BRANCH  13  14
ATOM     14  C   UNL     1      35.366  -1.423   4.178  1.00  0.00     0.000 C 
BRANCH  14  15
ATOM     15  C   UNL     1      36.715  -1.011   4.791  1.00  0.00     0.000 C 
BRANCH  15  16
ATOM     16  C   UNL     1      36.562  -0.327   6.159  1.00  0.00     0.000 C 
BRANCH  16  17
ATOM     17  C   UNL     1      37.630   0.757   6.355  1.00  0.00     0.000 C 
BRANCH  17  18
ATOM     18  C   UNL     1      37.435   1.908   5.356  1.00  0.00     0.000 C 
BRANCH  18  19
ATOM     19  C   UNL     1      38.559   1.995   4.309  1.00  0.00     0.000 C 
BRANCH  19  20
ATOM     20  C   UNL     1      38.082   2.064   2.842  1.00  0.00     0.006 C 
BRANCH  20  21
ATOM     21  C   UNL     1      39.204   1.951   1.798  1.00  0.00     0.053 C 
BRANCH  21  22
ATOM     22  C   UNL     1      40.206   3.056   1.926  1.00  0.00     0.041 C 
ATOM     23  O   UNL     1      39.881   4.242   1.649  1.00  0.00    -0.550 OA
ATOM     24  O   UNL     1      41.493   2.781   2.375  1.00  0.00    -0.550 OA
ENDBRANCH  21  22
ENDBRANCH  20  21
ENDBRANCH  19  20
ENDBRANCH  18  19
ENDBRANCH  17  18
ENDBRANCH  16  17
ENDBRANCH  15  16
ENDBRANCH  14  15
ENDBRANCH  13  14
ENDBRANCH   1  13
TORSDOF 20
ENDMDL
MODEL 9
REMARK VINA RESULT:    -5.324     14.071     17.682
REMARK INTER + INTRA:         -15.326
REMARK INTER:                 -12.011
REMARK INTRA:                  -3.316
REMARK UNBOUND:                -3.777
REMARK SMILES CCCCCCCCCCCCCCCCCCCCCC(=O)[O-]
REMARK SMILES IDX 12 1 11 2 10 3 9 4 8 5 7 6 6 7 5 8 4 9 3 10 2 11 1 12 13 13
REMARK SMILES IDX 14 14 15 15 16 16 17 17 18 18 19 19 20 20 21 21 22 22 23 23
REMARK SMILES IDX 24 24
REMARK H PARENT
REMARK Flexibility Score: inf
ROOT
ATOM      1  C   UNL     1      48.505  12.142  -4.746  1.00  0.00     0.000 C 
ENDROOT
BRANCH   1   2
ATOM      2  C   UNL     1      47.290  12.049  -5.684  1.00  0.00     0.000 C 
BRANCH   2   3
ATOM      3  C   UNL     1      46.455  10.779  -5.455  1.00  0.00     0.000 C 
BRANCH   3   4
ATOM      4  C   UNL     1      46.871   9.980  -4.202  1.00  0.00    -0.000 C 
BRANCH   4   5
ATOM      5  C   UNL     1      47.039   8.480  -4.498  1.00  0.00    -0.000 C 
BRANCH   5   6
ATOM      6  C   UNL     1      45.720   7.804  -4.909  1.00  0.00    -0.000 C 
BRANCH   6   7
ATOM      7  C   UNL     1      45.931   6.389  -5.472  1.00  0.00    -0.000 C 
BRANCH   7   8
ATOM      8  C   UNL     1      45.551   5.322  -4.437  1.00  0.00    -0.000 C 
BRANCH   8   9
ATOM      9  C   UNL     1      44.979   5.969  -3.165  1.00  0.00    -0.000 C 
BRANCH   9  10
ATOM     10  C   UNL     1      45.559   5.362  -1.878  1.00  0.00    -0.000 C 
BRANCH  10  11
ATOM     11  C   UNL     1      46.290   6.401  -1.009  1.00  0.00    -0.003 C 
ATOM     12  C   UNL     1      45.488   7.697  -0.915  1.00  0.00     0.004 C 
ENDBRANCH  10  11
ENDBRANCH   9  10
ENDBRANCH   8   9
ENDBRANCH   7   8
ENDBRANCH   6   7
ENDBRANCH   5   6
ENDBRANCH   4   5
ENDBRANCH   3   4
ENDBRANCH   2   3
ENDBRANCH   1   2
BRANCH   1  13
ATOM     13  C   UNL     1      49.783  11.553  -5.369  1.00  0.00     0.000 C 
BRANCH  13  14
ATOM     14  C   UNL     1      49.956  11.947  -6.845  1.00  0.00     0.000 C 
BRANCH  14  15
ATOM     15  C   UNL     1      49.851  10.741  -7.795  1.00  0.00     0.000 C 
BRANCH  15  16
ATOM     16  C   UNL     1      49.837   9.397  -7.050  1.00  0.00     0.000 C 
BRANCH  16  17
ATOM     17  C   UNL     1      48.768   8.459  -7.625  1.00  0.00     0.000 C 
BRANCH  17  18
ATOM     18  C   UNL     1      47.833   9.214  -8.584  1.00  0.00     0.000 C 
BRANCH  18  19
ATOM     19  C   UNL     1      46.365   8.766  -8.469  1.00  0.00     0.000 C 
BRANCH  19  20
ATOM     20  C   UNL     1      45.523   8.950  -9.751  1.00  0.00     0.006 C 
BRANCH  20  21
ATOM     21  C   UNL     1      45.613  10.349 -10.380  1.00  0.00     0.053 C 
BRANCH  21  22
ATOM     22  C   UNL     1      45.024  11.403  -9.496  1.00  0.00     0.041 C 
ATOM     23  O   UNL     1      43.806  11.353  -9.173  1.00  0.00    -0.550 OA
ATOM     24  O   UNL     1      45.825  12.430  -9.008  1.00  0.00    -0.550 OA
ENDBRANCH  21  22
ENDBRANCH  20  21
ENDBRANCH  19  20
ENDBRANCH  18  19
ENDBRANCH  17  18
ENDBRANCH  16  17
ENDBRANCH  15  16
ENDBRANCH  14  15
ENDBRANCH  13  14
ENDBRANCH   1  13
TORSDOF 20
ENDMDL
