MODEL 1
REMARK VINA RESULT:    -5.421      0.000      0.000
REMARK INTER + INTRA:          -6.555
REMARK INTER:                  -6.371
REMARK INTRA:                  -0.184
REMARK UNBOUND:                -0.184
REMARK SMILES O=c1c(O)c(-c2ccc(O)cc2)oc2cc(O)cc(O)c12
REMARK SMILES IDX 5 1 3 2 2 3 1 4 21 5 19 6 18 7 16 8 15 9 14 10 13 11 6 12
REMARK SMILES IDX 7 13 8 14 9 15 12 16 11 17 10 18 4 20 20 22 17 24
REMARK H PARENT 10 19 4 21 20 23 17 25
REMARK Flexibility Score: inf
ROOT
ATOM      1  C   UNL     1      14.911  19.528   4.575  1.00  0.00     0.180 A 
ATOM      2  C   UNL     1      14.783  18.365   3.796  1.00  0.00     0.208 A 
ATOM      3  C   UNL     1      15.320  17.160   4.277  1.00  0.00     0.238 A 
ATOM      4  O   UNL     1      15.155  16.112   3.600  1.00  0.00    -0.285 OA
ATOM      5  C   UNL     1      15.993  17.136   5.522  1.00  0.00     0.111 A 
ATOM      6  C   UNL     1      16.611  15.980   6.088  1.00  0.00     0.134 A 
ATOM      7  C   UNL     1      17.134  16.042   7.385  1.00  0.00     0.093 A 
ATOM      8  C   UNL     1      17.119  17.234   8.112  1.00  0.00     0.123 A 
ATOM      9  C   UNL     1      16.571  18.383   7.545  1.00  0.00     0.094 A 
ATOM     10  C   UNL     1      16.010  18.344   6.267  1.00  0.00     0.146 A 
ATOM     11  O   UNL     1      15.489  19.459   5.769  1.00  0.00    -0.452 OA
ENDROOT
BRANCH   1  12
ATOM     12  C   UNL     1      14.392  20.840   4.125  1.00  0.00     0.021 A 
ATOM     13  C   UNL     1      13.006  21.064   4.102  1.00  0.00     0.016 A 
ATOM     14  C   UNL     1      12.495  22.303   3.703  1.00  0.00     0.047 A 
ATOM     15  C   UNL     1      13.362  23.336   3.335  1.00  0.00     0.115 A 
ATOM     16  C   UNL     1      15.261  21.889   3.773  1.00  0.00     0.016 A 
ATOM     17  C   UNL     1      14.747  23.127   3.374  1.00  0.00     0.047 A 
BRANCH  15  18
ATOM     18  O   UNL     1      12.840  24.565   2.938  1.00  0.00    -0.508 OA
ATOM     19  H   UNL     1      13.170  25.435   3.340  1.00  0.00     0.293 HD
ENDBRANCH  15  18
ENDBRANCH   1  12
BRANCH   2  20
ATOM     20  O   UNL     1      14.096  18.406   2.579  1.00  0.00    -0.502 OA
ATOM     21  H   UNL     1      13.085  18.406   2.524  1.00  0.00     0.293 HD
ENDBRANCH   2  20
BRANCH   6  22
ATOM     22  O   UNL     1      16.760  14.765   5.411  1.00  0.00    -0.507 OA
ATOM     23  H   UNL     1      17.211  14.659   4.515  1.00  0.00     0.293 HD
ENDBRANCH   6  22
BRANCH   8  24
ATOM     24  O   UNL     1      17.656  17.290   9.396  1.00  0.00    -0.508 OA
ATOM     25  H   UNL     1      18.120  18.122   9.742  1.00  0.00     0.293 HD
ENDBRANCH   8  24
TORSDOF 5
ENDMDL
MODEL 2
REMARK VINA RESULT:    -5.367      9.640     12.415
REMARK INTER + INTRA:          -6.492
REMARK INTER:                  -6.222
REMARK INTRA:                  -0.269
REMARK UNBOUND:                -0.184
REMARK SMILES O=c1c(O)c(-c2ccc(O)cc2)oc2cc(O)cc(O)c12
REMARK SMILES IDX 5 1 3 2 2 3 1 4 21 5 19 6 18 7 16 8 15 9 14 10 13 11 6 12
REMARK SMILES IDX 7 13 8 14 9 15 12 16 11 17 10 18 4 20 20 22 17 24
REMARK H PARENT 10 19 4 21 20 23 17 25
REMARK Flexibility Score: inf
ROOT
ATOM      1  C   UNL     1      18.834  21.977  15.329  1.00  0.00     0.180 A 
ATOM      2  C   UNL     1      17.491  21.589  15.479  1.00  0.00     0.208 A 
ATOM      3  C   UNL     1      17.029  21.212  16.750  1.00  0.00     0.238 A 
ATOM      4  O   UNL     1      15.813  20.918  16.888  1.00  0.00    -0.285 OA
ATOM      5  C   UNL     1      17.918  21.210  17.852  1.00  0.00     0.111 A 
ATOM      6  C   UNL     1      17.568  20.808  19.175  1.00  0.00     0.134 A 
ATOM      7  C   UNL     1      18.492  20.972  20.214  1.00  0.00     0.093 A 
ATOM      8  C   UNL     1      19.776  21.463  19.965  1.00  0.00     0.123 A 
ATOM      9  C   UNL     1      20.147  21.803  18.666  1.00  0.00     0.094 A 
ATOM     10  C   UNL     1      19.234  21.684  17.615  1.00  0.00     0.146 A 
ATOM     11  O   UNL     1      19.626  22.029  16.394  1.00  0.00    -0.452 OA
ENDROOT
BRANCH   1  12
ATOM     12  C   UNL     1      19.401  22.365  14.017  1.00  0.00     0.021 A 
ATOM     13  C   UNL     1      19.636  23.721  13.739  1.00  0.00     0.016 A 
ATOM     14  C   UNL     1      20.192  24.108  12.516  1.00  0.00     0.047 A 
ATOM     15  C   UNL     1      20.533  23.144  11.562  1.00  0.00     0.115 A 
ATOM     16  C   UNL     1      19.765  21.398  13.062  1.00  0.00     0.016 A 
ATOM     17  C   UNL     1      20.322  21.787  11.840  1.00  0.00     0.047 A 
BRANCH  15  18
ATOM     18  O   UNL     1      21.086  23.543  10.347  1.00  0.00    -0.508 OA
ATOM     19  H   UNL     1      22.089  23.573  10.206  1.00  0.00     0.293 HD
ENDBRANCH  15  18
ENDBRANCH   1  12
BRANCH   2  20
ATOM     20  O   UNL     1      16.624  21.618  14.383  1.00  0.00    -0.502 OA
ATOM     21  H   UNL     1      15.623  21.504  14.477  1.00  0.00     0.293 HD
ENDBRANCH   2  20
BRANCH   6  22
ATOM     22  O   UNL     1      16.345  20.221  19.515  1.00  0.00    -0.507 OA
ATOM     23  H   UNL     1      15.897  20.307  20.414  1.00  0.00     0.293 HD
ENDBRANCH   6  22
BRANCH   8  24
ATOM     24  O   UNL     1      20.694  21.608  21.003  1.00  0.00    -0.508 OA
ATOM     25  H   UNL     1      21.510  21.012  21.076  1.00  0.00     0.293 HD
ENDBRANCH   8  24
TORSDOF 5
ENDMDL
MODEL 3
REMARK VINA RESULT:    -5.351      0.069      1.059
REMARK INTER + INTRA:          -6.473
REMARK INTER:                  -6.290
REMARK INTRA:                  -0.184
REMARK UNBOUND:                -0.184
REMARK SMILES O=c1c(O)c(-c2ccc(O)cc2)oc2cc(O)cc(O)c12
REMARK SMILES IDX 5 1 3 2 2 3 1 4 21 5 19 6 18 7 16 8 15 9 14 10 13 11 6 12
REMARK SMILES IDX 7 13 8 14 9 15 12 16 11 17 10 18 4 20 20 22 17 24
REMARK H PARENT 10 19 4 21 20 23 17 25
REMARK Flexibility Score: inf
ROOT
ATOM      1  C   UNL     1      14.898  19.508   4.619  1.00  0.00     0.180 A 
ATOM      2  C   UNL     1      14.804  18.368   3.802  1.00  0.00     0.208 A 
ATOM      3  C   UNL     1      15.358  17.159   4.253  1.00  0.00     0.238 A 
ATOM      4  O   UNL     1      15.223  16.129   3.542  1.00  0.00    -0.285 OA
ATOM      5  C   UNL     1      16.014  17.108   5.507  1.00  0.00     0.111 A 
ATOM      6  C   UNL     1      16.647  15.948   6.045  1.00  0.00     0.134 A 
ATOM      7  C   UNL     1      17.150  15.979   7.351  1.00  0.00     0.093 A 
ATOM      8  C   UNL     1      17.102  17.147   8.114  1.00  0.00     0.123 A 
ATOM      9  C   UNL     1      16.539  18.302   7.576  1.00  0.00     0.094 A 
ATOM     10  C   UNL     1      15.996  18.292   6.289  1.00  0.00     0.146 A 
ATOM     11  O   UNL     1      15.461  19.412   5.818  1.00  0.00    -0.452 OA
ENDROOT
BRANCH   1  12
ATOM     12  C   UNL     1      14.359  20.822   4.202  1.00  0.00     0.021 A 
ATOM     13  C   UNL     1      15.246  21.844   3.824  1.00  0.00     0.016 A 
ATOM     14  C   UNL     1      14.758  23.086   3.405  1.00  0.00     0.047 A 
ATOM     15  C   UNL     1      13.381  23.317   3.344  1.00  0.00     0.115 A 
ATOM     16  C   UNL     1      12.974  21.054   4.120  1.00  0.00     0.016 A 
ATOM     17  C   UNL     1      12.489  22.296   3.700  1.00  0.00     0.047 A 
BRANCH  15  18
ATOM     18  O   UNL     1      12.908  24.559   2.925  1.00  0.00    -0.508 OA
ATOM     19  H   UNL     1      12.011  24.656   2.463  1.00  0.00     0.293 HD
ENDBRANCH  15  18
ENDBRANCH   1  12
BRANCH   2  20
ATOM     20  O   UNL     1      14.133  18.433   2.578  1.00  0.00    -0.502 OA
ATOM     21  H   UNL     1      13.587  19.238   2.297  1.00  0.00     0.293 HD
ENDBRANCH   2  20
BRANCH   6  22
ATOM     22  O   UNL     1      16.830  14.758   5.333  1.00  0.00    -0.507 OA
ATOM     23  H   UNL     1      17.722  14.410   5.016  1.00  0.00     0.293 HD
ENDBRANCH   6  22
BRANCH   8  24
ATOM     24  O   UNL     1      17.620  17.173   9.407  1.00  0.00    -0.508 OA
ATOM     25  H   UNL     1      17.694  16.331   9.966  1.00  0.00     0.293 HD
ENDBRANCH   8  24
TORSDOF 5
ENDMDL
MODEL 4
REMARK VINA RESULT:    -5.108     11.044     14.359
REMARK INTER + INTRA:          -6.187
REMARK INTER:                  -5.899
REMARK INTRA:                  -0.289
REMARK UNBOUND:                -0.184
REMARK SMILES O=c1c(O)c(-c2ccc(O)cc2)oc2cc(O)cc(O)c12
REMARK SMILES IDX 5 1 3 2 2 3 1 4 21 5 19 6 18 7 16 8 15 9 14 10 13 11 6 12
REMARK SMILES IDX 7 13 8 14 9 15 12 16 11 17 10 18 4 20 20 22 17 24
REMARK H PARENT 10 19 4 21 20 23 17 25
REMARK Flexibility Score: inf
ROOT
ATOM      1  C   UNL     1      19.455  22.184  16.866  1.00  0.00     0.180 A 
ATOM      2  C   UNL     1      20.002  23.425  17.237  1.00  0.00     0.208 A 
ATOM      3  C   UNL     1      19.651  23.981  18.477  1.00  0.00     0.238 A 
ATOM      4  O   UNL     1      20.186  25.066  18.826  1.00  0.00    -0.285 OA
ATOM      5  C   UNL     1      18.744  23.300  19.324  1.00  0.00     0.111 A 
ATOM      6  C   UNL     1      18.286  23.789  20.584  1.00  0.00     0.134 A 
ATOM      7  C   UNL     1      17.493  22.971  21.396  1.00  0.00     0.093 A 
ATOM      8  C   UNL     1      17.086  21.706  20.966  1.00  0.00     0.123 A 
ATOM      9  C   UNL     1      17.479  21.243  19.712  1.00  0.00     0.094 A 
ATOM     10  C   UNL     1      18.301  22.022  18.895  1.00  0.00     0.146 A 
ATOM     11  O   UNL     1      18.660  21.538  17.711  1.00  0.00    -0.452 OA
ENDROOT
BRANCH   1  12
ATOM     12  C   UNL     1      19.759  21.545  15.566  1.00  0.00     0.021 A 
ATOM     13  C   UNL     1      18.989  21.873  14.438  1.00  0.00     0.016 A 
ATOM     14  C   UNL     1      19.274  21.300  13.195  1.00  0.00     0.047 A 
ATOM     15  C   UNL     1      20.338  20.404  13.060  1.00  0.00     0.115 A 
ATOM     16  C   UNL     1      20.842  20.659  15.420  1.00  0.00     0.016 A 
ATOM     17  C   UNL     1      21.125  20.087  14.176  1.00  0.00     0.047 A 
BRANCH  15  18
ATOM     18  O   UNL     1      20.610  19.839  11.816  1.00  0.00    -0.508 OA
ATOM     19  H   UNL     1      20.753  20.414  10.993  1.00  0.00     0.293 HD
ENDBRANCH  15  18
ENDBRANCH   1  12
BRANCH   2  20
ATOM     20  O   UNL     1      20.912  24.072  16.396  1.00  0.00    -0.502 OA
ATOM     21  H   UNL     1      21.740  23.614  16.034  1.00  0.00     0.293 HD
ENDBRANCH   2  20
BRANCH   6  22
ATOM     22  O   UNL     1      18.559  25.073  21.068  1.00  0.00    -0.507 OA
ATOM     23  H   UNL     1      18.570  25.328  22.043  1.00  0.00     0.293 HD
ENDBRANCH   6  22
BRANCH   8  24
ATOM     24  O   UNL     1      16.283  20.904  21.774  1.00  0.00    -0.508 OA
ATOM     25  H   UNL     1      15.641  20.227  21.379  1.00  0.00     0.293 HD
ENDBRANCH   8  24
TORSDOF 5
ENDMDL
MODEL 5
REMARK VINA RESULT:    -4.965      9.766     12.625
REMARK INTER + INTRA:          -6.019
REMARK INTER:                  -5.964
REMARK INTRA:                  -0.056
REMARK UNBOUND:                -0.184
REMARK SMILES O=c1c(O)c(-c2ccc(O)cc2)oc2cc(O)cc(O)c12
REMARK SMILES IDX 5 1 3 2 2 3 1 4 21 5 19 6 18 7 16 8 15 9 14 10 13 11 6 12
REMARK SMILES IDX 7 13 8 14 9 15 12 16 11 17 10 18 4 20 20 22 17 24
REMARK H PARENT 10 19 4 21 20 23 17 25
REMARK Flexibility Score: inf
ROOT
ATOM      1  C   UNL     1      19.456  22.891  15.300  1.00  0.00     0.180 A 
ATOM      2  C   UNL     1      20.104  23.450  16.415  1.00  0.00     0.208 A 
ATOM      3  C   UNL     1      19.736  23.023  17.701  1.00  0.00     0.238 A 
ATOM      4  O   UNL     1      20.356  23.488  18.693  1.00  0.00    -0.285 OA
ATOM      5  C   UNL     1      18.715  22.055  17.858  1.00  0.00     0.111 A 
ATOM      6  C   UNL     1      18.234  21.580  19.114  1.00  0.00     0.134 A 
ATOM      7  C   UNL     1      17.313  20.526  19.147  1.00  0.00     0.093 A 
ATOM      8  C   UNL     1      16.807  19.974  17.968  1.00  0.00     0.123 A 
ATOM      9  C   UNL     1      17.225  20.472  16.736  1.00  0.00     0.094 A 
ATOM     10  C   UNL     1      18.170  21.498  16.671  1.00  0.00     0.146 A 
ATOM     11  O   UNL     1      18.550  21.936  15.476  1.00  0.00    -0.452 OA
ENDROOT
BRANCH   1  12
ATOM     12  C   UNL     1      19.772  23.307  13.914  1.00  0.00     0.021 A 
ATOM     13  C   UNL     1      20.097  22.332  12.956  1.00  0.00     0.016 A 
ATOM     14  C   UNL     1      20.375  22.701  11.637  1.00  0.00     0.047 A 
ATOM     15  C   UNL     1      20.319  24.044  11.255  1.00  0.00     0.115 A 
ATOM     16  C   UNL     1      19.697  24.655  13.520  1.00  0.00     0.016 A 
ATOM     17  C   UNL     1      19.976  25.021  12.199  1.00  0.00     0.047 A 
BRANCH  15  18
ATOM     18  O   UNL     1      20.601  24.398   9.937  1.00  0.00    -0.508 OA
ATOM     19  H   UNL     1      19.861  24.603   9.274  1.00  0.00     0.293 HD
ENDBRANCH  15  18
ENDBRANCH   1  12
BRANCH   2  20
ATOM     20  O   UNL     1      21.124  24.389  16.238  1.00  0.00    -0.502 OA
ATOM     21  H   UNL     1      21.924  24.219  15.641  1.00  0.00     0.293 HD
ENDBRANCH   2  20
BRANCH   6  22
ATOM     22  O   UNL     1      18.605  22.123  20.348  1.00  0.00    -0.507 OA
ATOM     23  H   UNL     1      19.253  21.695  20.992  1.00  0.00     0.293 HD
ENDBRANCH   6  22
BRANCH   8  24
ATOM     24  O   UNL     1      15.878  18.936  18.010  1.00  0.00    -0.508 OA
ATOM     25  H   UNL     1      16.092  18.051  18.454  1.00  0.00     0.293 HD
ENDBRANCH   8  24
TORSDOF 5
ENDMDL
MODEL 6
REMARK VINA RESULT:    -4.892      1.907      3.816
REMARK INTER + INTRA:          -5.934
REMARK INTER:                  -5.957
REMARK INTRA:                   0.023
REMARK UNBOUND:                -0.184
REMARK SMILES O=c1c(O)c(-c2ccc(O)cc2)oc2cc(O)cc(O)c12
REMARK SMILES IDX 5 1 3 2 2 3 1 4 21 5 19 6 18 7 16 8 15 9 14 10 13 11 6 12
REMARK SMILES IDX 7 13 8 14 9 15 12 16 11 17 10 18 4 20 20 22 17 24
REMARK H PARENT 10 19 4 21 20 23 17 25
REMARK Flexibility Score: inf
ROOT
ATOM      1  C   UNL     1      16.548  19.105   6.443  1.00  0.00     0.180 A 
ATOM      2  C   UNL     1      17.063  19.434   7.709  1.00  0.00     0.208 A 
ATOM      3  C   UNL     1      17.573  18.411   8.524  1.00  0.00     0.238 A 
ATOM      4  O   UNL     1      18.082  18.719   9.634  1.00  0.00    -0.285 OA
ATOM      5  C   UNL     1      17.546  17.069   8.072  1.00  0.00     0.111 A 
ATOM      6  C   UNL     1      17.999  15.948   8.830  1.00  0.00     0.134 A 
ATOM      7  C   UNL     1      18.047  14.684   8.232  1.00  0.00     0.093 A 
ATOM      8  C   UNL     1      17.597  14.488   6.924  1.00  0.00     0.123 A 
ATOM      9  C   UNL     1      17.098  15.566   6.195  1.00  0.00     0.094 A 
ATOM     10  C   UNL     1      17.072  16.846   6.753  1.00  0.00     0.146 A 
ATOM     11  O   UNL     1      16.598  17.847   6.020  1.00  0.00    -0.452 OA
ENDROOT
BRANCH   1  12
ATOM     12  C   UNL     1      15.972  20.124   5.538  1.00  0.00     0.021 A 
ATOM     13  C   UNL     1      16.735  21.250   5.189  1.00  0.00     0.016 A 
ATOM     14  C   UNL     1      16.219  22.214   4.317  1.00  0.00     0.047 A 
ATOM     15  C   UNL     1      14.942  22.057   3.771  1.00  0.00     0.115 A 
ATOM     16  C   UNL     1      14.694  19.962   4.970  1.00  0.00     0.016 A 
ATOM     17  C   UNL     1      14.181  20.926   4.098  1.00  0.00     0.047 A 
BRANCH  15  18
ATOM     18  O   UNL     1      14.439  23.025   2.904  1.00  0.00    -0.508 OA
ATOM     19  H   UNL     1      13.673  22.823   2.272  1.00  0.00     0.293 HD
ENDBRANCH  15  18
ENDBRANCH   1  12
BRANCH   2  20
ATOM     20  O   UNL     1      17.100  20.767   8.129  1.00  0.00    -0.502 OA
ATOM     21  H   UNL     1      17.010  21.544   7.485  1.00  0.00     0.293 HD
ENDBRANCH   2  20
BRANCH   6  22
ATOM     22  O   UNL     1      18.383  16.019  10.173  1.00  0.00    -0.507 OA
ATOM     23  H   UNL     1      19.179  15.543  10.568  1.00  0.00     0.293 HD
ENDBRANCH   6  22
BRANCH   8  24
ATOM     24  O   UNL     1      17.634  13.223   6.342  1.00  0.00    -0.508 OA
ATOM     25  H   UNL     1      17.173  12.429   6.770  1.00  0.00     0.293 HD
ENDBRANCH   8  24
TORSDOF 5
ENDMDL
MODEL 7
REMARK VINA RESULT:    -4.769      6.217      7.402
REMARK INTER + INTRA:          -5.789
REMARK INTER:                  -5.495
REMARK INTRA:                  -0.294
REMARK UNBOUND:                -0.184
REMARK SMILES O=c1c(O)c(-c2ccc(O)cc2)oc2cc(O)cc(O)c12
REMARK SMILES IDX 5 1 3 2 2 3 1 4 21 5 19 6 18 7 16 8 15 9 14 10 13 11 6 12
REMARK SMILES IDX 7 13 8 14 9 15 12 16 11 17 10 18 4 20 20 22 17 24
REMARK H PARENT 10 19 4 21 20 23 17 25
REMARK Flexibility Score: inf
ROOT
ATOM      1  C   UNL     1      10.473  14.015   3.071  1.00  0.00     0.180 A 
ATOM      2  C   UNL     1      10.128  12.753   2.559  1.00  0.00     0.208 A 
ATOM      3  C   UNL     1      11.135  11.790   2.384  1.00  0.00     0.238 A 
ATOM      4  O   UNL     1      10.812  10.644   1.976  1.00  0.00    -0.285 OA
ATOM      5  C   UNL     1      12.477  12.107   2.706  1.00  0.00     0.111 A 
ATOM      6  C   UNL     1      13.584  11.223   2.531  1.00  0.00     0.134 A 
ATOM      7  C   UNL     1      14.846  11.594   3.007  1.00  0.00     0.093 A 
ATOM      8  C   UNL     1      15.056  12.845   3.593  1.00  0.00     0.123 A 
ATOM      9  C   UNL     1      13.994  13.738   3.715  1.00  0.00     0.094 A 
ATOM     10  C   UNL     1      12.715  13.381   3.282  1.00  0.00     0.146 A 
ATOM     11  O   UNL     1      11.729  14.259   3.427  1.00  0.00    -0.452 OA
ENDROOT
BRANCH   1  12
ATOM     12  C   UNL     1       9.472  15.089   3.261  1.00  0.00     0.021 A 
ATOM     13  C   UNL     1       8.806  15.204   4.492  1.00  0.00     0.016 A 
ATOM     14  C   UNL     1       7.874  16.225   4.701  1.00  0.00     0.047 A 
ATOM     15  C   UNL     1       7.606  17.151   3.689  1.00  0.00     0.115 A 
ATOM     16  C   UNL     1       9.214  16.036   2.253  1.00  0.00     0.016 A 
ATOM     17  C   UNL     1       8.281  17.057   2.465  1.00  0.00     0.047 A 
BRANCH  15  18
ATOM     18  O   UNL     1       6.674  18.163   3.910  1.00  0.00    -0.508 OA
ATOM     19  H   UNL     1       5.686  17.961   4.006  1.00  0.00     0.293 HD
ENDBRANCH  15  18
ENDBRANCH   1  12
BRANCH   2  20
ATOM     20  O   UNL     1       8.795  12.453   2.266  1.00  0.00    -0.502 OA
ATOM     21  H   UNL     1       8.038  13.103   2.442  1.00  0.00     0.293 HD
ENDBRANCH   2  20
BRANCH   6  22
ATOM     22  O   UNL     1      13.501   9.990   1.876  1.00  0.00    -0.507 OA
ATOM     23  H   UNL     1      14.137   9.677   1.158  1.00  0.00     0.293 HD
ENDBRANCH   6  22
BRANCH   8  24
ATOM     24  O   UNL     1      16.320  13.212   4.050  1.00  0.00    -0.508 OA
ATOM     25  H   UNL     1      17.158  12.999   3.521  1.00  0.00     0.293 HD
ENDBRANCH   8  24
TORSDOF 5
ENDMDL
MODEL 8
REMARK VINA RESULT:    -4.605     11.219     14.331
REMARK INTER + INTRA:          -5.596
REMARK INTER:                  -5.296
REMARK INTRA:                  -0.300
REMARK UNBOUND:                -0.184
REMARK SMILES O=c1c(O)c(-c2ccc(O)cc2)oc2cc(O)cc(O)c12
REMARK SMILES IDX 5 1 3 2 2 3 1 4 21 5 19 6 18 7 16 8 15 9 14 10 13 11 6 12
REMARK SMILES IDX 7 13 8 14 9 15 12 16 11 17 10 18 4 20 20 22 17 24
REMARK H PARENT 10 19 4 21 20 23 17 25
REMARK Flexibility Score: inf
ROOT
ATOM      1  C   UNL     1      19.147  21.691  17.182  1.00  0.00     0.180 A 
ATOM      2  C   UNL     1      18.029  21.016  17.701  1.00  0.00     0.208 A 
ATOM      3  C   UNL     1      17.749  21.117  19.074  1.00  0.00     0.238 A 
ATOM      4  O   UNL     1      16.716  20.554  19.523  1.00  0.00    -0.285 OA
ATOM      5  C   UNL     1      18.599  21.878  19.913  1.00  0.00     0.111 A 
ATOM      6  C   UNL     1      18.434  22.016  21.323  1.00  0.00     0.134 A 
ATOM      7  C   UNL     1      19.257  22.899  22.032  1.00  0.00     0.093 A 
ATOM      8  C   UNL     1      20.281  23.600  21.391  1.00  0.00     0.123 A 
ATOM      9  C   UNL     1      20.489  23.426  20.024  1.00  0.00     0.094 A 
ATOM     10  C   UNL     1      19.660  22.580  19.285  1.00  0.00     0.146 A 
ATOM     11  O   UNL     1      19.886  22.451  17.982  1.00  0.00    -0.452 OA
ENDROOT
BRANCH   1  12
ATOM     12  C   UNL     1      19.520  21.613  15.751  1.00  0.00     0.021 A 
ATOM     13  C   UNL     1      19.063  22.601  14.862  1.00  0.00     0.016 A 
ATOM     14  C   UNL     1      19.423  22.559  13.512  1.00  0.00     0.047 A 
ATOM     15  C   UNL     1      20.254  21.541  13.036  1.00  0.00     0.115 A 
ATOM     16  C   UNL     1      20.373  20.602  15.271  1.00  0.00     0.016 A 
ATOM     17  C   UNL     1      20.731  20.564  13.920  1.00  0.00     0.047 A 
BRANCH  15  18
ATOM     18  O   UNL     1      20.604  21.511  11.688  1.00  0.00    -0.508 OA
ATOM     19  H   UNL     1      19.908  21.381  10.963  1.00  0.00     0.293 HD
ENDBRANCH  15  18
ENDBRANCH   1  12
BRANCH   2  20
ATOM     20  O   UNL     1      17.190  20.287  16.853  1.00  0.00    -0.502 OA
ATOM     21  H   UNL     1      16.344  19.837  17.179  1.00  0.00     0.293 HD
ENDBRANCH   2  20
BRANCH   6  22
ATOM     22  O   UNL     1      17.501  21.293  22.074  1.00  0.00    -0.507 OA
ATOM     23  H   UNL     1      17.396  21.358  23.075  1.00  0.00     0.293 HD
ENDBRANCH   6  22
BRANCH   8  24
ATOM     24  O   UNL     1      21.106  24.464  22.107  1.00  0.00    -0.508 OA
ATOM     25  H   UNL     1      21.850  24.118  22.701  1.00  0.00     0.293 HD
ENDBRANCH   8  24
TORSDOF 5
ENDMDL
