MODEL 1
REMARK VINA RESULT:    -2.638      0.000      0.000
REMARK INTER + INTRA:          -7.887
REMARK INTER:                  -5.106
REMARK INTRA:                  -2.781
REMARK UNBOUND:                -2.781
REMARK SMILES CCCCCCCCCCCCCCCCCC(=O)[O-]
REMARK SMILES IDX 10 1 11 2 12 3 13 4 14 5 15 6 16 7 17 8 18 9 19 10 20 11
REMARK SMILES IDX 9 12 8 13 7 14 6 15 5 16 4 17 3 18 2 19 1 20
REMARK H PARENT
REMARK Flexibility Score: inf
ROOT
ATOM      1  C   UNL     1      -1.902  12.237   9.618  1.00  0.00     0.000 C 
ENDROOT
BRANCH   1   2
ATOM      2  C   UNL     1      -1.369  13.388  10.492  1.00  0.00     0.000 C 
BRANCH   2   3
ATOM      3  C   UNL     1       0.149  13.290  10.733  1.00  0.00     0.000 C 
BRANCH   3   4
ATOM      4  C   UNL     1       0.491  12.746  12.128  1.00  0.00     0.000 C 
BRANCH   4   5
ATOM      5  C   UNL     1      -0.344  13.396  13.242  1.00  0.00     0.000 C 
BRANCH   5   6
ATOM      6  C   UNL     1       0.127  14.835  13.509  1.00  0.00     0.000 C 
BRANCH   6   7
ATOM      7  C   UNL     1      -1.042  15.822  13.688  1.00  0.00     0.006 C 
BRANCH   7   8
ATOM      8  C   UNL     1      -1.423  16.590  12.412  1.00  0.00     0.053 C 
BRANCH   8   9
ATOM      9  C   UNL     1      -2.024  17.927  12.718  1.00  0.00     0.041 C 
ATOM     10  O   UNL     1      -1.464  18.980  12.316  1.00  0.00    -0.550 OA
ATOM     11  O   UNL     1      -3.222  18.007  13.417  1.00  0.00    -0.550 OA
ENDBRANCH   8   9
ENDBRANCH   7   8
ENDBRANCH   6   7
ENDBRANCH   5   6
ENDBRANCH   4   5
ENDBRANCH   3   4
ENDBRANCH   2   3
ENDBRANCH   1   2
BRANCH   1  12
ATOM     12  C   UNL     1      -0.960  11.828   8.469  1.00  0.00     0.000 C 
BRANCH  12  13
ATOM     13  C   UNL     1      -0.633  10.324   8.484  1.00  0.00    -0.000 C 
BRANCH  13  14
ATOM     14  C   UNL     1      -1.266   9.591   9.678  1.00  0.00    -0.000 C 
BRANCH  14  15
ATOM     15  C   UNL     1      -0.247   9.269  10.784  1.00  0.00    -0.000 C 
BRANCH  15  16
ATOM     16  C   UNL     1      -0.882   9.248  12.184  1.00  0.00    -0.000 C 
BRANCH  16  17
ATOM     17  C   UNL     1      -2.388   9.564  12.162  1.00  0.00    -0.000 C 
BRANCH  17  18
ATOM     18  C   UNL     1      -2.729  10.829  12.978  1.00  0.00    -0.000 C 
BRANCH  18  19
ATOM     19  C   UNL     1      -4.088  11.449  12.613  1.00  0.00    -0.003 C 
ATOM     20  C   UNL     1      -4.767  10.751  11.437  1.00  0.00     0.004 C 
ENDBRANCH  18  19
ENDBRANCH  17  18
ENDBRANCH  16  17
ENDBRANCH  15  16
ENDBRANCH  14  15
ENDBRANCH  13  14
ENDBRANCH  12  13
ENDBRANCH   1  12
TORSDOF 16
ENDMDL
MODEL 2
REMARK VINA RESULT:    -2.566      1.015      3.264
REMARK INTER + INTRA:          -7.748
REMARK INTER:                  -5.585
REMARK INTRA:                  -2.162
REMARK UNBOUND:                -2.781
REMARK SMILES CCCCCCCCCCCCCCCCCC(=O)[O-]
REMARK SMILES IDX 10 1 11 2 12 3 13 4 14 5 15 6 16 7 17 8 18 9 19 10 20 11
REMARK SMILES IDX 9 12 8 13 7 14 6 15 5 16 4 17 3 18 2 19 1 20
REMARK H PARENT
REMARK Flexibility Score: inf
ROOT
ATOM      1  C   UNL     1      -3.753  11.523  11.802  1.00  0.00     0.000 C 
ENDROOT
BRANCH   1   2
ATOM      2  C   UNL     1      -2.945  12.138  10.644  1.00  0.00     0.000 C 
BRANCH   2   3
ATOM      3  C   UNL     1      -2.179  13.405  11.068  1.00  0.00     0.000 C 
BRANCH   3   4
ATOM      4  C   UNL     1      -0.680  13.326  10.740  1.00  0.00     0.000 C 
BRANCH   4   5
ATOM      5  C   UNL     1       0.187  14.126  11.724  1.00  0.00     0.000 C 
BRANCH   5   6
ATOM      6  C   UNL     1       0.311  15.592  11.278  1.00  0.00     0.000 C 
BRANCH   6   7
ATOM      7  C   UNL     1      -0.019  16.589  12.405  1.00  0.00     0.006 C 
BRANCH   7   8
ATOM      8  C   UNL     1      -1.464  16.504  12.923  1.00  0.00     0.053 C 
BRANCH   8   9
ATOM      9  C   UNL     1      -2.145  17.837  12.911  1.00  0.00     0.041 C 
ATOM     10  O   UNL     1      -3.227  18.001  13.534  1.00  0.00    -0.550 OA
ATOM     11  O   UNL     1      -1.567  18.908  12.241  1.00  0.00    -0.550 OA
ENDBRANCH   8   9
ENDBRANCH   7   8
ENDBRANCH   6   7
ENDBRANCH   5   6
ENDBRANCH   4   5
ENDBRANCH   3   4
ENDBRANCH   2   3
ENDBRANCH   1   2
BRANCH   1  12
ATOM     12  C   UNL     1      -2.914  11.191  13.051  1.00  0.00     0.000 C 
BRANCH  12  13
ATOM     13  C   UNL     1      -2.769   9.675  13.277  1.00  0.00    -0.000 C 
BRANCH  13  14
ATOM     14  C   UNL     1      -1.302   9.213  13.275  1.00  0.00    -0.000 C 
BRANCH  14  15
ATOM     15  C   UNL     1      -0.463   9.911  12.191  1.00  0.00    -0.000 C 
BRANCH  15  16
ATOM     16  C   UNL     1      -0.218   9.015  10.965  1.00  0.00    -0.000 C 
BRANCH  16  17
ATOM     17  C   UNL     1      -1.349   9.104   9.925  1.00  0.00    -0.000 C 
BRANCH  17  18
ATOM     18  C   UNL     1      -0.814   9.405   8.509  1.00  0.00    -0.000 C 
BRANCH  18  19
ATOM     19  C   UNL     1      -0.154  10.788   8.381  1.00  0.00    -0.003 C 
ATOM     20  C   UNL     1      -0.907  11.724   7.438  1.00  0.00     0.004 C 
ENDBRANCH  18  19
ENDBRANCH  17  18
ENDBRANCH  16  17
ENDBRANCH  15  16
ENDBRANCH  14  15
ENDBRANCH  13  14
ENDBRANCH  12  13
ENDBRANCH   1  12
TORSDOF 16
ENDMDL
MODEL 3
REMARK VINA RESULT:    -2.561      3.270      6.235
REMARK INTER + INTRA:          -7.736
REMARK INTER:                  -5.486
REMARK INTRA:                  -2.251
REMARK UNBOUND:                -2.781
REMARK SMILES CCCCCCCCCCCCCCCCCC(=O)[O-]
REMARK SMILES IDX 10 1 11 2 12 3 13 4 14 5 15 6 16 7 17 8 18 9 19 10 20 11
REMARK SMILES IDX 9 12 8 13 7 14 6 15 5 16 4 17 3 18 2 19 1 20
REMARK H PARENT
REMARK Flexibility Score: inf
ROOT
ATOM      1  C   UNL     1      -2.823  11.088  11.154  1.00  0.00     0.000 C 
ENDROOT
BRANCH   1   2
ATOM      2  C   UNL     1      -2.581  10.986  12.672  1.00  0.00     0.000 C 
BRANCH   2   3
ATOM      3  C   UNL     1      -1.349  10.128  13.015  1.00  0.00     0.000 C 
BRANCH   3   4
ATOM      4  C   UNL     1      -0.086  10.973  13.245  1.00  0.00     0.000 C 
BRANCH   4   5
ATOM      5  C   UNL     1       0.967  10.782  12.143  1.00  0.00     0.000 C 
BRANCH   5   6
ATOM      6  C   UNL     1       0.538   9.680  11.162  1.00  0.00     0.000 C 
BRANCH   6   7
ATOM      7  C   UNL     1       1.089   9.898   9.740  1.00  0.00     0.006 C 
BRANCH   7   8
ATOM      8  C   UNL     1       0.587  11.181   9.057  1.00  0.00     0.053 C 
BRANCH   8   9
ATOM      9  C   UNL     1      -0.520  10.905   8.087  1.00  0.00     0.041 C 
ATOM     10  O   UNL     1      -1.005   9.747   7.992  1.00  0.00    -0.550 OA
ATOM     11  O   UNL     1      -1.040  11.935   7.312  1.00  0.00    -0.550 OA
ENDBRANCH   8   9
ENDBRANCH   7   8
ENDBRANCH   6   7
ENDBRANCH   5   6
ENDBRANCH   4   5
ENDBRANCH   3   4
ENDBRANCH   2   3
ENDBRANCH   1   2
BRANCH   1  12
ATOM     12  C   UNL     1      -2.723  12.520  10.594  1.00  0.00     0.000 C 
BRANCH  12  13
ATOM     13  C   UNL     1      -1.895  13.450  11.500  1.00  0.00    -0.000 C 
BRANCH  13  14
ATOM     14  C   UNL     1      -0.710  14.095  10.762  1.00  0.00    -0.000 C 
BRANCH  14  15
ATOM     15  C   UNL     1       0.456  14.444  11.703  1.00  0.00    -0.000 C 
BRANCH  15  16
ATOM     16  C   UNL     1       0.632  15.960  11.887  1.00  0.00    -0.000 C 
BRANCH  16  17
ATOM     17  C   UNL     1      -0.471  16.589  12.756  1.00  0.00    -0.000 C 
BRANCH  17  18
ATOM     18  C   UNL     1      -1.511  17.355  11.912  1.00  0.00    -0.000 C 
BRANCH  18  19
ATOM     19  C   UNL     1      -2.134  18.555  12.644  1.00  0.00    -0.003 C 
ATOM     20  C   UNL     1      -3.205  18.150  13.653  1.00  0.00     0.004 C 
ENDBRANCH  18  19
ENDBRANCH  17  18
ENDBRANCH  16  17
ENDBRANCH  15  16
ENDBRANCH  14  15
ENDBRANCH  13  14
ENDBRANCH  12  13
ENDBRANCH   1  12
TORSDOF 16
ENDMDL
MODEL 4
REMARK VINA RESULT:    -2.548     15.744     18.345
REMARK INTER + INTRA:          -7.712
REMARK INTER:                  -5.988
REMARK INTRA:                  -1.724
REMARK UNBOUND:                -2.781
REMARK SMILES CCCCCCCCCCCCCCCCCC(=O)[O-]
REMARK SMILES IDX 10 1 11 2 12 3 13 4 14 5 15 6 16 7 17 8 18 9 19 10 20 11
REMARK SMILES IDX 9 12 8 13 7 14 6 15 5 16 4 17 3 18 2 19 1 20
REMARK H PARENT
REMARK Flexibility Score: inf
ROOT
ATOM      1  C   UNL     1     -16.871  10.085   0.123  1.00  0.00     0.000 C 
ENDROOT
BRANCH   1   2
ATOM      2  C   UNL     1     -17.818  10.736   1.150  1.00  0.00     0.000 C 
BRANCH   2   3
ATOM      3  C   UNL     1     -17.353  10.515   2.601  1.00  0.00     0.000 C 
BRANCH   3   4
ATOM      4  C   UNL     1     -16.177   9.531   2.702  1.00  0.00     0.000 C 
BRANCH   4   5
ATOM      5  C   UNL     1     -15.347   9.726   3.980  1.00  0.00     0.000 C 
BRANCH   5   6
ATOM      6  C   UNL     1     -15.351  11.199   4.415  1.00  0.00     0.000 C 
BRANCH   6   7
ATOM      7  C   UNL     1     -14.424  11.470   5.616  1.00  0.00     0.006 C 
BRANCH   7   8
ATOM      8  C   UNL     1     -13.497  10.296   5.976  1.00  0.00     0.053 C 
BRANCH   8   9
ATOM      9  C   UNL     1     -12.114  10.485   5.434  1.00  0.00     0.041 C 
ATOM     10  O   UNL     1     -11.557  11.612   5.497  1.00  0.00    -0.550 OA
ATOM     11  O   UNL     1     -11.427   9.406   4.890  1.00  0.00    -0.550 OA
ENDBRANCH   8   9
ENDBRANCH   7   8
ENDBRANCH   6   7
ENDBRANCH   5   6
ENDBRANCH   4   5
ENDBRANCH   3   4
ENDBRANCH   2   3
ENDBRANCH   1   2
BRANCH   1  12
ATOM     12  C   UNL     1     -17.123  10.521  -1.333  1.00  0.00     0.000 C 
BRANCH  12  13
ATOM     13  C   UNL     1     -16.464  11.872  -1.666  1.00  0.00    -0.000 C 
BRANCH  13  14
ATOM     14  C   UNL     1     -16.574  12.233  -3.157  1.00  0.00    -0.000 C 
BRANCH  14  15
ATOM     15  C   UNL     1     -16.850  11.007  -4.045  1.00  0.00    -0.000 C 
BRANCH  15  16
ATOM     16  C   UNL     1     -15.663  10.662  -4.959  1.00  0.00    -0.000 C 
BRANCH  16  17
ATOM     17  C   UNL     1     -14.629   9.749  -4.278  1.00  0.00    -0.000 C 
BRANCH  17  18
ATOM     18  C   UNL     1     -13.298  10.480  -4.003  1.00  0.00    -0.000 C 
BRANCH  18  19
ATOM     19  C   UNL     1     -12.990  10.658  -2.508  1.00  0.00    -0.003 C 
ATOM     20  C   UNL     1     -13.594   9.557  -1.638  1.00  0.00     0.004 C 
ENDBRANCH  18  19
ENDBRANCH  17  18
ENDBRANCH  16  17
ENDBRANCH  15  16
ENDBRANCH  14  15
ENDBRANCH  13  14
ENDBRANCH  12  13
ENDBRANCH   1  12
TORSDOF 16
ENDMDL
MODEL 5
REMARK VINA RESULT:    -2.546      2.551      5.893
REMARK INTER + INTRA:          -7.709
REMARK INTER:                  -4.980
REMARK INTRA:                  -2.729
REMARK UNBOUND:                -2.781
REMARK SMILES CCCCCCCCCCCCCCCCCC(=O)[O-]
REMARK SMILES IDX 10 1 11 2 12 3 13 4 14 5 15 6 16 7 17 8 18 9 19 10 20 11
REMARK SMILES IDX 9 12 8 13 7 14 6 15 5 16 4 17 3 18 2 19 1 20
REMARK H PARENT
REMARK Flexibility Score: inf
ROOT
ATOM      1  C   UNL     1      -2.263  13.502  10.601  1.00  0.00     0.000 C 
ENDROOT
BRANCH   1   2
ATOM      2  C   UNL     1      -1.449  13.015   9.387  1.00  0.00     0.000 C 
BRANCH   2   3
ATOM      3  C   UNL     1      -0.947  11.570   9.557  1.00  0.00     0.000 C 
BRANCH   3   4
ATOM      4  C   UNL     1       0.354  11.488  10.371  1.00  0.00     0.000 C 
BRANCH   4   5
ATOM      5  C   UNL     1       0.205  10.645  11.646  1.00  0.00     0.000 C 
BRANCH   5   6
ATOM      6  C   UNL     1       0.043  11.546  12.881  1.00  0.00     0.000 C 
BRANCH   6   7
ATOM      7  C   UNL     1      -1.237  11.238  13.681  1.00  0.00     0.006 C 
BRANCH   7   8
ATOM      8  C   UNL     1      -2.354  10.576  12.856  1.00  0.00     0.053 C 
BRANCH   8   9
ATOM      9  C   UNL     1      -3.644  11.331  12.950  1.00  0.00     0.041 C 
ATOM     10  O   UNL     1      -4.619  11.011  12.221  1.00  0.00    -0.550 OA
ATOM     11  O   UNL     1      -3.780  12.366  13.867  1.00  0.00    -0.550 OA
ENDBRANCH   8   9
ENDBRANCH   7   8
ENDBRANCH   6   7
ENDBRANCH   5   6
ENDBRANCH   4   5
ENDBRANCH   3   4
ENDBRANCH   2   3
ENDBRANCH   1   2
BRANCH   1  12
ATOM     12  C   UNL     1      -1.517  14.510  11.497  1.00  0.00     0.000 C 
BRANCH  12  13
ATOM     13  C   UNL     1      -0.612  15.459  10.690  1.00  0.00    -0.000 C 
BRANCH  13  14
ATOM     14  C   UNL     1       0.814  15.543  11.260  1.00  0.00    -0.000 C 
BRANCH  14  15
ATOM     15  C   UNL     1       0.887  15.128  12.739  1.00  0.00    -0.000 C 
BRANCH  15  16
ATOM     16  C   UNL     1       0.973  16.335  13.687  1.00  0.00    -0.000 C 
BRANCH  16  17
ATOM     17  C   UNL     1       1.027  17.679  12.940  1.00  0.00    -0.000 C 
BRANCH  17  18
ATOM     18  C   UNL     1      -0.117  18.625  13.361  1.00  0.00    -0.000 C 
BRANCH  18  19
ATOM     19  C   UNL     1      -1.360  18.527  12.462  1.00  0.00    -0.003 C 
ATOM     20  C   UNL     1      -2.571  17.934  13.178  1.00  0.00     0.004 C 
ENDBRANCH  18  19
ENDBRANCH  17  18
ENDBRANCH  16  17
ENDBRANCH  15  16
ENDBRANCH  14  15
ENDBRANCH  13  14
ENDBRANCH  12  13
ENDBRANCH   1  12
TORSDOF 16
ENDMDL
MODEL 6
REMARK VINA RESULT:    -2.518     16.305     18.999
REMARK INTER + INTRA:          -7.654
REMARK INTER:                  -6.292
REMARK INTRA:                  -1.362
REMARK UNBOUND:                -2.781
REMARK SMILES CCCCCCCCCCCCCCCCCC(=O)[O-]
REMARK SMILES IDX 10 1 11 2 12 3 13 4 14 5 15 6 16 7 17 8 18 9 19 10 20 11
REMARK SMILES IDX 9 12 8 13 7 14 6 15 5 16 4 17 3 18 2 19 1 20
REMARK H PARENT
REMARK Flexibility Score: inf
ROOT
ATOM      1  C   UNL     1     -17.937  11.629  -0.007  1.00  0.00     0.000 C 
ENDROOT
BRANCH   1   2
ATOM      2  C   UNL     1     -17.263  10.244  -0.036  1.00  0.00     0.000 C 
BRANCH   2   3
ATOM      3  C   UNL     1     -17.429   9.480   1.291  1.00  0.00     0.000 C 
BRANCH   3   4
ATOM      4  C   UNL     1     -16.091   9.244   2.008  1.00  0.00     0.000 C 
BRANCH   4   5
ATOM      5  C   UNL     1     -15.956  10.066   3.300  1.00  0.00     0.000 C 
BRANCH   5   6
ATOM      6  C   UNL     1     -15.048   9.349   4.311  1.00  0.00     0.000 C 
BRANCH   6   7
ATOM      7  C   UNL     1     -13.619   9.128   3.780  1.00  0.00     0.006 C 
BRANCH   7   8
ATOM      8  C   UNL     1     -12.710  10.365   3.877  1.00  0.00     0.053 C 
BRANCH   8   9
ATOM      9  C   UNL     1     -12.050  10.475   5.216  1.00  0.00     0.041 C 
ATOM     10  O   UNL     1     -11.947   9.462   5.956  1.00  0.00    -0.550 OA
ATOM     11  O   UNL     1     -11.516  11.688   5.631  1.00  0.00    -0.550 OA
ENDBRANCH   8   9
ENDBRANCH   7   8
ENDBRANCH   6   7
ENDBRANCH   5   6
ENDBRANCH   4   5
ENDBRANCH   3   4
ENDBRANCH   2   3
ENDBRANCH   1   2
BRANCH   1  12
ATOM     12  C   UNL     1     -18.577  12.048  -1.345  1.00  0.00     0.000 C 
BRANCH  12  13
ATOM     13  C   UNL     1     -18.430  13.555  -1.621  1.00  0.00    -0.000 C 
BRANCH  13  14
ATOM     14  C   UNL     1     -18.251  13.868  -3.116  1.00  0.00    -0.000 C 
BRANCH  14  15
ATOM     15  C   UNL     1     -17.547  12.734  -3.879  1.00  0.00    -0.000 C 
BRANCH  15  16
ATOM     16  C   UNL     1     -16.303  13.219  -4.642  1.00  0.00    -0.000 C 
BRANCH  16  17
ATOM     17  C   UNL     1     -15.000  12.585  -4.125  1.00  0.00    -0.000 C 
BRANCH  17  18
ATOM     18  C   UNL     1     -15.157  12.011  -2.701  1.00  0.00    -0.000 C 
BRANCH  18  19
ATOM     19  C   UNL     1     -14.331  10.737  -2.456  1.00  0.00    -0.003 C 
ATOM     20  C   UNL     1     -13.244  10.519  -3.506  1.00  0.00     0.004 C 
ENDBRANCH  18  19
ENDBRANCH  17  18
ENDBRANCH  16  17
ENDBRANCH  15  16
ENDBRANCH  14  15
ENDBRANCH  13  14
ENDBRANCH  12  13
ENDBRANCH   1  12
TORSDOF 16
ENDMDL
MODEL 7
REMARK VINA RESULT:    -2.474     15.056     17.928
REMARK INTER + INTRA:          -7.568
REMARK INTER:                  -5.676
REMARK INTRA:                  -1.892
REMARK UNBOUND:                -2.781
REMARK SMILES CCCCCCCCCCCCCCCCCC(=O)[O-]
REMARK SMILES IDX 10 1 11 2 12 3 13 4 14 5 15 6 16 7 17 8 18 9 19 10 20 11
REMARK SMILES IDX 9 12 8 13 7 14 6 15 5 16 4 17 3 18 2 19 1 20
REMARK H PARENT
REMARK Flexibility Score: inf
ROOT
ATOM      1  C   UNL     1     -16.168  10.218   3.384  1.00  0.00     0.000 C 
ENDROOT
BRANCH   1   2
ATOM      2  C   UNL     1     -17.548  10.169   2.701  1.00  0.00     0.000 C 
BRANCH   2   3
ATOM      3  C   UNL     1     -17.489   9.533   1.300  1.00  0.00     0.000 C 
BRANCH   3   4
ATOM      4  C   UNL     1     -16.110   8.935   0.980  1.00  0.00     0.000 C 
BRANCH   4   5
ATOM      5  C   UNL     1     -15.712   9.114  -0.493  1.00  0.00     0.000 C 
BRANCH   5   6
ATOM      6  C   UNL     1     -16.354  10.379  -1.084  1.00  0.00     0.000 C 
BRANCH   6   7
ATOM      7  C   UNL     1     -15.396  11.161  -2.003  1.00  0.00     0.006 C 
BRANCH   7   8
ATOM      8  C   UNL     1     -14.130  10.386  -2.403  1.00  0.00     0.053 C 
BRANCH   8   9
ATOM      9  C   UNL     1     -13.831  10.513  -3.865  1.00  0.00     0.041 C 
ATOM     10  O   UNL     1     -12.788   9.997  -4.345  1.00  0.00    -0.550 OA
ATOM     11  O   UNL     1     -14.723  11.170  -4.704  1.00  0.00    -0.550 OA
ENDBRANCH   8   9
ENDBRANCH   7   8
ENDBRANCH   6   7
ENDBRANCH   5   6
ENDBRANCH   4   5
ENDBRANCH   3   4
ENDBRANCH   2   3
ENDBRANCH   1   2
BRANCH   1  12
ATOM     12  C   UNL     1     -16.093   9.442   4.713  1.00  0.00     0.000 C 
BRANCH  12  13
ATOM     13  C   UNL     1     -15.924  10.372   5.929  1.00  0.00    -0.000 C 
BRANCH  13  14
ATOM     14  C   UNL     1     -14.498  10.934   6.050  1.00  0.00    -0.000 C 
BRANCH  14  15
ATOM     15  C   UNL     1     -13.606  10.092   6.979  1.00  0.00    -0.000 C 
BRANCH  15  16
ATOM     16  C   UNL     1     -12.413   9.464   6.241  1.00  0.00    -0.000 C 
BRANCH  16  17
ATOM     17  C   UNL     1     -12.147  10.115   4.872  1.00  0.00    -0.000 C 
BRANCH  17  18
ATOM     18  C   UNL     1     -12.163   9.084   3.724  1.00  0.00    -0.000 C 
BRANCH  18  19
ATOM     19  C   UNL     1     -12.797   9.616   2.428  1.00  0.00    -0.003 C 
ATOM     20  C   UNL     1     -12.320   8.875   1.181  1.00  0.00     0.004 C 
ENDBRANCH  18  19
ENDBRANCH  17  18
ENDBRANCH  16  17
ENDBRANCH  15  16
ENDBRANCH  14  15
ENDBRANCH  13  14
ENDBRANCH  12  13
ENDBRANCH   1  12
TORSDOF 16
ENDMDL
MODEL 8
REMARK VINA RESULT:    -2.448     17.343     19.987
REMARK INTER + INTRA:          -7.518
REMARK INTER:                  -5.671
REMARK INTRA:                  -1.848
REMARK UNBOUND:                -2.781
REMARK SMILES CCCCCCCCCCCCCCCCCC(=O)[O-]
REMARK SMILES IDX 10 1 11 2 12 3 13 4 14 5 15 6 16 7 17 8 18 9 19 10 20 11
REMARK SMILES IDX 9 12 8 13 7 14 6 15 5 16 4 17 3 18 2 19 1 20
REMARK H PARENT
REMARK Flexibility Score: inf
ROOT
ATOM      1  C   UNL     1     -18.036  13.750  -0.814  1.00  0.00     0.000 C 
ENDROOT
BRANCH   1   2
ATOM      2  C   UNL     1     -18.757  14.051   0.514  1.00  0.00     0.000 C 
BRANCH   2   3
ATOM      3  C   UNL     1     -18.779  12.836   1.460  1.00  0.00     0.000 C 
BRANCH   3   4
ATOM      4  C   UNL     1     -18.382  11.530   0.754  1.00  0.00     0.000 C 
BRANCH   4   5
ATOM      5  C   UNL     1     -18.157  10.369   1.734  1.00  0.00     0.000 C 
BRANCH   5   6
ATOM      6  C   UNL     1     -16.815   9.673   1.458  1.00  0.00     0.000 C 
BRANCH   6   7
ATOM      7  C   UNL     1     -15.945   9.531   2.721  1.00  0.00     0.006 C 
BRANCH   7   8
ATOM      8  C   UNL     1     -16.252  10.562   3.820  1.00  0.00     0.053 C 
BRANCH   8   9
ATOM      9  C   UNL     1     -15.012  11.026   4.519  1.00  0.00     0.041 C 
ATOM     10  O   UNL     1     -15.078  11.925   5.398  1.00  0.00    -0.550 OA
ATOM     11  O   UNL     1     -13.786  10.440   4.225  1.00  0.00    -0.550 OA
ENDBRANCH   8   9
ENDBRANCH   7   8
ENDBRANCH   6   7
ENDBRANCH   5   6
ENDBRANCH   4   5
ENDBRANCH   3   4
ENDBRANCH   2   3
ENDBRANCH   1   2
BRANCH   1  12
ATOM     12  C   UNL     1     -18.722  14.352  -2.055  1.00  0.00     0.000 C 
BRANCH  12  13
ATOM     13  C   UNL     1     -18.907  13.321  -3.184  1.00  0.00    -0.000 C 
BRANCH  13  14
ATOM     14  C   UNL     1     -18.242  13.759  -4.500  1.00  0.00    -0.000 C 
BRANCH  14  15
ATOM     15  C   UNL     1     -16.711  13.617  -4.466  1.00  0.00    -0.000 C 
BRANCH  15  16
ATOM     16  C   UNL     1     -16.257  12.186  -4.133  1.00  0.00    -0.000 C 
BRANCH  16  17
ATOM     17  C   UNL     1     -15.349  12.121  -2.893  1.00  0.00    -0.000 C 
BRANCH  17  18
ATOM     18  C   UNL     1     -15.844  11.085  -1.862  1.00  0.00    -0.000 C 
BRANCH  18  19
ATOM     19  C   UNL     1     -14.919   9.865  -1.721  1.00  0.00    -0.003 C 
ATOM     20  C   UNL     1     -13.504  10.126  -2.234  1.00  0.00     0.004 C 
ENDBRANCH  18  19
ENDBRANCH  17  18
ENDBRANCH  16  17
ENDBRANCH  15  16
ENDBRANCH  14  15
ENDBRANCH  13  14
ENDBRANCH  12  13
ENDBRANCH   1  12
TORSDOF 16
ENDMDL
MODEL 9
REMARK VINA RESULT:    -2.425     14.667     17.433
REMARK INTER + INTRA:          -7.474
REMARK INTER:                  -5.920
REMARK INTRA:                  -1.553
REMARK UNBOUND:                -2.781
REMARK SMILES CCCCCCCCCCCCCCCCCC(=O)[O-]
REMARK SMILES IDX 10 1 11 2 12 3 13 4 14 5 15 6 16 7 17 8 18 9 19 10 20 11
REMARK SMILES IDX 9 12 8 13 7 14 6 15 5 16 4 17 3 18 2 19 1 20
REMARK H PARENT
REMARK Flexibility Score: inf
ROOT
ATOM      1  C   UNL     1     -13.677   8.983   2.926  1.00  0.00     0.000 C 
ENDROOT
BRANCH   1   2
ATOM      2  C   UNL     1     -14.941   9.615   3.539  1.00  0.00     0.000 C 
BRANCH   2   3
ATOM      3  C   UNL     1     -16.237   9.068   2.913  1.00  0.00     0.000 C 
BRANCH   3   4
ATOM      4  C   UNL     1     -16.174   9.013   1.379  1.00  0.00     0.000 C 
BRANCH   4   5
ATOM      5  C   UNL     1     -17.502   9.407   0.714  1.00  0.00     0.000 C 
BRANCH   5   6
ATOM      6  C   UNL     1     -17.372  10.755  -0.011  1.00  0.00     0.000 C 
BRANCH   6   7
ATOM      7  C   UNL     1     -16.451  10.684  -1.245  1.00  0.00     0.006 C 
BRANCH   7   8
ATOM      8  C   UNL     1     -16.166  12.045  -1.901  1.00  0.00     0.053 C 
BRANCH   8   9
ATOM      9  C   UNL     1     -15.216  11.926  -3.052  1.00  0.00     0.041 C 
ATOM     10  O   UNL     1     -14.416  10.956  -3.115  1.00  0.00    -0.550 OA
ATOM     11  O   UNL     1     -15.238  12.867  -4.073  1.00  0.00    -0.550 OA
ENDBRANCH   8   9
ENDBRANCH   7   8
ENDBRANCH   6   7
ENDBRANCH   5   6
ENDBRANCH   4   5
ENDBRANCH   3   4
ENDBRANCH   2   3
ENDBRANCH   1   2
BRANCH   1  12
ATOM     12  C   UNL     1     -12.356   9.593   3.432  1.00  0.00     0.000 C 
BRANCH  12  13
ATOM     13  C   UNL     1     -12.583  10.747   4.426  1.00  0.00    -0.000 C 
BRANCH  13  14
ATOM     14  C   UNL     1     -11.929  10.489   5.793  1.00  0.00    -0.000 C 
BRANCH  14  15
ATOM     15  C   UNL     1     -12.532   9.273   6.518  1.00  0.00    -0.000 C 
BRANCH  15  16
ATOM     16  C   UNL     1     -13.404   9.676   7.719  1.00  0.00    -0.000 C 
BRANCH  16  17
ATOM     17  C   UNL     1     -14.890   9.332   7.519  1.00  0.00    -0.000 C 
BRANCH  17  18
ATOM     18  C   UNL     1     -15.717  10.559   7.079  1.00  0.00    -0.000 C 
BRANCH  18  19
ATOM     19  C   UNL     1     -17.111  10.202   6.539  1.00  0.00    -0.003 C 
ATOM     20  C   UNL     1     -17.797   9.098   7.341  1.00  0.00     0.004 C 
ENDBRANCH  18  19
ENDBRANCH  17  18
ENDBRANCH  16  17
ENDBRANCH  15  16
ENDBRANCH  14  15
ENDBRANCH  13  14
ENDBRANCH  12  13
ENDBRANCH   1  12
TORSDOF 16
ENDMDL
