MODEL 1
REMARK VINA RESULT:    -4.095      0.000      0.000
REMARK INTER + INTRA:          -8.661
REMARK INTER:                  -6.968
REMARK INTRA:                  -1.692
REMARK UNBOUND:                -1.692
REMARK SMILES CCCCCCCCCCCCCC(=O)[O-]
REMARK SMILES IDX 8 1 9 2 10 3 11 4 12 5 13 6 14 7 15 8 16 9 7 10 6 11 5 12
REMARK SMILES IDX 4 13 3 14 2 15 1 16
REMARK H PARENT
REMARK Flexibility Score: inf
ROOT
ATOM      1  C   UNL     1       0.875  51.569  21.716  1.00  0.00     0.000 C 
ENDROOT
BRANCH   1   2
ATOM      2  C   UNL     1       1.855  50.478  21.234  1.00  0.00     0.000 C 
BRANCH   2   3
ATOM      3  C   UNL     1       1.932  49.262  22.174  1.00  0.00     0.000 C 
BRANCH   3   4
ATOM      4  C   UNL     1       1.267  48.009  21.588  1.00  0.00     0.000 C 
BRANCH   4   5
ATOM      5  C   UNL     1       0.166  47.484  22.517  1.00  0.00     0.006 C 
BRANCH   5   6
ATOM      6  C   UNL     1      -0.084  48.455  23.674  1.00  0.00     0.053 C 
BRANCH   6   7
ATOM      7  C   UNL     1      -0.279  47.707  24.955  1.00  0.00     0.041 C 
ATOM      8  O   UNL     1      -0.112  46.459  24.991  1.00  0.00    -0.550 OA
ATOM      9  O   UNL     1      -0.694  48.379  26.097  1.00  0.00    -0.550 OA
ENDBRANCH   6   7
ENDBRANCH   5   6
ENDBRANCH   4   5
ENDBRANCH   3   4
ENDBRANCH   2   3
ENDBRANCH   1   2
BRANCH   1  10
ATOM     10  C   UNL     1       1.359  52.984  21.351  1.00  0.00     0.000 C 
BRANCH  10  11
ATOM     11  C   UNL     1       1.767  53.807  22.583  1.00  0.00    -0.000 C 
BRANCH  11  12
ATOM     12  C   UNL     1       3.257  53.657  22.929  1.00  0.00    -0.000 C 
BRANCH  12  13
ATOM     13  C   UNL     1       3.476  52.516  23.930  1.00  0.00    -0.000 C 
BRANCH  13  14
ATOM     14  C   UNL     1       2.446  52.578  25.068  1.00  0.00    -0.000 C 
BRANCH  14  15
ATOM     15  C   UNL     1       1.704  51.247  25.264  1.00  0.00    -0.003 C 
ATOM     16  C   UNL     1       2.623  50.122  25.740  1.00  0.00     0.004 C 
ENDBRANCH  14  15
ENDBRANCH  13  14
ENDBRANCH  12  13
ENDBRANCH  11  12
ENDBRANCH  10  11
ENDBRANCH   1  10
TORSDOF 12
ENDMDL
MODEL 2
REMARK VINA RESULT:    -4.077      2.563      3.620
REMARK INTER + INTRA:          -8.629
REMARK INTER:                  -7.615
REMARK INTRA:                  -1.015
REMARK UNBOUND:                -1.692
REMARK SMILES CCCCCCCCCCCCCC(=O)[O-]
REMARK SMILES IDX 8 1 9 2 10 3 11 4 12 5 13 6 14 7 15 8 16 9 7 10 6 11 5 12
REMARK SMILES IDX 4 13 3 14 2 15 1 16
REMARK H PARENT
REMARK Flexibility Score: inf
ROOT
ATOM      1  C   UNL     1       1.002  48.105  21.621  1.00  0.00     0.000 C 
ENDROOT
BRANCH   1   2
ATOM      2  C   UNL     1       0.187  47.976  22.926  1.00  0.00     0.000 C 
BRANCH   2   3
ATOM      3  C   UNL     1      -0.521  46.618  23.078  1.00  0.00     0.000 C 
BRANCH   3   4
ATOM      4  C   UNL     1      -0.690  46.192  24.542  1.00  0.00     0.000 C 
BRANCH   4   5
ATOM      5  C   UNL     1      -2.142  46.368  25.002  1.00  0.00     0.006 C 
BRANCH   5   6
ATOM      6  C   UNL     1      -3.030  45.244  24.460  1.00  0.00     0.053 C 
BRANCH   6   7
ATOM      7  C   UNL     1      -4.473  45.631  24.540  1.00  0.00     0.041 C 
ATOM      8  O   UNL     1      -4.822  46.822  24.327  1.00  0.00    -0.550 OA
ATOM      9  O   UNL     1      -5.427  44.687  24.898  1.00  0.00    -0.550 OA
ENDBRANCH   6   7
ENDBRANCH   5   6
ENDBRANCH   4   5
ENDBRANCH   3   4
ENDBRANCH   2   3
ENDBRANCH   1   2
BRANCH   1  10
ATOM     10  C   UNL     1       2.131  49.144  21.743  1.00  0.00     0.000 C 
BRANCH  10  11
ATOM     11  C   UNL     1       1.701  50.543  21.275  1.00  0.00    -0.000 C 
BRANCH  11  12
ATOM     12  C   UNL     1       1.248  51.444  22.435  1.00  0.00    -0.000 C 
BRANCH  12  13
ATOM     13  C   UNL     1       2.437  52.205  23.035  1.00  0.00    -0.000 C 
BRANCH  13  14
ATOM     14  C   UNL     1       2.843  51.610  24.391  1.00  0.00    -0.000 C 
BRANCH  14  15
ATOM     15  C   UNL     1       1.760  50.694  24.981  1.00  0.00    -0.003 C 
ATOM     16  C   UNL     1       2.341  49.469  25.686  1.00  0.00     0.004 C 
ENDBRANCH  14  15
ENDBRANCH  13  14
ENDBRANCH  12  13
ENDBRANCH  11  12
ENDBRANCH  10  11
ENDBRANCH   1  10
TORSDOF 12
ENDMDL
MODEL 3
REMARK VINA RESULT:    -4.066      1.678      2.446
REMARK INTER + INTRA:          -8.610
REMARK INTER:                  -7.401
REMARK INTRA:                  -1.209
REMARK UNBOUND:                -1.692
REMARK SMILES CCCCCCCCCCCCCC(=O)[O-]
REMARK SMILES IDX 8 1 9 2 10 3 11 4 12 5 13 6 14 7 15 8 16 9 7 10 6 11 5 12
REMARK SMILES IDX 4 13 3 14 2 15 1 16
REMARK H PARENT
REMARK Flexibility Score: inf
ROOT
ATOM      1  C   UNL     1       1.433  50.645  21.686  1.00  0.00     0.000 C 
ENDROOT
BRANCH   1   2
ATOM      2  C   UNL     1       2.102  49.255  21.617  1.00  0.00     0.000 C 
BRANCH   2   3
ATOM      3  C   UNL     1       1.097  48.089  21.610  1.00  0.00     0.000 C 
BRANCH   3   4
ATOM      4  C   UNL     1       0.234  48.035  22.877  1.00  0.00     0.000 C 
BRANCH   4   5
ATOM      5  C   UNL     1      -0.405  46.652  23.049  1.00  0.00     0.006 C 
BRANCH   5   6
ATOM      6  C   UNL     1      -0.680  46.354  24.525  1.00  0.00     0.053 C 
BRANCH   6   7
ATOM      7  C   UNL     1      -2.147  46.179  24.761  1.00  0.00     0.041 C 
ATOM      8  O   UNL     1      -2.691  45.060  24.563  1.00  0.00    -0.550 OA
ATOM      9  O   UNL     1      -2.922  47.262  25.152  1.00  0.00    -0.550 OA
ENDBRANCH   6   7
ENDBRANCH   5   6
ENDBRANCH   4   5
ENDBRANCH   3   4
ENDBRANCH   2   3
ENDBRANCH   1   2
BRANCH   1  10
ATOM     10  C   UNL     1       2.309  51.674  22.424  1.00  0.00     0.000 C 
BRANCH  10  11
ATOM     11  C   UNL     1       1.617  52.260  23.664  1.00  0.00    -0.000 C 
BRANCH  11  12
ATOM     12  C   UNL     1       1.036  51.178  24.586  1.00  0.00    -0.000 C 
BRANCH  12  13
ATOM     13  C   UNL     1       2.153  50.353  25.237  1.00  0.00    -0.000 C 
BRANCH  13  14
ATOM     14  C   UNL     1       1.574  49.310  26.204  1.00  0.00    -0.000 C 
BRANCH  14  15
ATOM     15  C   UNL     1       2.632  48.308  26.692  1.00  0.00    -0.003 C 
ATOM     16  C   UNL     1       3.759  48.974  27.481  1.00  0.00     0.004 C 
ENDBRANCH  14  15
ENDBRANCH  13  14
ENDBRANCH  12  13
ENDBRANCH  11  12
ENDBRANCH  10  11
ENDBRANCH   1  10
TORSDOF 12
ENDMDL
MODEL 4
REMARK VINA RESULT:    -4.022      1.877      5.010
REMARK INTER + INTRA:          -8.536
REMARK INTER:                  -7.448
REMARK INTRA:                  -1.088
REMARK UNBOUND:                -1.692
REMARK SMILES CCCCCCCCCCCCCC(=O)[O-]
REMARK SMILES IDX 8 1 9 2 10 3 11 4 12 5 13 6 14 7 15 8 16 9 7 10 6 11 5 12
REMARK SMILES IDX 4 13 3 14 2 15 1 16
REMARK H PARENT
REMARK Flexibility Score: inf
ROOT
ATOM      1  C   UNL     1       1.728  50.465  21.270  1.00  0.00     0.000 C 
ENDROOT
BRANCH   1   2
ATOM      2  C   UNL     1       1.233  51.376  22.413  1.00  0.00     0.000 C 
BRANCH   2   3
ATOM      3  C   UNL     1       2.321  52.314  22.967  1.00  0.00     0.000 C 
BRANCH   3   4
ATOM      4  C   UNL     1       2.962  51.789  24.259  1.00  0.00     0.000 C 
BRANCH   4   5
ATOM      5  C   UNL     1       1.938  51.033  25.113  1.00  0.00     0.006 C 
BRANCH   5   6
ATOM      6  C   UNL     1       2.402  49.600  25.387  1.00  0.00     0.053 C 
BRANCH   6   7
ATOM      7  C   UNL     1       2.647  49.398  26.849  1.00  0.00     0.041 C 
ATOM      8  O   UNL     1       1.802  49.795  27.694  1.00  0.00    -0.550 OA
ATOM      9  O   UNL     1       3.832  48.816  27.281  1.00  0.00    -0.550 OA
ENDBRANCH   6   7
ENDBRANCH   5   6
ENDBRANCH   4   5
ENDBRANCH   3   4
ENDBRANCH   2   3
ENDBRANCH   1   2
BRANCH   1  10
ATOM     10  C   UNL     1       2.122  49.065  21.774  1.00  0.00     0.000 C 
BRANCH  10  11
ATOM     11  C   UNL     1       0.974  48.050  21.664  1.00  0.00    -0.000 C 
BRANCH  11  12
ATOM     12  C   UNL     1       0.074  48.037  22.910  1.00  0.00    -0.000 C 
BRANCH  12  13
ATOM     13  C   UNL     1      -0.539  46.648  23.130  1.00  0.00    -0.000 C 
BRANCH  13  14
ATOM     14  C   UNL     1      -0.564  46.288  24.623  1.00  0.00    -0.000 C 
BRANCH  14  15
ATOM     15  C   UNL     1      -1.732  46.950  25.369  1.00  0.00    -0.003 C 
ATOM     16  C   UNL     1      -3.077  46.289  25.069  1.00  0.00     0.004 C 
ENDBRANCH  14  15
ENDBRANCH  13  14
ENDBRANCH  12  13
ENDBRANCH  11  12
ENDBRANCH  10  11
ENDBRANCH   1  10
TORSDOF 12
ENDMDL
MODEL 5
REMARK VINA RESULT:    -3.977      3.110      5.365
REMARK INTER + INTRA:          -8.459
REMARK INTER:                  -7.060
REMARK INTRA:                  -1.399
REMARK UNBOUND:                -1.692
REMARK SMILES CCCCCCCCCCCCCC(=O)[O-]
REMARK SMILES IDX 8 1 9 2 10 3 11 4 12 5 13 6 14 7 15 8 16 9 7 10 6 11 5 12
REMARK SMILES IDX 4 13 3 14 2 15 1 16
REMARK H PARENT
REMARK Flexibility Score: inf
ROOT
ATOM      1  C   UNL     1       0.989  48.049  21.863  1.00  0.00     0.000 C 
ENDROOT
BRANCH   1   2
ATOM      2  C   UNL     1       1.891  49.236  22.264  1.00  0.00     0.000 C 
BRANCH   2   3
ATOM      3  C   UNL     1       1.838  50.411  21.271  1.00  0.00     0.000 C 
BRANCH   3   4
ATOM      4  C   UNL     1       1.434  51.736  21.933  1.00  0.00     0.000 C 
BRANCH   4   5
ATOM      5  C   UNL     1       2.130  51.908  23.288  1.00  0.00     0.006 C 
BRANCH   5   6
ATOM      6  C   UNL     1       3.445  52.679  23.136  1.00  0.00     0.053 C 
BRANCH   6   7
ATOM      7  C   UNL     1       3.178  54.140  22.955  1.00  0.00     0.041 C 
ATOM      8  O   UNL     1       2.194  54.680  23.526  1.00  0.00    -0.550 OA
ATOM      9  O   UNL     1       3.988  54.895  22.117  1.00  0.00    -0.550 OA
ENDBRANCH   6   7
ENDBRANCH   5   6
ENDBRANCH   4   5
ENDBRANCH   3   4
ENDBRANCH   2   3
ENDBRANCH   1   2
BRANCH   1  10
ATOM     10  C   UNL     1      -0.089  47.756  22.923  1.00  0.00     0.000 C 
BRANCH  10  11
ATOM     11  C   UNL     1      -0.548  49.020  23.666  1.00  0.00    -0.000 C 
BRANCH  11  12
ATOM     12  C   UNL     1      -0.908  48.746  25.135  1.00  0.00    -0.000 C 
BRANCH  12  13
ATOM     13  C   UNL     1       0.148  49.335  26.078  1.00  0.00    -0.000 C 
BRANCH  13  14
ATOM     14  C   UNL     1       1.426  48.482  26.074  1.00  0.00    -0.000 C 
BRANCH  14  15
ATOM     15  C   UNL     1       2.704  49.335  26.054  1.00  0.00    -0.003 C 
ATOM     16  C   UNL     1       3.660  48.996  27.197  1.00  0.00     0.004 C 
ENDBRANCH  14  15
ENDBRANCH  13  14
ENDBRANCH  12  13
ENDBRANCH  11  12
ENDBRANCH  10  11
ENDBRANCH   1  10
TORSDOF 12
ENDMDL
MODEL 6
REMARK VINA RESULT:    -3.927      1.270      2.315
REMARK INTER + INTRA:          -8.375
REMARK INTER:                  -7.324
REMARK INTRA:                  -1.050
REMARK UNBOUND:                -1.692
REMARK SMILES CCCCCCCCCCCCCC(=O)[O-]
REMARK SMILES IDX 8 1 9 2 10 3 11 4 12 5 13 6 14 7 15 8 16 9 7 10 6 11 5 12
REMARK SMILES IDX 4 13 3 14 2 15 1 16
REMARK H PARENT
REMARK Flexibility Score: inf
ROOT
ATOM      1  C   UNL     1       1.647  52.719  21.678  1.00  0.00     0.000 C 
ENDROOT
BRANCH   1   2
ATOM      2  C   UNL     1       1.037  51.304  21.775  1.00  0.00     0.000 C 
BRANCH   2   3
ATOM      3  C   UNL     1       1.930  50.207  21.169  1.00  0.00     0.000 C 
BRANCH   3   4
ATOM      4  C   UNL     1       2.019  48.954  22.050  1.00  0.00     0.000 C 
BRANCH   4   5
ATOM      5  C   UNL     1       0.677  48.214  22.092  1.00  0.00     0.006 C 
BRANCH   5   6
ATOM      6  C   UNL     1       0.160  48.096  23.529  1.00  0.00     0.053 C 
BRANCH   6   7
ATOM      7  C   UNL     1      -0.409  46.734  23.771  1.00  0.00     0.041 C 
ATOM      8  O   UNL     1      -0.417  46.248  24.933  1.00  0.00    -0.550 OA
ATOM      9  O   UNL     1      -0.886  45.980  22.706  1.00  0.00    -0.550 OA
ENDBRANCH   6   7
ENDBRANCH   5   6
ENDBRANCH   4   5
ENDBRANCH   3   4
ENDBRANCH   2   3
ENDBRANCH   1   2
BRANCH   1  10
ATOM     10  C   UNL     1       2.089  53.255  23.052  1.00  0.00     0.000 C 
BRANCH  10  11
ATOM     11  C   UNL     1       2.817  52.197  23.895  1.00  0.00    -0.000 C 
BRANCH  11  12
ATOM     12  C   UNL     1       1.965  51.684  25.067  1.00  0.00    -0.000 C 
BRANCH  12  13
ATOM     13  C   UNL     1       2.419  50.286  25.505  1.00  0.00    -0.000 C 
BRANCH  13  14
ATOM     14  C   UNL     1       1.926  49.968  26.924  1.00  0.00    -0.000 C 
BRANCH  14  15
ATOM     15  C   UNL     1       2.667  48.778  27.553  1.00  0.00    -0.003 C 
ATOM     16  C   UNL     1       4.179  48.991  27.621  1.00  0.00     0.004 C 
ENDBRANCH  14  15
ENDBRANCH  13  14
ENDBRANCH  12  13
ENDBRANCH  11  12
ENDBRANCH  10  11
ENDBRANCH   1  10
TORSDOF 12
ENDMDL
MODEL 7
REMARK VINA RESULT:    -3.903      2.291      4.664
REMARK INTER + INTRA:          -8.334
REMARK INTER:                  -6.805
REMARK INTRA:                  -1.529
REMARK UNBOUND:                -1.692
REMARK SMILES CCCCCCCCCCCCCC(=O)[O-]
REMARK SMILES IDX 8 1 9 2 10 3 11 4 12 5 13 6 14 7 15 8 16 9 7 10 6 11 5 12
REMARK SMILES IDX 4 13 3 14 2 15 1 16
REMARK H PARENT
REMARK Flexibility Score: inf
ROOT
ATOM      1  C   UNL     1       2.496  52.188  24.133  1.00  0.00     0.000 C 
ENDROOT
BRANCH   1   2
ATOM      2  C   UNL     1       1.156  51.673  24.702  1.00  0.00     0.000 C 
BRANCH   2   3
ATOM      3  C   UNL     1       1.323  50.590  25.783  1.00  0.00     0.000 C 
BRANCH   3   4
ATOM      4  C   UNL     1       2.612  49.773  25.618  1.00  0.00     0.000 C 
BRANCH   4   5
ATOM      5  C   UNL     1       2.704  48.672  26.681  1.00  0.00     0.006 C 
BRANCH   5   6
ATOM      6  C   UNL     1       3.806  48.982  27.698  1.00  0.00     0.053 C 
BRANCH   6   7
ATOM      7  C   UNL     1       3.240  49.701  28.882  1.00  0.00     0.041 C 
ATOM      8  O   UNL     1       3.912  50.596  29.460  1.00  0.00    -0.550 OA
ATOM      9  O   UNL     1       1.992  49.350  29.377  1.00  0.00    -0.550 OA
ENDBRANCH   6   7
ENDBRANCH   5   6
ENDBRANCH   4   5
ENDBRANCH   3   4
ENDBRANCH   2   3
ENDBRANCH   1   2
BRANCH   1  10
ATOM     10  C   UNL     1       2.598  51.979  22.611  1.00  0.00     0.000 C 
BRANCH  10  11
ATOM     11  C   UNL     1       1.549  50.992  22.077  1.00  0.00    -0.000 C 
BRANCH  11  12
ATOM     12  C   UNL     1       2.093  49.560  21.951  1.00  0.00    -0.000 C 
BRANCH  12  13
ATOM     13  C   UNL     1       1.055  48.633  21.306  1.00  0.00    -0.000 C 
BRANCH  13  14
ATOM     14  C   UNL     1       0.537  47.600  22.317  1.00  0.00    -0.000 C 
BRANCH  14  15
ATOM     15  C   UNL     1      -0.244  48.245  23.472  1.00  0.00    -0.003 C 
ATOM     16  C   UNL     1      -0.261  47.379  24.731  1.00  0.00     0.004 C 
ENDBRANCH  14  15
ENDBRANCH  13  14
ENDBRANCH  12  13
ENDBRANCH  11  12
ENDBRANCH  10  11
ENDBRANCH   1  10
TORSDOF 12
ENDMDL
MODEL 8
REMARK VINA RESULT:    -3.889      1.818      4.094
REMARK INTER + INTRA:          -8.309
REMARK INTER:                  -6.655
REMARK INTRA:                  -1.654
REMARK UNBOUND:                -1.692
REMARK SMILES CCCCCCCCCCCCCC(=O)[O-]
REMARK SMILES IDX 8 1 9 2 10 3 11 4 12 5 13 6 14 7 15 8 16 9 7 10 6 11 5 12
REMARK SMILES IDX 4 13 3 14 2 15 1 16
REMARK H PARENT
REMARK Flexibility Score: inf
ROOT
ATOM      1  C   UNL     1       0.243  47.697  22.827  1.00  0.00     0.000 C 
ENDROOT
BRANCH   1   2
ATOM      2  C   UNL     1      -0.511  48.875  23.480  1.00  0.00     0.000 C 
BRANCH   2   3
ATOM      3  C   UNL     1      -0.182  49.066  24.971  1.00  0.00     0.000 C 
BRANCH   3   4
ATOM      4  C   UNL     1       0.101  50.528  25.339  1.00  0.00     0.000 C 
BRANCH   4   5
ATOM      5  C   UNL     1       1.249  50.629  26.351  1.00  0.00     0.006 C 
BRANCH   5   6
ATOM      6  C   UNL     1       2.391  49.678  25.981  1.00  0.00     0.053 C 
BRANCH   6   7
ATOM      7  C   UNL     1       2.959  49.038  27.208  1.00  0.00     0.041 C 
ATOM      8  O   UNL     1       4.140  48.600  27.205  1.00  0.00    -0.550 OA
ATOM      9  O   UNL     1       2.168  48.879  28.338  1.00  0.00    -0.550 OA
ENDBRANCH   6   7
ENDBRANCH   5   6
ENDBRANCH   4   5
ENDBRANCH   3   4
ENDBRANCH   2   3
ENDBRANCH   1   2
BRANCH   1  10
ATOM     10  C   UNL     1       1.080  48.144  21.615  1.00  0.00     0.000 C 
BRANCH  10  11
ATOM     11  C   UNL     1       2.046  49.289  21.953  1.00  0.00    -0.000 C 
BRANCH  11  12
ATOM     12  C   UNL     1       1.701  50.593  21.215  1.00  0.00    -0.000 C 
BRANCH  12  13
ATOM     13  C   UNL     1       1.612  51.770  22.194  1.00  0.00    -0.000 C 
BRANCH  13  14
ATOM     14  C   UNL     1       2.825  51.794  23.136  1.00  0.00    -0.000 C 
BRANCH  14  15
ATOM     15  C   UNL     1       3.163  53.211  23.625  1.00  0.00    -0.003 C 
ATOM     16  C   UNL     1       3.195  54.236  22.492  1.00  0.00     0.004 C 
ENDBRANCH  14  15
ENDBRANCH  13  14
ENDBRANCH  12  13
ENDBRANCH  11  12
ENDBRANCH  10  11
ENDBRANCH   1  10
TORSDOF 12
ENDMDL
MODEL 9
REMARK VINA RESULT:    -3.863      3.058      5.193
REMARK INTER + INTRA:          -8.265
REMARK INTER:                  -6.521
REMARK INTRA:                  -1.744
REMARK UNBOUND:                -1.692
REMARK SMILES CCCCCCCCCCCCCC(=O)[O-]
REMARK SMILES IDX 8 1 9 2 10 3 11 4 12 5 13 6 14 7 15 8 16 9 7 10 6 11 5 12
REMARK SMILES IDX 4 13 3 14 2 15 1 16
REMARK H PARENT
REMARK Flexibility Score: inf
ROOT
ATOM      1  C   UNL     1       0.621  48.572  21.991  1.00  0.00     0.000 C 
ENDROOT
BRANCH   1   2
ATOM      2  C   UNL     1       2.134  48.880  22.007  1.00  0.00     0.000 C 
BRANCH   2   3
ATOM      3  C   UNL     1       2.457  50.383  21.933  1.00  0.00     0.000 C 
BRANCH   3   4
ATOM      4  C   UNL     1       1.203  51.258  21.797  1.00  0.00     0.000 C 
BRANCH   4   5
ATOM      5  C   UNL     1       1.317  52.519  22.663  1.00  0.00     0.006 C 
BRANCH   5   6
ATOM      6  C   UNL     1       1.965  53.665  21.881  1.00  0.00     0.053 C 
BRANCH   6   7
ATOM      7  C   UNL     1       3.121  54.231  22.643  1.00  0.00     0.041 C 
ATOM      8  O   UNL     1       4.034  54.853  22.038  1.00  0.00    -0.550 OA
ATOM      9  O   UNL     1       3.217  54.029  24.013  1.00  0.00    -0.550 OA
ENDBRANCH   6   7
ENDBRANCH   5   6
ENDBRANCH   4   5
ENDBRANCH   3   4
ENDBRANCH   2   3
ENDBRANCH   1   2
BRANCH   1  10
ATOM     10  C   UNL     1       0.171  47.810  23.250  1.00  0.00     0.000 C 
BRANCH  10  11
ATOM     11  C   UNL     1      -0.609  48.697  24.233  1.00  0.00    -0.000 C 
BRANCH  11  12
ATOM     12  C   UNL     1       0.157  48.948  25.541  1.00  0.00    -0.000 C 
BRANCH  12  13
ATOM     13  C   UNL     1       0.814  50.335  25.536  1.00  0.00    -0.000 C 
BRANCH  13  14
ATOM     14  C   UNL     1       2.342  50.219  25.635  1.00  0.00    -0.000 C 
BRANCH  14  15
ATOM     15  C   UNL     1       2.798  48.836  26.124  1.00  0.00    -0.003 C 
ATOM     16  C   UNL     1       3.621  48.906  27.411  1.00  0.00     0.004 C 
ENDBRANCH  14  15
ENDBRANCH  13  14
ENDBRANCH  12  13
ENDBRANCH  11  12
ENDBRANCH  10  11
ENDBRANCH   1  10
TORSDOF 12
ENDMDL
