MODEL 1
REMARK VINA RESULT:    -7.788      0.000      0.000
REMARK INTER + INTRA:          -8.195
REMARK INTER:                  -8.471
REMARK INTRA:                   0.276
REMARK UNBOUND:                 0.276
REMARK SMILES C[C@@H]1[C@@H](C)CC[C@]2(C(=O)[O-])CC[C@]3(C)C(=CC[C@H]4[C@]5(C)CC[C@H](O)C(C)(C)[C@@H]5CC[C@]43C)[C@@H]12
REMARK SMILES IDX 7 1 6 2 11 3 33 4 5 5 12 6 15 7 2 8 3 9 13 10 16 11 1 12
REMARK SMILES IDX 4 13 14 14 31 15 17 16 18 17 30 18 32 19 19 20 29 21 28 22
REMARK SMILES IDX 21 23 20 24 25 25 22 26 23 27 26 28 27 29 8 30 9 31 10 32
REMARK SMILES IDX 24 33
REMARK H PARENT 24 34
REMARK Flexibility Score: inf
ROOT
ATOM      1  C   UNL     1     -17.868  31.506  -5.312  1.00  0.00     0.017 C 
ATOM      2  C   UNL     1     -16.373  31.551  -5.714  1.00  0.00     0.014 C 
ATOM      3  C   UNL     1     -18.125  32.609  -4.229  1.00  0.00     0.014 C 
ATOM      4  C   UNL     1     -18.184  30.117  -4.660  1.00  0.00     0.030 C 
ATOM      5  C   UNL     1     -15.959  30.357  -6.583  1.00  0.00     0.004 C 
ATOM      6  C   UNL     1     -19.534  32.546  -3.566  1.00  0.00     0.013 C 
ATOM      7  C   UNL     1     -19.639  30.150  -4.185  1.00  0.00    -0.063 C 
ATOM      8  C   UNL     1     -17.735  28.875  -5.498  1.00  0.00    -0.003 C 
ATOM      9  C   UNL     1     -16.228  29.016  -5.873  1.00  0.00    -0.011 C 
ATOM     10  C   UNL     1     -19.959  31.124  -3.045  1.00  0.00    -0.006 C 
ATOM     11  C   UNL     1     -20.604  29.823  -5.057  1.00  0.00    -0.027 C 
ATOM     12  C   UNL     1     -17.989  27.581  -4.696  1.00  0.00     0.008 C 
ATOM     13  C   UNL     1     -15.738  27.864  -6.767  1.00  0.00     0.008 C 
ATOM     14  C   UNL     1     -19.033  30.781  -1.824  1.00  0.00     0.017 C 
ATOM     15  C   UNL     1     -21.534  31.048  -2.609  1.00  0.00    -0.020 C 
ATOM     16  C   UNL     1     -21.804  30.691  -5.195  1.00  0.00     0.032 C 
ATOM     17  C   UNL     1     -22.549  30.977  -3.856  1.00  0.00     0.006 C 
ATOM     18  C   UNL     1     -21.816  29.816  -1.673  1.00  0.00     0.008 C 
ATOM     19  C   UNL     1     -21.858  32.339  -1.785  1.00  0.00     0.012 C 
ATOM     20  C   UNL     1     -23.850  30.048  -3.684  1.00  0.00    -0.025 C 
ATOM     21  C   UNL     1     -22.123  28.522  -2.425  1.00  0.00     0.005 C 
ATOM     22  C   UNL     1     -23.404  28.564  -3.337  1.00  0.00     0.003 C 
ATOM     23  C   UNL     1     -24.821  30.625  -2.595  1.00  0.00     0.010 C 
ATOM     24  C   UNL     1     -24.670  30.106  -5.024  1.00  0.00     0.012 C 
ATOM     25  C   UNL     1     -24.587  27.605  -2.859  1.00  0.00    -0.006 C 
ATOM     26  C   UNL     1     -25.955  29.675  -2.174  1.00  0.00     0.033 C 
ATOM     27  C   UNL     1     -25.440  28.290  -1.749  1.00  0.00     0.120 C 
ATOM     28  C   UNL     1     -24.064  26.234  -2.329  1.00  0.00     0.014 C 
ATOM     29  C   UNL     1     -25.502  27.214  -4.062  1.00  0.00     0.014 C 
ENDROOT
BRANCH   1  30
ATOM     30  C   UNL     1     -18.716  31.808  -6.555  1.00  0.00     0.048 C 
ATOM     31  O   UNL     1     -19.199  32.958  -6.736  1.00  0.00    -0.550 OA
ATOM     32  O   UNL     1     -18.910  30.855  -7.546  1.00  0.00    -0.550 OA
ENDBRANCH   1  30
BRANCH  27  33
ATOM     33  O   UNL     1     -24.694  28.438  -0.566  1.00  0.00    -0.393 OA
ATOM     34  H   UNL     1     -24.050  29.179  -0.706  1.00  0.00     0.210 HD
ENDBRANCH  27  33
TORSDOF 2
ENDMDL
MODEL 2
REMARK VINA RESULT:    -7.579      1.724      7.397
REMARK INTER + INTRA:          -7.968
REMARK INTER:                  -8.344
REMARK INTRA:                   0.376
REMARK UNBOUND:                 0.276
REMARK SMILES C[C@@H]1[C@@H](C)CC[C@]2(C(=O)[O-])CC[C@]3(C)C(=CC[C@H]4[C@]5(C)CC[C@H](O)C(C)(C)[C@@H]5CC[C@]43C)[C@@H]12
REMARK SMILES IDX 7 1 6 2 11 3 33 4 5 5 12 6 15 7 2 8 3 9 13 10 16 11 1 12
REMARK SMILES IDX 4 13 14 14 31 15 17 16 18 17 30 18 32 19 19 20 29 21 28 22
REMARK SMILES IDX 21 23 20 24 25 25 22 26 23 27 26 28 27 29 8 30 9 31 10 32
REMARK SMILES IDX 24 33
REMARK H PARENT 24 34
REMARK Flexibility Score: inf
ROOT
ATOM      1  C   UNL     1     -22.816  29.630  -2.379  1.00  0.00     0.017 C 
ATOM      2  C   UNL     1     -24.344  29.599  -2.129  1.00  0.00     0.014 C 
ATOM      3  C   UNL     1     -22.137  30.422  -1.210  1.00  0.00     0.014 C 
ATOM      4  C   UNL     1     -22.527  30.406  -3.709  1.00  0.00     0.030 C 
ATOM      5  C   UNL     1     -25.129  29.064  -3.333  1.00  0.00     0.004 C 
ATOM      6  C   UNL     1     -20.625  30.726  -1.431  1.00  0.00     0.013 C 
ATOM      7  C   UNL     1     -21.008  30.504  -3.867  1.00  0.00    -0.063 C 
ATOM      8  C   UNL     1     -23.344  29.917  -4.950  1.00  0.00    -0.003 C 
ATOM      9  C   UNL     1     -24.864  29.900  -4.602  1.00  0.00    -0.011 C 
ATOM     10  C   UNL     1     -20.270  31.356  -2.828  1.00  0.00    -0.006 C 
ATOM     11  C   UNL     1     -20.360  29.490  -4.461  1.00  0.00    -0.027 C 
ATOM     12  C   UNL     1     -23.063  30.836  -6.158  1.00  0.00     0.008 C 
ATOM     13  C   UNL     1     -25.722  29.352  -5.755  1.00  0.00     0.008 C 
ATOM     14  C   UNL     1     -20.879  32.804  -2.852  1.00  0.00     0.017 C 
ATOM     15  C   UNL     1     -18.661  31.406  -3.117  1.00  0.00    -0.020 C 
ATOM     16  C   UNL     1     -19.134  28.925  -3.836  1.00  0.00     0.032 C 
ATOM     17  C   UNL     1     -18.031  29.980  -3.517  1.00  0.00     0.006 C 
ATOM     18  C   UNL     1     -18.310  32.436  -4.253  1.00  0.00     0.008 C 
ATOM     19  C   UNL     1     -17.961  31.903  -1.809  1.00  0.00     0.012 C 
ATOM     20  C   UNL     1     -16.867  29.983  -4.626  1.00  0.00    -0.025 C 
ATOM     21  C   UNL     1     -18.388  31.855  -5.665  1.00  0.00     0.005 C 
ATOM     22  C   UNL     1     -17.400  30.667  -5.957  1.00  0.00     0.003 C 
ATOM     23  C   UNL     1     -15.575  30.695  -4.093  1.00  0.00     0.010 C 
ATOM     24  C   UNL     1     -16.430  28.494  -4.878  1.00  0.00     0.012 C 
ATOM     25  C   UNL     1     -16.272  30.996  -7.038  1.00  0.00    -0.006 C 
ATOM     26  C   UNL     1     -14.508  30.980  -5.164  1.00  0.00     0.033 C 
ATOM     27  C   UNL     1     -15.073  31.739  -6.376  1.00  0.00     0.120 C 
ATOM     28  C   UNL     1     -16.815  31.854  -8.221  1.00  0.00     0.014 C 
ATOM     29  C   UNL     1     -15.768  29.689  -7.726  1.00  0.00     0.014 C 
ENDROOT
BRANCH   1  30
ATOM     30  C   UNL     1     -22.293  28.187  -2.385  1.00  0.00     0.048 C 
ATOM     31  O   UNL     1     -21.893  27.647  -1.319  1.00  0.00    -0.550 OA
ATOM     32  O   UNL     1     -22.319  27.415  -3.538  1.00  0.00    -0.550 OA
ENDBRANCH   1  30
BRANCH  27  33
ATOM     33  O   UNL     1     -15.452  33.026  -5.955  1.00  0.00    -0.393 OA
ATOM     34  H   UNL     1     -14.923  33.247  -5.146  1.00  0.00     0.210 HD
ENDBRANCH  27  33
TORSDOF 2
ENDMDL
MODEL 3
REMARK VINA RESULT:    -7.392      2.474      7.016
REMARK INTER + INTRA:          -7.764
REMARK INTER:                  -8.031
REMARK INTRA:                   0.267
REMARK UNBOUND:                 0.276
REMARK SMILES C[C@@H]1[C@@H](C)CC[C@]2(C(=O)[O-])CC[C@]3(C)C(=CC[C@H]4[C@]5(C)CC[C@H](O)C(C)(C)[C@@H]5CC[C@]43C)[C@@H]12
REMARK SMILES IDX 7 1 6 2 11 3 33 4 5 5 12 6 15 7 2 8 3 9 13 10 16 11 1 12
REMARK SMILES IDX 4 13 14 14 31 15 17 16 18 17 30 18 32 19 19 20 29 21 28 22
REMARK SMILES IDX 21 23 20 24 25 25 22 26 23 27 26 28 27 29 8 30 9 31 10 32
REMARK SMILES IDX 24 33
REMARK H PARENT 24 34
REMARK Flexibility Score: inf
ROOT
ATOM      1  C   UNL     1     -24.474  24.977  -3.245  1.00  0.00     0.017 C 
ATOM      2  C   UNL     1     -24.928  23.590  -3.762  1.00  0.00     0.014 C 
ATOM      3  C   UNL     1     -25.749  25.831  -2.929  1.00  0.00     0.014 C 
ATOM      4  C   UNL     1     -23.678  25.713  -4.376  1.00  0.00     0.030 C 
ATOM      5  C   UNL     1     -23.768  22.763  -4.332  1.00  0.00     0.004 C 
ATOM      6  C   UNL     1     -25.459  27.327  -2.605  1.00  0.00     0.013 C 
ATOM      7  C   UNL     1     -23.338  27.115  -3.864  1.00  0.00    -0.063 C 
ATOM      8  C   UNL     1     -22.515  24.883  -5.013  1.00  0.00    -0.003 C 
ATOM      9  C   UNL     1     -23.057  23.500  -5.486  1.00  0.00    -0.011 C 
ATOM     10  C   UNL     1     -24.523  28.060  -3.634  1.00  0.00    -0.006 C 
ATOM     11  C   UNL     1     -22.220  27.277  -3.141  1.00  0.00    -0.027 C 
ATOM     12  C   UNL     1     -21.895  25.667  -6.189  1.00  0.00     0.008 C 
ATOM     13  C   UNL     1     -21.947  22.599  -6.052  1.00  0.00     0.008 C 
ATOM     14  C   UNL     1     -25.322  28.190  -4.980  1.00  0.00     0.017 C 
ATOM     15  C   UNL     1     -24.031  29.531  -3.116  1.00  0.00    -0.020 C 
ATOM     16  C   UNL     1     -22.268  28.043  -1.865  1.00  0.00     0.032 C 
ATOM     17  C   UNL     1     -22.877  29.472  -1.995  1.00  0.00     0.006 C 
ATOM     18  C   UNL     1     -23.516  30.421  -4.306  1.00  0.00     0.008 C 
ATOM     19  C   UNL     1     -25.276  30.256  -2.501  1.00  0.00     0.012 C 
ATOM     20  C   UNL     1     -21.739  30.605  -2.059  1.00  0.00    -0.025 C 
ATOM     21  C   UNL     1     -22.038  30.218  -4.639  1.00  0.00     0.005 C 
ATOM     22  C   UNL     1     -21.034  30.573  -3.482  1.00  0.00     0.003 C 
ATOM     23  C   UNL     1     -22.331  32.023  -1.744  1.00  0.00     0.010 C 
ATOM     24  C   UNL     1     -20.713  30.331  -0.900  1.00  0.00     0.012 C 
ATOM     25  C   UNL     1     -20.088  31.822  -3.788  1.00  0.00    -0.006 C 
ATOM     26  C   UNL     1     -21.382  33.198  -2.038  1.00  0.00     0.033 C 
ATOM     27  C   UNL     1     -20.820  33.160  -3.469  1.00  0.00     0.120 C 
ATOM     28  C   UNL     1     -19.597  31.848  -5.268  1.00  0.00     0.014 C 
ATOM     29  C   UNL     1     -18.769  31.732  -2.959  1.00  0.00     0.014 C 
ENDROOT
BRANCH   1  30
ATOM     30  C   UNL     1     -23.666  24.776  -1.956  1.00  0.00     0.048 C 
ATOM     31  O   UNL     1     -24.177  25.034  -0.834  1.00  0.00    -0.550 OA
ATOM     32  O   UNL     1     -22.387  24.237  -1.983  1.00  0.00    -0.550 OA
ENDBRANCH   1  30
BRANCH  27  33
ATOM     33  O   UNL     1     -21.881  33.377  -4.367  1.00  0.00    -0.393 OA
ATOM     34  H   UNL     1     -22.677  32.905  -4.012  1.00  0.00     0.210 HD
ENDBRANCH  27  33
TORSDOF 2
ENDMDL
MODEL 4
REMARK VINA RESULT:    -7.334      2.508      7.940
REMARK INTER + INTRA:          -7.702
REMARK INTER:                  -8.024
REMARK INTRA:                   0.322
REMARK UNBOUND:                 0.276
REMARK SMILES C[C@@H]1[C@@H](C)CC[C@]2(C(=O)[O-])CC[C@]3(C)C(=CC[C@H]4[C@]5(C)CC[C@H](O)C(C)(C)[C@@H]5CC[C@]43C)[C@@H]12
REMARK SMILES IDX 7 1 6 2 11 3 33 4 5 5 12 6 15 7 2 8 3 9 13 10 16 11 1 12
REMARK SMILES IDX 4 13 14 14 31 15 17 16 18 17 30 18 32 19 19 20 29 21 28 22
REMARK SMILES IDX 21 23 20 24 25 25 22 26 23 27 26 28 27 29 8 30 9 31 10 32
REMARK SMILES IDX 24 33
REMARK H PARENT 24 34
REMARK Flexibility Score: inf
ROOT
ATOM      1  C   UNL     1     -19.361  31.760  -3.058  1.00  0.00     0.017 C 
ATOM      2  C   UNL     1     -20.703  32.161  -2.397  1.00  0.00     0.014 C 
ATOM      3  C   UNL     1     -18.805  32.996  -3.842  1.00  0.00     0.014 C 
ATOM      4  C   UNL     1     -19.621  30.616  -4.097  1.00  0.00     0.030 C 
ATOM      5  C   UNL     1     -21.455  30.960  -1.810  1.00  0.00     0.004 C 
ATOM      6  C   UNL     1     -17.570  32.687  -4.741  1.00  0.00     0.013 C 
ATOM      7  C   UNL     1     -18.294  30.320  -4.800  1.00  0.00    -0.063 C 
ATOM      8  C   UNL     1     -20.426  29.393  -3.545  1.00  0.00    -0.003 C 
ATOM      9  C   UNL     1     -21.746  29.891  -2.883  1.00  0.00    -0.011 C 
ATOM     10  C   UNL     1     -17.729  31.438  -5.683  1.00  0.00    -0.006 C 
ATOM     11  C   UNL     1     -17.450  29.446  -4.231  1.00  0.00    -0.027 C 
ATOM     12  C   UNL     1     -20.720  28.400  -4.690  1.00  0.00     0.008 C 
ATOM     13  C   UNL     1     -22.551  28.744  -2.248  1.00  0.00     0.008 C 
ATOM     14  C   UNL     1     -18.807  31.808  -6.765  1.00  0.00     0.017 C 
ATOM     15  C   UNL     1     -16.327  30.994  -6.399  1.00  0.00    -0.020 C 
ATOM     16  C   UNL     1     -16.010  29.791  -4.088  1.00  0.00     0.032 C 
ATOM     17  C   UNL     1     -15.316  30.217  -5.418  1.00  0.00     0.006 C 
ATOM     18  C   UNL     1     -16.584  30.089  -7.660  1.00  0.00     0.008 C 
ATOM     19  C   UNL     1     -15.620  32.298  -6.902  1.00  0.00     0.012 C 
ATOM     20  C   UNL     1     -14.457  29.018  -6.057  1.00  0.00    -0.025 C 
ATOM     21  C   UNL     1     -16.710  28.600  -7.339  1.00  0.00     0.005 C 
ATOM     22  C   UNL     1     -15.436  27.941  -6.694  1.00  0.00     0.003 C 
ATOM     23  C   UNL     1     -13.429  29.554  -7.113  1.00  0.00     0.010 C 
ATOM     24  C   UNL     1     -13.573  28.391  -4.918  1.00  0.00     0.012 C 
ATOM     25  C   UNL     1     -14.722  26.847  -7.610  1.00  0.00    -0.006 C 
ATOM     26  C   UNL     1     -12.752  28.466  -7.964  1.00  0.00     0.033 C 
ATOM     27  C   UNL     1     -13.765  27.525  -8.637  1.00  0.00     0.120 C 
ATOM     28  C   UNL     1     -15.745  25.954  -8.377  1.00  0.00     0.014 C 
ATOM     29  C   UNL     1     -13.923  25.831  -6.736  1.00  0.00     0.014 C 
ENDROOT
BRANCH   1  30
ATOM     30  C   UNL     1     -18.370  31.372  -1.953  1.00  0.00     0.048 C 
ATOM     31  O   UNL     1     -17.326  32.052  -1.762  1.00  0.00    -0.550 OA
ATOM     32  O   UNL     1     -18.630  30.318  -1.087  1.00  0.00    -0.550 OA
ENDBRANCH   1  30
BRANCH  27  33
ATOM     33  O   UNL     1     -14.493  28.264  -9.587  1.00  0.00    -0.393 OA
ATOM     34  H   UNL     1     -15.131  28.842  -9.094  1.00  0.00     0.210 HD
ENDBRANCH  27  33
TORSDOF 2
ENDMDL
MODEL 5
REMARK VINA RESULT:    -7.260      3.312      6.893
REMARK INTER + INTRA:          -7.621
REMARK INTER:                  -7.885
REMARK INTRA:                   0.264
REMARK UNBOUND:                 0.276
REMARK SMILES C[C@@H]1[C@@H](C)CC[C@]2(C(=O)[O-])CC[C@]3(C)C(=CC[C@H]4[C@]5(C)CC[C@H](O)C(C)(C)[C@@H]5CC[C@]43C)[C@@H]12
REMARK SMILES IDX 7 1 6 2 11 3 33 4 5 5 12 6 15 7 2 8 3 9 13 10 16 11 1 12
REMARK SMILES IDX 4 13 14 14 31 15 17 16 18 17 30 18 32 19 19 20 29 21 28 22
REMARK SMILES IDX 21 23 20 24 25 25 22 26 23 27 26 28 27 29 8 30 9 31 10 32
REMARK SMILES IDX 24 33
REMARK H PARENT 24 34
REMARK Flexibility Score: inf
ROOT
ATOM      1  C   UNL     1     -22.228  24.575  -5.823  1.00  0.00     0.017 C 
ATOM      2  C   UNL     1     -22.405  23.058  -6.075  1.00  0.00     0.014 C 
ATOM      3  C   UNL     1     -22.466  25.334  -7.174  1.00  0.00     0.014 C 
ATOM      4  C   UNL     1     -20.752  24.854  -5.376  1.00  0.00     0.030 C 
ATOM      5  C   UNL     1     -21.955  22.205  -4.882  1.00  0.00     0.004 C 
ATOM      6  C   UNL     1     -22.110  26.850  -7.133  1.00  0.00     0.013 C 
ATOM      7  C   UNL     1     -20.590  26.370  -5.238  1.00  0.00    -0.063 C 
ATOM      8  C   UNL     1     -20.243  23.971  -4.190  1.00  0.00    -0.003 C 
ATOM      9  C   UNL     1     -20.479  22.466  -4.521  1.00  0.00    -0.011 C 
ATOM     10  C   UNL     1     -20.696  27.185  -6.533  1.00  0.00    -0.006 C 
ATOM     11  C   UNL     1     -20.923  26.946  -4.074  1.00  0.00    -0.027 C 
ATOM     12  C   UNL     1     -18.748  24.254  -3.929  1.00  0.00     0.008 C 
ATOM     13  C   UNL     1     -20.072  21.541  -3.360  1.00  0.00     0.008 C 
ATOM     14  C   UNL     1     -19.623  26.648  -7.546  1.00  0.00     0.017 C 
ATOM     15  C   UNL     1     -20.479  28.783  -6.261  1.00  0.00    -0.020 C 
ATOM     16  C   UNL     1     -21.777  28.164  -4.066  1.00  0.00     0.032 C 
ATOM     17  C   UNL     1     -21.245  29.329  -4.955  1.00  0.00     0.006 C 
ATOM     18  C   UNL     1     -18.954  29.144  -6.125  1.00  0.00     0.008 C 
ATOM     19  C   UNL     1     -21.027  29.553  -7.509  1.00  0.00     0.012 C 
ATOM     20  C   UNL     1     -20.492  30.452  -4.084  1.00  0.00    -0.025 C 
ATOM     21  C   UNL     1     -18.403  28.988  -4.708  1.00  0.00     0.005 C 
ATOM     22  C   UNL     1     -19.074  29.906  -3.622  1.00  0.00     0.003 C 
ATOM     23  C   UNL     1     -20.357  31.795  -4.883  1.00  0.00     0.010 C 
ATOM     24  C   UNL     1     -21.404  30.805  -2.853  1.00  0.00     0.012 C 
ATOM     25  C   UNL     1     -18.104  31.010  -2.998  1.00  0.00    -0.006 C 
ATOM     26  C   UNL     1     -19.426  32.836  -4.240  1.00  0.00     0.033 C 
ATOM     27  C   UNL     1     -18.035  32.266  -3.916  1.00  0.00     0.120 C 
ATOM     28  C   UNL     1     -16.661  30.468  -2.762  1.00  0.00     0.014 C 
ATOM     29  C   UNL     1     -18.583  31.424  -1.572  1.00  0.00     0.014 C 
ENDROOT
BRANCH   1  30
ATOM     30  C   UNL     1     -23.276  25.026  -4.798  1.00  0.00     0.048 C 
ATOM     31  O   UNL     1     -24.291  25.677  -5.163  1.00  0.00    -0.550 OA
ATOM     32  O   UNL     1     -23.179  24.665  -3.460  1.00  0.00    -0.550 OA
ENDBRANCH   1  30
BRANCH  27  33
ATOM     33  O   UNL     1     -17.387  31.966  -5.128  1.00  0.00    -0.393 OA
ATOM     34  H   UNL     1     -17.516  31.000  -5.307  1.00  0.00     0.210 HD
ENDBRANCH  27  33
TORSDOF 2
ENDMDL
MODEL 6
REMARK VINA RESULT:    -7.089      2.390      4.304
REMARK INTER + INTRA:          -7.435
REMARK INTER:                  -7.708
REMARK INTRA:                   0.273
REMARK UNBOUND:                 0.276
REMARK SMILES C[C@@H]1[C@@H](C)CC[C@]2(C(=O)[O-])CC[C@]3(C)C(=CC[C@H]4[C@]5(C)CC[C@H](O)C(C)(C)[C@@H]5CC[C@]43C)[C@@H]12
REMARK SMILES IDX 7 1 6 2 11 3 33 4 5 5 12 6 15 7 2 8 3 9 13 10 16 11 1 12
REMARK SMILES IDX 4 13 14 14 31 15 17 16 18 17 30 18 32 19 19 20 29 21 28 22
REMARK SMILES IDX 21 23 20 24 25 25 22 26 23 27 26 28 27 29 8 30 9 31 10 32
REMARK SMILES IDX 24 33
REMARK H PARENT 24 34
REMARK Flexibility Score: inf
ROOT
ATOM      1  C   UNL     1     -20.841  31.316  -2.611  1.00  0.00     0.017 C 
ATOM      2  C   UNL     1     -19.328  31.641  -2.564  1.00  0.00     0.014 C 
ATOM      3  C   UNL     1     -21.217  30.507  -1.323  1.00  0.00     0.014 C 
ATOM      4  C   UNL     1     -21.133  30.400  -3.849  1.00  0.00     0.030 C 
ATOM      5  C   UNL     1     -18.805  32.214  -3.887  1.00  0.00     0.004 C 
ATOM      6  C   UNL     1     -22.660  29.919  -1.328  1.00  0.00     0.013 C 
ATOM      7  C   UNL     1     -22.615  30.019  -3.802  1.00  0.00    -0.063 C 
ATOM      8  C   UNL     1     -20.574  30.931  -5.210  1.00  0.00    -0.003 C 
ATOM      9  C   UNL     1     -19.055  31.249  -5.063  1.00  0.00    -0.011 C 
ATOM     10  C   UNL     1     -23.051  29.130  -2.631  1.00  0.00    -0.006 C 
ATOM     11  C   UNL     1     -23.507  30.850  -4.361  1.00  0.00    -0.027 C 
ATOM     12  C   UNL     1     -20.818  29.887  -6.320  1.00  0.00     0.008 C 
ATOM     13  C   UNL     1     -18.457  31.852  -6.346  1.00  0.00     0.008 C 
ATOM     14  C   UNL     1     -22.188  27.818  -2.656  1.00  0.00     0.017 C 
ATOM     15  C   UNL     1     -24.644  28.770  -2.706  1.00  0.00    -0.020 C 
ATOM     16  C   UNL     1     -24.735  31.231  -3.613  1.00  0.00     0.032 C 
ATOM     17  C   UNL     1     -25.575  30.023  -3.097  1.00  0.00     0.006 C 
ATOM     18  C   UNL     1     -24.927  27.609  -3.730  1.00  0.00     0.008 C 
ATOM     19  C   UNL     1     -25.080  28.257  -1.293  1.00  0.00     0.012 C 
ATOM     20  C   UNL     1     -26.840  29.725  -4.044  1.00  0.00    -0.025 C 
ATOM     21  C   UNL     1     -25.126  28.084  -5.169  1.00  0.00     0.005 C 
ATOM     22  C   UNL     1     -26.348  29.048  -5.394  1.00  0.00     0.003 C 
ATOM     23  C   UNL     1     -27.903  28.835  -3.310  1.00  0.00     0.010 C 
ATOM     24  C   UNL     1     -27.576  31.087  -4.317  1.00  0.00     0.012 C 
ATOM     25  C   UNL     1     -27.513  28.439  -6.300  1.00  0.00    -0.006 C 
ATOM     26  C   UNL     1     -29.015  28.281  -4.216  1.00  0.00     0.033 C 
ATOM     27  C   UNL     1     -28.464  27.546  -5.448  1.00  0.00     0.120 C 
ATOM     28  C   UNL     1     -26.961  27.604  -7.495  1.00  0.00     0.014 C 
ATOM     29  C   UNL     1     -28.331  29.576  -6.986  1.00  0.00     0.014 C 
ENDROOT
BRANCH   1  30
ATOM     30  C   UNL     1     -21.623  32.637  -2.626  1.00  0.00     0.048 C 
ATOM     31  O   UNL     1     -22.255  33.018  -1.605  1.00  0.00    -0.550 OA
ATOM     32  O   UNL     1     -21.594  33.480  -3.729  1.00  0.00    -0.550 OA
ENDBRANCH   1  30
BRANCH  27  33
ATOM     33  O   UNL     1     -27.802  26.384  -5.011  1.00  0.00    -0.393 OA
ATOM     34  H   UNL     1     -26.843  26.479  -5.241  1.00  0.00     0.210 HD
ENDBRANCH  27  33
TORSDOF 2
ENDMDL
MODEL 7
REMARK VINA RESULT:    -7.050      3.289      7.268
REMARK INTER + INTRA:          -7.392
REMARK INTER:                  -7.662
REMARK INTRA:                   0.270
REMARK UNBOUND:                 0.276
REMARK SMILES C[C@@H]1[C@@H](C)CC[C@]2(C(=O)[O-])CC[C@]3(C)C(=CC[C@H]4[C@]5(C)CC[C@H](O)C(C)(C)[C@@H]5CC[C@]43C)[C@@H]12
REMARK SMILES IDX 7 1 6 2 11 3 33 4 5 5 12 6 15 7 2 8 3 9 13 10 16 11 1 12
REMARK SMILES IDX 4 13 14 14 31 15 17 16 18 17 30 18 32 19 19 20 29 21 28 22
REMARK SMILES IDX 21 23 20 24 25 25 22 26 23 27 26 28 27 29 8 30 9 31 10 32
REMARK SMILES IDX 24 33
REMARK H PARENT 24 34
REMARK Flexibility Score: inf
ROOT
ATOM      1  C   UNL     1     -22.355  29.495  -3.124  1.00  0.00     0.017 C 
ATOM      2  C   UNL     1     -22.443  29.921  -1.638  1.00  0.00     0.014 C 
ATOM      3  C   UNL     1     -21.896  27.997  -3.184  1.00  0.00     0.014 C 
ATOM      4  C   UNL     1     -21.261  30.356  -3.844  1.00  0.00     0.030 C 
ATOM      5  C   UNL     1     -22.644  31.433  -1.469  1.00  0.00     0.004 C 
ATOM      6  C   UNL     1     -21.551  27.486  -4.615  1.00  0.00     0.013 C 
ATOM      7  C   UNL     1     -21.133  29.835  -5.277  1.00  0.00    -0.063 C 
ATOM      8  C   UNL     1     -21.408  31.902  -3.655  1.00  0.00    -0.003 C 
ATOM      9  C   UNL     1     -21.509  32.236  -2.136  1.00  0.00    -0.011 C 
ATOM     10  C   UNL     1     -20.582  28.413  -5.437  1.00  0.00    -0.006 C 
ATOM     11  C   UNL     1     -21.960  30.325  -6.212  1.00  0.00    -0.027 C 
ATOM     12  C   UNL     1     -20.209  32.625  -4.304  1.00  0.00     0.008 C 
ATOM     13  C   UNL     1     -21.735  33.736  -1.881  1.00  0.00     0.008 C 
ATOM     14  C   UNL     1     -19.175  28.345  -4.743  1.00  0.00     0.017 C 
ATOM     15  C   UNL     1     -20.466  27.982  -7.010  1.00  0.00    -0.020 C 
ATOM     16  C   UNL     1     -22.673  29.398  -7.132  1.00  0.00     0.032 C 
ATOM     17  C   UNL     1     -21.742  28.407  -7.895  1.00  0.00     0.006 C 
ATOM     18  C   UNL     1     -19.178  28.587  -7.682  1.00  0.00     0.008 C 
ATOM     19  C   UNL     1     -20.328  26.424  -7.064  1.00  0.00     0.012 C 
ATOM     20  C   UNL     1     -21.457  28.891  -9.401  1.00  0.00    -0.025 C 
ATOM     21  C   UNL     1     -19.373  29.995  -8.243  1.00  0.00     0.005 C 
ATOM     22  C   UNL     1     -20.449  30.119  -9.384  1.00  0.00     0.003 C 
ATOM     23  C   UNL     1     -20.912  27.715 -10.283  1.00  0.00     0.010 C 
ATOM     24  C   UNL     1     -22.832  29.282 -10.055  1.00  0.00     0.012 C 
ATOM     25  C   UNL     1     -19.856  30.517 -10.812  1.00  0.00    -0.006 C 
ATOM     26  C   UNL     1     -20.364  28.139 -11.657  1.00  0.00     0.033 C 
ATOM     27  C   UNL     1     -19.315  29.258 -11.555  1.00  0.00     0.120 C 
ATOM     28  C   UNL     1     -18.718  31.578 -10.708  1.00  0.00     0.014 C 
ATOM     29  C   UNL     1     -20.941  31.220 -11.685  1.00  0.00     0.014 C 
ENDROOT
BRANCH   1  30
ATOM     30  C   UNL     1     -23.749  29.623  -3.752  1.00  0.00     0.048 C 
ATOM     31  O   UNL     1     -24.450  28.598  -3.968  1.00  0.00    -0.550 OA
ATOM     32  O   UNL     1     -24.306  30.865  -4.025  1.00  0.00    -0.550 OA
ENDBRANCH   1  30
BRANCH  27  33
ATOM     33  O   UNL     1     -18.179  28.743 -10.905  1.00  0.00    -0.393 OA
ATOM     34  H   UNL     1     -17.677  29.508 -10.524  1.00  0.00     0.210 HD
ENDBRANCH  27  33
TORSDOF 2
ENDMDL
MODEL 8
REMARK VINA RESULT:    -6.941      3.746      6.666
REMARK INTER + INTRA:          -7.274
REMARK INTER:                  -7.545
REMARK INTRA:                   0.270
REMARK UNBOUND:                 0.276
REMARK SMILES C[C@@H]1[C@@H](C)CC[C@]2(C(=O)[O-])CC[C@]3(C)C(=CC[C@H]4[C@]5(C)CC[C@H](O)C(C)(C)[C@@H]5CC[C@]43C)[C@@H]12
REMARK SMILES IDX 7 1 6 2 11 3 33 4 5 5 12 6 15 7 2 8 3 9 13 10 16 11 1 12
REMARK SMILES IDX 4 13 14 14 31 15 17 16 18 17 30 18 32 19 19 20 29 21 28 22
REMARK SMILES IDX 21 23 20 24 25 25 22 26 23 27 26 28 27 29 8 30 9 31 10 32
REMARK SMILES IDX 24 33
REMARK H PARENT 24 34
REMARK Flexibility Score: inf
ROOT
ATOM      1  C   UNL     1     -21.346  29.909  -3.266  1.00  0.00     0.017 C 
ATOM      2  C   UNL     1     -20.932  30.134  -1.791  1.00  0.00     0.014 C 
ATOM      3  C   UNL     1     -22.351  28.708  -3.322  1.00  0.00     0.014 C 
ATOM      4  C   UNL     1     -20.081  29.509  -4.100  1.00  0.00     0.030 C 
ATOM      5  C   UNL     1     -19.767  31.122  -1.649  1.00  0.00     0.004 C 
ATOM      6  C   UNL     1     -22.691  28.219  -4.762  1.00  0.00     0.013 C 
ATOM      7  C   UNL     1     -20.547  29.196  -5.524  1.00  0.00    -0.063 C 
ATOM      8  C   UNL     1     -18.856  30.469  -3.944  1.00  0.00    -0.003 C 
ATOM      9  C   UNL     1     -18.525  30.653  -2.432  1.00  0.00    -0.011 C 
ATOM     10  C   UNL     1     -21.447  27.965  -5.689  1.00  0.00    -0.006 C 
ATOM     11  C   UNL     1     -20.654  30.207  -6.399  1.00  0.00    -0.027 C 
ATOM     12  C   UNL     1     -17.644  29.902  -4.713  1.00  0.00     0.008 C 
ATOM     13  C   UNL     1     -17.377  31.650  -2.202  1.00  0.00     0.008 C 
ATOM     14  C   UNL     1     -20.688  26.716  -5.115  1.00  0.00     0.017 C 
ATOM     15  C   UNL     1     -21.854  27.719  -7.254  1.00  0.00    -0.020 C 
ATOM     16  C   UNL     1     -21.882  30.344  -7.228  1.00  0.00     0.032 C 
ATOM     17  C   UNL     1     -22.257  29.066  -8.038  1.00  0.00     0.006 C 
ATOM     18  C   UNL     1     -20.695  27.013  -8.049  1.00  0.00     0.008 C 
ATOM     19  C   UNL     1     -23.085  26.752  -7.275  1.00  0.00     0.012 C 
ATOM     20  C   UNL     1     -21.802  29.177  -9.577  1.00  0.00    -0.025 C 
ATOM     21  C   UNL     1     -19.664  27.980  -8.632  1.00  0.00     0.005 C 
ATOM     22  C   UNL     1     -20.226  29.008  -9.681  1.00  0.00     0.003 C 
ATOM     23  C   UNL     1     -22.551  28.126 -10.468  1.00  0.00     0.010 C 
ATOM     24  C   UNL     1     -22.271  30.574 -10.123  1.00  0.00     0.012 C 
ATOM     25  C   UNL     1     -19.672  28.811 -11.164  1.00  0.00    -0.006 C 
ATOM     26  C   UNL     1     -21.995  27.977 -11.895  1.00  0.00     0.033 C 
ATOM     27  C   UNL     1     -20.481  27.711 -11.914  1.00  0.00     0.120 C 
ATOM     28  C   UNL     1     -18.157  28.438 -11.188  1.00  0.00     0.014 C 
ATOM     29  C   UNL     1     -19.737  30.150 -11.962  1.00  0.00     0.014 C 
ENDROOT
BRANCH   1  30
ATOM     30  C   UNL     1     -22.043  31.178  -3.777  1.00  0.00     0.048 C 
ATOM     31  O   UNL     1     -23.287  31.189  -3.975  1.00  0.00    -0.550 OA
ATOM     32  O   UNL     1     -21.342  32.362  -3.959  1.00  0.00    -0.550 OA
ENDBRANCH   1  30
BRANCH  27  33
ATOM     33  O   UNL     1     -20.247  26.444 -11.349  1.00  0.00    -0.393 OA
ATOM     34  H   UNL     1     -20.927  26.299 -10.642  1.00  0.00     0.210 HD
ENDBRANCH  27  33
TORSDOF 2
ENDMDL
MODEL 9
REMARK VINA RESULT:    -6.891      3.368      5.993
REMARK INTER + INTRA:          -7.219
REMARK INTER:                  -7.490
REMARK INTRA:                   0.271
REMARK UNBOUND:                 0.276
REMARK SMILES C[C@@H]1[C@@H](C)CC[C@]2(C(=O)[O-])CC[C@]3(C)C(=CC[C@H]4[C@]5(C)CC[C@H](O)C(C)(C)[C@@H]5CC[C@]43C)[C@@H]12
REMARK SMILES IDX 7 1 6 2 11 3 33 4 5 5 12 6 15 7 2 8 3 9 13 10 16 11 1 12
REMARK SMILES IDX 4 13 14 14 31 15 17 16 18 17 30 18 32 19 19 20 29 21 28 22
REMARK SMILES IDX 21 23 20 24 25 25 22 26 23 27 26 28 27 29 8 30 9 31 10 32
REMARK SMILES IDX 24 33
REMARK H PARENT 24 34
REMARK Flexibility Score: inf
ROOT
ATOM      1  C   UNL     1     -19.015  29.280 -10.370  1.00  0.00     0.017 C 
ATOM      2  C   UNL     1     -19.386  28.500 -11.655  1.00  0.00     0.014 C 
ATOM      3  C   UNL     1     -17.463  29.200 -10.170  1.00  0.00     0.014 C 
ATOM      4  C   UNL     1     -19.689  28.589  -9.136  1.00  0.00     0.030 C 
ATOM      5  C   UNL     1     -20.899  28.306 -11.812  1.00  0.00     0.004 C 
ATOM      6  C   UNL     1     -16.959  29.752  -8.803  1.00  0.00     0.013 C 
ATOM      7  C   UNL     1     -19.216  29.324  -7.879  1.00  0.00    -0.063 C 
ATOM      8  C   UNL     1     -21.225  28.334  -9.279  1.00  0.00    -0.003 C 
ATOM      9  C   UNL     1     -21.506  27.564 -10.605  1.00  0.00    -0.011 C 
ATOM     10  C   UNL     1     -17.725  29.206  -7.543  1.00  0.00    -0.006 C 
ATOM     11  C   UNL     1     -19.891  30.414  -7.484  1.00  0.00    -0.027 C 
ATOM     12  C   UNL     1     -21.741  27.542  -8.058  1.00  0.00     0.008 C 
ATOM     13  C   UNL     1     -23.009  27.348 -10.849  1.00  0.00     0.008 C 
ATOM     14  C   UNL     1     -17.367  27.683  -7.406  1.00  0.00     0.017 C 
ATOM     15  C   UNL     1     -17.348  30.009  -6.169  1.00  0.00    -0.020 C 
ATOM     16  C   UNL     1     -19.153  31.656  -7.128  1.00  0.00     0.032 C 
ATOM     17  C   UNL     1     -18.041  31.457  -6.054  1.00  0.00     0.006 C 
ATOM     18  C   UNL     1     -17.732  29.177  -4.890  1.00  0.00     0.008 C 
ATOM     19  C   UNL     1     -15.795  30.203  -6.145  1.00  0.00     0.012 C 
ATOM     20  C   UNL     1     -18.529  31.918  -4.593  1.00  0.00    -0.025 C 
ATOM     21  C   UNL     1     -19.175  29.378  -4.428  1.00  0.00     0.005 C 
ATOM     22  C   UNL     1     -19.546  30.848  -4.008  1.00  0.00     0.003 C 
ATOM     23  C   UNL     1     -17.311  32.138  -3.630  1.00  0.00     0.010 C 
ATOM     24  C   UNL     1     -19.197  33.335  -4.728  1.00  0.00     0.012 C 
ATOM     25  C   UNL     1     -19.889  31.027  -2.459  1.00  0.00    -0.006 C 
ATOM     26  C   UNL     1     -17.686  32.322  -2.149  1.00  0.00     0.033 C 
ATOM     27  C   UNL     1     -18.585  31.192  -1.622  1.00  0.00     0.120 C 
ATOM     28  C   UNL     1     -20.714  29.833  -1.891  1.00  0.00     0.014 C 
ATOM     29  C   UNL     1     -20.818  32.261  -2.238  1.00  0.00     0.014 C 
ENDROOT
BRANCH   1  30
ATOM     30  C   UNL     1     -19.427  30.747 -10.553  1.00  0.00     0.048 C 
ATOM     31  O   UNL     1     -18.555  31.639 -10.728  1.00  0.00    -0.550 OA
ATOM     32  O   UNL     1     -20.763  31.119 -10.609  1.00  0.00    -0.550 OA
ENDBRANCH   1  30
BRANCH  27  33
ATOM     33  O   UNL     1     -17.840  29.999  -1.615  1.00  0.00    -0.393 OA
ATOM     34  H   UNL     1     -17.206  30.036  -2.377  1.00  0.00     0.210 HD
ENDBRANCH  27  33
TORSDOF 2
ENDMDL
